MODEL 1
REMARK minimizedAffinity 18.278616
REMARK minimizedRMSD -1
REMARK  0 active torsions:
REMARK  status: ('A' for Active; 'I' for Inactive)
ROOT
ATOM      1  C   UNL d   1       5.247  -2.025   5.274  0.00  0.00    -0.002 A 
ATOM      2  C1  UNL d   1       4.087  -2.256   6.000  0.00  0.00     0.010 A 
ATOM      3  C2  UNL d   1       2.835  -2.120   5.399  0.00  0.00     0.041 A 
ATOM      4  C3  UNL d   1       2.766  -1.747   4.042  0.00  0.00    -0.075 A 
ATOM      5  S   UNL d   1       1.343  -1.521   3.096  0.00  0.00     0.015 SA
ATOM      6  C4  UNL d   1       2.241  -1.114   1.706  0.00  0.00     0.022 A 
ATOM      7  C5  UNL d   1       3.595  -1.145   1.940  0.00  0.00     0.026 A 
ATOM      8  C6  UNL d   1       3.921  -1.510   3.290  0.00  0.00    -0.082 A 
ATOM      9  C7  UNL d   1       5.176  -1.655   3.928  0.00  0.00     0.045 A 
ENDROOT
TORSDOF 0
ENDMDL
