MODEL 1
REMARK minimizedAffinity 10.2195253
REMARK minimizedRMSD -1
REMARK  0 active torsions:
REMARK  status: ('A' for Active; 'I' for Inactive)
ROOT
ATOM      1  C   UNL d   1      -0.952   0.707  -4.486  0.00  0.00    -0.002 A 
ATOM      2  C1  UNL d   1      -1.139   0.989  -3.140  0.00  0.00     0.010 A 
ATOM      3  C2  UNL d   1      -1.699   2.204  -2.740  0.00  0.00     0.041 A 
ATOM      4  C3  UNL d   1      -2.073   3.139  -3.725  0.00  0.00    -0.075 A 
ATOM      5  S   UNL d   1      -2.778   4.692  -3.471  0.00  0.00     0.015 SA
ATOM      6  C4  UNL d   1      -2.848   5.017  -5.142  0.00  0.00     0.022 A 
ATOM      7  C5  UNL d   1      -2.350   3.977  -5.891  0.00  0.00     0.026 A 
ATOM      8  C6  UNL d   1      -1.895   2.878  -5.087  0.00  0.00    -0.082 A 
ATOM      9  C7  UNL d   1      -1.324   1.637  -5.460  0.00  0.00     0.045 A 
ENDROOT
TORSDOF 0
ENDMDL
