MODEL 1
REMARK minimizedAffinity 14.8682032
REMARK minimizedRMSD -1
REMARK  0 active torsions:
REMARK  status: ('A' for Active; 'I' for Inactive)
ROOT
ATOM      1  C   UNL d   1       1.071   1.512   0.862  0.00  0.00    -0.002 A 
ATOM      2  C1  UNL d   1      -0.149   1.414   0.209  0.00  0.00     0.010 A 
ATOM      3  C2  UNL d   1      -0.644   2.485  -0.537  0.00  0.00     0.041 A 
ATOM      4  C3  UNL d   1       0.117   3.668  -0.617  0.00  0.00    -0.075 A 
ATOM      5  S   UNL d   1      -0.288   5.109  -1.473  0.00  0.00     0.015 SA
ATOM      6  C4  UNL d   1       1.150   5.888  -0.993  0.00  0.00     0.022 A 
ATOM      7  C5  UNL d   1       1.932   5.083  -0.198  0.00  0.00     0.026 A 
ATOM      8  C6  UNL d   1       1.350   3.790   0.031  0.00  0.00    -0.082 A 
ATOM      9  C7  UNL d   1       1.823   2.686   0.780  0.00  0.00     0.045 A 
ENDROOT
TORSDOF 0
ENDMDL
