MODEL 1
REMARK minimizedAffinity -2.79421306
REMARK minimizedRMSD -1
REMARK  0 active torsions:
REMARK  status: ('A' for Active; 'I' for Inactive)
ROOT
ATOM      1  C   UNL d   1      -3.515   1.814   3.383  0.00  0.00     0.124 A 
ATOM      2  C1  UNL d   1      -4.108   0.906   2.516  0.00  0.00     0.062 A 
ATOM      3  C2  UNL d   1      -3.328   0.182   1.620  0.00  0.00     0.162 A 
ATOM      4  C3  UNL d   1      -1.945   0.362   1.585  0.00  0.00    -0.034 A 
ATOM      5  C4  UNL d   1      -1.356   1.277   2.459  0.00  0.00     0.162 A 
ATOM      6  C5  UNL d   1      -2.140   1.998   3.354  0.00  0.00     0.062 A 
ATOM      7  F   UNL d   1      -1.565   2.875   4.190  0.00  0.00    -0.097 F 
ATOM      8  F1  UNL d   1      -0.029   1.475   2.453  0.00  0.00    -0.096 F 
ATOM      9  I   UNL d   1      -0.775  -0.719   0.246  0.00  0.00    -0.060 I 
ATOM     10  F2  UNL d   1      -3.928  -0.689   0.794  0.00  0.00    -0.096 F 
ATOM     11  F3  UNL d   1      -5.437   0.726   2.542  0.00  0.00    -0.097 F 
ATOM     12  F4  UNL d   1      -4.269   2.510   4.244  0.00  0.00    -0.092 F 
ENDROOT
TORSDOF 0
ENDMDL
