MODEL 1
REMARK minimizedAffinity 2.46056843
REMARK minimizedRMSD -1
REMARK  0 active torsions:
REMARK  status: ('A' for Active; 'I' for Inactive)
ROOT
ATOM      1  C   UNL d   1       1.630   0.806  -0.980  0.00  0.00     0.124 A 
ATOM      2  C1  UNL d   1       1.087  -0.237  -1.718  0.00  0.00     0.062 A 
ATOM      3  C2  UNL d   1      -0.053  -0.895  -1.265  0.00  0.00     0.162 A 
ATOM      4  C3  UNL d   1      -0.658  -0.512  -0.067  0.00  0.00    -0.034 A 
ATOM      5  C4  UNL d   1      -0.105   0.537   0.669  0.00  0.00     0.162 A 
ATOM      6  C5  UNL d   1       1.035   1.191   0.212  0.00  0.00     0.062 A 
ATOM      7  F   UNL d   1       1.558   2.199   0.926  0.00  0.00    -0.097 F 
ATOM      8  F1  UNL d   1      -0.661   0.931   1.825  0.00  0.00    -0.096 F 
ATOM      9  I   UNL d   1      -2.362  -1.493   0.613  0.00  0.00    -0.060 I 
ATOM     10  F2  UNL d   1      -0.557  -1.899  -1.998  0.00  0.00    -0.096 F 
ATOM     11  F3  UNL d   1       1.661  -0.612  -2.870  0.00  0.00    -0.097 F 
ATOM     12  F4  UNL d   1       2.728   1.436  -1.418  0.00  0.00    -0.092 F 
ENDROOT
TORSDOF 0
ENDMDL
