MODEL 1
REMARK minimizedAffinity -0.0695945472
REMARK minimizedRMSD -1
REMARK  0 active torsions:
REMARK  status: ('A' for Active; 'I' for Inactive)
ROOT
ATOM      1  C   UNL d   1      -0.631  -1.073   1.574  0.00  0.00     0.124 A 
ATOM      2  C1  UNL d   1      -0.507   0.258   1.202  0.00  0.00     0.062 A 
ATOM      3  C2  UNL d   1       0.073   0.593  -0.018  0.00  0.00     0.162 A 
ATOM      4  C3  UNL d   1       0.533  -0.406  -0.877  0.00  0.00    -0.034 A 
ATOM      5  C4  UNL d   1       0.405  -1.743  -0.495  0.00  0.00     0.162 A 
ATOM      6  C5  UNL d   1      -0.175  -2.072   0.725  0.00  0.00     0.062 A 
ATOM      7  F   UNL d   1      -0.295  -3.359   1.083  0.00  0.00    -0.097 F 
ATOM      8  F1  UNL d   1       0.836  -2.728  -1.296  0.00  0.00    -0.096 F 
ATOM      9  I   UNL d   1       1.400   0.090  -2.702  0.00  0.00    -0.060 I 
ATOM     10  F2  UNL d   1       0.180   1.888  -0.352  0.00  0.00    -0.096 F 
ATOM     11  F3  UNL d   1      -0.946   1.225   2.021  0.00  0.00    -0.097 F 
ATOM     12  F4  UNL d   1      -1.189  -1.392   2.749  0.00  0.00    -0.092 F 
ENDROOT
TORSDOF 0
ENDMDL
