MODEL 1
REMARK minimizedAffinity 0.679617286
REMARK minimizedRMSD -1
REMARK  0 active torsions:
REMARK  status: ('A' for Active; 'I' for Inactive)
ROOT
ATOM      1  C   UNL d   1       1.571  -0.358  -1.232  0.00  0.00     0.124 A 
ATOM      2  C1  UNL d   1       1.352   0.968  -0.884  0.00  0.00     0.062 A 
ATOM      3  C2  UNL d   1       0.418   1.289   0.097  0.00  0.00     0.162 A 
ATOM      4  C3  UNL d   1      -0.304   0.282   0.737  0.00  0.00    -0.034 A 
ATOM      5  C4  UNL d   1      -0.079  -1.049   0.381  0.00  0.00     0.162 A 
ATOM      6  C5  UNL d   1       0.856  -1.365  -0.599  0.00  0.00     0.062 A 
ATOM      7  F   UNL d   1       1.066  -2.646  -0.934  0.00  0.00    -0.097 F 
ATOM      8  F1  UNL d   1      -0.756  -2.042   0.977  0.00  0.00    -0.096 F 
ATOM      9  I   UNL d   1      -1.702   0.758   2.204  0.00  0.00    -0.060 I 
ATOM     10  F2  UNL d   1       0.226   2.578   0.413  0.00  0.00    -0.096 F 
ATOM     11  F3  UNL d   1       2.041   1.942  -1.495  0.00  0.00    -0.097 F 
ATOM     12  F4  UNL d   1       2.470  -0.664  -2.177  0.00  0.00    -0.092 F 
ENDROOT
TORSDOF 0
ENDMDL
