MODEL 1
REMARK minimizedAffinity 6.85681581
REMARK minimizedRMSD -1
REMARK  0 active torsions:
REMARK  status: ('A' for Active; 'I' for Inactive)
ROOT
ATOM      1  C   UNL d   1       1.782  -1.066  -1.010  0.00  0.00     0.124 A 
ATOM      2  C1  UNL d   1       0.751  -1.811  -0.455  0.00  0.00     0.062 A 
ATOM      3  C2  UNL d   1      -0.266  -1.179   0.255  0.00  0.00     0.162 A 
ATOM      4  C3  UNL d   1      -0.257   0.207   0.413  0.00  0.00    -0.034 A 
ATOM      5  C4  UNL d   1       0.784   0.949  -0.147  0.00  0.00     0.162 A 
ATOM      6  C5  UNL d   1       1.798   0.313  -0.855  0.00  0.00     0.062 A 
ATOM      7  F   UNL d   1       2.794   1.034  -1.391  0.00  0.00    -0.097 F 
ATOM      8  F1  UNL d   1       0.823   2.283  -0.014  0.00  0.00    -0.096 F 
ATOM      9  I   UNL d   1      -1.776   1.156   1.473  0.00  0.00    -0.060 I 
ATOM     10  F2  UNL d   1      -1.250  -1.924   0.780  0.00  0.00    -0.096 F 
ATOM     11  F3  UNL d   1       0.734  -3.144  -0.602  0.00  0.00    -0.097 F 
ATOM     12  F4  UNL d   1       2.760  -1.677  -1.691  0.00  0.00    -0.092 F 
ENDROOT
TORSDOF 0
ENDMDL
