MODEL 1
REMARK minimizedAffinity -1.38864553
REMARK minimizedRMSD -1
REMARK  0 active torsions:
REMARK  status: ('A' for Active; 'I' for Inactive)
ROOT
ATOM      1  C   UNL d   1       0.950   0.015  -0.262  0.00  0.00     0.124 A 
ATOM      2  C1  UNL d   1      -0.020  -0.660  -0.989  0.00  0.00     0.062 A 
ATOM      3  C2  UNL d   1      -1.292  -0.845  -0.455  0.00  0.00     0.162 A 
ATOM      4  C3  UNL d   1      -1.602  -0.353   0.813  0.00  0.00    -0.034 A 
ATOM      5  C4  UNL d   1      -0.620   0.324   1.539  0.00  0.00     0.162 A 
ATOM      6  C5  UNL d   1       0.650   0.507   1.001  0.00  0.00     0.062 A 
ATOM      7  F   UNL d   1       1.586   1.159   1.705  0.00  0.00    -0.097 F 
ATOM      8  F1  UNL d   1      -0.884   0.811   2.761  0.00  0.00    -0.096 F 
ATOM      9  I   UNL d   1      -3.503  -0.627   1.614  0.00  0.00    -0.060 I 
ATOM     10  F2  UNL d   1      -2.211  -1.501  -1.180  0.00  0.00    -0.096 F 
ATOM     11  F3  UNL d   1       0.268  -1.136  -2.208  0.00  0.00    -0.097 F 
ATOM     12  F4  UNL d   1       2.174   0.191  -0.777  0.00  0.00    -0.092 F 
ENDROOT
TORSDOF 0
ENDMDL
