MODEL 1
REMARK minimizedAffinity 0.506668329
REMARK minimizedRMSD -1
REMARK  0 active torsions:
REMARK  status: ('A' for Active; 'I' for Inactive)
ROOT
ATOM      1  C   UNL d   1      -2.403   4.133  -5.643  0.00  0.00     0.124 A 
ATOM      2  C1  UNL d   1      -2.110   2.780  -5.749  0.00  0.00     0.062 A 
ATOM      3  C2  UNL d   1      -3.129   1.835  -5.672  0.00  0.00     0.162 A 
ATOM      4  C3  UNL d   1      -4.451   2.239  -5.488  0.00  0.00    -0.034 A 
ATOM      5  C4  UNL d   1      -4.738   3.602  -5.382  0.00  0.00     0.162 A 
ATOM      6  C5  UNL d   1      -3.716   4.542  -5.460  0.00  0.00     0.062 A 
ATOM      7  F   UNL d   1      -4.001   5.849  -5.357  0.00  0.00    -0.097 F 
ATOM      8  F1  UNL d   1      -5.998   4.025  -5.206  0.00  0.00    -0.096 F 
ATOM      9  I   UNL d   1      -5.978   0.830  -5.373  0.00  0.00    -0.060 I 
ATOM     10  F2  UNL d   1      -2.817   0.535  -5.777  0.00  0.00    -0.096 F 
ATOM     11  F3  UNL d   1      -0.842   2.382  -5.925  0.00  0.00    -0.097 F 
ATOM     12  F4  UNL d   1      -1.420   5.040  -5.717  0.00  0.00    -0.092 F 
ENDROOT
TORSDOF 0
ENDMDL
