MODEL 1
REMARK minimizedAffinity -0.0439784192
REMARK minimizedRMSD -1
REMARK  0 active torsions:
REMARK  status: ('A' for Active; 'I' for Inactive)
ROOT
ATOM      1  C   UNL d   1      -0.146   0.158   0.659  0.00  0.00     0.124 A 
ATOM      2  C1  UNL d   1       0.573   1.116  -0.042  0.00  0.00     0.062 A 
ATOM      3  C2  UNL d   1       1.256   0.768  -1.204  0.00  0.00     0.162 A 
ATOM      4  C3  UNL d   1       1.223  -0.545  -1.673  0.00  0.00    -0.034 A 
ATOM      5  C4  UNL d   1       0.499  -1.504  -0.962  0.00  0.00     0.162 A 
ATOM      6  C5  UNL d   1      -0.182  -1.151   0.198  0.00  0.00     0.062 A 
ATOM      7  F   UNL d   1      -0.876  -2.078   0.874  0.00  0.00    -0.097 F 
ATOM      8  F1  UNL d   1       0.446  -2.775  -1.385  0.00  0.00    -0.096 F 
ATOM      9  I   UNL d   1       2.243  -1.069  -3.410  0.00  0.00    -0.060 I 
ATOM     10  F2  UNL d   1       1.943   1.715  -1.861  0.00  0.00    -0.096 F 
ATOM     11  F3  UNL d   1       0.611   2.381   0.401  0.00  0.00    -0.097 F 
ATOM     12  F4  UNL d   1      -0.801   0.495   1.777  0.00  0.00    -0.092 F 
ENDROOT
TORSDOF 0
ENDMDL
