MODEL 1
REMARK minimizedAffinity 7.28534937
REMARK minimizedRMSD -1
REMARK  0 active torsions:
REMARK  status: ('A' for Active; 'I' for Inactive)
ROOT
ATOM      1  C   UNL d   1       1.072  -1.069  -0.614  0.00  0.00     0.124 A 
ATOM      2  C1  UNL d   1       1.936  -0.230  -1.304  0.00  0.00     0.062 A 
ATOM      3  C2  UNL d   1       2.425   0.924  -0.697  0.00  0.00     0.162 A 
ATOM      4  C3  UNL d   1       2.052   1.245   0.608  0.00  0.00    -0.034 A 
ATOM      5  C4  UNL d   1       1.182   0.396   1.295  0.00  0.00     0.162 A 
ATOM      6  C5  UNL d   1       0.696  -0.755   0.684  0.00  0.00     0.062 A 
ATOM      7  F   UNL d   1      -0.139  -1.565   1.352  0.00  0.00    -0.097 F 
ATOM      8  F1  UNL d   1       0.802   0.675   2.551  0.00  0.00    -0.096 F 
ATOM      9  I   UNL d   1       2.781   2.968   1.519  0.00  0.00    -0.060 I 
ATOM     10  F2  UNL d   1       3.259   1.716  -1.388  0.00  0.00    -0.096 F 
ATOM     11  F3  UNL d   1       2.301  -0.530  -2.559  0.00  0.00    -0.097 F 
ATOM     12  F4  UNL d   1       0.603  -2.177  -1.201  0.00  0.00    -0.092 F 
ENDROOT
TORSDOF 0
ENDMDL
