MODEL 1
REMARK minimizedAffinity -3.45662951
REMARK minimizedRMSD -1
REMARK  0 active torsions:
REMARK  status: ('A' for Active; 'I' for Inactive)
ROOT
ATOM      1  C   UNL d   1      -0.256   0.199   1.256  0.00  0.00     0.124 A 
ATOM      2  C1  UNL d   1      -0.349  -0.994   0.552  0.00  0.00     0.062 A 
ATOM      3  C2  UNL d   1       0.238  -1.113  -0.704  0.00  0.00     0.162 A 
ATOM      4  C3  UNL d   1       0.923  -0.036  -1.266  0.00  0.00    -0.034 A 
ATOM      5  C4  UNL d   1       1.011   1.161  -0.553  0.00  0.00     0.162 A 
ATOM      6  C5  UNL d   1       0.423   1.275   0.703  0.00  0.00     0.062 A 
ATOM      7  F   UNL d   1       0.514   2.429   1.381  0.00  0.00    -0.097 F 
ATOM      8  F1  UNL d   1       1.662   2.217  -1.063  0.00  0.00    -0.096 F 
ATOM      9  I   UNL d   1       1.801  -0.209  -3.145  0.00  0.00    -0.060 I 
ATOM     10  F2  UNL d   1       0.133  -2.278  -1.361  0.00  0.00    -0.096 F 
ATOM     11  F3  UNL d   1      -1.005  -2.035   1.084  0.00  0.00    -0.097 F 
ATOM     12  F4  UNL d   1      -0.822   0.311   2.464  0.00  0.00    -0.092 F 
ENDROOT
TORSDOF 0
ENDMDL
