MODEL 1
REMARK minimizedAffinity 2.57765889
REMARK minimizedRMSD -1
REMARK  0 active torsions:
REMARK  status: ('A' for Active; 'I' for Inactive)
ROOT
ATOM      1  C   UNL d   1       1.090   1.611   0.550  0.00  0.00     0.124 A 
ATOM      2  C1  UNL d   1       0.058   0.776   0.956  0.00  0.00     0.062 A 
ATOM      3  C2  UNL d   1      -0.252  -0.363   0.219  0.00  0.00     0.162 A 
ATOM      4  C3  UNL d   1       0.472  -0.675  -0.932  0.00  0.00    -0.034 A 
ATOM      5  C4  UNL d   1       1.508   0.170  -1.335  0.00  0.00     0.162 A 
ATOM      6  C5  UNL d   1       1.814   1.307  -0.594  0.00  0.00     0.062 A 
ATOM      7  F   UNL d   1       2.811   2.112  -0.988  0.00  0.00    -0.097 F 
ATOM      8  F1  UNL d   1       2.224  -0.101  -2.436  0.00  0.00    -0.096 F 
ATOM      9  I   UNL d   1       0.011  -2.377  -2.037  0.00  0.00    -0.060 I 
ATOM     10  F2  UNL d   1      -1.254  -1.152   0.634  0.00  0.00    -0.096 F 
ATOM     11  F3  UNL d   1      -0.643   1.068   2.061  0.00  0.00    -0.097 F 
ATOM     12  F4  UNL d   1       1.386   2.706   1.261  0.00  0.00    -0.092 F 
ENDROOT
TORSDOF 0
ENDMDL
