MODEL 1
REMARK minimizedAffinity -1.44003415
REMARK minimizedRMSD -1
REMARK  0 active torsions:
REMARK  status: ('A' for Active; 'I' for Inactive)
ROOT
ATOM      1  C   UNL d   1       1.250  -0.337  -1.134  0.00  0.00     0.124 A 
ATOM      2  C1  UNL d   1       1.232   0.994  -0.742  0.00  0.00     0.062 A 
ATOM      3  C2  UNL d   1       0.496   1.385   0.373  0.00  0.00     0.162 A 
ATOM      4  C3  UNL d   1      -0.227   0.443   1.105  0.00  0.00    -0.034 A 
ATOM      5  C4  UNL d   1      -0.205  -0.894   0.703  0.00  0.00     0.162 A 
ATOM      6  C5  UNL d   1       0.532  -1.279  -0.412  0.00  0.00     0.062 A 
ATOM      7  F   UNL d   1       0.548  -2.566  -0.790  0.00  0.00    -0.097 F 
ATOM      8  F1  UNL d   1      -0.889  -1.825   1.384  0.00  0.00    -0.096 F 
ATOM      9  I   UNL d   1      -1.329   1.024   2.772  0.00  0.00    -0.060 I 
ATOM     10  F2  UNL d   1       0.497   2.678   0.730  0.00  0.00    -0.096 F 
ATOM     11  F3  UNL d   1       1.924   1.907  -1.439  0.00  0.00    -0.097 F 
ATOM     12  F4  UNL d   1       1.958  -0.710  -2.208  0.00  0.00    -0.092 F 
ENDROOT
TORSDOF 0
ENDMDL
