MODEL 1
REMARK minimizedAffinity -3.42460322
REMARK minimizedRMSD -1
REMARK  0 active torsions:
REMARK  status: ('A' for Active; 'I' for Inactive)
ROOT
ATOM      1  C   UNL d   1       0.916  -0.371  -2.071  0.00  0.00     0.124 A 
ATOM      2  C1  UNL d   1       0.215  -1.263  -1.272  0.00  0.00     0.062 A 
ATOM      3  C2  UNL d   1      -0.438  -0.814  -0.128  0.00  0.00     0.162 A 
ATOM      4  C3  UNL d   1      -0.394   0.535   0.224  0.00  0.00    -0.034 A 
ATOM      5  C4  UNL d   1       0.314   1.426  -0.584  0.00  0.00     0.162 A 
ATOM      6  C5  UNL d   1       0.965   0.973  -1.727  0.00  0.00     0.062 A 
ATOM      7  F   UNL d   1       1.642   1.836  -2.498  0.00  0.00    -0.097 F 
ATOM      8  F1  UNL d   1       0.377   2.730  -0.276  0.00  0.00    -0.096 F 
ATOM      9  I   UNL d   1      -1.369   1.211   1.934  0.00  0.00    -0.060 I 
ATOM     10  F2  UNL d   1      -1.108  -1.698   0.626  0.00  0.00    -0.096 F 
ATOM     11  F3  UNL d   1       0.167  -2.562  -1.602  0.00  0.00    -0.097 F 
ATOM     12  F4  UNL d   1       1.544  -0.806  -3.171  0.00  0.00    -0.092 F 
ENDROOT
TORSDOF 0
ENDMDL
