MODEL 1
REMARK minimizedAffinity 3.71778512
REMARK minimizedRMSD -1
REMARK  0 active torsions:
REMARK  status: ('A' for Active; 'I' for Inactive)
ROOT
ATOM      1  C   UNL d   1       1.438  -0.029  -1.177  0.00  0.00     0.124 A 
ATOM      2  C1  UNL d   1       0.704  -1.025  -0.549  0.00  0.00     0.062 A 
ATOM      3  C2  UNL d   1      -0.195  -0.701   0.463  0.00  0.00     0.162 A 
ATOM      4  C3  UNL d   1      -0.366   0.628   0.853  0.00  0.00    -0.034 A 
ATOM      5  C4  UNL d   1       0.377   1.625   0.217  0.00  0.00     0.162 A 
ATOM      6  C5  UNL d   1       1.274   1.295  -0.793  0.00  0.00     0.062 A 
ATOM      7  F   UNL d   1       1.983   2.259  -1.399  0.00  0.00    -0.097 F 
ATOM      8  F1  UNL d   1       0.237   2.912   0.567  0.00  0.00    -0.096 F 
ATOM      9  I   UNL d   1      -1.710   1.118   2.365  0.00  0.00    -0.060 I 
ATOM     10  F2  UNL d   1      -0.892  -1.684   1.052  0.00  0.00    -0.096 F 
ATOM     11  F3  UNL d   1       0.861  -2.305  -0.917  0.00  0.00    -0.097 F 
ATOM     12  F4  UNL d   1       2.303  -0.344  -2.149  0.00  0.00    -0.092 F 
ENDROOT
TORSDOF 0
ENDMDL
