MODEL 1
REMARK minimizedAffinity 3.10545182
REMARK minimizedRMSD -1
REMARK  0 active torsions:
REMARK  status: ('A' for Active; 'I' for Inactive)
ROOT
ATOM      1  C   UNL d   1       1.093  -0.777  -0.957  0.00  0.00     0.124 A 
ATOM      2  C1  UNL d   1       0.309  -1.637  -0.200  0.00  0.00     0.062 A 
ATOM      3  C2  UNL d   1      -0.541  -1.131   0.779  0.00  0.00     0.162 A 
ATOM      4  C3  UNL d   1      -0.613   0.244   1.006  0.00  0.00    -0.034 A 
ATOM      5  C4  UNL d   1       0.179   1.102   0.241  0.00  0.00     0.162 A 
ATOM      6  C5  UNL d   1       1.027   0.591  -0.736  0.00  0.00     0.062 A 
ATOM      7  F   UNL d   1       1.784   1.423  -1.466  0.00  0.00    -0.097 F 
ATOM      8  F1  UNL d   1       0.135   2.429   0.434  0.00  0.00    -0.096 F 
ATOM      9  I   UNL d   1      -1.883   1.005   2.469  0.00  0.00    -0.060 I 
ATOM     10  F2  UNL d   1      -1.287  -1.985   1.495  0.00  0.00    -0.096 F 
ATOM     11  F3  UNL d   1       0.371  -2.960  -0.411  0.00  0.00    -0.097 F 
ATOM     12  F4  UNL d   1       1.910  -1.268  -1.897  0.00  0.00    -0.092 F 
ENDROOT
TORSDOF 0
ENDMDL
