MODEL 1
REMARK minimizedAffinity -3.11390448
REMARK minimizedRMSD -1
REMARK  0 active torsions:
REMARK  status: ('A' for Active; 'I' for Inactive)
ROOT
ATOM      1  C   UNL d   1       1.474  -0.250  -2.077  0.00  0.00     0.124 A 
ATOM      2  C1  UNL d   1       0.737  -1.305  -1.554  0.00  0.00     0.062 A 
ATOM      3  C2  UNL d   1      -0.024  -1.124  -0.403  0.00  0.00     0.162 A 
ATOM      4  C3  UNL d   1      -0.055   0.117   0.233  0.00  0.00    -0.034 A 
ATOM      5  C4  UNL d   1       0.689   1.172  -0.298  0.00  0.00     0.162 A 
ATOM      6  C5  UNL d   1       1.449   0.987  -1.448  0.00  0.00     0.062 A 
ATOM      7  F   UNL d   1       2.160   2.007  -1.951  0.00  0.00    -0.097 F 
ATOM      8  F1  UNL d   1       0.683   2.378   0.289  0.00  0.00    -0.096 F 
ATOM      9  I   UNL d   1      -1.192   0.391   1.954  0.00  0.00    -0.060 I 
ATOM     10  F2  UNL d   1      -0.726  -2.160   0.079  0.00  0.00    -0.096 F 
ATOM     11  F3  UNL d   1       0.760  -2.501  -2.159  0.00  0.00    -0.097 F 
ATOM     12  F4  UNL d   1       2.207  -0.427  -3.183  0.00  0.00    -0.092 F 
ENDROOT
TORSDOF 0
ENDMDL
