MODEL 1
REMARK minimizedAffinity -4.64610481
REMARK minimizedRMSD -1
REMARK  0 active torsions:
REMARK  status: ('A' for Active; 'I' for Inactive)
ROOT
ATOM      1  C   UNL d   1       1.630  -1.407  -2.063  0.00  0.00     0.124 A 
ATOM      2  C1  UNL d   1       1.145  -2.355  -1.173  0.00  0.00     0.062 A 
ATOM      3  C2  UNL d   1       0.337  -1.968  -0.108  0.00  0.00     0.162 A 
ATOM      4  C3  UNL d   1       0.008  -0.624   0.073  0.00  0.00    -0.034 A 
ATOM      5  C4  UNL d   1       0.500   0.324  -0.825  0.00  0.00     0.162 A 
ATOM      6  C5  UNL d   1       1.307  -0.068  -1.888  0.00  0.00     0.062 A 
ATOM      7  F   UNL d   1       1.775   0.850  -2.746  0.00  0.00    -0.097 F 
ATOM      8  F1  UNL d   1       0.203   1.624  -0.680  0.00  0.00    -0.096 F 
ATOM      9  I   UNL d   1      -1.200  -0.041   1.664  0.00  0.00    -0.060 I 
ATOM     10  F2  UNL d   1      -0.118  -2.906   0.736  0.00  0.00    -0.096 F 
ATOM     11  F3  UNL d   1       1.456  -3.649  -1.339  0.00  0.00    -0.097 F 
ATOM     12  F4  UNL d   1       2.408  -1.782  -3.086  0.00  0.00    -0.092 F 
ENDROOT
TORSDOF 0
ENDMDL
