MODEL 1
REMARK minimizedAffinity -2.17403746
REMARK minimizedRMSD -1
REMARK  0 active torsions:
REMARK  status: ('A' for Active; 'I' for Inactive)
ROOT
ATOM      1  C   UNL d   1      -0.832   0.811   1.282  0.00  0.00     0.124 A 
ATOM      2  C1  UNL d   1      -1.495   0.127   0.272  0.00  0.00     0.062 A 
ATOM      3  C2  UNL d   1      -0.825  -0.212  -0.900  0.00  0.00     0.162 A 
ATOM      4  C3  UNL d   1       0.517   0.131  -1.068  0.00  0.00    -0.034 A 
ATOM      5  C4  UNL d   1       1.176   0.820  -0.049  0.00  0.00     0.162 A 
ATOM      6  C5  UNL d   1       0.502   1.157   1.121  0.00  0.00     0.062 A 
ATOM      7  F   UNL d   1       1.144   1.818   2.095  0.00  0.00    -0.097 F 
ATOM      8  F1  UNL d   1       2.466   1.165  -0.177  0.00  0.00    -0.096 F 
ATOM      9  I   UNL d   1       1.522  -0.374  -2.819  0.00  0.00    -0.060 I 
ATOM     10  F2  UNL d   1      -1.490  -0.873  -1.859  0.00  0.00    -0.096 F 
ATOM     11  F3  UNL d   1      -2.784  -0.207   0.425  0.00  0.00    -0.097 F 
ATOM     12  F4  UNL d   1      -1.480   1.137   2.408  0.00  0.00    -0.092 F 
ENDROOT
TORSDOF 0
ENDMDL
