MODEL 1
REMARK minimizedAffinity 6.90729094
REMARK minimizedRMSD -1
REMARK  0 active torsions:
REMARK  status: ('A' for Active; 'I' for Inactive)
ROOT
ATOM      1  C   UNL d   1      -1.334  -2.022  -0.460  0.00  0.00     0.020 A 
ATOM      2  C1  UNL d   1      -2.479  -2.487   0.186  0.00  0.00     0.020 A 
ATOM      3  C2  UNL d   1      -3.537  -3.011  -0.560  0.00  0.00     0.034 A 
ATOM      4  C3  UNL d   1      -3.452  -3.071  -1.956  0.00  0.00     0.017 A 
ATOM      5  C4  UNL d   1      -2.303  -2.604  -2.603  0.00  0.00     0.017 A 
ATOM      6  C5  UNL d   1      -1.246  -2.081  -1.851  0.00  0.00     0.034 A 
ATOM      7 Cl   UNL d   1      -2.125  -2.646  -4.322  0.00  0.00    -0.070 Cl
ATOM      8 Cl1  UNL d   1      -4.798  -3.732  -2.814  0.00  0.00    -0.070 Cl
ENDROOT
TORSDOF 0
ENDMDL
