MODEL 1
REMARK minimizedAffinity 6.16568232
REMARK minimizedRMSD -1
REMARK  0 active torsions:
REMARK  status: ('A' for Active; 'I' for Inactive)
ROOT
ATOM      1  C   UNL d   1       5.917  -0.291   1.738  0.00  0.00     0.020 A 
ATOM      2  C1  UNL d   1       4.683  -0.936   1.676  0.00  0.00     0.020 A 
ATOM      3  C2  UNL d   1       3.530  -0.211   1.367  0.00  0.00     0.034 A 
ATOM      4  C3  UNL d   1       3.609   1.164   1.117  0.00  0.00     0.017 A 
ATOM      5  C4  UNL d   1       4.849   1.811   1.179  0.00  0.00     0.017 A 
ATOM      6  C5  UNL d   1       6.000   1.080   1.490  0.00  0.00     0.034 A 
ATOM      7 Cl   UNL d   1       5.026   3.504   0.884  0.00  0.00    -0.070 Cl
ATOM      8 Cl1  UNL d   1       2.144   1.997   0.740  0.00  0.00    -0.070 Cl
ENDROOT
TORSDOF 0
ENDMDL
