MODEL 1
REMARK minimizedAffinity 2.92024755
REMARK minimizedRMSD -1
REMARK  0 active torsions:
REMARK  status: ('A' for Active; 'I' for Inactive)
ROOT
ATOM      1  C   UNL d   1       2.256   0.225   0.941  0.00  0.00     0.020 A 
ATOM      2  C1  UNL d   1       2.255   1.498   0.373  0.00  0.00     0.020 A 
ATOM      3  C2  UNL d   1       3.421   2.266   0.380  0.00  0.00     0.034 A 
ATOM      4  C3  UNL d   1       4.593   1.762   0.955  0.00  0.00     0.017 A 
ATOM      5  C4  UNL d   1       4.593   0.483   1.525  0.00  0.00     0.017 A 
ATOM      6  C5  UNL d   1       3.422  -0.282   1.515  0.00  0.00     0.034 A 
ATOM      7 Cl   UNL d   1       6.000  -0.207   2.253  0.00  0.00    -0.070 Cl
ATOM      8 Cl1  UNL d   1       5.999   2.766   0.928  0.00  0.00    -0.070 Cl
ENDROOT
TORSDOF 0
ENDMDL
