MODEL 1
REMARK minimizedAffinity 17.8280449
REMARK minimizedRMSD -1
REMARK  0 active torsions:
REMARK  status: ('A' for Active; 'I' for Inactive)
ROOT
ATOM      1  C   UNL d   1       1.934   5.989  -4.846  0.00  0.00     0.020 A 
ATOM      2  C1  UNL d   1       1.857   5.184  -5.983  0.00  0.00     0.020 A 
ATOM      3  C2  UNL d   1       2.463   3.926  -5.990  0.00  0.00     0.034 A 
ATOM      4  C3  UNL d   1       3.148   3.468  -4.858  0.00  0.00     0.017 A 
ATOM      5  C4  UNL d   1       3.224   4.276  -3.718  0.00  0.00     0.017 A 
ATOM      6  C5  UNL d   1       2.616   5.535  -3.716  0.00  0.00     0.034 A 
ATOM      7 Cl   UNL d   1       4.052   3.780  -2.284  0.00  0.00    -0.070 Cl
ATOM      8 Cl1  UNL d   1       3.873   1.902  -4.937  0.00  0.00    -0.070 Cl
ENDROOT
TORSDOF 0
ENDMDL
