MODEL 1
REMARK minimizedAffinity 5.89835405
REMARK minimizedRMSD -1
REMARK  0 active torsions:
REMARK  status: ('A' for Active; 'I' for Inactive)
ROOT
ATOM      1  C   UNL d   1       4.791   2.864  -3.545  0.00  0.00     0.020 A 
ATOM      2  C1  UNL d   1       3.463   2.596  -3.213  0.00  0.00     0.020 A 
ATOM      3  C2  UNL d   1       2.438   3.382  -3.743  0.00  0.00     0.034 A 
ATOM      4  C3  UNL d   1       2.739   4.441  -4.607  0.00  0.00     0.017 A 
ATOM      5  C4  UNL d   1       4.072   4.710  -4.940  0.00  0.00     0.017 A 
ATOM      6  C5  UNL d   1       5.094   3.919  -4.407  0.00  0.00     0.034 A 
ATOM      7 Cl   UNL d   1       4.520   5.999  -6.000  0.00  0.00    -0.070 Cl
ATOM      8 Cl1  UNL d   1       1.421   5.373  -5.226  0.00  0.00    -0.070 Cl
ENDROOT
TORSDOF 0
ENDMDL
