MODEL 1
REMARK minimizedAffinity 10.8774166
REMARK minimizedRMSD -1
REMARK  0 active torsions:
REMARK  status: ('A' for Active; 'I' for Inactive)
ROOT
ATOM      1  C   UNL d   1       1.780   1.202   1.647  0.00  0.00     0.020 A 
ATOM      2  C1  UNL d   1       1.658   2.301   0.799  0.00  0.00     0.020 A 
ATOM      3  C2  UNL d   1       2.523   2.444  -0.289  0.00  0.00     0.034 A 
ATOM      4  C3  UNL d   1       3.513   1.485  -0.531  0.00  0.00     0.017 A 
ATOM      5  C4  UNL d   1       3.635   0.381   0.321  0.00  0.00     0.017 A 
ATOM      6  C5  UNL d   1       2.766   0.243   1.409  0.00  0.00     0.034 A 
ATOM      7 Cl   UNL d   1       4.832  -0.843   0.087  0.00  0.00    -0.070 Cl
ATOM      8 Cl1  UNL d   1       4.548   1.724  -1.894  0.00  0.00    -0.070 Cl
ENDROOT
TORSDOF 0
ENDMDL
