MODEL 1
REMARK minimizedAffinity 7.16276979
REMARK minimizedRMSD -1
REMARK  0 active torsions:
REMARK  status: ('A' for Active; 'I' for Inactive)
ROOT
ATOM      1  C   UNL d   1       1.250   0.999   2.796  0.00  0.00     0.020 A 
ATOM      2  C1  UNL d   1       0.840   1.755   1.699  0.00  0.00     0.020 A 
ATOM      3  C2  UNL d   1       1.656   1.847   0.570  0.00  0.00     0.034 A 
ATOM      4  C3  UNL d   1       2.887   1.182   0.536  0.00  0.00     0.017 A 
ATOM      5  C4  UNL d   1       3.299   0.424   1.637  0.00  0.00     0.017 A 
ATOM      6  C5  UNL d   1       2.477   0.335   2.765  0.00  0.00     0.034 A 
ATOM      7 Cl   UNL d   1       4.804  -0.425   1.669  0.00  0.00    -0.070 Cl
ATOM      8 Cl1  UNL d   1       3.846   1.340  -0.893  0.00  0.00    -0.070 Cl
ENDROOT
TORSDOF 0
ENDMDL
