MODEL 1
REMARK minimizedAffinity 12.6755247
REMARK minimizedRMSD -1
REMARK  0 active torsions:
REMARK  status: ('A' for Active; 'I' for Inactive)
ROOT
ATOM      1  C   UNL d   1       1.545   4.073  -5.984  0.00  0.00     0.020 A 
ATOM      2  C1  UNL d   1       1.751   5.451  -5.943  0.00  0.00     0.020 A 
ATOM      3  C2  UNL d   1       2.615   6.000  -4.992  0.00  0.00     0.034 A 
ATOM      4  C3  UNL d   1       3.275   5.169  -4.079  0.00  0.00     0.017 A 
ATOM      5  C4  UNL d   1       3.067   3.786  -4.121  0.00  0.00     0.017 A 
ATOM      6  C5  UNL d   1       2.201   3.242  -5.075  0.00  0.00     0.034 A 
ATOM      7 Cl   UNL d   1       3.846   2.698  -3.027  0.00  0.00    -0.070 Cl
ATOM      8 Cl1  UNL d   1       4.329   5.916  -2.931  0.00  0.00    -0.070 Cl
ENDROOT
TORSDOF 0
ENDMDL
