MODEL 1
REMARK minimizedAffinity 16.5731926
REMARK minimizedRMSD -1
REMARK  0 active torsions:
REMARK  status: ('A' for Active; 'I' for Inactive)
ROOT
ATOM      1  C   UNL d   1      -1.860  -1.386  -2.327  0.00  0.00     0.020 A 
ATOM      2  C1  UNL d   1      -1.820  -2.620  -1.680  0.00  0.00     0.020 A 
ATOM      3  C2  UNL d   1      -1.379  -3.754  -2.366  0.00  0.00     0.034 A 
ATOM      4  C3  UNL d   1      -0.977  -3.656  -3.703  0.00  0.00     0.017 A 
ATOM      5  C4  UNL d   1      -1.017  -2.416  -4.352  0.00  0.00     0.017 A 
ATOM      6  C5  UNL d   1      -1.459  -1.284  -3.660  0.00  0.00     0.034 A 
ATOM      7 Cl   UNL d   1      -0.537  -2.217  -6.000  0.00  0.00    -0.070 Cl
ATOM      8 Cl1  UNL d   1      -0.443  -5.099  -4.489  0.00  0.00    -0.070 Cl
ENDROOT
TORSDOF 0
ENDMDL
