MODEL 1
REMARK minimizedAffinity 15.3419209
REMARK minimizedRMSD -1
REMARK  0 active torsions:
REMARK  status: ('A' for Active; 'I' for Inactive)
ROOT
ATOM      1  C   UNL d   1      -5.274  -0.375   6.000  0.00  0.00     0.020 A 
ATOM      2  C1  UNL d   1      -5.262  -1.667   5.475  0.00  0.00     0.020 A 
ATOM      3  C2  UNL d   1      -4.707  -1.904   4.216  0.00  0.00     0.034 A 
ATOM      4  C3  UNL d   1      -4.161  -0.848   3.477  0.00  0.00     0.017 A 
ATOM      5  C4  UNL d   1      -4.172   0.448   4.005  0.00  0.00     0.017 A 
ATOM      6  C5  UNL d   1      -4.729   0.680   5.266  0.00  0.00     0.034 A 
ATOM      7 Cl   UNL d   1      -3.517   1.802   3.153  0.00  0.00    -0.070 Cl
ATOM      8 Cl1  UNL d   1      -3.490  -1.214   1.927  0.00  0.00    -0.070 Cl
ENDROOT
TORSDOF 0
ENDMDL
