MODEL 1
REMARK minimizedAffinity -2.82414627
REMARK minimizedRMSD -1
REMARK  0 active torsions:
REMARK  status: ('A' for Active; 'I' for Inactive)
ROOT
ATOM      1  C   UNL d   1       4.027   2.595  -3.281  0.00  0.00     0.020 A 
ATOM      2  C1  UNL d   1       5.416   2.701  -3.356  0.00  0.00     0.020 A 
ATOM      3  C2  UNL d   1       5.999   3.646  -4.202  0.00  0.00     0.034 A 
ATOM      4  C3  UNL d   1       5.194   4.490  -4.976  0.00  0.00     0.017 A 
ATOM      5  C4  UNL d   1       3.801   4.383  -4.900  0.00  0.00     0.017 A 
ATOM      6  C5  UNL d   1       3.222   3.434  -4.051  0.00  0.00     0.034 A 
ATOM      7 Cl   UNL d   1       2.742   5.388  -5.825  0.00  0.00    -0.070 Cl
ATOM      8 Cl1  UNL d   1       5.983   5.636  -6.000  0.00  0.00    -0.070 Cl
ENDROOT
TORSDOF 0
ENDMDL
