MODEL 1
REMARK minimizedAffinity 8.74883556
REMARK minimizedRMSD -1
REMARK  0 active torsions:
REMARK  status: ('A' for Active; 'I' for Inactive)
ROOT
ATOM      1  C   UNL d   1       2.030   5.631  -5.553  0.00  0.00     0.020 A 
ATOM      2  C1  UNL d   1       1.494   4.884  -4.504  0.00  0.00     0.020 A 
ATOM      3  C2  UNL d   1       2.256   3.881  -3.901  0.00  0.00     0.034 A 
ATOM      4  C3  UNL d   1       3.558   3.623  -4.345  0.00  0.00     0.017 A 
ATOM      5  C4  UNL d   1       4.095   4.373  -5.397  0.00  0.00     0.017 A 
ATOM      6  C5  UNL d   1       3.327   5.376  -5.998  0.00  0.00     0.034 A 
ATOM      7 Cl   UNL d   1       5.693   4.113  -6.000  0.00  0.00    -0.070 Cl
ATOM      8 Cl1  UNL d   1       4.443   2.368  -3.553  0.00  0.00    -0.070 Cl
ENDROOT
TORSDOF 0
ENDMDL
