MODEL 1
REMARK minimizedAffinity 13.2374735
REMARK minimizedRMSD -1
REMARK  0 active torsions:
REMARK  status: ('A' for Active; 'I' for Inactive)
ROOT
ATOM      1  C   UNL d   1      -1.953  -5.571   1.812  0.00  0.00     0.020 A 
ATOM      2  C1  UNL d   1      -1.269  -5.256   2.986  0.00  0.00     0.020 A 
ATOM      3  C2  UNL d   1      -0.870  -3.940   3.230  0.00  0.00     0.034 A 
ATOM      4  C3  UNL d   1      -1.153  -2.934   2.298  0.00  0.00     0.017 A 
ATOM      5  C4  UNL d   1      -1.839  -3.252   1.120  0.00  0.00     0.017 A 
ATOM      6  C5  UNL d   1      -2.237  -4.571   0.881  0.00  0.00     0.034 A 
ATOM      7 Cl   UNL d   1      -2.224  -2.065  -0.076  0.00  0.00    -0.070 Cl
ATOM      8 Cl1  UNL d   1      -0.629  -1.329   2.665  0.00  0.00    -0.070 Cl
ENDROOT
TORSDOF 0
ENDMDL
