MODEL 1
REMARK minimizedAffinity 6.96221113
REMARK minimizedRMSD -1
REMARK  0 active torsions:
REMARK  status: ('A' for Active; 'I' for Inactive)
ROOT
ATOM      1  C   UNL d   1       2.743   1.777  -2.445  0.00  0.00     0.020 A 
ATOM      2  C1  UNL d   1       1.466   2.271  -2.182  0.00  0.00     0.020 A 
ATOM      3  C2  UNL d   1       0.903   2.110  -0.915  0.00  0.00     0.034 A 
ATOM      4  C3  UNL d   1       1.616   1.454   0.095  0.00  0.00     0.017 A 
ATOM      5  C4  UNL d   1       2.898   0.958  -0.170  0.00  0.00     0.017 A 
ATOM      6  C5  UNL d   1       3.457   1.122  -1.441  0.00  0.00     0.034 A 
ATOM      7 Cl   UNL d   1       3.839   0.137   1.024  0.00  0.00    -0.070 Cl
ATOM      8 Cl1  UNL d   1       0.858   1.291   1.639  0.00  0.00    -0.070 Cl
ENDROOT
TORSDOF 0
ENDMDL
