MODEL 1
REMARK minimizedAffinity 7.22703457
REMARK minimizedRMSD -1
REMARK  0 active torsions:
REMARK  status: ('A' for Active; 'I' for Inactive)
ROOT
ATOM      1  C   UNL d   1       1.190   1.149   2.247  0.00  0.00     0.020 A 
ATOM      2  C1  UNL d   1       1.073   2.377   1.598  0.00  0.00     0.020 A 
ATOM      3  C2  UNL d   1       1.854   2.651   0.473  0.00  0.00     0.034 A 
ATOM      4  C3  UNL d   1       2.756   1.694  -0.006  0.00  0.00     0.017 A 
ATOM      5  C4  UNL d   1       2.873   0.461   0.645  0.00  0.00     0.017 A 
ATOM      6  C5  UNL d   1       2.088   0.193   1.771  0.00  0.00     0.034 A 
ATOM      7 Cl   UNL d   1       3.964  -0.769   0.112  0.00  0.00    -0.070 Cl
ATOM      8 Cl1  UNL d   1       3.690   2.099  -1.403  0.00  0.00    -0.070 Cl
ENDROOT
TORSDOF 0
ENDMDL
