MODEL 1
REMARK minimizedAffinity 1.39161193
REMARK minimizedRMSD -1
REMARK  0 active torsions:
REMARK  status: ('A' for Active; 'I' for Inactive)
ROOT
ATOM      1  C   UNL d   1       5.433   1.540  -3.753  0.00  0.00     0.020 A 
ATOM      2  C1  UNL d   1       4.054   1.335  -3.752  0.00  0.00     0.020 A 
ATOM      3  C2  UNL d   1       3.219   2.208  -4.452  0.00  0.00     0.034 A 
ATOM      4  C3  UNL d   1       3.761   3.290  -5.155  0.00  0.00     0.017 A 
ATOM      5  C4  UNL d   1       5.146   3.494  -5.155  0.00  0.00     0.017 A 
ATOM      6  C5  UNL d   1       5.978   2.617  -4.453  0.00  0.00     0.034 A 
ATOM      7 Cl   UNL d   1       5.889   4.806  -6.000  0.00  0.00    -0.070 Cl
ATOM      8 Cl1  UNL d   1       2.669   4.329  -5.999  0.00  0.00    -0.070 Cl
ENDROOT
TORSDOF 0
ENDMDL
