MODEL 1
REMARK minimizedAffinity 2.59658027
REMARK minimizedRMSD -1
REMARK  0 active torsions:
REMARK  status: ('A' for Active; 'I' for Inactive)
ROOT
ATOM      1  C   UNL d   1       5.993   1.818  -3.263  0.00  0.00     0.020 A 
ATOM      2  C1  UNL d   1       5.993   1.834  -4.657  0.00  0.00     0.020 A 
ATOM      3  C2  UNL d   1       5.995   3.052  -5.341  0.00  0.00     0.034 A 
ATOM      4  C3  UNL d   1       5.997   4.258  -4.631  0.00  0.00     0.017 A 
ATOM      5  C4  UNL d   1       5.997   4.240  -3.231  0.00  0.00     0.017 A 
ATOM      6  C5  UNL d   1       5.995   3.018  -2.552  0.00  0.00     0.034 A 
ATOM      7 Cl   UNL d   1       5.999   5.687  -2.286  0.00  0.00    -0.070 Cl
ATOM      8 Cl1  UNL d   1       6.000   5.726  -5.541  0.00  0.00    -0.070 Cl
ENDROOT
TORSDOF 0
ENDMDL
