MODEL 1
REMARK minimizedAffinity 6.37354517
REMARK minimizedRMSD -1
REMARK  0 active torsions:
REMARK  status: ('A' for Active; 'I' for Inactive)
ROOT
ATOM      1  C   UNL d   1       4.111   1.682  -2.978  0.00  0.00     0.020 A 
ATOM      2  C1  UNL d   1       5.476   1.969  -2.982  0.00  0.00     0.020 A 
ATOM      3  C2  UNL d   1       6.000   2.858  -3.922  0.00  0.00     0.034 A 
ATOM      4  C3  UNL d   1       5.159   3.463  -4.863  0.00  0.00     0.017 A 
ATOM      5  C4  UNL d   1       3.790   3.175  -4.859  0.00  0.00     0.017 A 
ATOM      6  C5  UNL d   1       3.270   2.284  -3.915  0.00  0.00     0.034 A 
ATOM      7 Cl   UNL d   1       2.690   3.883  -5.989  0.00  0.00    -0.070 Cl
ATOM      8 Cl1  UNL d   1       5.876   4.553  -5.997  0.00  0.00    -0.070 Cl
ENDROOT
TORSDOF 0
ENDMDL
