MODEL 1
REMARK minimizedAffinity -3.01893044
REMARK minimizedRMSD -1
REMARK  0 active torsions:
REMARK  status: ('A' for Active; 'I' for Inactive)
ROOT
ATOM      1  C   UNL d   1      -0.763   0.075   1.496  0.00  0.00     0.078 C 
ATOM      2  C1  UNL d   1       0.092  -0.975   0.851  0.00  0.00    -0.077 A 
ATOM      3  C2  UNL d   1      -0.424  -2.242   0.553  0.00  0.00    -0.001 A 
ATOM      4  C3  UNL d   1       0.386  -3.213  -0.038  0.00  0.00     0.003 A 
ATOM      5  C4  UNL d   1       1.718  -2.927  -0.335  0.00  0.00    -0.005 A 
ATOM      6  C5  UNL d   1       2.241  -1.670  -0.039  0.00  0.00     0.003 A 
ATOM      7  C6  UNL d   1       1.432  -0.698   0.552  0.00  0.00    -0.001 A 
ENDROOT
TORSDOF 0
ENDMDL
