MODEL 1
REMARK minimizedAffinity -3.77809548
REMARK minimizedRMSD -1
REMARK  0 active torsions:
REMARK  status: ('A' for Active; 'I' for Inactive)
ROOT
ATOM      1  C   UNL d   1      -1.056   0.053   1.292  0.00  0.00     0.078 C 
ATOM      2  C1  UNL d   1      -0.037  -0.936   0.810  0.00  0.00    -0.077 A 
ATOM      3  C2  UNL d   1       1.322  -0.606   0.761  0.00  0.00    -0.001 A 
ATOM      4  C3  UNL d   1       2.258  -1.533   0.301  0.00  0.00     0.003 A 
ATOM      5  C4  UNL d   1       1.845  -2.797  -0.117  0.00  0.00    -0.005 A 
ATOM      6  C5  UNL d   1       0.493  -3.134  -0.074  0.00  0.00     0.003 A 
ATOM      7  C6  UNL d   1      -0.444  -2.208   0.386  0.00  0.00    -0.001 A 
ENDROOT
TORSDOF 0
ENDMDL
