MODEL 1
REMARK minimizedAffinity -4.19216013
REMARK minimizedRMSD -1
REMARK  0 active torsions:
REMARK  status: ('A' for Active; 'I' for Inactive)
ROOT
ATOM      1  C   UNL d   1      -1.426  -0.250   2.353  0.00  0.00     0.078 C 
ATOM      2  C1  UNL d   1      -0.305  -0.788   1.515  0.00  0.00    -0.077 A 
ATOM      3  C2  UNL d   1       0.559   0.072   0.827  0.00  0.00    -0.001 A 
ATOM      4  C3  UNL d   1       1.592  -0.443   0.043  0.00  0.00     0.003 A 
ATOM      5  C4  UNL d   1       1.771  -1.821  -0.061  0.00  0.00    -0.005 A 
ATOM      6  C5  UNL d   1       0.915  -2.686   0.618  0.00  0.00     0.003 A 
ATOM      7  C6  UNL d   1      -0.119  -2.172   1.403  0.00  0.00    -0.001 A 
ENDROOT
TORSDOF 0
ENDMDL
