MODEL 1
REMARK minimizedAffinity -2.34558678
REMARK minimizedRMSD -1
REMARK  0 active torsions:
REMARK  status: ('A' for Active; 'I' for Inactive)
ROOT
ATOM      1  C   UNL d   1       2.628   0.054   0.706  0.00  0.00     0.078 C 
ATOM      2  C1  UNL d   1       1.289  -0.598   0.886  0.00  0.00    -0.077 A 
ATOM      3  C2  UNL d   1       0.240   0.075   1.525  0.00  0.00    -0.001 A 
ATOM      4  C3  UNL d   1      -0.998  -0.548   1.694  0.00  0.00     0.003 A 
ATOM      5  C4  UNL d   1      -1.198  -1.846   1.229  0.00  0.00    -0.005 A 
ATOM      6  C5  UNL d   1      -0.159  -2.524   0.595  0.00  0.00     0.003 A 
ATOM      7  C6  UNL d   1       1.080  -1.903   0.424  0.00  0.00    -0.001 A 
ENDROOT
TORSDOF 0
ENDMDL
