MODEL 1
REMARK minimizedAffinity -2.31633186
REMARK minimizedRMSD -1
REMARK  0 active torsions:
REMARK  status: ('A' for Active; 'I' for Inactive)
ROOT
ATOM      1  C   UNL d   1       3.148  -1.896  -0.096  0.00  0.00     0.078 C 
ATOM      2  C1  UNL d   1       1.717  -1.636   0.270  0.00  0.00    -0.077 A 
ATOM      3  C2  UNL d   1       1.365  -0.548   1.077  0.00  0.00    -0.001 A 
ATOM      4  C3  UNL d   1       0.030  -0.324   1.418  0.00  0.00     0.003 A 
ATOM      5  C4  UNL d   1      -0.964  -1.185   0.957  0.00  0.00    -0.005 A 
ATOM      6  C5  UNL d   1      -0.623  -2.272   0.155  0.00  0.00     0.003 A 
ATOM      7  C6  UNL d   1       0.712  -2.498  -0.187  0.00  0.00    -0.001 A 
ENDROOT
TORSDOF 0
ENDMDL
