MODEL 1
REMARK minimizedAffinity -4.17359114
REMARK minimizedRMSD -1
REMARK  0 active torsions:
REMARK  status: ('A' for Active; 'I' for Inactive)
ROOT
ATOM      1  C   UNL d   1       0.215  -3.542  -0.304  0.00  0.00     0.078 C 
ATOM      2  C1  UNL d   1       0.065  -2.225   0.397  0.00  0.00    -0.077 A 
ATOM      3  C2  UNL d   1       1.156  -1.361   0.550  0.00  0.00    -0.001 A 
ATOM      4  C3  UNL d   1       1.004  -0.142   1.213  0.00  0.00     0.003 A 
ATOM      5  C4  UNL d   1      -0.238   0.223   1.729  0.00  0.00    -0.005 A 
ATOM      6  C5  UNL d   1      -1.329  -0.631   1.583  0.00  0.00     0.003 A 
ATOM      7  C6  UNL d   1      -1.179  -1.850   0.920  0.00  0.00    -0.001 A 
ENDROOT
TORSDOF 0
ENDMDL
