MODEL 1
REMARK minimizedAffinity 1.58808351
REMARK minimizedRMSD -1
REMARK  0 active torsions:
REMARK  status: ('A' for Active; 'I' for Inactive)
ROOT
ATOM      1  C   UNL d   1      -1.862  -0.849   0.809  0.00  0.00     0.078 C 
ATOM      2  C1  UNL d   1      -0.368  -0.724   0.841  0.00  0.00    -0.077 A 
ATOM      3  C2  UNL d   1       0.418  -1.188  -0.221  0.00  0.00    -0.001 A 
ATOM      4  C3  UNL d   1       1.808  -1.074  -0.173  0.00  0.00     0.003 A 
ATOM      5  C4  UNL d   1       2.425  -0.498   0.935  0.00  0.00    -0.005 A 
ATOM      6  C5  UNL d   1       1.652  -0.035   1.998  0.00  0.00     0.003 A 
ATOM      7  C6  UNL d   1       0.262  -0.148   1.952  0.00  0.00    -0.001 A 
ENDROOT
TORSDOF 0
ENDMDL
