MODEL 1
REMARK minimizedAffinity 0.856856465
REMARK minimizedRMSD -1
REMARK  0 active torsions:
REMARK  status: ('A' for Active; 'I' for Inactive)
ROOT
ATOM      1  C   UNL d   1       5.452   5.994   3.161  0.00  0.00     0.078 C 
ATOM      2  C1  UNL d   1       4.485   5.516   2.120  0.00  0.00    -0.077 A 
ATOM      3  C2  UNL d   1       3.171   5.999   2.080  0.00  0.00    -0.001 A 
ATOM      4  C3  UNL d   1       2.278   5.537   1.111  0.00  0.00     0.003 A 
ATOM      5  C4  UNL d   1       2.689   4.589   0.176  0.00  0.00    -0.005 A 
ATOM      6  C5  UNL d   1       3.993   4.101   0.210  0.00  0.00     0.003 A 
ATOM      7  C6  UNL d   1       4.888   4.561   1.177  0.00  0.00    -0.001 A 
ENDROOT
TORSDOF 0
ENDMDL
