MODEL 1
REMARK minimizedAffinity -2.62823915
REMARK minimizedRMSD -1
REMARK  0 active torsions:
REMARK  status: ('A' for Active; 'I' for Inactive)
ROOT
ATOM      1  C   UNL d   1      -0.440  -0.457   1.864  0.00  0.00     0.078 C 
ATOM      2  C1  UNL d   1       0.426  -1.357   1.034  0.00  0.00    -0.077 A 
ATOM      3  C2  UNL d   1      -0.072  -2.556   0.510  0.00  0.00    -0.001 A 
ATOM      4  C3  UNL d   1       0.749  -3.388  -0.252  0.00  0.00     0.003 A 
ATOM      5  C4  UNL d   1       2.073  -3.031  -0.497  0.00  0.00    -0.005 A 
ATOM      6  C5  UNL d   1       2.579  -1.841   0.022  0.00  0.00     0.003 A 
ATOM      7  C6  UNL d   1       1.759  -1.007   0.785  0.00  0.00    -0.001 A 
ENDROOT
TORSDOF 0
ENDMDL
