MODEL 1
REMARK minimizedAffinity -2.45189929
REMARK minimizedRMSD -1
REMARK  0 active torsions:
REMARK  status: ('A' for Active; 'I' for Inactive)
ROOT
ATOM      1  C   UNL d   1       2.699  -3.566  -0.423  0.00  0.00     0.078 C 
ATOM      2  C1  UNL d   1       1.671  -2.548  -0.027  0.00  0.00    -0.077 A 
ATOM      3  C2  UNL d   1       2.049  -1.322   0.533  0.00  0.00    -0.001 A 
ATOM      4  C3  UNL d   1       1.081  -0.387   0.906  0.00  0.00     0.003 A 
ATOM      5  C4  UNL d   1      -0.271  -0.670   0.722  0.00  0.00    -0.005 A 
ATOM      6  C5  UNL d   1      -0.657  -1.888   0.167  0.00  0.00     0.003 A 
ATOM      7  C6  UNL d   1       0.310  -2.824  -0.206  0.00  0.00    -0.001 A 
ENDROOT
TORSDOF 0
ENDMDL
