MODEL 1
REMARK minimizedAffinity -3.4748826
REMARK minimizedRMSD -1
REMARK  0 active torsions:
REMARK  status: ('A' for Active; 'I' for Inactive)
ROOT
ATOM      1  C   UNL d   1       2.907  -3.762  -0.527  0.00  0.00     0.078 C 
ATOM      2  C1  UNL d   1       1.913  -2.722  -0.103  0.00  0.00    -0.077 A 
ATOM      3  C2  UNL d   1       0.574  -3.057   0.131  0.00  0.00    -0.001 A 
ATOM      4  C3  UNL d   1      -0.342  -2.076   0.515  0.00  0.00     0.003 A 
ATOM      5  C4  UNL d   1       0.071  -0.754   0.669  0.00  0.00    -0.005 A 
ATOM      6  C5  UNL d   1       1.401  -0.411   0.436  0.00  0.00     0.003 A 
ATOM      7  C6  UNL d   1       2.319  -1.390   0.052  0.00  0.00    -0.001 A 
ENDROOT
TORSDOF 0
ENDMDL
