MODEL 1
REMARK minimizedAffinity 1.8533901
REMARK minimizedRMSD -1
REMARK  0 active torsions:
REMARK  status: ('A' for Active; 'I' for Inactive)
ROOT
ATOM      1  C   UNL d   1       5.887   5.860  -0.767  0.00  0.00     0.078 C 
ATOM      2  C1  UNL d   1       4.917   5.901   0.376  0.00  0.00    -0.077 A 
ATOM      3  C2  UNL d   1       3.535   5.903   0.149  0.00  0.00    -0.001 A 
ATOM      4  C3  UNL d   1       2.644   5.952   1.222  0.00  0.00     0.003 A 
ATOM      5  C4  UNL d   1       3.125   6.000   2.530  0.00  0.00    -0.005 A 
ATOM      6  C5  UNL d   1       4.498   6.000   2.765  0.00  0.00     0.003 A 
ATOM      7  C6  UNL d   1       5.391   5.951   1.693  0.00  0.00    -0.001 A 
ENDROOT
TORSDOF 0
ENDMDL
