MODEL 1
REMARK minimizedAffinity 14.7654123
REMARK minimizedRMSD -1
REMARK  0 active torsions:
REMARK  status: ('A' for Active; 'I' for Inactive)
ROOT
ATOM      1  N1  IND d   1       4.190   4.865   4.732  0.00  0.00    -0.196 N 
ATOM      2  C2  IND d   1       4.959   5.995   4.727  0.00  0.00     0.054 A 
ATOM      3  C3  IND d   1       5.782   5.999   3.655  0.00  0.00    -0.031 A 
ATOM      4  C4  IND d   1       5.965   4.304   1.726  0.00  0.00     0.051 A 
ATOM      5  C5  IND d   1       5.493   3.090   1.311  0.00  0.00    -0.031 A 
ATOM      6  C6  IND d   1       4.542   2.393   2.028  0.00  0.00     0.015 A 
ATOM      7  C7  IND d   1       4.016   2.892   3.186  0.00  0.00    -0.016 A 
ATOM      8  C8  IND d   1       4.498   4.120   3.614  0.00  0.00    -0.047 A 
ATOM      9  C9  IND d   1       5.494   4.812   2.914  0.00  0.00    -0.096 A 
ATOM     10  HN1 IND d   1       3.612   4.654   5.332  0.00  0.00     0.298 HD
ENDROOT
TORSDOF 0
ENDMDL
