MODEL 1
REMARK minimizedAffinity 1.59154141
REMARK minimizedRMSD -1
REMARK  0 active torsions:
REMARK  status: ('A' for Active; 'I' for Inactive)
ROOT
ATOM      1  N1  IND d   1       3.540   2.747   4.081  0.00  0.00    -0.196 N 
ATOM      2  C2  IND d   1       3.849   1.605   3.396  0.00  0.00     0.054 A 
ATOM      3  C3  IND d   1       4.609   1.896   2.316  0.00  0.00    -0.031 A 
ATOM      4  C4  IND d   1       5.547   4.163   1.538  0.00  0.00     0.051 A 
ATOM      5  C5  IND d   1       5.505   5.500   1.820  0.00  0.00    -0.031 A 
ATOM      6  C6  IND d   1       4.794   5.997   2.893  0.00  0.00     0.015 A 
ATOM      7  C7  IND d   1       4.104   5.171   3.735  0.00  0.00    -0.016 A 
ATOM      8  C8  IND d   1       4.139   3.814   3.448  0.00  0.00    -0.047 A 
ATOM      9  C9  IND d   1       4.824   3.308   2.335  0.00  0.00    -0.096 A 
ATOM     10  HN1 IND d   1       3.053   2.792   4.788  0.00  0.00     0.298 HD
ENDROOT
TORSDOF 0
ENDMDL
