MODEL 1
REMARK minimizedAffinity 7.12426329
REMARK minimizedRMSD -1
REMARK  0 active torsions:
REMARK  status: ('A' for Active; 'I' for Inactive)
ROOT
ATOM      1  N1  IND d   1       3.267  -1.568   4.192  0.00  0.00    -0.196 N 
ATOM      2  C2  IND d   1       2.279  -2.513   4.205  0.00  0.00     0.054 A 
ATOM      3  C3  IND d   1       1.212  -2.087   3.493  0.00  0.00    -0.031 A 
ATOM      4  C4  IND d   1       0.908   0.082   2.139  0.00  0.00     0.051 A 
ATOM      5  C5  IND d   1       1.522   1.269   1.856  0.00  0.00    -0.031 A 
ATOM      6  C6  IND d   1       2.775   1.577   2.345  0.00  0.00     0.015 A 
ATOM      7  C7  IND d   1       3.469   0.700   3.129  0.00  0.00    -0.016 A 
ATOM      8  C8  IND d   1       2.846  -0.504   3.424  0.00  0.00    -0.047 A 
ATOM      9  C9  IND d   1       1.557  -0.805   2.966  0.00  0.00    -0.096 A 
ATOM     10  HN1 IND d   1       4.024  -1.628   4.595  0.00  0.00     0.298 HD
ENDROOT
TORSDOF 0
ENDMDL
