MODEL 1
REMARK minimizedAffinity 0.01754844
REMARK minimizedRMSD -1
REMARK  0 active torsions:
REMARK  status: ('A' for Active; 'I' for Inactive)
ROOT
ATOM      1  N1  IND d   1       5.322   5.998   1.434  0.00  0.00    -0.196 N 
ATOM      2  C2  IND d   1       4.553   5.696   0.345  0.00  0.00     0.054 A 
ATOM      3  C3  IND d   1       4.095   4.427   0.430  0.00  0.00    -0.031 A 
ATOM      4  C4  IND d   1       4.398   2.702   2.317  0.00  0.00     0.051 A 
ATOM      5  C5  IND d   1       5.050   2.505   3.502  0.00  0.00    -0.031 A 
ATOM      6  C6  IND d   1       5.840   3.483   4.071  0.00  0.00     0.015 A 
ATOM      7  C7  IND d   1       5.999   4.704   3.479  0.00  0.00    -0.016 A 
ATOM      8  C8  IND d   1       5.344   4.905   2.272  0.00  0.00    -0.047 A 
ATOM      9  C9  IND d   1       4.575   3.902   1.669  0.00  0.00    -0.096 A 
ATOM     10  HN1 IND d   1       5.725   6.745   1.572  0.00  0.00     0.298 HD
ENDROOT
TORSDOF 0
ENDMDL
