MODEL 1
REMARK minimizedAffinity 14.2188864
REMARK minimizedRMSD -1
REMARK  0 active torsions:
REMARK  status: ('A' for Active; 'I' for Inactive)
ROOT
ATOM      1  N1  IND d   1       5.426   0.385   2.351  0.00  0.00    -0.196 N 
ATOM      2  C2  IND d   1       5.773   0.953   1.157  0.00  0.00     0.054 A 
ATOM      3  C3  IND d   1       5.995   2.277   1.314  0.00  0.00    -0.031 A 
ATOM      4  C4  IND d   1       5.947   3.702   3.457  0.00  0.00     0.051 A 
ATOM      5  C5  IND d   1       5.646   3.635   4.789  0.00  0.00    -0.031 A 
ATOM      6  C6  IND d   1       5.250   2.457   5.388  0.00  0.00     0.015 A 
ATOM      7  C7  IND d   1       5.152   1.294   4.678  0.00  0.00    -0.016 A 
ATOM      8  C8  IND d   1       5.450   1.360   3.324  0.00  0.00    -0.047 A 
ATOM      9  C9  IND d   1       5.811   2.562   2.701  0.00  0.00    -0.096 A 
ATOM     10  HN1 IND d   1       5.226  -0.442   2.474  0.00  0.00     0.298 HD
ENDROOT
TORSDOF 0
ENDMDL
