MODEL 1
REMARK minimizedAffinity 13.2887421
REMARK minimizedRMSD -1
REMARK  0 active torsions:
REMARK  status: ('A' for Active; 'I' for Inactive)
ROOT
ATOM      1  N1  IND d   1      -5.463   4.007  -1.222  0.00  0.00    -0.196 N 
ATOM      2  C2  IND d   1      -5.883   5.045  -2.005  0.00  0.00     0.054 A 
ATOM      3  C3  IND d   1      -4.921   5.992  -2.086  0.00  0.00    -0.031 A 
ATOM      4  C4  IND d   1      -2.545   5.999  -1.094  0.00  0.00     0.051 A 
ATOM      5  C5  IND d   1      -1.718   5.284  -0.274  0.00  0.00    -0.031 A 
ATOM      6  C6  IND d   1      -2.104   4.082   0.282  0.00  0.00     0.015 A 
ATOM      7  C7  IND d   1      -3.333   3.541   0.028  0.00  0.00    -0.016 A 
ATOM      8  C8  IND d   1      -4.178   4.267  -0.800  0.00  0.00    -0.047 A 
ATOM      9  C9  IND d   1      -3.807   5.509  -1.333  0.00  0.00    -0.096 A 
ATOM     10  HN1 IND d   1      -5.924   3.309  -1.025  0.00  0.00     0.298 HD
ENDROOT
TORSDOF 0
ENDMDL
