MODEL 1
REMARK minimizedAffinity 11.4659424
REMARK minimizedRMSD -1
REMARK  0 active torsions:
REMARK  status: ('A' for Active; 'I' for Inactive)
ROOT
ATOM      1  N1  IND d   1      -1.293  -0.948   2.711  0.00  0.00    -0.196 N 
ATOM      2  C2  IND d   1      -1.305   0.343   2.264  0.00  0.00     0.054 A 
ATOM      3  C3  IND d   1      -0.108   0.931   2.491  0.00  0.00    -0.031 A 
ATOM      4  C4  IND d   1       2.042  -0.072   3.491  0.00  0.00     0.051 A 
ATOM      5  C5  IND d   1       2.530  -1.205   4.079  0.00  0.00    -0.031 A 
ATOM      6  C6  IND d   1       1.753  -2.334   4.243  0.00  0.00     0.015 A 
ATOM      7  C7  IND d   1       0.458  -2.376   3.812  0.00  0.00    -0.016 A 
ATOM      8  C8  IND d   1      -0.043  -1.225   3.220  0.00  0.00    -0.047 A 
ATOM      9  C9  IND d   1       0.727  -0.062   3.090  0.00  0.00    -0.096 A 
ATOM     10  HN1 IND d   1      -1.956  -1.496   2.681  0.00  0.00     0.298 HD
ENDROOT
TORSDOF 0
ENDMDL
