MODEL 1
REMARK minimizedAffinity 16.1798916
REMARK minimizedRMSD -1
REMARK  0 active torsions:
REMARK  status: ('A' for Active; 'I' for Inactive)
ROOT
ATOM      1  N1  IND d   1      -1.623   0.899   2.462  0.00  0.00    -0.196 N 
ATOM      2  C2  IND d   1      -1.237   2.210   2.416  0.00  0.00     0.054 A 
ATOM      3  C3  IND d   1       0.077   2.324   2.713  0.00  0.00    -0.031 A 
ATOM      4  C4  IND d   1       1.809   0.484   3.204  0.00  0.00     0.051 A 
ATOM      5  C5  IND d   1       1.923  -0.865   3.393  0.00  0.00    -0.031 A 
ATOM      6  C6  IND d   1       0.840  -1.712   3.276  0.00  0.00     0.015 A 
ATOM      7  C7  IND d   1      -0.401  -1.241   2.954  0.00  0.00    -0.016 A 
ATOM      8  C8  IND d   1      -0.522   0.129   2.768  0.00  0.00    -0.047 A 
ATOM      9  C9  IND d   1       0.564   0.998   2.926  0.00  0.00    -0.096 A 
ATOM     10  HN1 IND d   1      -2.419   0.605   2.322  0.00  0.00     0.298 HD
ENDROOT
TORSDOF 0
ENDMDL
