MODEL 1
REMARK minimizedAffinity 21.591156
REMARK minimizedRMSD -1
REMARK  0 active torsions:
REMARK  status: ('A' for Active; 'I' for Inactive)
ROOT
ATOM      1  N1  IND d   1      -0.309  -0.983  -5.397  0.00  0.00    -0.196 N 
ATOM      2  C2  IND d   1       0.834  -0.298  -5.092  0.00  0.00     0.054 A 
ATOM      3  C3  IND d   1       1.138  -0.450  -3.784  0.00  0.00    -0.031 A 
ATOM      4  C4  IND d   1      -0.041  -1.863  -1.984  0.00  0.00     0.051 A 
ATOM      5  C5  IND d   1      -1.148  -2.637  -1.776  0.00  0.00    -0.031 A 
ATOM      6  C6  IND d   1      -2.049  -2.908  -2.786  0.00  0.00     0.015 A 
ATOM      7  C7  IND d   1      -1.869  -2.421  -4.050  0.00  0.00    -0.016 A 
ATOM      8  C8  IND d   1      -0.750  -1.628  -4.263  0.00  0.00    -0.047 A 
ATOM      9  C9  IND d   1       0.145  -1.315  -3.231  0.00  0.00    -0.096 A 
ATOM     10  HN1 IND d   1      -0.689  -1.007  -6.168  0.00  0.00     0.298 HD
ENDROOT
TORSDOF 0
ENDMDL
