MODEL 1
REMARK minimizedAffinity 12.5359983
REMARK minimizedRMSD -1
REMARK  0 active torsions:
REMARK  status: ('A' for Active; 'I' for Inactive)
ROOT
ATOM      1  N1  IND d   1       0.134  -1.758   3.707  0.00  0.00    -0.196 N 
ATOM      2  C2  IND d   1       1.266  -1.005   3.843  0.00  0.00     0.054 A 
ATOM      3  C3  IND d   1       1.033   0.269   3.457  0.00  0.00    -0.031 A 
ATOM      4  C4  IND d   1      -1.158   1.363   2.663  0.00  0.00     0.051 A 
ATOM      5  C5  IND d   1      -2.453   1.070   2.341  0.00  0.00    -0.031 A 
ATOM      6  C6  IND d   1      -2.964  -0.206   2.463  0.00  0.00     0.015 A 
ATOM      7  C7  IND d   1      -2.197  -1.239   2.924  0.00  0.00    -0.016 A 
ATOM      8  C8  IND d   1      -0.879  -0.946   3.245  0.00  0.00    -0.047 A 
ATOM      9  C9  IND d   1      -0.344   0.338   3.084  0.00  0.00    -0.096 A 
ATOM     10  HN1 IND d   1       0.065  -2.597   3.880  0.00  0.00     0.298 HD
ENDROOT
TORSDOF 0
ENDMDL
