MODEL 1
REMARK minimizedAffinity 14.5344343
REMARK minimizedRMSD -1
REMARK  0 active torsions:
REMARK  status: ('A' for Active; 'I' for Inactive)
ROOT
ATOM      1  N1  IND d   1       0.382  -2.318  -5.111  0.00  0.00    -0.196 N 
ATOM      2  C2  IND d   1       0.158  -1.095  -4.543  0.00  0.00     0.054 A 
ATOM      3  C3  IND d   1       1.300  -0.609  -4.006  0.00  0.00    -0.031 A 
ATOM      4  C4  IND d   1       3.673  -1.607  -4.033  0.00  0.00     0.051 A 
ATOM      5  C5  IND d   1       4.368  -2.724  -4.403  0.00  0.00    -0.031 A 
ATOM      6  C6  IND d   1       3.758  -3.784  -5.042  0.00  0.00     0.015 A 
ATOM      7  C7  IND d   1       2.427  -3.760  -5.348  0.00  0.00    -0.016 A 
ATOM      8  C8  IND d   1       1.717  -2.630  -4.968  0.00  0.00    -0.047 A 
ATOM      9  C9  IND d   1       2.321  -1.570  -4.281  0.00  0.00    -0.096 A 
ATOM     10  HN1 IND d   1      -0.210  -2.810  -5.493  0.00  0.00     0.298 HD
ENDROOT
TORSDOF 0
ENDMDL
