MODEL 1
REMARK minimizedAffinity 14.1387053
REMARK minimizedRMSD -1
REMARK  0 active torsions:
REMARK  status: ('A' for Active; 'I' for Inactive)
ROOT
ATOM      1  N1  IND d   1      -0.404  -1.064  -5.306  0.00  0.00    -0.196 N 
ATOM      2  C2  IND d   1       0.947  -0.863  -5.254  0.00  0.00     0.054 A 
ATOM      3  C3  IND d   1       1.391  -0.974  -3.981  0.00  0.00    -0.031 A 
ATOM      4  C4  IND d   1       0.091  -1.582  -1.844  0.00  0.00     0.051 A 
ATOM      5  C5  IND d   1      -1.174  -1.819  -1.383  0.00  0.00    -0.031 A 
ATOM      6  C6  IND d   1      -2.268  -1.820  -2.224  0.00  0.00     0.015 A 
ATOM      7  C7  IND d   1      -2.136  -1.593  -3.565  0.00  0.00    -0.016 A 
ATOM      8  C8  IND d   1      -0.855  -1.344  -4.035  0.00  0.00    -0.047 A 
ATOM      9  C9  IND d   1       0.254  -1.301  -3.180  0.00  0.00    -0.096 A 
ATOM     10  HN1 IND d   1      -0.890  -1.022  -6.014  0.00  0.00     0.298 HD
ENDROOT
TORSDOF 0
ENDMDL
