MODEL 1
REMARK minimizedAffinity 16.9416847
REMARK minimizedRMSD -1
REMARK  0 active torsions:
REMARK  status: ('A' for Active; 'I' for Inactive)
ROOT
ATOM      1  N1  IND d   1      -1.122  -3.588  -1.833  0.00  0.00    -0.196 N 
ATOM      2  C2  IND d   1      -1.133  -2.246  -2.094  0.00  0.00     0.054 A 
ATOM      3  C3  IND d   1      -1.098  -2.027  -3.428  0.00  0.00    -0.031 A 
ATOM      4  C4  IND d   1      -1.122  -3.722  -5.366  0.00  0.00     0.051 A 
ATOM      5  C5  IND d   1      -1.074  -5.063  -5.624  0.00  0.00    -0.031 A 
ATOM      6  C6  IND d   1      -1.042  -6.000  -4.612  0.00  0.00     0.015 A 
ATOM      7  C7  IND d   1      -1.068  -5.629  -3.297  0.00  0.00    -0.016 A 
ATOM      8  C8  IND d   1      -1.109  -4.268  -3.031  0.00  0.00    -0.047 A 
ATOM      9  C9  IND d   1      -1.099  -3.311  -4.054  0.00  0.00    -0.096 A 
ATOM     10  HN1 IND d   1      -1.123  -3.947  -1.051  0.00  0.00     0.298 HD
ENDROOT
TORSDOF 0
ENDMDL
