MODEL 1
REMARK minimizedAffinity -1.29564965
REMARK minimizedRMSD -1
REMARK  0 active torsions:
REMARK  status: ('A' for Active; 'I' for Inactive)
ROOT
ATOM      1  C2' OXE d   1       0.762  -0.964  -2.051  0.00  0.00     0.078 C 
ATOM      2  C1' OXE d   1       0.483   0.838   0.083  0.00  0.00     0.078 C 
ATOM      3  C1  OXE d   1      -0.115  -0.538   0.242  0.00  0.00    -0.078 A 
ATOM      4  C2  OXE d   1      -0.014  -1.398  -0.826  0.00  0.00    -0.078 A 
ATOM      5  C3  OXE d   1      -0.500  -2.697  -0.713  0.00  0.00     0.003 A 
ATOM      6  C4  OXE d   1      -1.225  -3.087   0.420  0.00  0.00    -0.002 A 
ATOM      7  C5  OXE d   1      -1.373  -2.214   1.502  0.00  0.00    -0.002 A 
ATOM      8  C6  OXE d   1      -0.789  -0.953   1.447  0.00  0.00     0.003 A 
ENDROOT
TORSDOF 0
ENDMDL
