MODEL 1
REMARK minimizedAffinity -2.43761134
REMARK minimizedRMSD -1
REMARK  0 active torsions:
REMARK  status: ('A' for Active; 'I' for Inactive)
ROOT
ATOM      1  C2' OXE d   1      -0.141   1.629  -1.607  0.00  0.00     0.078 C 
ATOM      2  C1' OXE d   1       1.431   2.066   0.678  0.00  0.00     0.078 C 
ATOM      3  C1  OXE d   1       0.763   0.722   0.530  0.00  0.00    -0.078 A 
ATOM      4  C2  OXE d   1      -0.042   0.533  -0.567  0.00  0.00    -0.078 A 
ATOM      5  C3  OXE d   1      -0.638  -0.707  -0.780  0.00  0.00     0.003 A 
ATOM      6  C4  OXE d   1      -0.549  -1.712   0.191  0.00  0.00    -0.002 A 
ATOM      7  C5  OXE d   1       0.233  -1.526   1.336  0.00  0.00    -0.002 A 
ATOM      8  C6  OXE d   1       0.929  -0.333   1.500  0.00  0.00     0.003 A 
ENDROOT
TORSDOF 0
ENDMDL
