MODEL 1
REMARK minimizedAffinity -2.20173526
REMARK minimizedRMSD -1
REMARK  0 active torsions:
REMARK  status: ('A' for Active; 'I' for Inactive)
ROOT
ATOM      1  C2' OXE d   1       0.967   3.314   1.428  0.00  0.00     0.078 C 
ATOM      2  C1' OXE d   1       1.065   3.685  -1.353  0.00  0.00     0.078 C 
ATOM      3  C1  OXE d   1       0.489   2.391  -0.836  0.00  0.00    -0.078 A 
ATOM      4  C2  OXE d   1       0.488   2.198   0.525  0.00  0.00    -0.078 A 
ATOM      5  C3  OXE d   1      -0.082   1.045   1.057  0.00  0.00     0.003 A 
ATOM      6  C4  OXE d   1      -0.514   0.014   0.215  0.00  0.00    -0.002 A 
ATOM      7  C5  OXE d   1      -0.485   0.173  -1.175  0.00  0.00    -0.002 A 
ATOM      8  C6  OXE d   1      -0.027   1.370  -1.714  0.00  0.00     0.003 A 
ENDROOT
TORSDOF 0
ENDMDL
