MODEL 1
REMARK minimizedAffinity -4.37009335
REMARK minimizedRMSD -1
REMARK  0 active torsions:
REMARK  status: ('A' for Active; 'I' for Inactive)
ROOT
ATOM      1  C2' OXE d   1       0.511   1.440   0.004  0.00  0.00     0.078 C 
ATOM      2  C1' OXE d   1      -2.085   0.816   0.873  0.00  0.00     0.078 C 
ATOM      3  C1  OXE d   1      -1.117  -0.323   0.674  0.00  0.00    -0.078 A 
ATOM      4  C2  OXE d   1       0.137  -0.013   0.204  0.00  0.00    -0.078 A 
ATOM      5  C3  OXE d   1       1.086  -1.020   0.055  0.00  0.00     0.003 A 
ATOM      6  C4  OXE d   1       0.729  -2.363   0.232  0.00  0.00    -0.002 A 
ATOM      7  C5  OXE d   1      -0.554  -2.704   0.673  0.00  0.00    -0.002 A 
ATOM      8  C6  OXE d   1      -1.474  -1.695   0.938  0.00  0.00     0.003 A 
ENDROOT
TORSDOF 0
ENDMDL
