MODEL 1
REMARK minimizedAffinity -1.09488487
REMARK minimizedRMSD -1
REMARK  0 active torsions:
REMARK  status: ('A' for Active; 'I' for Inactive)
ROOT
ATOM      1  C2' OXE d   1       0.240  -0.537  -1.964  0.00  0.00     0.078 C 
ATOM      2  C1' OXE d   1       1.426   0.669   0.276  0.00  0.00     0.078 C 
ATOM      3  C1  OXE d   1       0.423  -0.430   0.518  0.00  0.00    -0.078 A 
ATOM      4  C2  OXE d   1      -0.188  -0.983  -0.582  0.00  0.00    -0.078 A 
ATOM      5  C3  OXE d   1      -1.080  -2.038  -0.418  0.00  0.00     0.003 A 
ATOM      6  C4  OXE d   1      -1.478  -2.438   0.864  0.00  0.00    -0.002 A 
ATOM      7  C5  OXE d   1      -0.898  -1.861   1.999  0.00  0.00    -0.002 A 
ATOM      8  C6  OXE d   1       0.083  -0.888   1.843  0.00  0.00     0.003 A 
ENDROOT
TORSDOF 0
ENDMDL
