MODEL 1
REMARK minimizedAffinity -4.47472095
REMARK minimizedRMSD -1
REMARK  0 active torsions:
REMARK  status: ('A' for Active; 'I' for Inactive)
ROOT
ATOM      1  C2' OXE d   1      -1.024  -1.348   1.753  0.00  0.00     0.078 C 
ATOM      2  C1' OXE d   1      -0.117   0.269  -0.355  0.00  0.00     0.078 C 
ATOM      3  C1  OXE d   1      -1.453   0.601   0.261  0.00  0.00    -0.078 A 
ATOM      4  C2  OXE d   1      -1.910  -0.224   1.261  0.00  0.00    -0.078 A 
ATOM      5  C3  OXE d   1      -3.111   0.070   1.901  0.00  0.00     0.003 A 
ATOM      6  C4  OXE d   1      -3.929   1.105   1.433  0.00  0.00    -0.002 A 
ATOM      7  C5  OXE d   1      -3.500   1.933   0.390  0.00  0.00    -0.002 A 
ATOM      8  C6  OXE d   1      -2.248   1.721  -0.177  0.00  0.00     0.003 A 
ENDROOT
TORSDOF 0
ENDMDL
