MODEL 1
REMARK minimizedAffinity -4.22977066
REMARK minimizedRMSD -1
REMARK  0 active torsions:
REMARK  status: ('A' for Active; 'I' for Inactive)
ROOT
ATOM      1  C2' OXE d   1       0.037  -3.256   0.485  0.00  0.00     0.078 C 
ATOM      2  C1' OXE d   1       0.781  -1.170  -1.241  0.00  0.00     0.078 C 
ATOM      3  C1  OXE d   1      -0.198  -0.855  -0.138  0.00  0.00    -0.078 A 
ATOM      4  C2  OXE d   1      -0.592  -1.892   0.673  0.00  0.00    -0.078 A 
ATOM      5  C3  OXE d   1      -1.451  -1.645   1.740  0.00  0.00     0.003 A 
ATOM      6  C4  OXE d   1      -2.036  -0.383   1.901  0.00  0.00    -0.002 A 
ATOM      7  C5  OXE d   1      -1.679   0.678   1.062  0.00  0.00    -0.002 A 
ATOM      8  C6  OXE d   1      -0.731   0.469   0.066  0.00  0.00     0.003 A 
ENDROOT
TORSDOF 0
ENDMDL
