MODEL 1
REMARK minimizedAffinity -4.60768938
REMARK minimizedRMSD -1
REMARK  0 active torsions:
REMARK  status: ('A' for Active; 'I' for Inactive)
ROOT
ATOM      1  C2' OXE d   1       0.240   0.941  -0.726  0.00  0.00     0.078 C 
ATOM      2  C1' OXE d   1       0.971  -1.417  -2.062  0.00  0.00     0.078 C 
ATOM      3  C1  OXE d   1       0.301  -1.550  -0.718  0.00  0.00    -0.078 A 
ATOM      4  C2  OXE d   1      -0.011  -0.390  -0.050  0.00  0.00    -0.078 A 
ATOM      5  C3  OXE d   1      -0.679  -0.455   1.169  0.00  0.00     0.003 A 
ATOM      6  C4  OXE d   1      -0.898  -1.690   1.793  0.00  0.00    -0.002 A 
ATOM      7  C5  OXE d   1      -0.553  -2.882   1.148  0.00  0.00    -0.002 A 
ATOM      8  C6  OXE d   1       0.008  -2.831  -0.124  0.00  0.00     0.003 A 
ENDROOT
TORSDOF 0
ENDMDL
