MODEL 1
REMARK minimizedAffinity -3.12102509
REMARK minimizedRMSD -1
REMARK  0 active torsions:
REMARK  status: ('A' for Active; 'I' for Inactive)
ROOT
ATOM      1  C2' OXE d   1      -2.122  -2.274   1.122  0.00  0.00     0.078 C 
ATOM      2  C1' OXE d   1       0.399  -3.502   1.255  0.00  0.00     0.078 C 
ATOM      3  C1  OXE d   1       0.296  -2.185   0.528  0.00  0.00    -0.078 A 
ATOM      4  C2  OXE d   1      -0.950  -1.614   0.428  0.00  0.00    -0.078 A 
ATOM      5  C3  OXE d   1      -1.092  -0.372  -0.185  0.00  0.00     0.003 A 
ATOM      6  C4  OXE d   1      -0.005   0.227  -0.833  0.00  0.00    -0.002 A 
ATOM      7  C5  OXE d   1       1.265  -0.357  -0.777  0.00  0.00    -0.002 A 
ATOM      8  C6  OXE d   1       1.441  -1.539  -0.065  0.00  0.00     0.003 A 
ENDROOT
TORSDOF 0
ENDMDL
