MODEL 1
REMARK minimizedAffinity -4.15795088
REMARK minimizedRMSD -1
REMARK  0 active torsions:
REMARK  status: ('A' for Active; 'I' for Inactive)
ROOT
ATOM      1  C2' OXE d   1      -0.274   2.083  -1.443  0.00  0.00     0.078 C 
ATOM      2  C1' OXE d   1       1.888   3.747  -2.101  0.00  0.00     0.078 C 
ATOM      3  C1  OXE d   1       1.792   3.246  -0.681  0.00  0.00    -0.078 A 
ATOM      4  C2  OXE d   1       0.705   2.471  -0.357  0.00  0.00    -0.078 A 
ATOM      5  C3  OXE d   1       0.597   1.938   0.925  0.00  0.00     0.003 A 
ATOM      6  C4  OXE d   1       1.502   2.310   1.926  0.00  0.00    -0.002 A 
ATOM      7  C5  OXE d   1       2.594   3.131   1.626  0.00  0.00    -0.002 A 
ATOM      8  C6  OXE d   1       2.777   3.572   0.320  0.00  0.00     0.003 A 
ENDROOT
TORSDOF 0
ENDMDL
