MODEL 1
REMARK minimizedAffinity -1.61149538
REMARK minimizedRMSD -1
REMARK  0 active torsions:
REMARK  status: ('A' for Active; 'I' for Inactive)
ROOT
ATOM      1  C2' OXE d   1       1.059  -0.722  -2.183  0.00  0.00     0.078 C 
ATOM      2  C1' OXE d   1       0.788   1.645  -0.698  0.00  0.00     0.078 C 
ATOM      3  C1  OXE d   1       0.286   0.364  -0.078  0.00  0.00    -0.078 A 
ATOM      4  C2  OXE d   1       0.380  -0.781  -0.831  0.00  0.00    -0.078 A 
ATOM      5  C3  OXE d   1      -0.018  -1.999  -0.287  0.00  0.00     0.003 A 
ATOM      6  C4  OXE d   1      -0.654  -2.044   0.960  0.00  0.00    -0.002 A 
ATOM      7  C5  OXE d   1      -0.796  -0.882   1.727  0.00  0.00    -0.002 A 
ATOM      8  C6  OXE d   1      -0.294   0.320   1.241  0.00  0.00     0.003 A 
ENDROOT
TORSDOF 0
ENDMDL
