MODEL 1
REMARK minimizedAffinity -3.31718564
REMARK minimizedRMSD -1
REMARK  0 active torsions:
REMARK  status: ('A' for Active; 'I' for Inactive)
ROOT
ATOM      1  C2' OXE d   1       0.043   0.623   1.199  0.00  0.00     0.078 C 
ATOM      2  C1' OXE d   1       0.820  -1.033   3.329  0.00  0.00     0.078 C 
ATOM      3  C1  OXE d   1       0.063  -1.664   2.187  0.00  0.00    -0.078 A 
ATOM      4  C2  OXE d   1      -0.354  -0.838   1.172  0.00  0.00    -0.078 A 
ATOM      5  C3  OXE d   1      -1.008  -1.378   0.068  0.00  0.00     0.003 A 
ATOM      6  C4  OXE d   1      -1.380  -2.728   0.055  0.00  0.00    -0.002 A 
ATOM      7  C5  OXE d   1      -0.999  -3.579   1.098  0.00  0.00    -0.002 A 
ATOM      8  C6  OXE d   1      -0.242  -3.073   2.149  0.00  0.00     0.003 A 
ENDROOT
TORSDOF 0
ENDMDL
