MODEL 1
REMARK minimizedAffinity -4.60142374
REMARK minimizedRMSD -1
REMARK  0 active torsions:
REMARK  status: ('A' for Active; 'I' for Inactive)
ROOT
ATOM      1  C2' OXE d   1       0.738  -1.259  -1.741  0.00  0.00     0.078 C 
ATOM      2  C1' OXE d   1       0.554   0.892   0.053  0.00  0.00     0.078 C 
ATOM      3  C1  OXE d   1      -0.177  -0.380   0.403  0.00  0.00    -0.078 A 
ATOM      4  C2  OXE d   1      -0.120  -1.411  -0.503  0.00  0.00    -0.078 A 
ATOM      5  C3  OXE d   1      -0.731  -2.626  -0.204  0.00  0.00     0.003 A 
ATOM      6  C4  OXE d   1      -1.530  -2.755   0.938  0.00  0.00    -0.002 A 
ATOM      7  C5  OXE d   1      -1.634  -1.704   1.854  0.00  0.00    -0.002 A 
ATOM      8  C6  OXE d   1      -0.931  -0.526   1.623  0.00  0.00     0.003 A 
ENDROOT
TORSDOF 0
ENDMDL
