MODEL 1
REMARK minimizedAffinity -4.00237179
REMARK minimizedRMSD -1
REMARK  0 active torsions:
REMARK  status: ('A' for Active; 'I' for Inactive)
ROOT
ATOM      1  C2' OXE d   1      -0.325   0.851  -0.369  0.00  0.00     0.078 C 
ATOM      2  C1' OXE d   1       0.633  -1.135  -2.107  0.00  0.00     0.078 C 
ATOM      3  C1  OXE d   1       0.270  -1.545  -0.701  0.00  0.00    -0.078 A 
ATOM      4  C2  OXE d   1      -0.153  -0.558   0.156  0.00  0.00    -0.078 A 
ATOM      5  C3  OXE d   1      -0.552  -0.891   1.447  0.00  0.00     0.003 A 
ATOM      6  C4  OXE d   1      -0.381  -2.195   1.928  0.00  0.00    -0.002 A 
ATOM      7  C5  OXE d   1       0.086  -3.207   1.083  0.00  0.00    -0.002 A 
ATOM      8  C6  OXE d   1       0.375  -2.908  -0.244  0.00  0.00     0.003 A 
ENDROOT
TORSDOF 0
ENDMDL
