MODEL 1
REMARK minimizedAffinity -3.94826603
REMARK minimizedRMSD -1
REMARK  0 active torsions:
REMARK  status: ('A' for Active; 'I' for Inactive)
ROOT
ATOM      1  C2' OXE d   1       0.173  -3.783   0.579  0.00  0.00     0.078 C 
ATOM      2  C1' OXE d   1      -2.387  -2.671   0.880  0.00  0.00     0.078 C 
ATOM      3  C1  OXE d   1      -1.216  -1.725   0.787  0.00  0.00    -0.078 A 
ATOM      4  C2  OXE d   1       0.037  -2.279   0.687  0.00  0.00    -0.078 A 
ATOM      5  C3  OXE d   1       1.147  -1.452   0.543  0.00  0.00     0.003 A 
ATOM      6  C4  OXE d   1       1.015  -0.062   0.654  0.00  0.00    -0.002 A 
ATOM      7  C5  OXE d   1      -0.249   0.521   0.796  0.00  0.00    -0.002 A 
ATOM      8  C6  OXE d   1      -1.376  -0.293   0.822  0.00  0.00     0.003 A 
ENDROOT
TORSDOF 0
ENDMDL
