MODEL 1
REMARK minimizedAffinity -0.168535829
REMARK minimizedRMSD -1
REMARK  0 active torsions:
REMARK  status: ('A' for Active; 'I' for Inactive)
ROOT
ATOM      1  C2' OXE d   1       0.029   1.086  -0.387  0.00  0.00     0.078 C 
ATOM      2  C1' OXE d   1       0.442  -1.181  -1.991  0.00  0.00     0.078 C 
ATOM      3  C1  OXE d   1      -0.157  -1.387  -0.622  0.00  0.00    -0.078 A 
ATOM      4  C2  OXE d   1      -0.312  -0.278   0.174  0.00  0.00    -0.078 A 
ATOM      5  C3  OXE d   1      -0.911  -0.405   1.424  0.00  0.00     0.003 A 
ATOM      6  C4  OXE d   1      -1.214  -1.671   1.939  0.00  0.00    -0.002 A 
ATOM      7  C5  OXE d   1      -1.027  -2.818   1.161  0.00  0.00    -0.002 A 
ATOM      8  C6  OXE d   1      -0.540  -2.690  -0.136  0.00  0.00     0.003 A 
ENDROOT
TORSDOF 0
ENDMDL
