MODEL 1
REMARK minimizedAffinity 5.53894043
REMARK minimizedRMSD -1
REMARK  0 active torsions:
REMARK  status: ('A' for Active; 'I' for Inactive)
ROOT
ATOM      1  C2' OXE d   1       4.863   3.523  -2.082  0.00  0.00     0.078 C 
ATOM      2  C1' OXE d   1       2.344   2.311  -2.341  0.00  0.00     0.078 C 
ATOM      3  C1  OXE d   1       2.611   3.122  -1.097  0.00  0.00    -0.078 A 
ATOM      4  C2  OXE d   1       3.862   3.672  -0.957  0.00  0.00    -0.078 A 
ATOM      5  C3  OXE d   1       4.143   4.475   0.145  0.00  0.00     0.003 A 
ATOM      6  C4  OXE d   1       3.215   4.599   1.186  0.00  0.00    -0.002 A 
ATOM      7  C5  OXE d   1       1.949   4.014   1.082  0.00  0.00    -0.002 A 
ATOM      8  C6  OXE d   1       1.616   3.309  -0.069  0.00  0.00     0.003 A 
ENDROOT
TORSDOF 0
ENDMDL
