MODEL 1
REMARK minimizedAffinity 6.77640438
REMARK minimizedRMSD -1
REMARK  0 active torsions:
REMARK  status: ('A' for Active; 'I' for Inactive)
ROOT
ATOM      1  C2' OXE d   1       1.124   1.921  -2.034  0.00  0.00     0.078 C 
ATOM      2  C1' OXE d   1       1.467   3.344   0.361  0.00  0.00     0.078 C 
ATOM      3  C1  OXE d   1       0.632   2.088   0.402  0.00  0.00    -0.078 A 
ATOM      4  C2  OXE d   1       0.431   1.424  -0.784  0.00  0.00    -0.078 A 
ATOM      5  C3  OXE d   1      -0.286   0.231  -0.793  0.00  0.00     0.003 A 
ATOM      6  C4  OXE d   1      -0.932  -0.216   0.366  0.00  0.00    -0.002 A 
ATOM      7  C5  OXE d   1      -0.773   0.467   1.576  0.00  0.00    -0.002 A 
ATOM      8  C6  OXE d   1       0.039   1.595   1.620  0.00  0.00     0.003 A 
ENDROOT
TORSDOF 0
ENDMDL
