MODEL 1
REMARK minimizedAffinity 11.170167
REMARK minimizedRMSD -1
REMARK  0 active torsions:
REMARK  status: ('A' for Active; 'I' for Inactive)
ROOT
ATOM      1  C2' OXE d   1       3.350   4.128   0.535  0.00  0.00     0.078 C 
ATOM      2  C1' OXE d   1       1.100   2.651  -0.264  0.00  0.00     0.078 C 
ATOM      3  C1  OXE d   1       0.907   3.713   0.790  0.00  0.00    -0.078 A 
ATOM      4  C2  OXE d   1       2.022   4.398   1.208  0.00  0.00    -0.078 A 
ATOM      5  C3  OXE d   1       1.891   5.425   2.139  0.00  0.00     0.003 A 
ATOM      6  C4  OXE d   1       0.661   5.662   2.764  0.00  0.00    -0.002 A 
ATOM      7  C5  OXE d   1      -0.480   4.948   2.382  0.00  0.00    -0.002 A 
ATOM      8  C6  OXE d   1      -0.382   4.002   1.368  0.00  0.00     0.003 A 
ENDROOT
TORSDOF 0
ENDMDL
