MODEL 1
REMARK minimizedAffinity 4.1473074
REMARK minimizedRMSD -1
REMARK  0 active torsions:
REMARK  status: ('A' for Active; 'I' for Inactive)
ROOT
ATOM      1  C2' OXE d   1       1.790  -5.922  -2.969  0.00  0.00     0.078 C 
ATOM      2  C1' OXE d   1       1.509  -5.996  -5.761  0.00  0.00     0.078 C 
ATOM      3  C1  OXE d   1       0.252  -5.971  -4.928  0.00  0.00    -0.078 A 
ATOM      4  C2  OXE d   1       0.399  -5.982  -3.562  0.00  0.00    -0.078 A 
ATOM      5  C3  OXE d   1      -0.727  -5.904  -2.747  0.00  0.00     0.003 A 
ATOM      6  C4  OXE d   1      -2.011  -5.970  -3.303  0.00  0.00    -0.002 A 
ATOM      7  C5  OXE d   1      -2.182  -5.999  -4.691  0.00  0.00    -0.002 A 
ATOM      8  C6  OXE d   1      -1.064  -5.957  -5.517  0.00  0.00     0.003 A 
ENDROOT
TORSDOF 0
ENDMDL
