MODEL 1
REMARK minimizedAffinity 4.82040215
REMARK minimizedRMSD -1
REMARK  0 active torsions:
REMARK  status: ('A' for Active; 'I' for Inactive)
ROOT
ATOM      1  C2' OXE d   1       2.356  -5.873  -4.914  0.00  0.00     0.078 C 
ATOM      2  C1' OXE d   1       1.122  -5.849  -2.393  0.00  0.00     0.078 C 
ATOM      3  C1  OXE d   1       0.234  -5.919  -3.610  0.00  0.00    -0.078 A 
ATOM      4  C2  OXE d   1       0.845  -5.883  -4.840  0.00  0.00    -0.078 A 
ATOM      5  C3  OXE d   1       0.076  -6.000  -5.995  0.00  0.00     0.003 A 
ATOM      6  C4  OXE d   1      -1.322  -5.998  -5.919  0.00  0.00    -0.002 A 
ATOM      7  C5  OXE d   1      -1.965  -5.996  -4.676  0.00  0.00    -0.002 A 
ATOM      8  C6  OXE d   1      -1.202  -5.999  -3.514  0.00  0.00     0.003 A 
ENDROOT
TORSDOF 0
ENDMDL
