MODEL 1
REMARK minimizedAffinity 3.37742686
REMARK minimizedRMSD -1
REMARK  0 active torsions:
REMARK  status: ('A' for Active; 'I' for Inactive)
ROOT
ATOM      1  C2' OXE d   1      -2.405  -5.948  -2.716  0.00  0.00     0.078 C 
ATOM      2  C1' OXE d   1       0.235  -5.932  -1.762  0.00  0.00     0.078 C 
ATOM      3  C1  OXE d   1       0.027  -5.939  -3.256  0.00  0.00    -0.078 A 
ATOM      4  C2  OXE d   1      -1.268  -5.993  -3.713  0.00  0.00    -0.078 A 
ATOM      5  C3  OXE d   1      -1.518  -5.947  -5.082  0.00  0.00     0.003 A 
ATOM      6  C4  OXE d   1      -0.460  -5.999  -5.998  0.00  0.00    -0.002 A 
ATOM      7  C5  OXE d   1       0.866  -5.984  -5.553  0.00  0.00    -0.002 A 
ATOM      8  C6  OXE d   1       1.126  -5.911  -4.189  0.00  0.00     0.003 A 
ENDROOT
TORSDOF 0
ENDMDL
