MODEL 1
REMARK minimizedAffinity 4.42641163
REMARK minimizedRMSD -1
REMARK  0 active torsions:
REMARK  status: ('A' for Active; 'I' for Inactive)
ROOT
ATOM      1  C2' OXE d   1       1.001  -5.386  -4.473  0.00  0.00     0.078 C 
ATOM      2  C1' OXE d   1      -1.415  -5.934  -5.792  0.00  0.00     0.078 C 
ATOM      3  C1  OXE d   1      -1.441  -5.843  -4.287  0.00  0.00    -0.078 A 
ATOM      4  C2  OXE d   1      -0.245  -5.621  -3.646  0.00  0.00    -0.078 A 
ATOM      5  C3  OXE d   1      -0.221  -5.473  -2.263  0.00  0.00     0.003 A 
ATOM      6  C4  OXE d   1      -1.377  -5.701  -1.505  0.00  0.00    -0.002 A 
ATOM      7  C5  OXE d   1      -2.597  -5.968  -2.135  0.00  0.00    -0.002 A 
ATOM      8  C6  OXE d   1      -2.655  -6.000  -3.524  0.00  0.00     0.003 A 
ENDROOT
TORSDOF 0
ENDMDL
