MODEL 1
REMARK minimizedAffinity 9.31369209
REMARK minimizedRMSD -1
REMARK  0 active torsions:
REMARK  status: ('A' for Active; 'I' for Inactive)
ROOT
ATOM      1  C2' OXE d   1      -1.459  -5.952  -5.999  0.00  0.00     0.078 C 
ATOM      2  C1' OXE d   1      -1.435  -5.953  -3.192  0.00  0.00     0.078 C 
ATOM      3  C1  OXE d   1      -0.107  -5.953  -3.907  0.00  0.00    -0.078 A 
ATOM      4  C2  OXE d   1      -0.128  -5.999  -5.280  0.00  0.00    -0.078 A 
ATOM      5  C3  OXE d   1       1.068  -5.945  -5.990  0.00  0.00     0.003 A 
ATOM      6  C4  OXE d   1       2.295  -5.999  -5.317  0.00  0.00    -0.002 A 
ATOM      7  C5  OXE d   1       2.338  -5.993  -3.919  0.00  0.00    -0.002 A 
ATOM      8  C6  OXE d   1       1.150  -5.926  -3.200  0.00  0.00     0.003 A 
ENDROOT
TORSDOF 0
ENDMDL
