MODEL 1
REMARK minimizedAffinity 1.8175745
REMARK minimizedRMSD -1
REMARK  0 active torsions:
REMARK  status: ('A' for Active; 'I' for Inactive)
ROOT
ATOM      1  C2' OXE d   1      -1.019  -5.958  -1.139  0.00  0.00     0.078 C 
ATOM      2  C1' OXE d   1      -3.305  -5.930  -2.768  0.00  0.00     0.078 C 
ATOM      3  C1  OXE d   1      -1.958  -5.945  -3.446  0.00  0.00    -0.078 A 
ATOM      4  C2  OXE d   1      -0.845  -5.911  -2.641  0.00  0.00    -0.078 A 
ATOM      5  C3  OXE d   1       0.422  -5.978  -3.214  0.00  0.00     0.003 A 
ATOM      6  C4  OXE d   1       0.575  -5.924  -4.605  0.00  0.00    -0.002 A 
ATOM      7  C5  OXE d   1      -0.546  -5.918  -5.443  0.00  0.00    -0.002 A 
ATOM      8  C6  OXE d   1      -1.816  -5.971  -4.881  0.00  0.00     0.003 A 
ENDROOT
TORSDOF 0
ENDMDL
