MODEL 1
REMARK minimizedAffinity -1.60025549
REMARK minimizedRMSD -1
REMARK  0 active torsions:
REMARK  status: ('A' for Active; 'I' for Inactive)
ROOT
ATOM      1  C2' OXE d   1       1.113  -6.000  -2.247  0.00  0.00     0.078 C 
ATOM      2  C1' OXE d   1       1.958  -5.802  -4.916  0.00  0.00     0.078 C 
ATOM      3  C1  OXE d   1       0.474  -5.853  -4.650  0.00  0.00    -0.078 A 
ATOM      4  C2  OXE d   1       0.071  -5.996  -3.344  0.00  0.00    -0.078 A 
ATOM      5  C3  OXE d   1      -1.287  -5.993  -3.038  0.00  0.00     0.003 A 
ATOM      6  C4  OXE d   1      -2.244  -6.000  -4.060  0.00  0.00    -0.002 A 
ATOM      7  C5  OXE d   1      -1.854  -5.894  -5.399  0.00  0.00    -0.002 A 
ATOM      8  C6  OXE d   1      -0.503  -5.777  -5.708  0.00  0.00     0.003 A 
ENDROOT
TORSDOF 0
ENDMDL
