MODEL 1
REMARK minimizedAffinity 0.574937284
REMARK minimizedRMSD -1
REMARK  0 active torsions:
REMARK  status: ('A' for Active; 'I' for Inactive)
ROOT
ATOM      1  C2' OXE d   1      -0.767  -5.998  -1.668  0.00  0.00     0.078 C 
ATOM      2  C1' OXE d   1      -3.196  -5.997  -3.075  0.00  0.00     0.078 C 
ATOM      3  C1  OXE d   1      -1.919  -5.949  -3.876  0.00  0.00    -0.078 A 
ATOM      4  C2  OXE d   1      -0.737  -5.902  -3.178  0.00  0.00    -0.078 A 
ATOM      5  C3  OXE d   1       0.472  -5.912  -3.869  0.00  0.00     0.003 A 
ATOM      6  C4  OXE d   1       0.491  -5.813  -5.265  0.00  0.00    -0.002 A 
ATOM      7  C5  OXE d   1      -0.703  -5.818  -5.994  0.00  0.00    -0.002 A 
ATOM      8  C6  OXE d   1      -1.913  -5.929  -5.318  0.00  0.00     0.003 A 
ENDROOT
TORSDOF 0
ENDMDL
