MODEL 1
REMARK minimizedAffinity -1.79362798
REMARK minimizedRMSD -1
REMARK  0 active torsions:
REMARK  status: ('A' for Active; 'I' for Inactive)
ROOT
ATOM      1  C2' OXE d   1       1.804  -5.972  -2.655  0.00  0.00     0.078 C 
ATOM      2  C1' OXE d   1       1.321  -5.988  -5.420  0.00  0.00     0.078 C 
ATOM      3  C1  OXE d   1       0.128  -5.961  -4.498  0.00  0.00    -0.078 A 
ATOM      4  C2  OXE d   1       0.373  -6.000  -3.146  0.00  0.00    -0.078 A 
ATOM      5  C3  OXE d   1      -0.690  -5.921  -2.251  0.00  0.00     0.003 A 
ATOM      6  C4  OXE d   1      -2.011  -5.958  -2.713  0.00  0.00    -0.002 A 
ATOM      7  C5  OXE d   1      -2.283  -5.958  -4.085  0.00  0.00    -0.002 A 
ATOM      8  C6  OXE d   1      -1.227  -5.917  -4.989  0.00  0.00     0.003 A 
ENDROOT
TORSDOF 0
ENDMDL
