MODEL 1
REMARK minimizedAffinity -2.24259639
REMARK minimizedRMSD -1
REMARK  0 active torsions:
REMARK  status: ('A' for Active; 'I' for Inactive)
ROOT
ATOM      1  C2' OXE d   1      -0.750  -5.863  -1.645  0.00  0.00     0.078 C 
ATOM      2  C1' OXE d   1      -2.923  -5.827  -3.422  0.00  0.00     0.078 C 
ATOM      3  C1  OXE d   1      -1.536  -5.905  -4.009  0.00  0.00    -0.078 A 
ATOM      4  C2  OXE d   1      -0.476  -5.875  -3.134  0.00  0.00    -0.078 A 
ATOM      5  C3  OXE d   1       0.822  -5.999  -3.619  0.00  0.00     0.003 A 
ATOM      6  C4  OXE d   1       1.066  -5.999  -4.998  0.00  0.00    -0.002 A 
ATOM      7  C5  OXE d   1       0.004  -5.990  -5.907  0.00  0.00    -0.002 A 
ATOM      8  C6  OXE d   1      -1.302  -5.986  -5.429  0.00  0.00     0.003 A 
ENDROOT
TORSDOF 0
ENDMDL
