MODEL 1
REMARK minimizedAffinity 3.85817838
REMARK minimizedRMSD -1
REMARK  0 active torsions:
REMARK  status: ('A' for Active; 'I' for Inactive)
ROOT
ATOM      1  C2' OXE d   1      -0.034  -5.646  -1.277  0.00  0.00     0.078 C 
ATOM      2  C1' OXE d   1      -2.465  -5.999  -2.635  0.00  0.00     0.078 C 
ATOM      3  C1  OXE d   1      -1.207  -5.896  -3.460  0.00  0.00    -0.078 A 
ATOM      4  C2  OXE d   1      -0.028  -5.676  -2.790  0.00  0.00    -0.078 A 
ATOM      5  C3  OXE d   1       1.169  -5.628  -3.499  0.00  0.00     0.003 A 
ATOM      6  C4  OXE d   1       1.165  -5.646  -4.899  0.00  0.00    -0.002 A 
ATOM      7  C5  OXE d   1      -0.030  -5.829  -5.603  0.00  0.00    -0.002 A 
ATOM      8  C6  OXE d   1      -1.217  -5.998  -4.899  0.00  0.00     0.003 A 
ENDROOT
TORSDOF 0
ENDMDL
