MODEL 1
REMARK minimizedAffinity 7.67152357
REMARK minimizedRMSD -1
REMARK  0 active torsions:
REMARK  status: ('A' for Active; 'I' for Inactive)
ROOT
ATOM      1  C2' OXE d   1       1.936  -5.938  -3.049  0.00  0.00     0.078 C 
ATOM      2  C1' OXE d   1       1.789  -5.994  -5.851  0.00  0.00     0.078 C 
ATOM      3  C1  OXE d   1       0.494  -5.971  -5.079  0.00  0.00    -0.078 A 
ATOM      4  C2  OXE d   1       0.575  -5.990  -3.708  0.00  0.00    -0.078 A 
ATOM      5  C3  OXE d   1      -0.588  -5.915  -2.947  0.00  0.00     0.003 A 
ATOM      6  C4  OXE d   1      -1.844  -5.974  -3.564  0.00  0.00    -0.002 A 
ATOM      7  C5  OXE d   1      -1.949  -5.994  -4.959  0.00  0.00    -0.002 A 
ATOM      8  C6  OXE d   1      -0.793  -5.950  -5.730  0.00  0.00     0.003 A 
ENDROOT
TORSDOF 0
ENDMDL
