MODEL 1
REMARK minimizedAffinity 6.58751774
REMARK minimizedRMSD -1
REMARK  0 active torsions:
REMARK  status: ('A' for Active; 'I' for Inactive)
ROOT
ATOM      1  C2' OXE d   1       4.387   0.317  -1.328  0.00  0.00     0.078 C 
ATOM      2  C1' OXE d   1       4.959  -0.217   1.368  0.00  0.00     0.078 C 
ATOM      3  C1  OXE d   1       3.519   0.026   0.988  0.00  0.00    -0.078 A 
ATOM      4  C2  OXE d   1       3.255   0.332  -0.325  0.00  0.00    -0.078 A 
ATOM      5  C3  OXE d   1       1.938   0.511  -0.739  0.00  0.00     0.003 A 
ATOM      6  C4  OXE d   1       0.897   0.533   0.197  0.00  0.00    -0.002 A 
ATOM      7  C5  OXE d   1       1.150   0.262   1.546  0.00  0.00    -0.002 A 
ATOM      8  C6  OXE d   1       2.447  -0.035   1.950  0.00  0.00     0.003 A 
ENDROOT
TORSDOF 0
ENDMDL
