MODEL 1
REMARK minimizedAffinity 8.60017967
REMARK minimizedRMSD -1
REMARK  0 active torsions:
REMARK  status: ('A' for Active; 'I' for Inactive)
ROOT
ATOM      1  C2' OXE d   1      -0.006  -4.943  -0.787  0.00  0.00     0.078 C 
ATOM      2  C1' OXE d   1      -2.089  -5.519  -2.578  0.00  0.00     0.078 C 
ATOM      3  C1  OXE d   1      -0.674  -5.608  -3.093  0.00  0.00    -0.078 A 
ATOM      4  C2  OXE d   1       0.337  -5.279  -2.222  0.00  0.00    -0.078 A 
ATOM      5  C3  OXE d   1       1.663  -5.397  -2.630  0.00  0.00     0.003 A 
ATOM      6  C4  OXE d   1       1.971  -5.699  -3.962  0.00  0.00    -0.002 A 
ATOM      7  C5  OXE d   1       0.955  -5.999  -4.875  0.00  0.00    -0.002 A 
ATOM      8  C6  OXE d   1      -0.368  -6.000  -4.447  0.00  0.00     0.003 A 
ENDROOT
TORSDOF 0
ENDMDL
