MODEL 1
REMARK minimizedAffinity 0.820588052
REMARK minimizedRMSD -1
REMARK  0 active torsions:
REMARK  status: ('A' for Active; 'I' for Inactive)
ROOT
ATOM      1  C2' OXE d   1       1.802  -5.992  -5.619  0.00  0.00     0.078 C 
ATOM      2  C1' OXE d   1       1.800  -6.000  -2.811  0.00  0.00     0.078 C 
ATOM      3  C1  OXE d   1       0.467  -5.984  -3.515  0.00  0.00    -0.078 A 
ATOM      4  C2  OXE d   1       0.477  -5.932  -4.889  0.00  0.00    -0.078 A 
ATOM      5  C3  OXE d   1      -0.725  -5.971  -5.589  0.00  0.00     0.003 A 
ATOM      6  C4  OXE d   1      -1.946  -5.906  -4.906  0.00  0.00    -0.002 A 
ATOM      7  C5  OXE d   1      -1.978  -5.917  -3.508  0.00  0.00    -0.002 A 
ATOM      8  C6  OXE d   1      -0.785  -5.998  -2.799  0.00  0.00     0.003 A 
ENDROOT
TORSDOF 0
ENDMDL
