MODEL 1
REMARK minimizedAffinity -2.97738028
REMARK minimizedRMSD -1
REMARK  0 active torsions:
REMARK  status: ('A' for Active; 'I' for Inactive)
ROOT
ATOM      1  C2' OXE d   1       0.767  -5.015  -2.271  0.00  0.00     0.078 C 
ATOM      2  C1' OXE d   1      -1.861  -5.999  -2.204  0.00  0.00     0.078 C 
ATOM      3  C1  OXE d   1      -1.242  -5.737  -3.555  0.00  0.00    -0.078 A 
ATOM      4  C2  OXE d   1       0.027  -5.211  -3.577  0.00  0.00    -0.078 A 
ATOM      5  C3  OXE d   1       0.665  -5.002  -4.796  0.00  0.00     0.003 A 
ATOM      6  C4  OXE d   1      -0.030  -5.176  -5.999  0.00  0.00    -0.002 A 
ATOM      7  C5  OXE d   1      -1.337  -5.673  -5.998  0.00  0.00    -0.002 A 
ATOM      8  C6  OXE d   1      -1.942  -5.998  -4.788  0.00  0.00     0.003 A 
ENDROOT
TORSDOF 0
ENDMDL
