MODEL 1
REMARK minimizedAffinity 6.63741016
REMARK minimizedRMSD -1
REMARK  0 active torsions:
REMARK  status: ('A' for Active; 'I' for Inactive)
ROOT
ATOM      1  C2' OXE d   1      -1.494  -6.000  -5.999  0.00  0.00     0.078 C 
ATOM      2  C1' OXE d   1      -1.469  -5.781  -3.200  0.00  0.00     0.078 C 
ATOM      3  C1  OXE d   1      -0.141  -5.838  -3.914  0.00  0.00    -0.078 A 
ATOM      4  C2  OXE d   1      -0.163  -5.992  -5.279  0.00  0.00    -0.078 A 
ATOM      5  C3  OXE d   1       1.033  -5.995  -5.991  0.00  0.00     0.003 A 
ATOM      6  C4  OXE d   1       2.260  -5.997  -5.317  0.00  0.00    -0.002 A 
ATOM      7  C5  OXE d   1       2.305  -5.881  -3.924  0.00  0.00    -0.002 A 
ATOM      8  C6  OXE d   1       1.117  -5.757  -3.212  0.00  0.00     0.003 A 
ENDROOT
TORSDOF 0
ENDMDL
