MODEL 1
REMARK minimizedAffinity 11.9212666
REMARK minimizedRMSD -1
REMARK  0 active torsions:
REMARK  status: ('A' for Active; 'I' for Inactive)
ROOT
ATOM      1  C2' OXE d   1      -3.061  -5.909  -2.289  0.00  0.00     0.078 C 
ATOM      2  C1' OXE d   1      -0.257  -5.938  -2.145  0.00  0.00     0.078 C 
ATOM      3  C1  OXE d   1      -0.892  -5.940  -3.514  0.00  0.00    -0.078 A 
ATOM      4  C2  OXE d   1      -2.264  -5.973  -3.574  0.00  0.00    -0.078 A 
ATOM      5  C3  OXE d   1      -2.901  -5.920  -4.811  0.00  0.00     0.003 A 
ATOM      6  C4  OXE d   1      -2.157  -5.990  -5.995  0.00  0.00    -0.002 A 
ATOM      7  C5  OXE d   1      -0.759  -5.997  -5.955  0.00  0.00    -0.002 A 
ATOM      8  C6  OXE d   1      -0.111  -5.930  -4.727  0.00  0.00     0.003 A 
ENDROOT
TORSDOF 0
ENDMDL
