MODEL 1
REMARK minimizedAffinity 1.24738348
REMARK minimizedRMSD -1
REMARK  0 active torsions:
REMARK  status: ('A' for Active; 'I' for Inactive)
ROOT
ATOM      1  C2' OXE d   1       0.463   1.478   0.298  0.00  0.00     0.078 C 
ATOM      2  C1' OXE d   1       0.182  -0.081  -2.019  0.00  0.00     0.078 C 
ATOM      3  C1  OXE d   1       0.268  -0.798  -0.695  0.00  0.00    -0.078 A 
ATOM      4  C2  OXE d   1       0.452  -0.030   0.429  0.00  0.00    -0.078 A 
ATOM      5  C3  OXE d   1       0.483  -0.637   1.682  0.00  0.00     0.003 A 
ATOM      6  C4  OXE d   1       0.482  -2.032   1.793  0.00  0.00    -0.002 A 
ATOM      7  C5  OXE d   1       0.335  -2.835   0.657  0.00  0.00    -0.002 A 
ATOM      8  C6  OXE d   1       0.184  -2.234  -0.588  0.00  0.00     0.003 A 
ENDROOT
TORSDOF 0
ENDMDL
