MODEL 1
REMARK minimizedAffinity -3.18337536
REMARK minimizedRMSD -1
REMARK  0 active torsions:
REMARK  status: ('A' for Active; 'I' for Inactive)
ROOT
ATOM      1  N1  IND d   1       0.332  -0.196  -1.340  0.00  0.00    -0.196 N 
ATOM      2  C2  IND d   1      -0.741  -0.951  -0.960  0.00  0.00     0.054 A 
ATOM      3  C3  IND d   1      -1.201  -0.543   0.244  0.00  0.00    -0.031 A 
ATOM      4  C4  IND d   1      -0.408   1.412   1.720  0.00  0.00     0.051 A 
ATOM      5  C5  IND d   1       0.564   2.368   1.810  0.00  0.00    -0.031 A 
ATOM      6  C6  IND d   1       1.527   2.524   0.834  0.00  0.00     0.015 A 
ATOM      7  C7  IND d   1       1.546   1.732  -0.280  0.00  0.00    -0.016 A 
ATOM      8  C8  IND d   1       0.564   0.756  -0.371  0.00  0.00    -0.047 A 
ATOM      9  C9  IND d   1      -0.389   0.565   0.637  0.00  0.00    -0.096 A 
ATOM     10  HN1 IND d   1       0.786  -0.298  -2.063  0.00  0.00     0.298 HD
ENDROOT
TORSDOF 0
ENDMDL
