MODEL 1
REMARK minimizedAffinity -3.52780533
REMARK minimizedRMSD -1
REMARK  0 active torsions:
REMARK  status: ('A' for Active; 'I' for Inactive)
ROOT
ATOM      1  N1  IND d   1       1.955   0.069  -0.501  0.00  0.00    -0.196 N 
ATOM      2  C2  IND d   1       1.326  -1.097  -0.839  0.00  0.00     0.054 A 
ATOM      3  C3  IND d   1       0.163  -1.218  -0.160  0.00  0.00    -0.031 A 
ATOM      4  C4  IND d   1      -0.952   0.425   1.479  0.00  0.00     0.051 A 
ATOM      5  C5  IND d   1      -0.740   1.608   2.130  0.00  0.00    -0.031 A 
ATOM      6  C6  IND d   1       0.403   2.355   1.930  0.00  0.00     0.015 A 
ATOM      7  C7  IND d   1       1.376   1.950   1.060  0.00  0.00    -0.016 A 
ATOM      8  C8  IND d   1       1.167   0.746   0.404  0.00  0.00    -0.047 A 
ATOM      9  C9  IND d   1       0.029  -0.037   0.634  0.00  0.00    -0.096 A 
ATOM     10  HN1 IND d   1       2.715   0.334  -0.803  0.00  0.00     0.298 HD
ENDROOT
TORSDOF 0
ENDMDL
