MODEL 1
REMARK minimizedAffinity -2.49488497
REMARK minimizedRMSD -1
REMARK  0 active torsions:
REMARK  status: ('A' for Active; 'I' for Inactive)
ROOT
ATOM      1  N1  IND d   1      -0.767  -0.774   1.309  0.00  0.00    -0.196 N 
ATOM      2  C2  IND d   1      -0.741  -1.432   0.111  0.00  0.00     0.054 A 
ATOM      3  C3  IND d   1      -0.118  -0.681  -0.825  0.00  0.00    -0.031 A 
ATOM      4  C4  IND d   1       1.025   1.613  -0.585  0.00  0.00     0.051 A 
ATOM      5  C5  IND d   1       1.229   2.627   0.309  0.00  0.00    -0.031 A 
ATOM      6  C6  IND d   1       0.772   2.556   1.609  0.00  0.00     0.015 A 
ATOM      7  C7  IND d   1       0.100   1.459   2.068  0.00  0.00    -0.016 A 
ATOM      8  C8  IND d   1      -0.116   0.431   1.162  0.00  0.00    -0.047 A 
ATOM      9  C9  IND d   1       0.309   0.515  -0.171  0.00  0.00    -0.096 A 
ATOM     10  HN1 IND d   1      -1.129  -1.064   2.033  0.00  0.00     0.298 HD
ENDROOT
TORSDOF 0
ENDMDL
