MODEL 1
REMARK minimizedAffinity -0.0352767408
REMARK minimizedRMSD -1
REMARK  0 active torsions:
REMARK  status: ('A' for Active; 'I' for Inactive)
ROOT
ATOM      1  N1  IND d   1       0.150   2.266   2.072  0.00  0.00    -0.196 N 
ATOM      2  C2  IND d   1       0.918   3.064   1.271  0.00  0.00     0.054 A 
ATOM      3  C3  IND d   1       1.211   2.428   0.115  0.00  0.00    -0.031 A 
ATOM      4  C4  IND d   1       0.452   0.113  -0.716  0.00  0.00     0.051 A 
ATOM      5  C5  IND d   1      -0.230  -1.003  -0.320  0.00  0.00    -0.031 A 
ATOM      6  C6  IND d   1      -0.835  -1.088   0.917  0.00  0.00     0.015 A 
ATOM      7  C7  IND d   1      -0.790  -0.050   1.804  0.00  0.00    -0.016 A 
ATOM      8  C8  IND d   1      -0.092   1.083   1.408  0.00  0.00    -0.047 A 
ATOM      9  C9  IND d   1       0.560   1.158   0.171  0.00  0.00    -0.096 A 
ATOM     10  HN1 IND d   1      -0.135   2.468   2.857  0.00  0.00     0.298 HD
ENDROOT
TORSDOF 0
ENDMDL
