MODEL 1
REMARK minimizedAffinity -4.02031755
REMARK minimizedRMSD -1
REMARK  0 active torsions:
REMARK  status: ('A' for Active; 'I' for Inactive)
ROOT
ATOM      1  N1  IND d   1       1.764  -0.837  -0.537  0.00  0.00    -0.196 N 
ATOM      2  C2  IND d   1       0.663  -1.647  -0.553  0.00  0.00     0.054 A 
ATOM      3  C3  IND d   1      -0.364  -1.058   0.099  0.00  0.00    -0.031 A 
ATOM      4  C4  IND d   1      -0.492   1.274   1.182  0.00  0.00     0.051 A 
ATOM      5  C5  IND d   1       0.274   2.366   1.481  0.00  0.00    -0.031 A 
ATOM      6  C6  IND d   1       1.601   2.449   1.113  0.00  0.00     0.015 A 
ATOM      7  C7  IND d   1       2.212   1.443   0.419  0.00  0.00    -0.016 A 
ATOM      8  C8  IND d   1       1.440   0.330   0.120  0.00  0.00    -0.047 A 
ATOM      9  C9  IND d   1       0.104   0.222   0.528  0.00  0.00    -0.096 A 
ATOM     10  HN1 IND d   1       2.530  -1.025  -0.880  0.00  0.00     0.298 HD
ENDROOT
TORSDOF 0
ENDMDL
