MODEL 1
REMARK minimizedAffinity -3.72253394
REMARK minimizedRMSD -1
REMARK  0 active torsions:
REMARK  status: ('A' for Active; 'I' for Inactive)
ROOT
ATOM      1  N1  IND d   1      -0.431  -0.741   1.723  0.00  0.00    -0.196 N 
ATOM      2  C2  IND d   1      -1.260  -0.117   2.613  0.00  0.00     0.054 A 
ATOM      3  C3  IND d   1      -1.182   1.225   2.466  0.00  0.00    -0.031 A 
ATOM      4  C4  IND d   1       0.161   2.609   0.761  0.00  0.00     0.051 A 
ATOM      5  C5  IND d   1       1.092   2.486  -0.232  0.00  0.00    -0.031 A 
ATOM      6  C6  IND d   1       1.570   1.255  -0.635  0.00  0.00     0.015 A 
ATOM      7  C7  IND d   1       1.124   0.097  -0.064  0.00  0.00    -0.016 A 
ATOM      8  C8  IND d   1       0.185   0.219   0.950  0.00  0.00    -0.047 A 
ATOM      9  C9  IND d   1      -0.272   1.467   1.392  0.00  0.00    -0.096 A 
ATOM     10  HN1 IND d   1      -0.315  -1.590   1.656  0.00  0.00     0.298 HD
ENDROOT
TORSDOF 0
ENDMDL
