MODEL 1
REMARK minimizedAffinity -3.27059889
REMARK minimizedRMSD -1
REMARK  0 active torsions:
REMARK  status: ('A' for Active; 'I' for Inactive)
ROOT
ATOM      1  N1  IND d   1       0.456   1.954   1.945  0.00  0.00    -0.196 N 
ATOM      2  C2  IND d   1       1.094   2.798   1.080  0.00  0.00     0.054 A 
ATOM      3  C3  IND d   1       1.088   2.283  -0.170  0.00  0.00    -0.031 A 
ATOM      4  C4  IND d   1       0.001   0.119  -1.042  0.00  0.00     0.051 A 
ATOM      5  C5  IND d   1      -0.662  -0.999  -0.620  0.00  0.00    -0.031 A 
ATOM      6  C6  IND d   1      -0.996  -1.193   0.705  0.00  0.00     0.015 A 
ATOM      7  C7  IND d   1      -0.687  -0.266   1.660  0.00  0.00    -0.016 A 
ATOM      8  C8  IND d   1      -0.007   0.867   1.236  0.00  0.00    -0.047 A 
ATOM      9  C9  IND d   1       0.371   1.050  -0.101  0.00  0.00    -0.096 A 
ATOM     10  HN1 IND d   1       0.360   2.080   2.790  0.00  0.00     0.298 HD
ENDROOT
TORSDOF 0
ENDMDL
