MODEL 1
REMARK minimizedAffinity -4.71977043
REMARK minimizedRMSD -1
REMARK  0 active torsions:
REMARK  status: ('A' for Active; 'I' for Inactive)
ROOT
ATOM      1  N1  IND d   1      -0.462   0.505  -1.559  0.00  0.00    -0.196 N 
ATOM      2  C2  IND d   1      -0.258  -0.826  -1.323  0.00  0.00     0.054 A 
ATOM      3  C3  IND d   1       0.235  -1.012  -0.078  0.00  0.00    -0.031 A 
ATOM      4  C4  IND d   1       0.688   0.714   1.777  0.00  0.00     0.051 A 
ATOM      5  C5  IND d   1       0.690   2.059   2.020  0.00  0.00    -0.031 A 
ATOM      6  C6  IND d   1       0.298   2.973   1.063  0.00  0.00     0.015 A 
ATOM      7  C7  IND d   1      -0.123   2.574  -0.173  0.00  0.00    -0.016 A 
ATOM      8  C8  IND d   1      -0.120   1.209  -0.425  0.00  0.00    -0.047 A 
ATOM      9  C9  IND d   1       0.317   0.279   0.527  0.00  0.00    -0.096 A 
ATOM     10  HN1 IND d   1      -0.754   0.845  -2.293  0.00  0.00     0.298 HD
ENDROOT
TORSDOF 0
ENDMDL
