MODEL 1
REMARK minimizedAffinity -2.03274989
REMARK minimizedRMSD -1
REMARK  0 active torsions:
REMARK  status: ('A' for Active; 'I' for Inactive)
ROOT
ATOM      1  N1  IND d   1       1.951   1.377   0.315  0.00  0.00    -0.196 N 
ATOM      2  C2  IND d   1       1.409   2.015   1.396  0.00  0.00     0.054 A 
ATOM      3  C3  IND d   1       0.272   1.397   1.785  0.00  0.00    -0.031 A 
ATOM      4  C4  IND d   1      -0.831  -0.736   0.857  0.00  0.00     0.051 A 
ATOM      5  C5  IND d   1      -0.725  -1.652  -0.152  0.00  0.00    -0.031 A 
ATOM      6  C6  IND d   1       0.301  -1.606  -1.073  0.00  0.00     0.015 A 
ATOM      7  C7  IND d   1       1.270  -0.644  -1.013  0.00  0.00    -0.016 A 
ATOM      8  C8  IND d   1       1.161   0.292   0.005  0.00  0.00    -0.047 A 
ATOM      9  C9  IND d   1       0.098   0.276   0.917  0.00  0.00    -0.096 A 
ATOM     10  HN1 IND d   1       2.665   1.614  -0.102  0.00  0.00     0.298 HD
ENDROOT
TORSDOF 0
ENDMDL
