MODEL 1
REMARK minimizedAffinity -0.405168325
REMARK minimizedRMSD -1
REMARK  0 active torsions:
REMARK  status: ('A' for Active; 'I' for Inactive)
ROOT
ATOM      1  N1  IND d   1       1.728   0.028   0.052  0.00  0.00    -0.196 N 
ATOM      2  C2  IND d   1       1.144  -0.872  -0.795  0.00  0.00     0.054 A 
ATOM      3  C3  IND d   1      -0.172  -0.999  -0.512  0.00  0.00    -0.031 A 
ATOM      4  C4  IND d   1      -1.598   0.250   1.229  0.00  0.00     0.051 A 
ATOM      5  C5  IND d   1      -1.502   1.143   2.260  0.00  0.00    -0.031 A 
ATOM      6  C6  IND d   1      -0.301   1.724   2.612  0.00  0.00     0.015 A 
ATOM      7  C7  IND d   1       0.852   1.440   1.937  0.00  0.00    -0.016 A 
ATOM      8  C8  IND d   1       0.760   0.529   0.895  0.00  0.00    -0.047 A 
ATOM      9  C9  IND d   1      -0.448  -0.096   0.560  0.00  0.00    -0.096 A 
ATOM     10  HN1 IND d   1       2.560   0.246   0.057  0.00  0.00     0.298 HD
ENDROOT
TORSDOF 0
ENDMDL
