MODEL 1
REMARK minimizedAffinity -0.223572642
REMARK minimizedRMSD -1
REMARK  0 active torsions:
REMARK  status: ('A' for Active; 'I' for Inactive)
ROOT
ATOM      1  N1  IND d   1       0.496  -0.605  -1.118  0.00  0.00    -0.196 N 
ATOM      2  C2  IND d   1      -0.492  -1.499  -0.816  0.00  0.00     0.054 A 
ATOM      3  C3  IND d   1      -1.087  -1.166   0.352  0.00  0.00    -0.031 A 
ATOM      4  C4  IND d   1      -0.668   0.862   1.881  0.00  0.00     0.051 A 
ATOM      5  C5  IND d   1       0.160   1.937   2.042  0.00  0.00    -0.031 A 
ATOM      6  C6  IND d   1       1.161   2.228   1.137  0.00  0.00     0.015 A 
ATOM      7  C7  IND d   1       1.365   1.456   0.028  0.00  0.00    -0.016 A 
ATOM      8  C8  IND d   1       0.530   0.360  -0.134  0.00  0.00    -0.047 A 
ATOM      9  C9  IND d   1      -0.460   0.035   0.802  0.00  0.00    -0.096 A 
ATOM     10  HN1 IND d   1       1.011  -0.639  -1.806  0.00  0.00     0.298 HD
ENDROOT
TORSDOF 0
ENDMDL
