MODEL 1
REMARK minimizedAffinity -4.5887475
REMARK minimizedRMSD -1
REMARK  0 active torsions:
REMARK  status: ('A' for Active; 'I' for Inactive)
ROOT
ATOM      1  N1  IND d   1      -0.153  -0.719  -0.637  0.00  0.00    -0.196 N 
ATOM      2  C2  IND d   1      -0.711  -1.471   0.358  0.00  0.00     0.054 A 
ATOM      3  C3  IND d   1      -0.655  -0.809   1.536  0.00  0.00    -0.031 A 
ATOM      4  C4  IND d   1       0.217   1.559   2.041  0.00  0.00     0.051 A 
ATOM      5  C5  IND d   1       0.855   2.619   1.459  0.00  0.00    -0.031 A 
ATOM      6  C6  IND d   1       1.194   2.621   0.122  0.00  0.00     0.015 A 
ATOM      7  C7  IND d   1       0.896   1.564  -0.690  0.00  0.00    -0.016 A 
ATOM      8  C8  IND d   1       0.255   0.483  -0.102  0.00  0.00    -0.047 A 
ATOM      9  C9  IND d   1      -0.054   0.458   1.264  0.00  0.00    -0.096 A 
ATOM     10  HN1 IND d   1      -0.069  -0.957  -1.459  0.00  0.00     0.298 HD
ENDROOT
TORSDOF 0
ENDMDL
