MODEL 1
REMARK minimizedAffinity -2.9867444
REMARK minimizedRMSD -1
REMARK  0 active torsions:
REMARK  status: ('A' for Active; 'I' for Inactive)
ROOT
ATOM      1  N1  IND d   1       0.757  -0.778  -1.037  0.00  0.00    -0.196 N 
ATOM      2  C2  IND d   1      -0.313  -1.518  -1.454  0.00  0.00     0.054 A 
ATOM      3  C3  IND d   1      -1.418  -1.187  -0.749  0.00  0.00    -0.031 A 
ATOM      4  C4  IND d   1      -1.721   0.613   1.066  0.00  0.00     0.051 A 
ATOM      5  C5  IND d   1      -1.021   1.520   1.811  0.00  0.00    -0.031 A 
ATOM      6  C6  IND d   1       0.335   1.713   1.640  0.00  0.00     0.015 A 
ATOM      7  C7  IND d   1       1.042   1.011   0.705  0.00  0.00    -0.016 A 
ATOM      8  C8  IND d   1       0.335   0.084  -0.049  0.00  0.00    -0.047 A 
ATOM      9  C9  IND d   1      -1.032  -0.146   0.150  0.00  0.00    -0.096 A 
ATOM     10  HN1 IND d   1       1.560  -0.841  -1.340  0.00  0.00     0.298 HD
ENDROOT
TORSDOF 0
ENDMDL
