MODEL 1
REMARK minimizedAffinity -1.88301861
REMARK minimizedRMSD -1
REMARK  0 active torsions:
REMARK  status: ('A' for Active; 'I' for Inactive)
ROOT
ATOM      1  N1  IND d   1       0.503  -0.172  -1.297  0.00  0.00    -0.196 N 
ATOM      2  C2  IND d   1      -0.434  -1.166  -1.258  0.00  0.00     0.054 A 
ATOM      3  C3  IND d   1      -1.102  -1.137  -0.083  0.00  0.00    -0.031 A 
ATOM      4  C4  IND d   1      -0.892   0.519   1.877  0.00  0.00     0.051 A 
ATOM      5  C5  IND d   1      -0.148   1.577   2.318  0.00  0.00    -0.031 A 
ATOM      6  C6  IND d   1       0.870   2.119   1.560  0.00  0.00     0.015 A 
ATOM      7  C7  IND d   1       1.176   1.628   0.322  0.00  0.00    -0.016 A 
ATOM      8  C8  IND d   1       0.427   0.549  -0.126  0.00  0.00    -0.047 A 
ATOM      9  C9  IND d   1      -0.579  -0.032   0.657  0.00  0.00    -0.096 A 
ATOM     10  HN1 IND d   1       1.049  -0.022  -1.945  0.00  0.00     0.298 HD
ENDROOT
TORSDOF 0
ENDMDL
