MODEL 1
REMARK minimizedAffinity -3.76288486
REMARK minimizedRMSD -1
REMARK  0 active torsions:
REMARK  status: ('A' for Active; 'I' for Inactive)
ROOT
ATOM      1  N1  IND d   1       1.663   2.320   0.339  0.00  0.00    -0.196 N 
ATOM      2  C2  IND d   1       1.104   3.015   1.376  0.00  0.00     0.054 A 
ATOM      3  C3  IND d   1       0.080   2.315   1.913  0.00  0.00    -0.031 A 
ATOM      4  C4  IND d   1      -0.787  -0.034   1.315  0.00  0.00     0.051 A 
ATOM      5  C5  IND d   1      -0.620  -1.047   0.412  0.00  0.00    -0.031 A 
ATOM      6  C6  IND d   1       0.339  -0.989  -0.579  0.00  0.00     0.015 A 
ATOM      7  C7  IND d   1       1.176   0.084  -0.698  0.00  0.00    -0.016 A 
ATOM      8  C8  IND d   1       1.004   1.117   0.212  0.00  0.00    -0.047 A 
ATOM      9  C9  IND d   1       0.005   1.083   1.193  0.00  0.00    -0.096 A 
ATOM     10  HN1 IND d   1       2.316   2.590  -0.151  0.00  0.00     0.298 HD
ENDROOT
TORSDOF 0
ENDMDL
