MODEL 1
REMARK minimizedAffinity -5.28544331
REMARK minimizedRMSD -1
REMARK  0 active torsions:
REMARK  status: ('A' for Active; 'I' for Inactive)
ROOT
ATOM      1  N1  IND d   1       0.317   1.995   1.937  0.00  0.00    -0.196 N 
ATOM      2  C2  IND d   1       1.357   2.670   1.361  0.00  0.00     0.054 A 
ATOM      3  C3  IND d   1       1.651   2.140   0.153  0.00  0.00    -0.031 A 
ATOM      4  C4  IND d   1       0.488   0.228  -1.120  0.00  0.00     0.051 A 
ATOM      5  C5  IND d   1      -0.487  -0.720  -0.985  0.00  0.00    -0.031 A 
ATOM      6  C6  IND d   1      -1.262  -0.811   0.153  0.00  0.00     0.015 A 
ATOM      7  C7  IND d   1      -1.097   0.053   1.199  0.00  0.00    -0.016 A 
ATOM      8  C8  IND d   1      -0.102   1.012   1.067  0.00  0.00    -0.047 A 
ATOM      9  C9  IND d   1       0.716   1.083  -0.068  0.00  0.00    -0.096 A 
ATOM     10  HN1 IND d   1      -0.018   2.156   2.712  0.00  0.00     0.298 HD
ENDROOT
TORSDOF 0
ENDMDL
