MODEL 1
REMARK minimizedAffinity -2.61125302
REMARK minimizedRMSD -1
REMARK  0 active torsions:
REMARK  status: ('A' for Active; 'I' for Inactive)
ROOT
ATOM      1  N1  IND d   1       0.834   0.043  -1.227  0.00  0.00    -0.196 N 
ATOM      2  C2  IND d   1       0.669   0.072   0.130  0.00  0.00     0.054 A 
ATOM      3  C3  IND d   1      -0.503  -0.507   0.474  0.00  0.00    -0.031 A 
ATOM      4  C4  IND d   1      -2.259  -1.657  -1.017  0.00  0.00     0.051 A 
ATOM      5  C5  IND d   1      -2.567  -1.902  -2.326  0.00  0.00    -0.031 A 
ATOM      6  C6  IND d   1      -1.739  -1.505  -3.356  0.00  0.00     0.015 A 
ATOM      7  C7  IND d   1      -0.562  -0.856  -3.114  0.00  0.00    -0.016 A 
ATOM      8  C8  IND d   1      -0.249  -0.600  -1.786  0.00  0.00    -0.047 A 
ATOM      9  C9  IND d   1      -1.106  -0.962  -0.739  0.00  0.00    -0.096 A 
ATOM     10  HN1 IND d   1       1.501   0.372  -1.659  0.00  0.00     0.298 HD
ENDROOT
TORSDOF 0
ENDMDL
