MODEL 1
REMARK minimizedAffinity -3.39788103
REMARK minimizedRMSD -1
REMARK  0 active torsions:
REMARK  status: ('A' for Active; 'I' for Inactive)
ROOT
ATOM      1  N1  IND d   1       0.980  -1.039  -0.301  0.00  0.00    -0.196 N 
ATOM      2  C2  IND d   1       2.066  -0.809  -1.100  0.00  0.00     0.054 A 
ATOM      3  C3  IND d   1       2.481   0.472  -0.971  0.00  0.00    -0.031 A 
ATOM      4  C4  IND d   1       1.591   2.334   0.567  0.00  0.00     0.051 A 
ATOM      5  C5  IND d   1       0.588   2.611   1.453  0.00  0.00    -0.031 A 
ATOM      6  C6  IND d   1      -0.353   1.666   1.809  0.00  0.00     0.015 A 
ATOM      7  C7  IND d   1      -0.319   0.400   1.298  0.00  0.00    -0.016 A 
ATOM      8  C8  IND d   1       0.694   0.116   0.393  0.00  0.00    -0.047 A 
ATOM      9  C9  IND d   1       1.626   1.084  -0.005  0.00  0.00    -0.096 A 
ATOM     10  HN1 IND d   1       0.549  -1.780  -0.243  0.00  0.00     0.298 HD
ENDROOT
TORSDOF 0
ENDMDL
