MODEL 1
REMARK minimizedAffinity 7.38851118
REMARK minimizedRMSD -1
REMARK  1 active torsions:
REMARK  status: ('A' for Active; 'I' for Inactive)
REMARK    1  A    between atoms: C1_2  and  C2_3 
ROOT
ATOM      1  C2  UNL d   1       0.079  -3.118   1.670  0.00  0.00    -0.076 A 
ATOM      2  C3  UNL d   1       0.170  -4.504   1.452  0.00  0.00     0.004 A 
ATOM      3  C4  UNL d   1       1.377  -5.094   1.083  0.00  0.00    -0.003 A 
ATOM      4  C5  UNL d   1       2.513  -4.309   0.925  0.00  0.00     0.000 A 
ATOM      5  C6  UNL d   1       2.445  -2.935   1.153  0.00  0.00     0.000 A 
ATOM      6  C7  UNL d   1       1.240  -2.326   1.542  0.00  0.00    -0.073 A 
ATOM      7  C8  UNL d   1       1.222  -0.839   1.770  0.00  0.00     0.078 C 
ENDROOT
BRANCH   1   8
ATOM      8  C1  UNL d   1      -1.264  -2.530   2.042  0.00  0.00     0.053 C 
ATOM      9  C   UNL d   1      -2.143  -3.516   2.795  0.00  0.00     0.018 C 
ENDBRANCH   1   8
TORSDOF 1
ENDMDL
