MODEL 1
REMARK minimizedAffinity 4.11740637
REMARK minimizedRMSD -1
REMARK  1 active torsions:
REMARK  status: ('A' for Active; 'I' for Inactive)
REMARK    1  A    between atoms: C1_2  and  C2_3 
ROOT
ATOM      1  C2  UNL d   1      -4.567   2.095  -4.417  0.00  0.00    -0.076 A 
ATOM      2  C3  UNL d   1      -3.636   2.943  -3.792  0.00  0.00     0.004 A 
ATOM      3  C4  UNL d   1      -2.931   2.526  -2.664  0.00  0.00    -0.003 A 
ATOM      4  C5  UNL d   1      -3.145   1.255  -2.143  0.00  0.00     0.000 A 
ATOM      5  C6  UNL d   1      -4.052   0.394  -2.761  0.00  0.00     0.000 A 
ATOM      6  C7  UNL d   1      -4.759   0.793  -3.908  0.00  0.00    -0.073 A 
ATOM      7  C8  UNL d   1      -5.729  -0.174  -4.530  0.00  0.00     0.078 C 
ENDROOT
BRANCH   1   8
ATOM      8  C1  UNL d   1      -5.322   2.611  -5.621  0.00  0.00     0.053 C 
ATOM      9  C   UNL d   1      -5.695   4.080  -5.489  0.00  0.00     0.018 C 
ENDBRANCH   1   8
TORSDOF 1
ENDMDL
