MODEL 1
REMARK minimizedAffinity 0.836842775
REMARK minimizedRMSD -1
REMARK  1 active torsions:
REMARK  status: ('A' for Active; 'I' for Inactive)
REMARK    1  A    between atoms: C1_2  and  C2_3 
ROOT
ATOM      1  C2  UNL d   1      -4.915   3.119   5.138  0.00  0.00    -0.076 A 
ATOM      2  C3  UNL d   1      -5.360   4.364   5.615  0.00  0.00     0.004 A 
ATOM      3  C4  UNL d   1      -4.454   5.351   5.999  0.00  0.00    -0.003 A 
ATOM      4  C5  UNL d   1      -3.088   5.110   5.911  0.00  0.00     0.000 A 
ATOM      5  C6  UNL d   1      -2.628   3.887   5.423  0.00  0.00     0.000 A 
ATOM      6  C7  UNL d   1      -3.529   2.887   5.016  0.00  0.00    -0.073 A 
ATOM      7  C8  UNL d   1      -2.978   1.585   4.503  0.00  0.00     0.078 C 
ENDROOT
BRANCH   1   8
ATOM      8  C1  UNL d   1      -5.945   2.078   4.762  0.00  0.00     0.053 C 
ATOM      9  C   UNL d   1      -6.000   1.827   3.263  0.00  0.00     0.018 C 
ENDBRANCH   1   8
TORSDOF 1
ENDMDL
