MODEL 1
REMARK minimizedAffinity 3.19228578
REMARK minimizedRMSD -1
REMARK  1 active torsions:
REMARK  status: ('A' for Active; 'I' for Inactive)
REMARK    1  A    between atoms: C1_2  and  C2_3 
ROOT
ATOM      1  C2  UNL d   1       2.134   4.566   4.829  0.00  0.00    -0.076 A 
ATOM      2  C3  UNL d   1       2.553   3.818   3.716  0.00  0.00     0.004 A 
ATOM      3  C4  UNL d   1       1.712   3.629   2.620  0.00  0.00    -0.003 A 
ATOM      4  C5  UNL d   1       0.439   4.187   2.619  0.00  0.00     0.000 A 
ATOM      5  C6  UNL d   1       0.013   4.948   3.707  0.00  0.00     0.000 A 
ATOM      6  C7  UNL d   1       0.854   5.161   4.813  0.00  0.00    -0.073 A 
ATOM      7  C8  UNL d   1       0.341   5.985   5.962  0.00  0.00     0.078 C 
ENDROOT
BRANCH   1   8
ATOM      8  C1  UNL d   1       3.079   4.714   6.000  0.00  0.00     0.053 C 
ATOM      9  C   UNL d   1       3.932   5.969   5.905  0.00  0.00     0.018 C 
ENDBRANCH   1   8
TORSDOF 1
ENDMDL
