MODEL 1
REMARK minimizedAffinity 10.6472282
REMARK minimizedRMSD -1
REMARK  1 active torsions:
REMARK  status: ('A' for Active; 'I' for Inactive)
REMARK    1  A    between atoms: C1_2  and  C2_3 
ROOT
ATOM      1  C2  UNL d   1      -4.822   1.692  -4.261  0.00  0.00    -0.076 A 
ATOM      2  C3  UNL d   1      -3.881   1.005  -3.475  0.00  0.00     0.004 A 
ATOM      3  C4  UNL d   1      -2.782   1.666  -2.930  0.00  0.00    -0.003 A 
ATOM      4  C5  UNL d   1      -2.606   3.025  -3.162  0.00  0.00     0.000 A 
ATOM      5  C6  UNL d   1      -3.539   3.727  -3.925  0.00  0.00     0.000 A 
ATOM      6  C7  UNL d   1      -4.662   3.079  -4.468  0.00  0.00    -0.073 A 
ATOM      7  C8  UNL d   1      -5.633   3.883  -5.288  0.00  0.00     0.078 C 
ENDROOT
BRANCH   1   8
ATOM      8  C1  UNL d   1      -5.980   0.917  -4.848  0.00  0.00     0.053 C 
ATOM      9  C   UNL d   1      -5.968  -0.548  -4.439  0.00  0.00     0.018 C 
ENDBRANCH   1   8
TORSDOF 1
ENDMDL
