MODEL 1
REMARK minimizedAffinity -1.66597712
REMARK minimizedRMSD -1
REMARK  0 active torsions:
REMARK  status: ('A' for Active; 'I' for Inactive)
ROOT
ATOM      1  C2' OXE d   1      -1.702   0.411   1.441  0.00  0.00     0.078 C 
ATOM      2  C1' OXE d   1      -0.073   1.700  -0.446  0.00  0.00     0.078 C 
ATOM      3  C1  OXE d   1       0.107   0.215  -0.260  0.00  0.00    -0.078 A 
ATOM      4  C2  OXE d   1      -0.663  -0.400   0.699  0.00  0.00    -0.078 A 
ATOM      5  C3  OXE d   1      -0.576  -1.778   0.873  0.00  0.00     0.003 A 
ATOM      6  C4  OXE d   1       0.395  -2.519   0.189  0.00  0.00    -0.002 A 
ATOM      7  C5  OXE d   1       1.216  -1.906  -0.763  0.00  0.00    -0.002 A 
ATOM      8  C6  OXE d   1       1.056  -0.551  -1.030  0.00  0.00     0.003 A 
ENDROOT
TORSDOF 0
ENDMDL
