MODEL 1
REMARK minimizedAffinity -5.90445518
REMARK minimizedRMSD -1
REMARK  0 active torsions:
REMARK  status: ('A' for Active; 'I' for Inactive)
ROOT
ATOM      1  C2' OXE d   1      -1.166  -0.371   1.700  0.00  0.00     0.078 C 
ATOM      2  C1' OXE d   1      -0.214   0.646  -0.736  0.00  0.00     0.078 C 
ATOM      3  C1  OXE d   1      -0.192  -0.849  -0.542  0.00  0.00    -0.078 A 
ATOM      4  C2  OXE d   1      -0.617  -1.335   0.671  0.00  0.00    -0.078 A 
ATOM      5  C3  OXE d   1      -0.669  -2.710   0.883  0.00  0.00     0.003 A 
ATOM      6  C4  OXE d   1      -0.149  -3.594  -0.070  0.00  0.00    -0.002 A 
ATOM      7  C5  OXE d   1       0.324  -3.118  -1.297  0.00  0.00    -0.002 A 
ATOM      8  C6  OXE d   1       0.270  -1.754  -1.565  0.00  0.00     0.003 A 
ENDROOT
TORSDOF 0
ENDMDL
