MODEL 1
REMARK minimizedAffinity -2.76486301
REMARK minimizedRMSD -1
REMARK  0 active torsions:
REMARK  status: ('A' for Active; 'I' for Inactive)
ROOT
ATOM      1  C2' OXE d   1      -0.638  -2.337   0.770  0.00  0.00     0.078 C 
ATOM      2  C1' OXE d   1      -1.336   0.066   2.043  0.00  0.00     0.078 C 
ATOM      3  C1  OXE d   1      -0.693   0.152   0.681  0.00  0.00    -0.078 A 
ATOM      4  C2  OXE d   1      -0.313  -1.027   0.086  0.00  0.00    -0.078 A 
ATOM      5  C3  OXE d   1       0.235  -1.008  -1.193  0.00  0.00     0.003 A 
ATOM      6  C4  OXE d   1       0.542   0.208  -1.815  0.00  0.00    -0.002 A 
ATOM      7  C5  OXE d   1       0.199   1.422  -1.209  0.00  0.00    -0.002 A 
ATOM      8  C6  OXE d   1      -0.457   1.410   0.017  0.00  0.00     0.003 A 
ENDROOT
TORSDOF 0
ENDMDL
