MODEL 1
REMARK minimizedAffinity -2.46569061
REMARK minimizedRMSD -1
REMARK  0 active torsions:
REMARK  status: ('A' for Active; 'I' for Inactive)
ROOT
ATOM      1  C2' OXE d   1      -1.062  -0.277   2.122  0.00  0.00     0.078 C 
ATOM      2  C1' OXE d   1      -0.389  -2.504   0.552  0.00  0.00     0.078 C 
ATOM      3  C1  OXE d   1      -0.057  -1.136   0.011  0.00  0.00    -0.078 A 
ATOM      4  C2  OXE d   1      -0.431  -0.050   0.765  0.00  0.00    -0.078 A 
ATOM      5  C3  OXE d   1      -0.099   1.233   0.339  0.00  0.00     0.003 A 
ATOM      6  C4  OXE d   1       0.475   1.434  -0.922  0.00  0.00    -0.002 A 
ATOM      7  C5  OXE d   1       0.828   0.343  -1.724  0.00  0.00    -0.002 A 
ATOM      8  C6  OXE d   1       0.609  -0.947  -1.254  0.00  0.00     0.003 A 
ENDROOT
TORSDOF 0
ENDMDL
