MODEL 1
REMARK minimizedAffinity -3.50123668
REMARK minimizedRMSD -1
REMARK  0 active torsions:
REMARK  status: ('A' for Active; 'I' for Inactive)
ROOT
ATOM      1  C2' OXE d   1      -1.884  -0.066   1.520  0.00  0.00     0.078 C 
ATOM      2  C1' OXE d   1       0.256   0.910  -0.013  0.00  0.00     0.078 C 
ATOM      3  C1  OXE d   1       0.078  -0.585   0.076  0.00  0.00    -0.078 A 
ATOM      4  C2  OXE d   1      -0.943  -1.055   0.866  0.00  0.00    -0.078 A 
ATOM      5  C3  OXE d   1      -1.185  -2.424   0.939  0.00  0.00     0.003 A 
ATOM      6  C4  OXE d   1      -0.304  -3.332   0.340  0.00  0.00    -0.002 A 
ATOM      7  C5  OXE d   1       0.766  -2.876  -0.437  0.00  0.00    -0.002 A 
ATOM      8  C6  OXE d   1       0.946  -1.508  -0.613  0.00  0.00     0.003 A 
ENDROOT
TORSDOF 0
ENDMDL
