MODEL 1
REMARK minimizedAffinity -4.1785655
REMARK minimizedRMSD -1
REMARK  0 active torsions:
REMARK  status: ('A' for Active; 'I' for Inactive)
ROOT
ATOM      1  C2' OXE d   1       1.543  -1.738  -1.784  0.00  0.00     0.078 C 
ATOM      2  C1' OXE d   1       0.396  -2.984   0.455  0.00  0.00     0.078 C 
ATOM      3  C1  OXE d   1       0.141  -1.510   0.262  0.00  0.00    -0.078 A 
ATOM      4  C2  OXE d   1       0.744  -0.899  -0.810  0.00  0.00    -0.078 A 
ATOM      5  C3  OXE d   1       0.498   0.447  -1.065  0.00  0.00     0.003 A 
ATOM      6  C4  OXE d   1      -0.234   1.219  -0.154  0.00  0.00    -0.002 A 
ATOM      7  C5  OXE d   1      -0.824   0.624   0.966  0.00  0.00    -0.002 A 
ATOM      8  C6  OXE d   1      -0.682  -0.744   1.166  0.00  0.00     0.003 A 
ENDROOT
TORSDOF 0
ENDMDL
