MODEL 1
REMARK minimizedAffinity -5.0377655
REMARK minimizedRMSD -1
REMARK  0 active torsions:
REMARK  status: ('A' for Active; 'I' for Inactive)
ROOT
ATOM      1  C2' OXE d   1      -0.122  -0.506   1.483  0.00  0.00     0.078 C 
ATOM      2  C1' OXE d   1       0.822  -2.876   0.311  0.00  0.00     0.078 C 
ATOM      3  C1  OXE d   1       0.758  -1.641  -0.553  0.00  0.00    -0.078 A 
ATOM      4  C2  OXE d   1       0.251  -0.498   0.016  0.00  0.00    -0.078 A 
ATOM      5  C3  OXE d   1       0.220   0.683  -0.720  0.00  0.00     0.003 A 
ATOM      6  C4  OXE d   1       0.557   0.680  -2.079  0.00  0.00    -0.002 A 
ATOM      7  C5  OXE d   1       1.038  -0.483  -2.689  0.00  0.00    -0.002 A 
ATOM      8  C6  OXE d   1       1.185  -1.639  -1.930  0.00  0.00     0.003 A 
ENDROOT
TORSDOF 0
ENDMDL
