MODEL 1
REMARK minimizedAffinity -4.74981594
REMARK minimizedRMSD -1
REMARK  0 active torsions:
REMARK  status: ('A' for Active; 'I' for Inactive)
ROOT
ATOM      1  C2' OXE d   1       0.333   1.167   0.064  0.00  0.00     0.078 C 
ATOM      2  C1' OXE d   1      -0.788  -0.083   2.314  0.00  0.00     0.078 C 
ATOM      3  C1  OXE d   1      -0.418  -0.952   1.138  0.00  0.00    -0.078 A 
ATOM      4  C2  OXE d   1       0.087  -0.326   0.023  0.00  0.00    -0.078 A 
ATOM      5  C3  OXE d   1       0.495  -1.086  -1.069  0.00  0.00     0.003 A 
ATOM      6  C4  OXE d   1       0.255  -2.465  -1.102  0.00  0.00    -0.002 A 
ATOM      7  C5  OXE d   1      -0.294  -3.117   0.007  0.00  0.00    -0.002 A 
ATOM      8  C6  OXE d   1      -0.596  -2.382   1.149  0.00  0.00     0.003 A 
ENDROOT
TORSDOF 0
ENDMDL
