MODEL 1
REMARK minimizedAffinity 0.520294785
REMARK minimizedRMSD -1
REMARK  0 active torsions:
REMARK  status: ('A' for Active; 'I' for Inactive)
ROOT
ATOM      1  C2' OXE d   1       1.206  -1.541  -2.476  0.00  0.00     0.078 C 
ATOM      2  C1' OXE d   1       0.827  -2.790   0.009  0.00  0.00     0.078 C 
ATOM      3  C1  OXE d   1       0.378  -1.357  -0.133  0.00  0.00    -0.078 A 
ATOM      4  C2  OXE d   1       0.610  -0.739  -1.338  0.00  0.00    -0.078 A 
ATOM      5  C3  OXE d   1       0.166   0.565  -1.541  0.00  0.00     0.003 A 
ATOM      6  C4  OXE d   1      -0.375   1.302  -0.481  0.00  0.00    -0.002 A 
ATOM      7  C5  OXE d   1      -0.584   0.704   0.766  0.00  0.00    -0.002 A 
ATOM      8  C6  OXE d   1      -0.253  -0.635   0.944  0.00  0.00     0.003 A 
ENDROOT
TORSDOF 0
ENDMDL
