MODEL 1
REMARK minimizedAffinity -1.62094319
REMARK minimizedRMSD -1
REMARK  0 active torsions:
REMARK  status: ('A' for Active; 'I' for Inactive)
ROOT
ATOM      1  C2' OXE d   1      -0.097  -3.176   0.347  0.00  0.00     0.078 C 
ATOM      2  C1' OXE d   1       0.604  -1.962  -2.085  0.00  0.00     0.078 C 
ATOM      3  C1  OXE d   1       0.069  -1.078  -0.986  0.00  0.00    -0.078 A 
ATOM      4  C2  OXE d   1      -0.315  -1.687   0.184  0.00  0.00    -0.078 A 
ATOM      5  C3  OXE d   1      -0.764  -0.912   1.250  0.00  0.00     0.003 A 
ATOM      6  C4  OXE d   1      -0.973   0.463   1.088  0.00  0.00    -0.002 A 
ATOM      7  C5  OXE d   1      -0.625   1.097  -0.110  0.00  0.00    -0.002 A 
ATOM      8  C6  OXE d   1      -0.065   0.350  -1.139  0.00  0.00     0.003 A 
ENDROOT
TORSDOF 0
ENDMDL
