MODEL 1
REMARK minimizedAffinity -6.0639863
REMARK minimizedRMSD -1
REMARK  0 active torsions:
REMARK  status: ('A' for Active; 'I' for Inactive)
ROOT
ATOM      1  C2' OXE d   1      -0.114   0.711  -0.075  0.00  0.00     0.078 C 
ATOM      2  C1' OXE d   1       0.097  -0.067  -2.764  0.00  0.00     0.078 C 
ATOM      3  C1  OXE d   1       0.037  -1.154  -1.720  0.00  0.00    -0.078 A 
ATOM      4  C2  OXE d   1      -0.019  -0.763  -0.404  0.00  0.00    -0.078 A 
ATOM      5  C3  OXE d   1      -0.132  -1.725   0.596  0.00  0.00     0.003 A 
ATOM      6  C4  OXE d   1      -0.033  -3.086   0.285  0.00  0.00    -0.002 A 
ATOM      7  C5  OXE d   1       0.064  -3.505  -1.047  0.00  0.00    -0.002 A 
ATOM      8  C6  OXE d   1       0.057  -2.554  -2.062  0.00  0.00     0.003 A 
ENDROOT
TORSDOF 0
ENDMDL
