MODEL 1
REMARK minimizedAffinity -3.01020908
REMARK minimizedRMSD -1
REMARK  0 active torsions:
REMARK  status: ('A' for Active; 'I' for Inactive)
ROOT
ATOM      1  C2' OXE d   1       1.264  -1.792  -1.872  0.00  0.00     0.078 C 
ATOM      2  C1' OXE d   1       0.165  -3.152   0.324  0.00  0.00     0.078 C 
ATOM      3  C1  OXE d   1      -0.155  -1.686   0.173  0.00  0.00    -0.078 A 
ATOM      4  C2  OXE d   1       0.425  -1.017  -0.879  0.00  0.00    -0.078 A 
ATOM      5  C3  OXE d   1       0.119   0.323  -1.096  0.00  0.00     0.003 A 
ATOM      6  C4  OXE d   1      -0.650   1.035  -0.168  0.00  0.00    -0.002 A 
ATOM      7  C5  OXE d   1      -1.217   0.383   0.932  0.00  0.00    -0.002 A 
ATOM      8  C6  OXE d   1      -1.015  -0.984   1.093  0.00  0.00     0.003 A 
ENDROOT
TORSDOF 0
ENDMDL
