MODEL 1
REMARK minimizedAffinity -5.16218185
REMARK minimizedRMSD -1
REMARK  0 active torsions:
REMARK  status: ('A' for Active; 'I' for Inactive)
ROOT
ATOM      1  C2' OXE d   1      -0.814   1.079   0.446  0.00  0.00     0.078 C 
ATOM      2  C1' OXE d   1       0.405   0.314  -1.964  0.00  0.00     0.078 C 
ATOM      3  C1  OXE d   1       0.113  -0.764  -0.951  0.00  0.00    -0.078 A 
ATOM      4  C2  OXE d   1      -0.441  -0.374   0.245  0.00  0.00    -0.078 A 
ATOM      5  C3  OXE d   1      -0.781  -1.336   1.193  0.00  0.00     0.003 A 
ATOM      6  C4  OXE d   1      -0.424  -2.676   1.003  0.00  0.00    -0.002 A 
ATOM      7  C5  OXE d   1       0.178  -3.088  -0.191  0.00  0.00    -0.002 A 
ATOM      8  C6  OXE d   1       0.413  -2.153  -1.194  0.00  0.00     0.003 A 
ENDROOT
TORSDOF 0
ENDMDL
