MODEL 1
REMARK minimizedAffinity -4.81769848
REMARK minimizedRMSD -1
REMARK  0 active torsions:
REMARK  status: ('A' for Active; 'I' for Inactive)
ROOT
ATOM      1  C2' OXE d   1      -0.859  -0.800   1.705  0.00  0.00     0.078 C 
ATOM      2  C1' OXE d   1       0.006   0.719  -0.492  0.00  0.00     0.078 C 
ATOM      3  C1  OXE d   1      -0.182  -0.764  -0.692  0.00  0.00    -0.078 A 
ATOM      4  C2  OXE d   1      -0.561  -1.507   0.400  0.00  0.00    -0.078 A 
ATOM      5  C3  OXE d   1      -0.802  -2.870   0.257  0.00  0.00     0.003 A 
ATOM      6  C4  OXE d   1      -0.514  -3.518  -0.951  0.00  0.00    -0.002 A 
ATOM      7  C5  OXE d   1      -0.090  -2.786  -2.065  0.00  0.00    -0.002 A 
ATOM      8  C6  OXE d   1       0.040  -1.405  -1.965  0.00  0.00     0.003 A 
ENDROOT
TORSDOF 0
ENDMDL
