MODEL 1
REMARK minimizedAffinity -3.96285415
REMARK minimizedRMSD -1
REMARK  0 active torsions:
REMARK  status: ('A' for Active; 'I' for Inactive)
ROOT
ATOM      1  C2' OXE d   1       0.742   1.252   0.493  0.00  0.00     0.078 C 
ATOM      2  C1' OXE d   1      -1.926   0.383   0.397  0.00  0.00     0.078 C 
ATOM      3  C1  OXE d   1      -0.845  -0.668   0.458  0.00  0.00    -0.078 A 
ATOM      4  C2  OXE d   1       0.459  -0.235   0.457  0.00  0.00    -0.078 A 
ATOM      5  C3  OXE d   1       1.493  -1.160   0.567  0.00  0.00     0.003 A 
ATOM      6  C4  OXE d   1       1.223  -2.533   0.523  0.00  0.00    -0.002 A 
ATOM      7  C5  OXE d   1      -0.097  -2.996   0.484  0.00  0.00    -0.002 A 
ATOM      8  C6  OXE d   1      -1.142  -2.079   0.494  0.00  0.00     0.003 A 
ENDROOT
TORSDOF 0
ENDMDL
