MODEL 1
REMARK minimizedAffinity -3.31969976
REMARK minimizedRMSD -1
REMARK  0 active torsions:
REMARK  status: ('A' for Active; 'I' for Inactive)
ROOT
ATOM      1  C2' OXE d   1       0.300   1.677   0.485  0.00  0.00     0.078 C 
ATOM      2  C1' OXE d   1      -1.461   0.443   2.290  0.00  0.00     0.078 C 
ATOM      3  C1  OXE d   1      -0.749  -0.434   1.290  0.00  0.00    -0.078 A 
ATOM      4  C2  OXE d   1       0.075   0.184   0.381  0.00  0.00    -0.078 A 
ATOM      5  C3  OXE d   1       0.798  -0.584  -0.528  0.00  0.00     0.003 A 
ATOM      6  C4  OXE d   1       0.577  -1.963  -0.624  0.00  0.00    -0.002 A 
ATOM      7  C5  OXE d   1      -0.289  -2.607   0.267  0.00  0.00    -0.002 A 
ATOM      8  C6  OXE d   1      -0.925  -1.865   1.255  0.00  0.00     0.003 A 
ENDROOT
TORSDOF 0
ENDMDL
