MODEL 1
REMARK minimizedAffinity -2.62952948
REMARK minimizedRMSD -1
REMARK  0 active torsions:
REMARK  status: ('A' for Active; 'I' for Inactive)
ROOT
ATOM      1  C2' OXE d   1      -0.132   1.564  -0.591  0.00  0.00     0.078 C 
ATOM      2  C1' OXE d   1       0.627  -0.558  -2.265  0.00  0.00     0.078 C 
ATOM      3  C1  OXE d   1       0.183  -0.892  -0.863  0.00  0.00    -0.078 A 
ATOM      4  C2  OXE d   1      -0.142   0.156  -0.036  0.00  0.00    -0.078 A 
ATOM      5  C3  OXE d   1      -0.611  -0.100   1.249  0.00  0.00     0.003 A 
ATOM      6  C4  OXE d   1      -0.608  -1.404   1.758  0.00  0.00    -0.002 A 
ATOM      7  C5  OXE d   1      -0.243  -2.483   0.946  0.00  0.00    -0.002 A 
ATOM      8  C6  OXE d   1       0.113  -2.248  -0.378  0.00  0.00     0.003 A 
ENDROOT
TORSDOF 0
ENDMDL
