MODEL 1
REMARK minimizedAffinity -4.14483166
REMARK minimizedRMSD -1
REMARK  0 active torsions:
REMARK  status: ('A' for Active; 'I' for Inactive)
ROOT
ATOM      1  C2' OXE d   1      -0.421  -3.149   0.035  0.00  0.00     0.078 C 
ATOM      2  C1' OXE d   1       0.442  -1.663  -2.184  0.00  0.00     0.078 C 
ATOM      3  C1  OXE d   1       0.027  -0.905  -0.948  0.00  0.00    -0.078 A 
ATOM      4  C2  OXE d   1      -0.438  -1.638   0.117  0.00  0.00    -0.078 A 
ATOM      5  C3  OXE d   1      -0.782  -0.992   1.301  0.00  0.00     0.003 A 
ATOM      6  C4  OXE d   1      -0.804   0.407   1.365  0.00  0.00    -0.002 A 
ATOM      7  C5  OXE d   1      -0.371   1.174   0.278  0.00  0.00    -0.002 A 
ATOM      8  C6  OXE d   1       0.086   0.534  -0.869  0.00  0.00     0.003 A 
ENDROOT
TORSDOF 0
ENDMDL
