MODEL 1
REMARK minimizedAffinity -3.22999597
REMARK minimizedRMSD -1
REMARK  0 active torsions:
REMARK  status: ('A' for Active; 'I' for Inactive)
ROOT
ATOM      1  C2' OXE d   1      -2.321   0.409   0.776  0.00  0.00     0.078 C 
ATOM      2  C1' OXE d   1      -0.004   1.483  -0.390  0.00  0.00     0.078 C 
ATOM      3  C1  OXE d   1      -0.017   0.007  -0.082  0.00  0.00    -0.078 A 
ATOM      4  C2  OXE d   1      -1.137  -0.501   0.532  0.00  0.00    -0.078 A 
ATOM      5  C3  OXE d   1      -1.223  -1.867   0.788  0.00  0.00     0.003 A 
ATOM      6  C4  OXE d   1      -0.120  -2.700   0.568  0.00  0.00    -0.002 A 
ATOM      7  C5  OXE d   1       1.045  -2.195  -0.019  0.00  0.00    -0.002 A 
ATOM      8  C6  OXE d   1       1.097  -0.856  -0.389  0.00  0.00     0.003 A 
ENDROOT
TORSDOF 0
ENDMDL
