MODEL 1
REMARK minimizedAffinity -3.72281528
REMARK minimizedRMSD -1
REMARK  0 active torsions:
REMARK  status: ('A' for Active; 'I' for Inactive)
ROOT
ATOM      1  C4' PXY d   1       2.999   3.313   2.384  0.00  0.00     0.077 C 
ATOM      2  C1' PXY d   1      -0.036   3.211  -2.535  0.00  0.00     0.077 C 
ATOM      3  C1  PXY d   1       0.761   3.251  -1.246  0.00  0.00    -0.082 A 
ATOM      4  C2  PXY d   1       1.370   2.156  -0.819  0.00  0.00     0.003 A 
ATOM      5  C3  PXY d   1       2.069   2.166   0.360  0.00  0.00     0.003 A 
ATOM      6  C4  PXY d   1       2.190   3.322   1.084  0.00  0.00    -0.082 A 
ATOM      7  C5  PXY d   1       1.581   4.446   0.650  0.00  0.00     0.003 A 
ATOM      8  C6  PXY d   1       0.842   4.404  -0.529  0.00  0.00     0.003 A 
ENDROOT
TORSDOF 0
ENDMDL
