MODEL 1
REMARK minimizedAffinity 1.80584228
REMARK minimizedRMSD -1
REMARK  0 active torsions:
REMARK  status: ('A' for Active; 'I' for Inactive)
ROOT
ATOM      1  C4' PXY d   1       3.348  -0.656  -0.690  0.00  0.00     0.077 C 
ATOM      2  C1' PXY d   1       0.271   3.451   1.971  0.00  0.00     0.077 C 
ATOM      3  C1  PXY d   1       1.085   2.384   1.267  0.00  0.00    -0.082 A 
ATOM      4  C2  PXY d   1       0.549   1.196   1.040  0.00  0.00     0.003 A 
ATOM      5  C3  PXY d   1       1.282   0.208   0.434  0.00  0.00     0.003 A 
ATOM      6  C4  PXY d   1       2.560   0.456   0.008  0.00  0.00    -0.082 A 
ATOM      7  C5  PXY d   1       3.110   1.669   0.227  0.00  0.00     0.003 A 
ATOM      8  C6  PXY d   1       2.364   2.644   0.881  0.00  0.00     0.003 A 
ENDROOT
TORSDOF 0
ENDMDL
