MODEL 1
REMARK minimizedAffinity 6.1428709
REMARK minimizedRMSD -1
REMARK  0 active torsions:
REMARK  status: ('A' for Active; 'I' for Inactive)
ROOT
ATOM      1  C4' PXY d   1      -0.011   3.816   0.097  0.00  0.00     0.077 C 
ATOM      2  C1' PXY d   1       1.898  -1.634   0.365  0.00  0.00     0.077 C 
ATOM      3  C1  PXY d   1       1.385  -0.209   0.296  0.00  0.00    -0.082 A 
ATOM      4  C2  PXY d   1       2.094   0.712  -0.338  0.00  0.00     0.003 A 
ATOM      5  C3  PXY d   1       1.660   2.012  -0.382  0.00  0.00     0.003 A 
ATOM      6  C4  PXY d   1       0.464   2.363   0.183  0.00  0.00    -0.082 A 
ATOM      7  C5  PXY d   1      -0.270   1.428   0.823  0.00  0.00     0.003 A 
ATOM      8  C6  PXY d   1       0.207   0.122   0.892  0.00  0.00     0.003 A 
ENDROOT
TORSDOF 0
ENDMDL
