MODEL 1
REMARK minimizedAffinity 8.95949173
REMARK minimizedRMSD -1
REMARK  0 active torsions:
REMARK  status: ('A' for Active; 'I' for Inactive)
ROOT
ATOM      1  C4' PXY d   1      -4.718   1.369   0.759  0.00  0.00     0.077 C 
ATOM      2  C1' PXY d   1       0.847   2.499   1.839  0.00  0.00     0.077 C 
ATOM      3  C1  PXY d   1      -0.610   2.190   1.558  0.00  0.00    -0.082 A 
ATOM      4  C2  PXY d   1      -1.327   3.027   0.825  0.00  0.00     0.003 A 
ATOM      5  C3  PXY d   1      -2.654   2.779   0.588  0.00  0.00     0.003 A 
ATOM      6  C4  PXY d   1      -3.241   1.636   1.061  0.00  0.00    -0.082 A 
ATOM      7  C5  PXY d   1      -2.514   0.772   1.800  0.00  0.00     0.003 A 
ATOM      8  C6  PXY d   1      -1.179   1.063   2.064  0.00  0.00     0.003 A 
ENDROOT
TORSDOF 0
ENDMDL
