MODEL 1
REMARK minimizedAffinity 0.651227057
REMARK minimizedRMSD -1
REMARK  0 active torsions:
REMARK  status: ('A' for Active; 'I' for Inactive)
ROOT
ATOM      1  C4' PXY d   1       2.085   2.661   1.415  0.00  0.00     0.077 C 
ATOM      2  C1' PXY d   1      -3.486   2.106  -0.021  0.00  0.00     0.077 C 
ATOM      3  C1  PXY d   1      -2.026   2.242   0.364  0.00  0.00    -0.082 A 
ATOM      4  C2  PXY d   1      -1.419   3.409   0.227  0.00  0.00     0.003 A 
ATOM      5  C3  PXY d   1      -0.091   3.541   0.540  0.00  0.00     0.003 A 
ATOM      6  C4  PXY d   1       0.610   2.481   1.048  0.00  0.00    -0.082 A 
ATOM      7  C5  PXY d   1      -0.005   1.289   1.201  0.00  0.00     0.003 A 
ATOM      8  C6  PXY d   1      -1.343   1.165   0.839  0.00  0.00     0.003 A 
ENDROOT
TORSDOF 0
ENDMDL
