MODEL 1
REMARK minimizedAffinity 7.63884735
REMARK minimizedRMSD -1
REMARK  0 active torsions:
REMARK  status: ('A' for Active; 'I' for Inactive)
ROOT
ATOM      1  C4' PXY d   1      -3.079   2.728   0.810  0.00  0.00     0.077 C 
ATOM      2  C1' PXY d   1       2.698   2.905   0.738  0.00  0.00     0.077 C 
ATOM      3  C1  PXY d   1       1.184   2.848   0.764  0.00  0.00    -0.082 A 
ATOM      4  C2  PXY d   1       0.490   3.418  -0.208  0.00  0.00     0.003 A 
ATOM      5  C3  PXY d   1      -0.880   3.404  -0.183  0.00  0.00     0.003 A 
ATOM      6  C4  PXY d   1      -1.548   2.753   0.820  0.00  0.00    -0.082 A 
ATOM      7  C5  PXY d   1      -0.848   2.159   1.809  0.00  0.00     0.003 A 
ATOM      8  C6  PXY d   1       0.542   2.221   1.787  0.00  0.00     0.003 A 
ENDROOT
TORSDOF 0
ENDMDL
