MODEL 1
REMARK minimizedAffinity -3.62466931
REMARK minimizedRMSD -1
REMARK  0 active torsions:
REMARK  status: ('A' for Active; 'I' for Inactive)
ROOT
ATOM      1  C4' PXY d   1       2.857   2.154   0.610  0.00  0.00     0.077 C 
ATOM      2  C1' PXY d   1      -2.910   2.016   0.249  0.00  0.00     0.077 C 
ATOM      3  C1  PXY d   1      -1.398   2.063   0.336  0.00  0.00    -0.082 A 
ATOM      4  C2  PXY d   1      -0.727   0.969   0.661  0.00  0.00     0.003 A 
ATOM      5  C3  PXY d   1       0.639   1.001   0.775  0.00  0.00     0.003 A 
ATOM      6  C4  PXY d   1       1.330   2.151   0.502  0.00  0.00    -0.082 A 
ATOM      7  C5  PXY d   1       0.654   3.268   0.159  0.00  0.00     0.003 A 
ATOM      8  C6  PXY d   1      -0.735   3.225   0.089  0.00  0.00     0.003 A 
ENDROOT
TORSDOF 0
ENDMDL
