MODEL 1
REMARK minimizedAffinity 3.82982635
REMARK minimizedRMSD -1
REMARK  0 active torsions:
REMARK  status: ('A' for Active; 'I' for Inactive)
ROOT
ATOM      1  C4' PXY d   1      -6.000   5.989  -3.366  0.00  0.00     0.077 C 
ATOM      2  C1' PXY d   1      -5.707   1.543   0.316  0.00  0.00     0.077 C 
ATOM      3  C1  PXY d   1      -5.790   2.716  -0.641  0.00  0.00    -0.082 A 
ATOM      4  C2  PXY d   1      -5.732   2.502  -1.945  0.00  0.00     0.003 A 
ATOM      5  C3  PXY d   1      -5.774   3.554  -2.823  0.00  0.00     0.003 A 
ATOM      6  C4  PXY d   1      -5.929   4.834  -2.364  0.00  0.00    -0.082 A 
ATOM      7  C5  PXY d   1      -6.000   5.060  -1.035  0.00  0.00     0.003 A 
ATOM      8  C6  PXY d   1      -5.914   3.982  -0.158  0.00  0.00     0.003 A 
ENDROOT
TORSDOF 0
ENDMDL
