MODEL 1
REMARK minimizedAffinity 0.778240919
REMARK minimizedRMSD -1
REMARK  0 active torsions:
REMARK  status: ('A' for Active; 'I' for Inactive)
ROOT
ATOM      1  C4' PXY d   1       3.869   2.220   0.833  0.00  0.00     0.077 C 
ATOM      2  C1' PXY d   1      -1.876   2.424   0.222  0.00  0.00     0.077 C 
ATOM      3  C1  PXY d   1      -0.371   2.360   0.390  0.00  0.00    -0.082 A 
ATOM      4  C2  PXY d   1       0.354   3.453   0.215  0.00  0.00     0.003 A 
ATOM      5  C3  PXY d   1       1.720   3.406   0.332  0.00  0.00     0.003 A 
ATOM      6  C4  PXY d   1       2.345   2.240   0.683  0.00  0.00    -0.082 A 
ATOM      7  C5  PXY d   1       1.612   1.123   0.873  0.00  0.00     0.003 A 
ATOM      8  C6  PXY d   1       0.231   1.182   0.710  0.00  0.00     0.003 A 
ENDROOT
TORSDOF 0
ENDMDL
