MODEL 1
REMARK minimizedAffinity 1.51423717
REMARK minimizedRMSD -1
REMARK  0 active torsions:
REMARK  status: ('A' for Active; 'I' for Inactive)
ROOT
ATOM      1  C4' PXY d   1      -1.065   2.962   0.328  0.00  0.00     0.077 C 
ATOM      2  C1' PXY d   1       4.495   1.531   1.004  0.00  0.00     0.077 C 
ATOM      3  C1  PXY d   1       3.036   1.896   0.819  0.00  0.00    -0.082 A 
ATOM      4  C2  PXY d   1       2.647   3.149   0.995  0.00  0.00     0.003 A 
ATOM      5  C3  PXY d   1       1.325   3.490   0.863  0.00  0.00     0.003 A 
ATOM      6  C4  PXY d   1       0.401   2.550   0.495  0.00  0.00    -0.082 A 
ATOM      7  C5  PXY d   1       0.791   1.272   0.303  0.00  0.00     0.003 A 
ATOM      8  C6  PXY d   1       2.130   0.938   0.483  0.00  0.00     0.003 A 
ENDROOT
TORSDOF 0
ENDMDL
