MODEL 1
REMARK minimizedAffinity 7.21314287
REMARK minimizedRMSD -1
REMARK  0 active torsions:
REMARK  status: ('A' for Active; 'I' for Inactive)
ROOT
ATOM      1  C4' PXY d   1       0.608   2.635   0.224  0.00  0.00     0.077 C 
ATOM      2  C1' PXY d   1       2.653  -2.000  -2.560  0.00  0.00     0.077 C 
ATOM      3  C1  PXY d   1       2.116  -0.791  -1.819  0.00  0.00    -0.082 A 
ATOM      4  C2  PXY d   1       1.524   0.180  -2.494  0.00  0.00     0.003 A 
ATOM      5  C3  PXY d   1       1.061   1.295  -1.844  0.00  0.00     0.003 A 
ATOM      6  C4  PXY d   1       1.157   1.392  -0.482  0.00  0.00    -0.082 A 
ATOM      7  C5  PXY d   1       1.750   0.400   0.216  0.00  0.00     0.003 A 
ATOM      8  C6  PXY d   1       2.250  -0.704  -0.468  0.00  0.00     0.003 A 
ENDROOT
TORSDOF 0
ENDMDL
