MODEL 1
REMARK minimizedAffinity 8.36129093
REMARK minimizedRMSD -1
REMARK  0 active torsions:
REMARK  status: ('A' for Active; 'I' for Inactive)
ROOT
ATOM      1  C4' PXY d   1       2.545   1.511   1.821  0.00  0.00     0.077 C 
ATOM      2  C1' PXY d   1       1.701  -1.151  -3.241  0.00  0.00     0.077 C 
ATOM      3  C1  PXY d   1       1.914  -0.461  -1.907  0.00  0.00    -0.082 A 
ATOM      4  C2  PXY d   1       2.285   0.809  -1.880  0.00  0.00     0.003 A 
ATOM      5  C3  PXY d   1       2.513   1.439  -0.683  0.00  0.00     0.003 A 
ATOM      6  C4  PXY d   1       2.309   0.777   0.498  0.00  0.00    -0.082 A 
ATOM      7  C5  PXY d   1       1.920  -0.515   0.478  0.00  0.00     0.003 A 
ATOM      8  C6  PXY d   1       1.733  -1.149  -0.747  0.00  0.00     0.003 A 
ENDROOT
TORSDOF 0
ENDMDL
