MODEL 1
REMARK minimizedAffinity -0.3331258
REMARK minimizedRMSD -1
REMARK  0 active torsions:
REMARK  status: ('A' for Active; 'I' for Inactive)
ROOT
ATOM      1  C4' PXY d   1       3.572   1.237   0.618  0.00  0.00     0.077 C 
ATOM      2  C1' PXY d   1      -2.003   2.739   0.902  0.00  0.00     0.077 C 
ATOM      3  C1  PXY d   1      -0.538   2.357   0.822  0.00  0.00    -0.082 A 
ATOM      4  C2  PXY d   1      -0.198   1.080   0.763  0.00  0.00     0.003 A 
ATOM      5  C3  PXY d   1       1.123   0.715   0.723  0.00  0.00     0.003 A 
ATOM      6  C4  PXY d   1       2.105   1.670   0.690  0.00  0.00    -0.082 A 
ATOM      7  C5  PXY d   1       1.765   2.975   0.739  0.00  0.00     0.003 A 
ATOM      8  C6  PXY d   1       0.420   3.323   0.821  0.00  0.00     0.003 A 
ENDROOT
TORSDOF 0
ENDMDL
