MODEL 1
REMARK minimizedAffinity 4.41301394
REMARK minimizedRMSD -1
REMARK  0 active torsions:
REMARK  status: ('A' for Active; 'I' for Inactive)
ROOT
ATOM      1  C4' PXY d   1      -1.561   2.933   0.954  0.00  0.00     0.077 C 
ATOM      2  C1' PXY d   1       3.482   0.131   0.595  0.00  0.00     0.077 C 
ATOM      3  C1  PXY d   1       2.154   0.856   0.682  0.00  0.00    -0.082 A 
ATOM      4  C2  PXY d   1       2.134   2.155   0.934  0.00  0.00     0.003 A 
ATOM      5  C3  PXY d   1       0.940   2.821   1.048  0.00  0.00     0.003 A 
ATOM      6  C4  PXY d   1      -0.243   2.161   0.848  0.00  0.00    -0.082 A 
ATOM      7  C5  PXY d   1      -0.230   0.838   0.580  0.00  0.00     0.003 A 
ATOM      8  C6  PXY d   1       0.990   0.172   0.510  0.00  0.00     0.003 A 
ENDROOT
TORSDOF 0
ENDMDL
