MODEL 1
REMARK minimizedAffinity 4.43997622
REMARK minimizedRMSD -1
REMARK  0 active torsions:
REMARK  status: ('A' for Active; 'I' for Inactive)
ROOT
ATOM      1  C4' PXY d   1       2.187   0.246   0.163  0.00  0.00     0.077 C 
ATOM      2  C1' PXY d   1      -2.645   3.181   1.368  0.00  0.00     0.077 C 
ATOM      3  C1  PXY d   1      -1.375   2.421   1.044  0.00  0.00    -0.082 A 
ATOM      4  C2  PXY d   1      -1.332   1.110   1.224  0.00  0.00     0.003 A 
ATOM      5  C3  PXY d   1      -0.181   0.412   0.966  0.00  0.00     0.003 A 
ATOM      6  C4  PXY d   1       0.922   1.053   0.468  0.00  0.00    -0.082 A 
ATOM      7  C5  PXY d   1       0.883   2.388   0.272  0.00  0.00     0.003 A 
ATOM      8  C6  PXY d   1      -0.282   3.085   0.579  0.00  0.00     0.003 A 
ENDROOT
TORSDOF 0
ENDMDL
