MODEL 1
REMARK minimizedAffinity 1.85363114
REMARK minimizedRMSD -1
REMARK  0 active torsions:
REMARK  status: ('A' for Active; 'I' for Inactive)
ROOT
ATOM      1  C4' PXY d   1      -2.118   3.244   0.528  0.00  0.00     0.077 C 
ATOM      2  C1' PXY d   1       3.639   3.033   0.050  0.00  0.00     0.077 C 
ATOM      3  C1  PXY d   1       2.129   3.101   0.171  0.00  0.00    -0.082 A 
ATOM      4  C2  PXY d   1       1.505   2.305   1.024  0.00  0.00     0.003 A 
ATOM      5  C3  PXY d   1       0.138   2.330   1.123  0.00  0.00     0.003 A 
ATOM      6  C4  PXY d   1      -0.594   3.217   0.379  0.00  0.00    -0.082 A 
ATOM      7  C5  PXY d   1       0.036   4.039  -0.486  0.00  0.00     0.003 A 
ATOM      8  C6  PXY d   1       1.422   3.969  -0.601  0.00  0.00     0.003 A 
ENDROOT
TORSDOF 0
ENDMDL
