MODEL 1
REMARK minimizedAffinity 6.74629068
REMARK minimizedRMSD -1
REMARK  0 active torsions:
REMARK  status: ('A' for Active; 'I' for Inactive)
ROOT
ATOM      1  C4' PXY d   1       2.128  -1.432   0.008  0.00  0.00     0.077 C 
ATOM      2  C1' PXY d   1      -1.266   2.813   1.975  0.00  0.00     0.077 C 
ATOM      3  C1  PXY d   1      -0.371   1.708   1.450  0.00  0.00    -0.082 A 
ATOM      4  C2  PXY d   1      -0.715   0.444   1.635  0.00  0.00     0.003 A 
ATOM      5  C3  PXY d   1       0.099  -0.568   1.196  0.00  0.00     0.003 A 
ATOM      6  C4  PXY d   1       1.250  -0.284   0.512  0.00  0.00    -0.082 A 
ATOM      7  C5  PXY d   1       1.603   1.003   0.310  0.00  0.00     0.003 A 
ATOM      8  C6  PXY d   1       0.784   2.016   0.800  0.00  0.00     0.003 A 
ENDROOT
TORSDOF 0
ENDMDL
