MODEL 1
REMARK minimizedAffinity 12.9449492
REMARK minimizedRMSD -1
REMARK  0 active torsions:
REMARK  status: ('A' for Active; 'I' for Inactive)
ROOT
ATOM      1  C4' PXY d   1       3.554   0.703   0.170  0.00  0.00     0.077 C 
ATOM      2  C1' PXY d   1      -1.376   3.310   1.691  0.00  0.00     0.077 C 
ATOM      3  C1  PXY d   1      -0.087   2.616   1.298  0.00  0.00    -0.082 A 
ATOM      4  C2  PXY d   1       0.990   3.337   1.030  0.00  0.00     0.003 A 
ATOM      5  C3  PXY d   1       2.155   2.727   0.642  0.00  0.00     0.003 A 
ATOM      6  C4  PXY d   1       2.234   1.361   0.580  0.00  0.00    -0.082 A 
ATOM      7  C5  PXY d   1       1.143   0.618   0.862  0.00  0.00     0.003 A 
ATOM      8  C6  PXY d   1      -0.041   1.258   1.214  0.00  0.00     0.003 A 
ENDROOT
TORSDOF 0
ENDMDL
