MODEL 1
REMARK minimizedAffinity 9.01249313
REMARK minimizedRMSD -1
REMARK  0 active torsions:
REMARK  status: ('A' for Active; 'I' for Inactive)
ROOT
ATOM      1  C4' PXY d   1      -0.463   4.199  -1.437  0.00  0.00     0.077 C 
ATOM      2  C1' PXY d   1       3.824   1.981   1.744  0.00  0.00     0.077 C 
ATOM      3  C1  PXY d   1       2.693   2.552   0.912  0.00  0.00    -0.082 A 
ATOM      4  C2  PXY d   1       2.951   3.484   0.009  0.00  0.00     0.003 A 
ATOM      5  C3  PXY d   1       1.935   4.034  -0.730  0.00  0.00     0.003 A 
ATOM      6  C4  PXY d   1       0.650   3.588  -0.581  0.00  0.00    -0.082 A 
ATOM      7  C5  PXY d   1       0.380   2.629   0.331  0.00  0.00     0.003 A 
ATOM      8  C6  PXY d   1       1.418   2.113   1.100  0.00  0.00     0.003 A 
ENDROOT
TORSDOF 0
ENDMDL
