MODEL 1
REMARK minimizedAffinity 7.57848787
REMARK minimizedRMSD -1
REMARK  0 active torsions:
REMARK  status: ('A' for Active; 'I' for Inactive)
ROOT
ATOM      1  O1  BZF d   1       3.246  -2.600   0.708  0.00  0.00    -0.204 OA
ATOM      2  C2  BZF d   1       4.476  -2.100   0.323  0.00  0.00     0.174 A 
ATOM      3  C3  BZF d   1       5.091  -2.947  -0.528  0.00  0.00    -0.012 A 
ATOM      4  C3A BZF d   1       4.150  -4.000  -0.757  0.00  0.00    -0.107 A 
ATOM      5  C4  BZF d   1       4.173  -5.130  -1.524  0.00  0.00     0.055 A 
ATOM      6  C5  BZF d   1       3.121  -5.988  -1.468  0.00  0.00    -0.016 A 
ATOM      7  C6  BZF d   1       2.032  -5.750  -0.655  0.00  0.00     0.022 A 
ATOM      8  C7  BZF d   1       1.961  -4.640   0.120  0.00  0.00     0.029 A 
ATOM      9  C7A BZF d   1       3.009  -3.755   0.042  0.00  0.00     0.058 A 
ENDROOT
TORSDOF 0
ENDMDL
