MODEL 1
REMARK minimizedAffinity 18.7151432
REMARK minimizedRMSD -1
REMARK  0 active torsions:
REMARK  status: ('A' for Active; 'I' for Inactive)
ROOT
ATOM      1  O1  BZF d   1       1.296   4.223  -0.040  0.00  0.00    -0.204 OA
ATOM      2  C2  BZF d   1       0.331   4.909  -0.752  0.00  0.00     0.174 A 
ATOM      3  C3  BZF d   1      -0.899   4.645  -0.268  0.00  0.00    -0.012 A 
ATOM      4  C3A BZF d   1      -0.683   3.809   0.873  0.00  0.00    -0.107 A 
ATOM      5  C4  BZF d   1      -1.520   3.229   1.783  0.00  0.00     0.055 A 
ATOM      6  C5  BZF d   1      -0.996   2.411   2.734  0.00  0.00    -0.016 A 
ATOM      7  C6  BZF d   1       0.356   2.147   2.800  0.00  0.00     0.022 A 
ATOM      8  C7  BZF d   1       1.226   2.704   1.922  0.00  0.00     0.029 A 
ATOM      9  C7A BZF d   1       0.704   3.557   0.980  0.00  0.00     0.058 A 
ENDROOT
TORSDOF 0
ENDMDL
