MODEL 1
REMARK minimizedAffinity 15.9341364
REMARK minimizedRMSD -1
REMARK  0 active torsions:
REMARK  status: ('A' for Active; 'I' for Inactive)
ROOT
ATOM      1  O1  BZF d   1      -2.492   4.894  -0.662  0.00  0.00    -0.204 OA
ATOM      2  C2  BZF d   1      -3.139   3.748  -0.243  0.00  0.00     0.174 A 
ATOM      3  C3  BZF d   1      -2.258   2.854   0.249  0.00  0.00    -0.012 A 
ATOM      4  C3A BZF d   1      -0.991   3.517   0.216  0.00  0.00    -0.107 A 
ATOM      5  C4  BZF d   1       0.271   3.151   0.590  0.00  0.00     0.055 A 
ATOM      6  C5  BZF d   1       1.302   4.004   0.358  0.00  0.00    -0.016 A 
ATOM      7  C6  BZF d   1       1.110   5.228  -0.250  0.00  0.00     0.022 A 
ATOM      8  C7  BZF d   1      -0.124   5.637  -0.634  0.00  0.00     0.029 A 
ATOM      9  C7A BZF d   1      -1.173   4.791  -0.370  0.00  0.00     0.058 A 
ENDROOT
TORSDOF 0
ENDMDL
