MODEL 1
REMARK minimizedAffinity 5.82658243
REMARK minimizedRMSD -1
REMARK  0 active torsions:
REMARK  status: ('A' for Active; 'I' for Inactive)
ROOT
ATOM      1  O1  BZF d   1       1.187   4.208   0.118  0.00  0.00    -0.204 OA
ATOM      2  C2  BZF d   1       0.243   5.059  -0.424  0.00  0.00     0.174 A 
ATOM      3  C3  BZF d   1      -0.996   4.723  -0.012  0.00  0.00    -0.012 A 
ATOM      4  C3A BZF d   1      -0.807   3.649   0.915  0.00  0.00    -0.107 A 
ATOM      5  C4  BZF d   1      -1.662   2.902   1.673  0.00  0.00     0.055 A 
ATOM      6  C5  BZF d   1      -1.163   1.880   2.418  0.00  0.00    -0.016 A 
ATOM      7  C6  BZF d   1       0.182   1.576   2.424  0.00  0.00     0.022 A 
ATOM      8  C7  BZF d   1       1.070   2.292   1.692  0.00  0.00     0.029 A 
ATOM      9  C7A BZF d   1       0.573   3.346   0.964  0.00  0.00     0.058 A 
ENDROOT
TORSDOF 0
ENDMDL
