MODEL 1
REMARK minimizedAffinity 5.4272089
REMARK minimizedRMSD -1
REMARK  0 active torsions:
REMARK  status: ('A' for Active; 'I' for Inactive)
ROOT
ATOM      1  O1  BZF d   1       1.911  -0.317   2.222  0.00  0.00    -0.204 OA
ATOM      2  C2  BZF d   1       1.561  -0.770   3.480  0.00  0.00     0.174 A 
ATOM      3  C3  BZF d   1       0.616   0.022   4.026  0.00  0.00    -0.012 A 
ATOM      4  C3A BZF d   1       0.293   0.979   3.012  0.00  0.00    -0.107 A 
ATOM      5  C4  BZF d   1      -0.588   2.020   2.950  0.00  0.00     0.055 A 
ATOM      6  C5  BZF d   1      -0.606   2.805   1.841  0.00  0.00    -0.016 A 
ATOM      7  C6  BZF d   1       0.246   2.581   0.780  0.00  0.00     0.022 A 
ATOM      8  C7  BZF d   1       1.135   1.558   0.793  0.00  0.00     0.029 A 
ATOM      9  C7A BZF d   1       1.132   0.742   1.899  0.00  0.00     0.058 A 
ENDROOT
TORSDOF 0
ENDMDL
