MODEL 1
REMARK minimizedAffinity 11.2142763
REMARK minimizedRMSD -1
REMARK  0 active torsions:
REMARK  status: ('A' for Active; 'I' for Inactive)
ROOT
ATOM      1  O1  BZF d   1       5.445  -1.611  -3.160  0.00  0.00    -0.204 OA
ATOM      2  C2  BZF d   1       5.342  -2.469  -4.238  0.00  0.00     0.174 A 
ATOM      3  C3  BZF d   1       5.094  -3.729  -3.826  0.00  0.00    -0.012 A 
ATOM      4  C3A BZF d   1       4.947  -3.637  -2.405  0.00  0.00    -0.107 A 
ATOM      5  C4  BZF d   1       4.675  -4.552  -1.429  0.00  0.00     0.055 A 
ATOM      6  C5  BZF d   1       4.672  -4.151  -0.130  0.00  0.00    -0.016 A 
ATOM      7  C6  BZF d   1       4.942  -2.847   0.227  0.00  0.00     0.022 A 
ATOM      8  C7  BZF d   1       5.212  -1.902  -0.706  0.00  0.00     0.029 A 
ATOM      9  C7A BZF d   1       5.183  -2.297  -2.022  0.00  0.00     0.058 A 
ENDROOT
TORSDOF 0
ENDMDL
