MODEL 1
REMARK minimizedAffinity 3.69530845
REMARK minimizedRMSD -1
REMARK  0 active torsions:
REMARK  status: ('A' for Active; 'I' for Inactive)
ROOT
ATOM      1  O1  BZF d   1       0.807   2.656  -0.144  0.00  0.00    -0.204 OA
ATOM      2  C2  BZF d   1      -0.105   3.584   0.321  0.00  0.00     0.174 A 
ATOM      3  C3  BZF d   1      -1.368   3.170   0.090  0.00  0.00    -0.012 A 
ATOM      4  C3A BZF d   1      -1.238   1.863  -0.476  0.00  0.00    -0.107 A 
ATOM      5  C4  BZF d   1      -2.141   0.931  -0.902  0.00  0.00     0.055 A 
ATOM      6  C5  BZF d   1      -1.686  -0.216  -1.472  0.00  0.00    -0.016 A 
ATOM      7  C6  BZF d   1      -0.339  -0.461  -1.635  0.00  0.00     0.022 A 
ATOM      8  C7  BZF d   1       0.594   0.431  -1.223  0.00  0.00     0.029 A 
ATOM      9  C7A BZF d   1       0.139   1.577  -0.617  0.00  0.00     0.058 A 
ENDROOT
TORSDOF 0
ENDMDL
