MODEL 1
REMARK minimizedAffinity 12.1710033
REMARK minimizedRMSD -1
REMARK  0 active torsions:
REMARK  status: ('A' for Active; 'I' for Inactive)
ROOT
ATOM      1  O1  BZF d   1       5.273  -1.114  -1.161  0.00  0.00    -0.204 OA
ATOM      2  C2  BZF d   1       6.000  -2.285  -1.256  0.00  0.00     0.174 A 
ATOM      3  C3  BZF d   1       5.307  -3.321  -0.742  0.00  0.00    -0.012 A 
ATOM      4  C3A BZF d   1       4.032  -2.780  -0.383  0.00  0.00    -0.107 A 
ATOM      5  C4  BZF d   1       2.903  -3.320   0.163  0.00  0.00     0.055 A 
ATOM      6  C5  BZF d   1       1.856  -2.505   0.457  0.00  0.00    -0.016 A 
ATOM      7  C6  BZF d   1       1.906  -1.147   0.223  0.00  0.00     0.022 A 
ATOM      8  C7  BZF d   1       3.002  -0.566  -0.322  0.00  0.00     0.029 A 
ATOM      9  C7A BZF d   1       4.049  -1.392  -0.650  0.00  0.00     0.058 A 
ENDROOT
TORSDOF 0
ENDMDL
