MODEL 1
REMARK minimizedAffinity 7.7298522
REMARK minimizedRMSD -1
REMARK  0 active torsions:
REMARK  status: ('A' for Active; 'I' for Inactive)
ROOT
ATOM      1  O1  BZF d   1       1.779  -5.999  -1.526  0.00  0.00    -0.204 OA
ATOM      2  C2  BZF d   1       0.823  -6.000  -2.523  0.00  0.00     0.174 A 
ATOM      3  C3  BZF d   1       1.359  -5.619  -3.700  0.00  0.00    -0.012 A 
ATOM      4  C3A BZF d   1       2.756  -5.453  -3.441  0.00  0.00    -0.107 A 
ATOM      5  C4  BZF d   1       3.820  -5.099  -4.221  0.00  0.00     0.055 A 
ATOM      6  C5  BZF d   1       5.043  -4.957  -3.645  0.00  0.00    -0.016 A 
ATOM      7  C6  BZF d   1       5.237  -5.156  -2.294  0.00  0.00     0.022 A 
ATOM      8  C7  BZF d   1       4.213  -5.514  -1.481  0.00  0.00     0.029 A 
ATOM      9  C7A BZF d   1       2.983  -5.689  -2.065  0.00  0.00     0.058 A 
ENDROOT
TORSDOF 0
ENDMDL
