MODEL 1
REMARK minimizedAffinity -1.03759038
REMARK minimizedRMSD -1
REMARK  0 active torsions:
REMARK  status: ('A' for Active; 'I' for Inactive)
ROOT
ATOM      1  C4' PXY d   1      -2.028   0.285   3.609  0.00  0.00     0.077 C 
ATOM      2  C1' PXY d   1       2.540  -2.872   2.003  0.00  0.00     0.077 C 
ATOM      3  C1  PXY d   1       1.348  -2.041   2.435  0.00  0.00    -0.082 A 
ATOM      4  C2  PXY d   1       0.153  -2.298   1.928  0.00  0.00     0.003 A 
ATOM      5  C3  PXY d   1      -0.929  -1.536   2.284  0.00  0.00     0.003 A 
ATOM      6  C4  PXY d   1      -0.798  -0.534   3.208  0.00  0.00    -0.082 A 
ATOM      7  C5  PXY d   1       0.416  -0.273   3.738  0.00  0.00     0.003 A 
ATOM      8  C6  PXY d   1       1.510  -1.031   3.333  0.00  0.00     0.003 A 
ENDROOT
TORSDOF 0
ENDMDL
