MODEL 1
REMARK minimizedAffinity 4.48475122
REMARK minimizedRMSD -1
REMARK  0 active torsions:
REMARK  status: ('A' for Active; 'I' for Inactive)
ROOT
ATOM      1  C4' PXY d   1      -1.922  -4.090   3.433  0.00  0.00     0.077 C 
ATOM      2  C1' PXY d   1       3.171  -2.624   1.125  0.00  0.00     0.077 C 
ATOM      3  C1  PXY d   1       1.836  -2.999   1.739  0.00  0.00    -0.082 A 
ATOM      4  C2  PXY d   1       1.371  -4.229   1.592  0.00  0.00     0.003 A 
ATOM      5  C3  PXY d   1       0.151  -4.576   2.113  0.00  0.00     0.003 A 
ATOM      6  C4  PXY d   1      -0.575  -3.670   2.838  0.00  0.00    -0.082 A 
ATOM      7  C5  PXY d   1      -0.102  -2.416   3.002  0.00  0.00     0.003 A 
ATOM      8  C6  PXY d   1       1.119  -2.072   2.430  0.00  0.00     0.003 A 
ENDROOT
TORSDOF 0
ENDMDL
