MODEL 1
REMARK minimizedAffinity -0.355145633
REMARK minimizedRMSD -1
REMARK  0 active torsions:
REMARK  status: ('A' for Active; 'I' for Inactive)
ROOT
ATOM      1  C4' PXY d   1       2.519  -3.017   1.344  0.00  0.00     0.077 C 
ATOM      2  C1' PXY d   1      -1.908   0.278   3.064  0.00  0.00     0.077 C 
ATOM      3  C1  PXY d   1      -0.745  -0.578   2.604  0.00  0.00    -0.082 A 
ATOM      4  C2  PXY d   1      -0.730  -1.870   2.889  0.00  0.00     0.003 A 
ATOM      5  C3  PXY d   1       0.330  -2.652   2.508  0.00  0.00     0.003 A 
ATOM      6  C4  PXY d   1       1.360  -2.117   1.781  0.00  0.00    -0.082 A 
ATOM      7  C5  PXY d   1       1.347  -0.802   1.477  0.00  0.00     0.003 A 
ATOM      8  C6  PXY d   1       0.282  -0.017   1.909  0.00  0.00     0.003 A 
ENDROOT
TORSDOF 0
ENDMDL
