MODEL 1
REMARK minimizedAffinity 5.36015368
REMARK minimizedRMSD -1
REMARK  0 active torsions:
REMARK  status: ('A' for Active; 'I' for Inactive)
ROOT
ATOM      1  C4' PXY d   1       3.073  -5.062  -0.225  0.00  0.00     0.077 C 
ATOM      2  C1' PXY d   1       0.433  -1.190   3.158  0.00  0.00     0.077 C 
ATOM      3  C1  PXY d   1       1.125  -2.197   2.261  0.00  0.00    -0.082 A 
ATOM      4  C2  PXY d   1       0.985  -3.491   2.500  0.00  0.00     0.003 A 
ATOM      5  C3  PXY d   1       1.630  -4.414   1.718  0.00  0.00     0.003 A 
ATOM      6  C4  PXY d   1       2.384  -4.010   0.648  0.00  0.00    -0.082 A 
ATOM      7  C5  PXY d   1       2.523  -2.692   0.392  0.00  0.00     0.003 A 
ATOM      8  C6  PXY d   1       1.894  -1.770   1.222  0.00  0.00     0.003 A 
ENDROOT
TORSDOF 0
ENDMDL
