MODEL 1
REMARK minimizedAffinity 4.90133858
REMARK minimizedRMSD -1
REMARK  0 active torsions:
REMARK  status: ('A' for Active; 'I' for Inactive)
ROOT
ATOM      1  C4' PXY d   1      -0.420  -0.582   2.736  0.00  0.00     0.077 C 
ATOM      2  C1' PXY d   1       3.410  -4.391   0.680  0.00  0.00     0.077 C 
ATOM      3  C1  PXY d   1       2.411  -3.383   1.212  0.00  0.00    -0.082 A 
ATOM      4  C2  PXY d   1       1.800  -3.612   2.363  0.00  0.00     0.003 A 
ATOM      5  C3  PXY d   1       0.871  -2.726   2.844  0.00  0.00     0.003 A 
ATOM      6  C4  PXY d   1       0.603  -1.568   2.165  0.00  0.00    -0.082 A 
ATOM      7  C5  PXY d   1       1.230  -1.321   0.996  0.00  0.00     0.003 A 
ATOM      8  C6  PXY d   1       2.140  -2.253   0.505  0.00  0.00     0.003 A 
ENDROOT
TORSDOF 0
ENDMDL
