MODEL 1
REMARK minimizedAffinity 6.85300398
REMARK minimizedRMSD -1
REMARK  0 active torsions:
REMARK  status: ('A' for Active; 'I' for Inactive)
ROOT
ATOM      1  C4' PXY d   1       1.764  -3.096   1.918  0.00  0.00     0.077 C 
ATOM      2  C1' PXY d   1      -2.959   0.083   2.919  0.00  0.00     0.077 C 
ATOM      3  C1  PXY d   1      -1.713  -0.742   2.664  0.00  0.00    -0.082 A 
ATOM      4  C2  PXY d   1      -1.621  -1.464   1.559  0.00  0.00     0.003 A 
ATOM      5  C3  PXY d   1      -0.516  -2.241   1.328  0.00  0.00     0.003 A 
ATOM      6  C4  PXY d   1       0.529  -2.239   2.212  0.00  0.00    -0.082 A 
ATOM      7  C5  PXY d   1       0.448  -1.498   3.337  0.00  0.00     0.003 A 
ATOM      8  C6  PXY d   1      -0.701  -0.748   3.573  0.00  0.00     0.003 A 
ENDROOT
TORSDOF 0
ENDMDL
