MODEL 1
REMARK minimizedAffinity 0.942320049
REMARK minimizedRMSD -1
REMARK  0 active torsions:
REMARK  status: ('A' for Active; 'I' for Inactive)
ROOT
ATOM      1  C4' PXY d   1       3.059  -2.753   1.264  0.00  0.00     0.077 C 
ATOM      2  C1' PXY d   1      -1.938  -4.272   3.740  0.00  0.00     0.077 C 
ATOM      3  C1  PXY d   1      -0.624  -3.887   3.090  0.00  0.00    -0.082 A 
ATOM      4  C2  PXY d   1      -0.140  -2.668   3.268  0.00  0.00     0.003 A 
ATOM      5  C3  PXY d   1       1.031  -2.292   2.661  0.00  0.00     0.003 A 
ATOM      6  C4  PXY d   1       1.741  -3.189   1.909  0.00  0.00    -0.082 A 
ATOM      7  C5  PXY d   1       1.258  -4.438   1.732  0.00  0.00     0.003 A 
ATOM      8  C6  PXY d   1       0.047  -4.787   2.322  0.00  0.00     0.003 A 
ENDROOT
TORSDOF 0
ENDMDL
