MODEL 1
REMARK minimizedAffinity -1.25792634
REMARK minimizedRMSD -1
REMARK  0 active torsions:
REMARK  status: ('A' for Active; 'I' for Inactive)
ROOT
ATOM      1  C4' PXY d   1      -4.237   1.000   2.891  0.00  0.00     0.077 C 
ATOM      2  C1' PXY d   1       0.515  -2.161   1.972  0.00  0.00     0.077 C 
ATOM      3  C1  PXY d   1      -0.733  -1.330   2.200  0.00  0.00    -0.082 A 
ATOM      4  C2  PXY d   1      -0.894  -0.695   3.350  0.00  0.00     0.003 A 
ATOM      5  C3  PXY d   1      -2.032   0.034   3.585  0.00  0.00     0.003 A 
ATOM      6  C4  PXY d   1      -2.989   0.158   2.614  0.00  0.00    -0.082 A 
ATOM      7  C5  PXY d   1      -2.826  -0.479   1.435  0.00  0.00     0.003 A 
ATOM      8  C6  PXY d   1      -1.684  -1.248   1.231  0.00  0.00     0.003 A 
ENDROOT
TORSDOF 0
ENDMDL
