MODEL 1
REMARK minimizedAffinity 3.15288568
REMARK minimizedRMSD -1
REMARK  0 active torsions:
REMARK  status: ('A' for Active; 'I' for Inactive)
ROOT
ATOM      1  C4' PXY d   1       6.000  -0.763  -1.555  0.00  0.00     0.077 C 
ATOM      2  C1' PXY d   1       5.978   3.047   2.793  0.00  0.00     0.077 C 
ATOM      3  C1  PXY d   1       5.979   2.057   1.645  0.00  0.00    -0.082 A 
ATOM      4  C2  PXY d   1       5.967   0.759   1.900  0.00  0.00     0.003 A 
ATOM      5  C3  PXY d   1       6.000  -0.150   0.875  0.00  0.00     0.003 A 
ATOM      6  C4  PXY d   1       5.990   0.273  -0.427  0.00  0.00    -0.082 A 
ATOM      7  C5  PXY d   1       5.991   1.596  -0.697  0.00  0.00     0.003 A 
ATOM      8  C6  PXY d   1       6.000   2.503   0.359  0.00  0.00     0.003 A 
ENDROOT
TORSDOF 0
ENDMDL
