MODEL 1
REMARK minimizedAffinity 8.39576817
REMARK minimizedRMSD -1
REMARK  0 active torsions:
REMARK  status: ('A' for Active; 'I' for Inactive)
ROOT
ATOM      1  C4' PXY d   1      -2.184   0.278   3.583  0.00  0.00     0.077 C 
ATOM      2  C1' PXY d   1       2.265  -2.443   1.090  0.00  0.00     0.077 C 
ATOM      3  C1  PXY d   1       1.106  -1.726   1.754  0.00  0.00    -0.082 A 
ATOM      4  C2  PXY d   1      -0.135  -2.073   1.454  0.00  0.00     0.003 A 
ATOM      5  C3  PXY d   1      -1.195  -1.413   2.021  0.00  0.00     0.003 A 
ATOM      6  C4  PXY d   1      -0.983  -0.425   2.944  0.00  0.00    -0.082 A 
ATOM      7  C5  PXY d   1       0.281  -0.072   3.263  0.00  0.00     0.003 A 
ATOM      8  C6  PXY d   1       1.343  -0.726   2.645  0.00  0.00     0.003 A 
ENDROOT
TORSDOF 0
ENDMDL
