MODEL 1
REMARK minimizedAffinity -1.66002953
REMARK minimizedRMSD -1
REMARK  1 active torsions:
REMARK  status: ('A' for Active; 'I' for Inactive)
REMARK    1  A    between atoms: C3_4  and  O_7 
ROOT
ATOM      1  C   UNL d   1       4.876  -3.382  -4.951  0.00  0.00    -0.033 A 
ATOM      2  C1  UNL d   1       6.000  -3.370  -4.123  0.00  0.00     0.039 A 
ATOM      3  C2  UNL d   1       5.998  -2.612  -2.951  0.00  0.00    -0.080 A 
ATOM      4  C3  UNL d   1       4.868  -1.871  -2.619  0.00  0.00     0.150 A 
ATOM      5  C4  UNL d   1       3.743  -1.881  -3.437  0.00  0.00    -0.007 A 
ATOM      6  C5  UNL d   1       3.746  -2.639  -4.607  0.00  0.00     0.039 A 
ENDROOT
BRANCH   4   7
ATOM      7  O   UNL d   1       4.821  -1.111  -1.488  0.00  0.00    -0.526 OA
ATOM      8  H5  UNL d   1       5.679  -1.178  -1.036  0.00  0.00     0.418 HD
ENDBRANCH   4   7
TORSDOF 1
ENDMDL
