MODEL 1
REMARK minimizedAffinity -2.20812225
REMARK minimizedRMSD -1
REMARK  1 active torsions:
REMARK  status: ('A' for Active; 'I' for Inactive)
REMARK    1  A    between atoms: C3_4  and  O_7 
ROOT
ATOM      1  C   UNL d   1       0.200   2.562   1.330  0.00  0.00    -0.033 A 
ATOM      2  C1  UNL d   1       1.256   2.806   2.210  0.00  0.00     0.039 A 
ATOM      3  C2  UNL d   1       2.239   3.742   1.882  0.00  0.00    -0.080 A 
ATOM      4  C3  UNL d   1       2.154   4.426   0.672  0.00  0.00     0.150 A 
ATOM      5  C4  UNL d   1       1.103   4.190  -0.208  0.00  0.00    -0.007 A 
ATOM      6  C5  UNL d   1       0.123   3.255   0.121  0.00  0.00     0.039 A 
ENDROOT
BRANCH   4   7
ATOM      7  O   UNL d   1       3.092   5.345   0.306  0.00  0.00    -0.526 OA
ATOM      8  H5  UNL d   1       3.773   5.382   0.998  0.00  0.00     0.418 HD
ENDBRANCH   4   7
TORSDOF 1
ENDMDL
