MODEL 1
REMARK minimizedAffinity 3.78724575
REMARK minimizedRMSD -1
REMARK  1 active torsions:
REMARK  status: ('A' for Active; 'I' for Inactive)
REMARK    1  A    between atoms: C3_4  and  O_7 
ROOT
ATOM      1  C   UNL d   1       4.872  -2.309  -5.243  0.00  0.00    -0.033 A 
ATOM      2  C1  UNL d   1       6.000  -2.670  -4.504  0.00  0.00     0.039 A 
ATOM      3  C2  UNL d   1       5.999  -2.534  -3.114  0.00  0.00    -0.080 A 
ATOM      4  C3  UNL d   1       4.865  -2.038  -2.477  0.00  0.00     0.150 A 
ATOM      5  C4  UNL d   1       3.736  -1.680  -3.207  0.00  0.00    -0.007 A 
ATOM      6  C5  UNL d   1       3.739  -1.816  -4.595  0.00  0.00     0.039 A 
ENDROOT
BRANCH   4   7
ATOM      7  O   UNL d   1       4.818  -1.882  -1.124  0.00  0.00    -0.526 OA
ATOM      8  H5  UNL d   1       5.679  -2.142  -0.754  0.00  0.00     0.418 HD
ENDBRANCH   4   7
TORSDOF 1
ENDMDL
