MODEL 1
REMARK minimizedAffinity 3.4000411
REMARK minimizedRMSD -1
REMARK  1 active torsions:
REMARK  status: ('A' for Active; 'I' for Inactive)
REMARK    1  A    between atoms: C3_4  and  O_7 
ROOT
ATOM      1  C   UNL d   1       3.967  -1.466  -3.008  0.00  0.00    -0.033 A 
ATOM      2  C1  UNL d   1       5.299  -1.510  -2.591  0.00  0.00     0.039 A 
ATOM      3  C2  UNL d   1       6.000  -2.718  -2.611  0.00  0.00    -0.080 A 
ATOM      4  C3  UNL d   1       5.358  -3.872  -3.051  0.00  0.00     0.150 A 
ATOM      5  C4  UNL d   1       4.033  -3.835  -3.471  0.00  0.00    -0.007 A 
ATOM      6  C5  UNL d   1       3.335  -2.629  -3.449  0.00  0.00     0.039 A 
ENDROOT
BRANCH   4   7
ATOM      7  O   UNL d   1       5.999  -5.075  -3.084  0.00  0.00    -0.526 OA
ATOM      8  H5  UNL d   1       6.900  -4.954  -2.738  0.00  0.00     0.418 HD
ENDBRANCH   4   7
TORSDOF 1
ENDMDL
