MODEL 1
REMARK minimizedAffinity -0.17744118
REMARK minimizedRMSD -1
REMARK  1 active torsions:
REMARK  status: ('A' for Active; 'I' for Inactive)
REMARK    1  A    between atoms: C3_4  and  O_7 
ROOT
ATOM      1  C   UNL d   1      -1.729  -4.773  -5.306  0.00  0.00    -0.033 A 
ATOM      2  C1  UNL d   1      -1.403  -3.570  -4.677  0.00  0.00     0.039 A 
ATOM      3  C2  UNL d   1      -0.747  -3.580  -3.444  0.00  0.00    -0.080 A 
ATOM      4  C3  UNL d   1      -0.422  -4.798  -2.853  0.00  0.00     0.150 A 
ATOM      5  C4  UNL d   1      -0.740  -6.000  -3.476  0.00  0.00    -0.007 A 
ATOM      6  C5  UNL d   1      -1.396  -5.988  -4.707  0.00  0.00     0.039 A 
ENDROOT
BRANCH   4   7
ATOM      7  O   UNL d   1       0.214  -4.858  -1.649  0.00  0.00    -0.526 OA
ATOM      8  H5  UNL d   1       0.344  -3.952  -1.324  0.00  0.00     0.418 HD
ENDBRANCH   4   7
TORSDOF 1
ENDMDL
