MODEL 1
REMARK minimizedAffinity -1.20550132
REMARK minimizedRMSD -1
REMARK  1 active torsions:
REMARK  status: ('A' for Active; 'I' for Inactive)
REMARK    1  A    between atoms: C3_4  and  O_7 
ROOT
ATOM      1  C   UNL d   1      -4.652   1.911  -3.129  0.00  0.00    -0.033 A 
ATOM      2  C1  UNL d   1      -3.941   3.087  -2.884  0.00  0.00     0.039 A 
ATOM      3  C2  UNL d   1      -2.737   3.042  -2.179  0.00  0.00    -0.080 A 
ATOM      4  C3  UNL d   1      -2.255   1.817  -1.726  0.00  0.00     0.150 A 
ATOM      5  C4  UNL d   1      -2.956   0.641  -1.971  0.00  0.00    -0.007 A 
ATOM      6  C5  UNL d   1      -4.159   0.688  -2.674  0.00  0.00     0.039 A 
ENDROOT
BRANCH   4   7
ATOM      7  O   UNL d   1      -1.086   1.724  -1.030  0.00  0.00    -0.526 OA
ATOM      8  H5  UNL d   1      -0.727   2.619  -0.912  0.00  0.00     0.418 HD
ENDBRANCH   4   7
TORSDOF 1
ENDMDL
