MODEL 1
REMARK minimizedAffinity 2.56252193
REMARK minimizedRMSD -1
REMARK  1 active torsions:
REMARK  status: ('A' for Active; 'I' for Inactive)
REMARK    1  A    between atoms: C3_4  and  O_7 
ROOT
ATOM      1  C   UNL d   1       2.949  -6.000  -2.502  0.00  0.00    -0.033 A 
ATOM      2  C1  UNL d   1       3.747  -5.148  -3.268  0.00  0.00     0.039 A 
ATOM      3  C2  UNL d   1       4.491  -4.142  -2.649  0.00  0.00    -0.080 A 
ATOM      4  C3  UNL d   1       4.431  -4.000  -1.266  0.00  0.00     0.150 A 
ATOM      5  C4  UNL d   1       3.641  -4.848  -0.496  0.00  0.00    -0.007 A 
ATOM      6  C5  UNL d   1       2.897  -5.851  -1.116  0.00  0.00     0.039 A 
ENDROOT
BRANCH   4   7
ATOM      7  O   UNL d   1       5.136  -3.030  -0.617  0.00  0.00    -0.526 OA
ATOM      8  H5  UNL d   1       5.613  -2.502  -1.279  0.00  0.00     0.418 HD
ENDBRANCH   4   7
TORSDOF 1
ENDMDL
