MODEL 1
REMARK minimizedAffinity 7.96241856
REMARK minimizedRMSD -1
REMARK  0 active torsions:
REMARK  status: ('A' for Active; 'I' for Inactive)
ROOT
ATOM      1  C   UNL d   1       1.120  -3.033  -0.489  0.00  0.00     0.078 C 
ATOM      2  C1  UNL d   1       0.674  -1.857   0.327  0.00  0.00    -0.077 A 
ATOM      3  C2  UNL d   1      -0.653  -1.410   0.283  0.00  0.00    -0.001 A 
ATOM      4  C3  UNL d   1      -1.052  -0.308   1.041  0.00  0.00     0.003 A 
ATOM      5  C4  UNL d   1      -0.130   0.359   1.846  0.00  0.00    -0.005 A 
ATOM      6  C5  UNL d   1       1.193  -0.077   1.893  0.00  0.00     0.003 A 
ATOM      7  C6  UNL d   1       1.593  -1.179   1.137  0.00  0.00    -0.001 A 
ENDROOT
TORSDOF 0
ENDMDL
