MODEL 1
REMARK minimizedAffinity 1.32336235
REMARK minimizedRMSD -1
REMARK  0 active torsions:
REMARK  status: ('A' for Active; 'I' for Inactive)
ROOT
ATOM      1  C   UNL d   1       2.735  -0.332   1.184  0.00  0.00     0.078 C 
ATOM      2  C1  UNL d   1       1.471  -1.115   0.989  0.00  0.00    -0.077 A 
ATOM      3  C2  UNL d   1       0.218  -0.511   1.145  0.00  0.00    -0.001 A 
ATOM      4  C3  UNL d   1      -0.951  -1.254   0.970  0.00  0.00     0.003 A 
ATOM      5  C4  UNL d   1      -0.877  -2.605   0.639  0.00  0.00    -0.005 A 
ATOM      6  C5  UNL d   1       0.365  -3.216   0.484  0.00  0.00     0.003 A 
ATOM      7  C6  UNL d   1       1.535  -2.474   0.659  0.00  0.00    -0.001 A 
ENDROOT
TORSDOF 0
ENDMDL
