MODEL 1
REMARK minimizedAffinity 3.65750599
REMARK minimizedRMSD -1
REMARK  0 active torsions:
REMARK  status: ('A' for Active; 'I' for Inactive)
ROOT
ATOM      1  C   UNL d   1       0.916  -3.779  -0.926  0.00  0.00     0.078 C 
ATOM      2  C1  UNL d   1       0.811  -2.479  -0.186  0.00  0.00    -0.077 A 
ATOM      3  C2  UNL d   1       1.931  -1.658  -0.008  0.00  0.00    -0.001 A 
ATOM      4  C3  UNL d   1       1.821  -0.455   0.691  0.00  0.00     0.003 A 
ATOM      5  C4  UNL d   1       0.593  -0.062   1.219  0.00  0.00    -0.005 A 
ATOM      6  C5  UNL d   1      -0.527  -0.874   1.049  0.00  0.00     0.003 A 
ATOM      7  C6  UNL d   1      -0.419  -2.077   0.350  0.00  0.00    -0.001 A 
ENDROOT
TORSDOF 0
ENDMDL
