MODEL 1
REMARK minimizedAffinity 0.514403701
REMARK minimizedRMSD -1
REMARK  0 active torsions:
REMARK  status: ('A' for Active; 'I' for Inactive)
ROOT
ATOM      1  C   UNL d   1      -0.649  -0.711   2.094  0.00  0.00     0.078 C 
ATOM      2  C1  UNL d   1      -0.082  -1.659   1.080  0.00  0.00    -0.077 A 
ATOM      3  C2  UNL d   1       1.293  -1.695   0.815  0.00  0.00    -0.001 A 
ATOM      4  C3  UNL d   1       1.806  -2.576  -0.138  0.00  0.00     0.003 A 
ATOM      5  C4  UNL d   1       0.951  -3.427  -0.836  0.00  0.00    -0.005 A 
ATOM      6  C5  UNL d   1      -0.419  -3.397  -0.581  0.00  0.00     0.003 A 
ATOM      7  C6  UNL d   1      -0.933  -2.516   0.372  0.00  0.00    -0.001 A 
ENDROOT
TORSDOF 0
ENDMDL
