MODEL 1
REMARK minimizedAffinity -2.73914266
REMARK minimizedRMSD -1
REMARK  0 active torsions:
REMARK  status: ('A' for Active; 'I' for Inactive)
ROOT
ATOM      1  C   UNL d   1      -5.999  -6.000   4.479  0.00  0.00     0.078 C 
ATOM      2  C1  UNL d   1      -5.626  -4.848   3.595  0.00  0.00    -0.077 A 
ATOM      3  C2  UNL d   1      -5.854  -4.895   2.214  0.00  0.00    -0.001 A 
ATOM      4  C3  UNL d   1      -5.493  -3.819   1.402  0.00  0.00     0.003 A 
ATOM      5  C4  UNL d   1      -4.901  -2.688   1.961  0.00  0.00    -0.005 A 
ATOM      6  C5  UNL d   1      -4.668  -2.633   3.333  0.00  0.00     0.003 A 
ATOM      7  C6  UNL d   1      -5.028  -3.708   4.147  0.00  0.00    -0.001 A 
ENDROOT
TORSDOF 0
ENDMDL
