MODEL 1
REMARK minimizedAffinity -5.58514643
REMARK minimizedRMSD -1
REMARK  0 active torsions:
REMARK  status: ('A' for Active; 'I' for Inactive)
ROOT
ATOM      1  C   UNL d   1      -2.000  -2.629   0.783  0.00  0.00     0.078 C 
ATOM      2  C1  UNL d   1      -0.636  -2.061   0.528  0.00  0.00    -0.077 A 
ATOM      3  C2  UNL d   1      -0.349  -0.720   0.808  0.00  0.00    -0.001 A 
ATOM      4  C3  UNL d   1       0.923  -0.202   0.557  0.00  0.00     0.003 A 
ATOM      5  C4  UNL d   1       1.918  -1.019   0.023  0.00  0.00    -0.005 A 
ATOM      6  C5  UNL d   1       1.641  -2.354  -0.262  0.00  0.00     0.003 A 
ATOM      7  C6  UNL d   1       0.370  -2.874  -0.011  0.00  0.00    -0.001 A 
ENDROOT
TORSDOF 0
ENDMDL
