MODEL 1
REMARK minimizedAffinity 3.05923676
REMARK minimizedRMSD -1
REMARK  0 active torsions:
REMARK  status: ('A' for Active; 'I' for Inactive)
ROOT
ATOM      1  C   UNL d   1      -1.637  -2.065   0.694  0.00  0.00     0.078 C 
ATOM      2  C1  UNL d   1      -0.258  -2.537   0.341  0.00  0.00    -0.077 A 
ATOM      3  C2  UNL d   1       0.862  -1.729   0.576  0.00  0.00    -0.001 A 
ATOM      4  C3  UNL d   1       2.139  -2.177   0.234  0.00  0.00     0.003 A 
ATOM      5  C4  UNL d   1       2.308  -3.433  -0.345  0.00  0.00    -0.005 A 
ATOM      6  C5  UNL d   1       1.200  -4.243  -0.584  0.00  0.00     0.003 A 
ATOM      7  C6  UNL d   1      -0.078  -3.797  -0.243  0.00  0.00    -0.001 A 
ENDROOT
TORSDOF 0
ENDMDL
