MODEL 1
REMARK minimizedAffinity 3.06505084
REMARK minimizedRMSD -1
REMARK  0 active torsions:
REMARK  status: ('A' for Active; 'I' for Inactive)
ROOT
ATOM      1  C   UNL d   1       2.694  -3.746  -0.107  0.00  0.00     0.078 C 
ATOM      2  C1  UNL d   1       1.509  -2.861   0.143  0.00  0.00    -0.077 A 
ATOM      3  C2  UNL d   1       1.549  -1.863   1.124  0.00  0.00    -0.001 A 
ATOM      4  C3  UNL d   1       0.436  -1.052   1.352  0.00  0.00     0.003 A 
ATOM      5  C4  UNL d   1      -0.726  -1.232   0.604  0.00  0.00    -0.005 A 
ATOM      6  C5  UNL d   1      -0.775  -2.224  -0.373  0.00  0.00     0.003 A 
ATOM      7  C6  UNL d   1       0.337  -3.035  -0.603  0.00  0.00    -0.001 A 
ENDROOT
TORSDOF 0
ENDMDL
