MODEL 1
REMARK minimizedAffinity -1.44165373
REMARK minimizedRMSD -1
REMARK  0 active torsions:
REMARK  status: ('A' for Active; 'I' for Inactive)
ROOT
ATOM      1  C   UNL d   1       1.741  -3.618  -0.470  0.00  0.00     0.078 C 
ATOM      2  C1  UNL d   1       1.181  -2.344   0.089  0.00  0.00    -0.077 A 
ATOM      3  C2  UNL d   1       2.012  -1.252   0.366  0.00  0.00    -0.001 A 
ATOM      4  C3  UNL d   1       1.479  -0.075   0.895  0.00  0.00     0.003 A 
ATOM      5  C4  UNL d   1       0.113   0.020   1.152  0.00  0.00    -0.005 A 
ATOM      6  C5  UNL d   1      -0.722  -1.063   0.882  0.00  0.00     0.003 A 
ATOM      7  C6  UNL d   1      -0.190  -2.240   0.353  0.00  0.00    -0.001 A 
ENDROOT
TORSDOF 0
ENDMDL
