MODEL 1
REMARK minimizedAffinity -1.76007354
REMARK minimizedRMSD -1
REMARK  0 active torsions:
REMARK  status: ('A' for Active; 'I' for Inactive)
ROOT
ATOM      1  C   UNL d   1      -0.712  -0.402   1.069  0.00  0.00     0.078 C 
ATOM      2  C1  UNL d   1       0.153  -1.453   0.440  0.00  0.00    -0.077 A 
ATOM      3  C2  UNL d   1       1.416  -1.135  -0.074  0.00  0.00    -0.001 A 
ATOM      4  C3  UNL d   1       2.207  -2.121  -0.666  0.00  0.00     0.003 A 
ATOM      5  C4  UNL d   1       1.742  -3.432  -0.751  0.00  0.00    -0.005 A 
ATOM      6  C5  UNL d   1       0.486  -3.758  -0.245  0.00  0.00     0.003 A 
ATOM      7  C6  UNL d   1      -0.306  -2.773   0.348  0.00  0.00    -0.001 A 
ENDROOT
TORSDOF 0
ENDMDL
