MODEL 1
REMARK minimizedAffinity -1.96190441
REMARK minimizedRMSD -1
REMARK  0 active torsions:
REMARK  status: ('A' for Active; 'I' for Inactive)
ROOT
ATOM      1  C   UNL d   1      -1.035  -2.084   1.349  0.00  0.00     0.078 C 
ATOM      2  C1  UNL d   1      -1.358  -0.792   2.038  0.00  0.00    -0.077 A 
ATOM      3  C2  UNL d   1      -1.308  -0.687   3.434  0.00  0.00    -0.001 A 
ATOM      4  C3  UNL d   1      -1.621   0.519   4.062  0.00  0.00     0.003 A 
ATOM      5  C4  UNL d   1      -1.986   1.630   3.304  0.00  0.00    -0.005 A 
ATOM      6  C5  UNL d   1      -2.040   1.534   1.915  0.00  0.00     0.003 A 
ATOM      7  C6  UNL d   1      -1.728   0.329   1.284  0.00  0.00    -0.001 A 
ENDROOT
TORSDOF 0
ENDMDL
