MODEL 1
REMARK minimizedAffinity 0.614776373
REMARK minimizedRMSD -1
REMARK  0 active torsions:
REMARK  status: ('A' for Active; 'I' for Inactive)
ROOT
ATOM      1  C   UNL d   1       0.761  -3.660  -0.966  0.00  0.00     0.078 C 
ATOM      2  C1  UNL d   1       0.712  -2.391  -0.168  0.00  0.00    -0.077 A 
ATOM      3  C2  UNL d   1       1.882  -1.687   0.141  0.00  0.00    -0.001 A 
ATOM      4  C3  UNL d   1       1.823  -0.513   0.893  0.00  0.00     0.003 A 
ATOM      5  C4  UNL d   1       0.595  -0.034   1.345  0.00  0.00    -0.005 A 
ATOM      6  C5  UNL d   1      -0.575  -0.728   1.045  0.00  0.00     0.003 A 
ATOM      7  C6  UNL d   1      -0.517  -1.902   0.293  0.00  0.00    -0.001 A 
ENDROOT
TORSDOF 0
ENDMDL
