MODEL 1
REMARK minimizedAffinity -0.291467339
REMARK minimizedRMSD -1
REMARK  0 active torsions:
REMARK  status: ('A' for Active; 'I' for Inactive)
ROOT
ATOM      1  C   UNL d   1       1.319  -3.574  -0.231  0.00  0.00     0.078 C 
ATOM      2  C1  UNL d   1       0.782  -2.266   0.268  0.00  0.00    -0.077 A 
ATOM      3  C2  UNL d   1       1.644  -1.244   0.685  0.00  0.00    -0.001 A 
ATOM      4  C3  UNL d   1       1.130  -0.035   1.156  0.00  0.00     0.003 A 
ATOM      5  C4  UNL d   1      -0.248   0.163   1.217  0.00  0.00    -0.005 A 
ATOM      6  C5  UNL d   1      -1.114  -0.849   0.806  0.00  0.00     0.003 A 
ATOM      7  C6  UNL d   1      -0.601  -2.059   0.334  0.00  0.00    -0.001 A 
ENDROOT
TORSDOF 0
ENDMDL
