MODEL 1
REMARK minimizedAffinity 2.51814318
REMARK minimizedRMSD -1
REMARK  0 active torsions:
REMARK  status: ('A' for Active; 'I' for Inactive)
ROOT
ATOM      1  C   UNL d   1      -0.186  -3.805  -0.979  0.00  0.00     0.078 C 
ATOM      2  C1  UNL d   1       0.311  -2.778  -0.006  0.00  0.00    -0.077 A 
ATOM      3  C2  UNL d   1      -0.582  -2.026   0.769  0.00  0.00    -0.001 A 
ATOM      4  C3  UNL d   1      -0.106  -1.067   1.663  0.00  0.00     0.003 A 
ATOM      5  C4  UNL d   1       1.264  -0.849   1.792  0.00  0.00    -0.005 A 
ATOM      6  C5  UNL d   1       2.160  -1.590   1.024  0.00  0.00     0.003 A 
ATOM      7  C6  UNL d   1       1.686  -2.550   0.129  0.00  0.00    -0.001 A 
ENDROOT
TORSDOF 0
ENDMDL
