MODEL 1
REMARK minimizedAffinity -3.77998281
REMARK minimizedRMSD -1
REMARK  0 active torsions:
REMARK  status: ('A' for Active; 'I' for Inactive)
ROOT
ATOM      1  C   UNL d   1       1.317  -3.154   0.327  0.00  0.00     0.078 C 
ATOM      2  C1  UNL d   1       0.081  -2.378   0.673  0.00  0.00    -0.077 A 
ATOM      3  C2  UNL d   1      -1.129  -2.614   0.009  0.00  0.00    -0.001 A 
ATOM      4  C3  UNL d   1      -2.268  -1.877   0.335  0.00  0.00     0.003 A 
ATOM      5  C4  UNL d   1      -2.209  -0.899   1.325  0.00  0.00    -0.005 A 
ATOM      6  C5  UNL d   1      -1.009  -0.655   1.990  0.00  0.00     0.003 A 
ATOM      7  C6  UNL d   1       0.131  -1.391   1.665  0.00  0.00    -0.001 A 
ENDROOT
TORSDOF 0
ENDMDL
