MODEL 1
REMARK minimizedAffinity 6.32519531
REMARK minimizedRMSD -1
REMARK  0 active torsions:
REMARK  status: ('A' for Active; 'I' for Inactive)
ROOT
ATOM      1  C   UNL d   1       4.120   4.419  -0.427  0.00  0.00     0.078 C 
ATOM      2  C1  UNL d   1       3.658   3.421  -1.446  0.00  0.00    -0.077 A 
ATOM      3  C2  UNL d   1       2.520   3.661  -2.226  0.00  0.00    -0.001 A 
ATOM      4  C3  UNL d   1       2.096   2.718  -3.164  0.00  0.00     0.003 A 
ATOM      5  C4  UNL d   1       2.803   1.529  -3.330  0.00  0.00    -0.005 A 
ATOM      6  C5  UNL d   1       3.935   1.281  -2.557  0.00  0.00     0.003 A 
ATOM      7  C6  UNL d   1       4.361   2.222  -1.619  0.00  0.00    -0.001 A 
ENDROOT
TORSDOF 0
ENDMDL
