MODEL 1
REMARK minimizedAffinity 1.57655692
REMARK minimizedRMSD -1
REMARK  0 active torsions:
REMARK  status: ('A' for Active; 'I' for Inactive)
ROOT
ATOM      1  C   UNL d   1       2.245  -5.591  -5.996  0.00  0.00     0.078 C 
ATOM      2  C1  UNL d   1       3.557  -5.638  -5.271  0.00  0.00    -0.077 A 
ATOM      3  C2  UNL d   1       4.746  -5.931  -5.951  0.00  0.00    -0.001 A 
ATOM      4  C3  UNL d   1       5.959  -5.981  -5.262  0.00  0.00     0.003 A 
ATOM      5  C4  UNL d   1       5.994  -5.741  -3.889  0.00  0.00    -0.005 A 
ATOM      6  C5  UNL d   1       4.816  -5.451  -3.204  0.00  0.00     0.003 A 
ATOM      7  C6  UNL d   1       3.602  -5.401  -3.892  0.00  0.00    -0.001 A 
ENDROOT
TORSDOF 0
ENDMDL
