MODEL 1
REMARK minimizedAffinity -1.81189597
REMARK minimizedRMSD -1
REMARK  0 active torsions:
REMARK  status: ('A' for Active; 'I' for Inactive)
ROOT
ATOM      1  C   UNL d   1       3.313  -5.613  -1.831  0.00  0.00     0.078 C 
ATOM      2  C1  UNL d   1       3.681  -5.755  -3.278  0.00  0.00    -0.077 A 
ATOM      3  C2  UNL d   1       5.021  -5.774  -3.683  0.00  0.00    -0.001 A 
ATOM      4  C3  UNL d   1       5.349  -5.896  -5.034  0.00  0.00     0.003 A 
ATOM      5  C4  UNL d   1       4.342  -6.000  -5.991  0.00  0.00    -0.005 A 
ATOM      6  C5  UNL d   1       3.005  -5.980  -5.598  0.00  0.00     0.003 A 
ATOM      7  C6  UNL d   1       2.675  -5.858  -4.248  0.00  0.00    -0.001 A 
ENDROOT
TORSDOF 0
ENDMDL
