MODEL 1
REMARK minimizedAffinity -0.406448931
REMARK minimizedRMSD -1
REMARK  0 active torsions:
REMARK  status: ('A' for Active; 'I' for Inactive)
ROOT
ATOM      1  C   UNL d   1       3.767  -5.637  -1.704  0.00  0.00     0.078 C 
ATOM      2  C1  UNL d   1       3.821  -5.564  -3.201  0.00  0.00    -0.077 A 
ATOM      3  C2  UNL d   1       2.705  -5.161  -3.944  0.00  0.00    -0.001 A 
ATOM      4  C3  UNL d   1       2.767  -5.107  -5.338  0.00  0.00     0.003 A 
ATOM      5  C4  UNL d   1       3.942  -5.455  -6.000  0.00  0.00    -0.005 A 
ATOM      6  C5  UNL d   1       5.057  -5.859  -5.269  0.00  0.00     0.003 A 
ATOM      7  C6  UNL d   1       4.997  -5.914  -3.876  0.00  0.00    -0.001 A 
ENDROOT
TORSDOF 0
ENDMDL
