MODEL 1
REMARK minimizedAffinity -3.53076673
REMARK minimizedRMSD -1
REMARK  0 active torsions:
REMARK  status: ('A' for Active; 'I' for Inactive)
ROOT
ATOM      1  C   UNL d   1       1.737  -5.622  -5.989  0.00  0.00     0.078 C 
ATOM      2  C1  UNL d   1       3.044  -5.473  -5.270  0.00  0.00    -0.077 A 
ATOM      3  C2  UNL d   1       3.095  -5.396  -3.873  0.00  0.00    -0.001 A 
ATOM      4  C3  UNL d   1       4.319  -5.248  -3.218  0.00  0.00     0.003 A 
ATOM      5  C4  UNL d   1       5.501  -5.173  -3.953  0.00  0.00    -0.005 A 
ATOM      6  C5  UNL d   1       5.460  -5.246  -5.343  0.00  0.00     0.003 A 
ATOM      7  C6  UNL d   1       4.237  -5.394  -6.000  0.00  0.00    -0.001 A 
ENDROOT
TORSDOF 0
ENDMDL
