MODEL 1
REMARK minimizedAffinity -2.66693068
REMARK minimizedRMSD -1
REMARK  0 active torsions:
REMARK  status: ('A' for Active; 'I' for Inactive)
ROOT
ATOM      1  C   UNL d   1       3.764  -5.636  -1.829  0.00  0.00     0.078 C 
ATOM      2  C1  UNL d   1       4.124  -5.632  -3.285  0.00  0.00    -0.077 A 
ATOM      3  C2  UNL d   1       3.133  -5.648  -4.273  0.00  0.00    -0.001 A 
ATOM      4  C3  UNL d   1       3.483  -5.653  -5.624  0.00  0.00     0.003 A 
ATOM      5  C4  UNL d   1       4.825  -5.643  -5.999  0.00  0.00    -0.005 A 
ATOM      6  C5  UNL d   1       5.819  -5.629  -5.023  0.00  0.00     0.003 A 
ATOM      7  C6  UNL d   1       5.471  -5.624  -3.671  0.00  0.00    -0.001 A 
ENDROOT
TORSDOF 0
ENDMDL
