MODEL 1
REMARK minimizedAffinity -0.329316139
REMARK minimizedRMSD -1
REMARK  0 active torsions:
REMARK  status: ('A' for Active; 'I' for Inactive)
ROOT
ATOM      1  C   UNL d   1      -1.782   2.421  -5.209  0.00  0.00     0.078 C 
ATOM      2  C1  UNL d   1      -3.251   2.721  -5.232  0.00  0.00    -0.077 A 
ATOM      3  C2  UNL d   1      -3.759   3.781  -5.993  0.00  0.00    -0.001 A 
ATOM      4  C3  UNL d   1      -5.128   4.055  -5.997  0.00  0.00     0.003 A 
ATOM      5  C4  UNL d   1      -6.000   3.274  -5.241  0.00  0.00    -0.005 A 
ATOM      6  C5  UNL d   1      -5.504   2.219  -4.479  0.00  0.00     0.003 A 
ATOM      7  C6  UNL d   1      -4.135   1.944  -4.474  0.00  0.00    -0.001 A 
ENDROOT
TORSDOF 0
ENDMDL
