MODEL 1
REMARK minimizedAffinity -3.52945065
REMARK minimizedRMSD -1
REMARK  0 active torsions:
REMARK  status: ('A' for Active; 'I' for Inactive)
ROOT
ATOM      1  C   UNL d   1       3.733  -5.930  -1.752  0.00  0.00     0.078 C 
ATOM      2  C1  UNL d   1       3.974  -5.855  -3.231  0.00  0.00    -0.077 A 
ATOM      3  C2  UNL d   1       5.257  -5.628  -3.742  0.00  0.00    -0.001 A 
ATOM      4  C3  UNL d   1       5.465  -5.550  -5.120  0.00  0.00     0.003 A 
ATOM      5  C4  UNL d   1       4.393  -5.697  -5.998  0.00  0.00    -0.005 A 
ATOM      6  C5  UNL d   1       3.111  -5.921  -5.499  0.00  0.00     0.003 A 
ATOM      7  C6  UNL d   1       2.902  -5.999  -4.121  0.00  0.00    -0.001 A 
ENDROOT
TORSDOF 0
ENDMDL
