MODEL 1
REMARK minimizedAffinity -3.16923046
REMARK minimizedRMSD -1
REMARK  0 active torsions:
REMARK  status: ('A' for Active; 'I' for Inactive)
ROOT
ATOM      1  C   UNL d   1       3.027  -5.988  -1.468  0.00  0.00     0.078 C 
ATOM      2  C1  UNL d   1       3.835  -5.980  -2.731  0.00  0.00    -0.077 A 
ATOM      3  C2  UNL d   1       3.212  -5.989  -3.985  0.00  0.00    -0.001 A 
ATOM      4  C3  UNL d   1       3.976  -5.991  -5.153  0.00  0.00     0.003 A 
ATOM      5  C4  UNL d   1       5.368  -5.986  -5.078  0.00  0.00    -0.005 A 
ATOM      6  C5  UNL d   1       5.997  -5.979  -3.835  0.00  0.00     0.003 A 
ATOM      7  C6  UNL d   1       5.234  -5.977  -2.666  0.00  0.00    -0.001 A 
ENDROOT
TORSDOF 0
ENDMDL
