MODEL 1
REMARK minimizedAffinity -3.79859424
REMARK minimizedRMSD -1
REMARK  0 active torsions:
REMARK  status: ('A' for Active; 'I' for Inactive)
ROOT
ATOM      1  C   UNL d   1       3.228  -6.000  -1.877  0.00  0.00     0.078 C 
ATOM      2  C1  UNL d   1       3.590  -5.777  -3.315  0.00  0.00    -0.077 A 
ATOM      3  C2  UNL d   1       2.655  -5.990  -4.335  0.00  0.00    -0.001 A 
ATOM      4  C3  UNL d   1       3.009  -5.788  -5.670  0.00  0.00     0.003 A 
ATOM      5  C4  UNL d   1       4.299  -5.373  -5.997  0.00  0.00    -0.005 A 
ATOM      6  C5  UNL d   1       5.236  -5.161  -4.988  0.00  0.00     0.003 A 
ATOM      7  C6  UNL d   1       4.884  -5.363  -3.653  0.00  0.00    -0.001 A 
ENDROOT
TORSDOF 0
ENDMDL
