MODEL 1
REMARK minimizedAffinity -0.657031298
REMARK minimizedRMSD -1
REMARK  0 active torsions:
REMARK  status: ('A' for Active; 'I' for Inactive)
ROOT
ATOM      1  C   UNL d   1      -1.856   3.751  -5.260  0.00  0.00     0.078 C 
ATOM      2  C1  UNL d   1      -3.299   3.344  -5.247  0.00  0.00    -0.077 A 
ATOM      3  C2  UNL d   1      -3.729   2.237  -4.506  0.00  0.00    -0.001 A 
ATOM      4  C3  UNL d   1      -5.074   1.863  -4.511  0.00  0.00     0.003 A 
ATOM      5  C4  UNL d   1      -6.000   2.591  -5.256  0.00  0.00    -0.005 A 
ATOM      6  C5  UNL d   1      -5.581   3.693  -5.999  0.00  0.00     0.003 A 
ATOM      7  C6  UNL d   1      -4.236   4.068  -5.995  0.00  0.00    -0.001 A 
ENDROOT
TORSDOF 0
ENDMDL
