MODEL 1
REMARK minimizedAffinity -4.0613699
REMARK minimizedRMSD -1
REMARK  0 active torsions:
REMARK  status: ('A' for Active; 'I' for Inactive)
ROOT
ATOM      1  C   UNL d   1       2.221  -6.000  -5.444  0.00  0.00     0.078 C 
ATOM      2  C1  UNL d   1       3.498  -5.823  -4.678  0.00  0.00    -0.077 A 
ATOM      3  C2  UNL d   1       3.485  -5.600  -3.295  0.00  0.00    -0.001 A 
ATOM      4  C3  UNL d   1       4.681  -5.427  -2.596  0.00  0.00     0.003 A 
ATOM      5  C4  UNL d   1       5.899  -5.474  -3.272  0.00  0.00    -0.005 A 
ATOM      6  C5  UNL d   1       5.922  -5.692  -4.648  0.00  0.00     0.003 A 
ATOM      7  C6  UNL d   1       4.727  -5.865  -5.348  0.00  0.00    -0.001 A 
ENDROOT
TORSDOF 0
ENDMDL
