MODEL 1
REMARK minimizedAffinity -2.78000903
REMARK minimizedRMSD -1
REMARK  0 active torsions:
REMARK  status: ('A' for Active; 'I' for Inactive)
ROOT
ATOM      1  C   UNL d   1       3.052  -5.200  -1.921  0.00  0.00     0.078 C 
ATOM      2  C1  UNL d   1       3.515  -5.485  -3.319  0.00  0.00    -0.077 A 
ATOM      3  C2  UNL d   1       4.878  -5.492  -3.640  0.00  0.00    -0.001 A 
ATOM      4  C3  UNL d   1       5.294  -5.748  -4.947  0.00  0.00     0.003 A 
ATOM      5  C4  UNL d   1       4.353  -5.999  -5.944  0.00  0.00    -0.005 A 
ATOM      6  C5  UNL d   1       2.995  -5.992  -5.635  0.00  0.00     0.003 A 
ATOM      7  C6  UNL d   1       2.577  -5.735  -4.328  0.00  0.00    -0.001 A 
ENDROOT
TORSDOF 0
ENDMDL
