MODEL 1
REMARK minimizedAffinity -1.40977097
REMARK minimizedRMSD -1
REMARK  0 active torsions:
REMARK  status: ('A' for Active; 'I' for Inactive)
ROOT
ATOM      1  C   UNL d   1       3.186  -5.638  -2.075  0.00  0.00     0.078 C 
ATOM      2  C1  UNL d   1       3.791  -5.627  -3.447  0.00  0.00    -0.077 A 
ATOM      3  C2  UNL d   1       3.040  -5.999  -4.569  0.00  0.00    -0.001 A 
ATOM      4  C3  UNL d   1       3.619  -5.994  -5.839  0.00  0.00     0.003 A 
ATOM      5  C4  UNL d   1       4.951  -5.619  -5.999  0.00  0.00    -0.005 A 
ATOM      6  C5  UNL d   1       5.707  -5.250  -4.889  0.00  0.00     0.003 A 
ATOM      7  C6  UNL d   1       5.130  -5.254  -3.618  0.00  0.00    -0.001 A 
ENDROOT
TORSDOF 0
ENDMDL
