MODEL 1
REMARK minimizedAffinity -1.58002818
REMARK minimizedRMSD -1
REMARK  0 active torsions:
REMARK  status: ('A' for Active; 'I' for Inactive)
ROOT
ATOM      1  C   UNL d   1      -1.728   3.003  -5.954  0.00  0.00     0.078 C 
ATOM      2  C1  UNL d   1      -3.218   3.175  -5.951  0.00  0.00    -0.077 A 
ATOM      3  C2  UNL d   1      -4.072   2.066  -5.922  0.00  0.00    -0.001 A 
ATOM      4  C3  UNL d   1      -5.457   2.241  -5.930  0.00  0.00     0.003 A 
ATOM      5  C4  UNL d   1      -6.000   3.524  -5.968  0.00  0.00    -0.005 A 
ATOM      6  C5  UNL d   1      -5.157   4.633  -5.999  0.00  0.00     0.003 A 
ATOM      7  C6  UNL d   1      -3.772   4.460  -5.991  0.00  0.00    -0.001 A 
ENDROOT
TORSDOF 0
ENDMDL
