MODEL 1
REMARK minimizedAffinity -1.7864722
REMARK minimizedRMSD -1
REMARK  0 active torsions:
REMARK  status: ('A' for Active; 'I' for Inactive)
ROOT
ATOM      1  C   UNL d   1       2.803   1.452   0.730  0.00  0.00     0.078 C 
ATOM      2  C1  UNL d   1       1.440   1.919   1.145  0.00  0.00    -0.077 A 
ATOM      3  C2  UNL d   1       0.303   1.570   0.407  0.00  0.00    -0.001 A 
ATOM      4  C3  UNL d   1      -0.959   2.020   0.799  0.00  0.00     0.003 A 
ATOM      5  C4  UNL d   1      -1.095   2.822   1.931  0.00  0.00    -0.005 A 
ATOM      6  C5  UNL d   1       0.032   3.176   2.670  0.00  0.00     0.003 A 
ATOM      7  C6  UNL d   1       1.294   2.727   2.279  0.00  0.00    -0.001 A 
ENDROOT
TORSDOF 0
ENDMDL
