MODEL 1
REMARK minimizedAffinity -3.61453056
REMARK minimizedRMSD -1
REMARK  0 active torsions:
REMARK  status: ('A' for Active; 'I' for Inactive)
ROOT
ATOM      1  C   UNL d   1      -2.778   2.273  -4.849  0.00  0.00     0.078 C 
ATOM      2  C1  UNL d   1      -1.279   2.293  -4.858  0.00  0.00    -0.077 A 
ATOM      3  C2  UNL d   1      -0.569   2.684  -6.000  0.00  0.00    -0.001 A 
ATOM      4  C3  UNL d   1       0.827   2.688  -5.996  0.00  0.00     0.003 A 
ATOM      5  C4  UNL d   1       1.525   2.301  -4.854  0.00  0.00    -0.005 A 
ATOM      6  C5  UNL d   1       0.827   1.909  -3.713  0.00  0.00     0.003 A 
ATOM      7  C6  UNL d   1      -0.569   1.904  -3.715  0.00  0.00    -0.001 A 
ENDROOT
TORSDOF 0
ENDMDL
