MODEL 1
REMARK minimizedAffinity -0.0953882784
REMARK minimizedRMSD -1
REMARK  0 active torsions:
REMARK  status: ('A' for Active; 'I' for Inactive)
ROOT
ATOM      1  C   UNL d   1       0.196   3.542   2.445  0.00  0.00     0.078 C 
ATOM      2  C1  UNL d   1       1.156   2.734   1.624  0.00  0.00    -0.077 A 
ATOM      3  C2  UNL d   1       0.696   1.837   0.652  0.00  0.00    -0.001 A 
ATOM      4  C3  UNL d   1       1.601   1.084  -0.098  0.00  0.00     0.003 A 
ATOM      5  C4  UNL d   1       2.971   1.219   0.117  0.00  0.00    -0.005 A 
ATOM      6  C5  UNL d   1       3.438   2.107   1.084  0.00  0.00     0.003 A 
ATOM      7  C6  UNL d   1       2.535   2.861   1.835  0.00  0.00    -0.001 A 
ENDROOT
TORSDOF 0
ENDMDL
