MODEL 1
REMARK minimizedAffinity -4.87509871
REMARK minimizedRMSD -1
REMARK  2 active torsions:
REMARK  status: ('A' for Active; 'I' for Inactive)
REMARK    1  A    between atoms: C1_2  and  C2_3 
REMARK    2  A    between atoms: C2_3  and  C3_4 
ROOT
ATOM      1  C3  UNL d   1       1.406  -3.060   0.080  0.00  0.00    -0.075 A 
ATOM      2  C4  UNL d   1       1.916  -1.758  -0.027  0.00  0.00     0.002 A 
ATOM      3  C5  UNL d   1       1.137  -0.660   0.343  0.00  0.00     0.002 A 
ATOM      4  C6  UNL d   1      -0.160  -0.849   0.813  0.00  0.00    -0.004 A 
ATOM      5  C7  UNL d   1      -0.682  -2.138   0.908  0.00  0.00     0.002 A 
ATOM      6  C8  UNL d   1       0.096  -3.238   0.543  0.00  0.00     0.002 A 
ENDROOT
BRANCH   1   7
ATOM      7  C2  UNL d   1       2.254  -4.254  -0.291  0.00  0.00     0.056 C 
BRANCH   7   8
ATOM      8  C1  UNL d   1       3.743  -3.933  -0.459  0.00  0.00     0.007 C 
ATOM      9  C   UNL d   1       4.623  -5.175  -0.500  0.00  0.00     0.009 C 
ENDBRANCH   7   8
ENDBRANCH   1   7
TORSDOF 2
ENDMDL
