MODEL 1
REMARK minimizedAffinity -4.2462759
REMARK minimizedRMSD -1
REMARK  2 active torsions:
REMARK  status: ('A' for Active; 'I' for Inactive)
REMARK    1  A    between atoms: C1_2  and  C2_3 
REMARK    2  A    between atoms: C2_3  and  C3_4 
ROOT
ATOM      1  C3  UNL d   1       1.700  -2.818   0.594  0.00  0.00    -0.075 A 
ATOM      2  C4  UNL d   1       2.537  -1.704   0.431  0.00  0.00     0.002 A 
ATOM      3  C5  UNL d   1       2.030  -0.411   0.565  0.00  0.00     0.002 A 
ATOM      4  C6  UNL d   1       0.681  -0.215   0.853  0.00  0.00    -0.004 A 
ATOM      5  C7  UNL d   1      -0.163  -1.314   1.001  0.00  0.00     0.002 A 
ATOM      6  C8  UNL d   1       0.342  -2.609   0.872  0.00  0.00     0.002 A 
ENDROOT
BRANCH   1   7
ATOM      7  C2  UNL d   1       2.248  -4.220   0.480  0.00  0.00     0.056 C 
BRANCH   7   8
ATOM      8  C1  UNL d   1       3.702  -4.284  -0.001  0.00  0.00     0.007 C 
ATOM      9  C   UNL d   1       4.364  -5.629   0.265  0.00  0.00     0.009 C 
ENDBRANCH   7   8
ENDBRANCH   1   7
TORSDOF 2
ENDMDL
