MODEL 1
REMARK minimizedAffinity -5.01573896
REMARK minimizedRMSD -1
REMARK  2 active torsions:
REMARK  status: ('A' for Active; 'I' for Inactive)
REMARK    1  A    between atoms: C1_2  and  C2_3 
REMARK    2  A    between atoms: C2_3  and  C3_4 
ROOT
ATOM      1  C3  UNL d   1       1.355  -2.651   0.391  0.00  0.00    -0.075 A 
ATOM      2  C4  UNL d   1       2.110  -1.529   0.764  0.00  0.00     0.002 A 
ATOM      3  C5  UNL d   1       1.478  -0.342   1.135  0.00  0.00     0.002 A 
ATOM      4  C6  UNL d   1       0.088  -0.257   1.128  0.00  0.00    -0.004 A 
ATOM      5  C7  UNL d   1      -0.672  -1.361   0.744  0.00  0.00     0.002 A 
ATOM      6  C8  UNL d   1      -0.042  -2.551   0.377  0.00  0.00     0.002 A 
ENDROOT
BRANCH   1   7
ATOM      7  C2  UNL d   1       2.032  -3.948   0.017  0.00  0.00     0.056 C 
BRANCH   7   8
ATOM      8  C1  UNL d   1       3.563  -3.884   0.048  0.00  0.00     0.007 C 
ATOM      9  C   UNL d   1       4.220  -5.256   0.114  0.00  0.00     0.009 C 
ENDBRANCH   7   8
ENDBRANCH   1   7
TORSDOF 2
ENDMDL
