MODEL 1
REMARK minimizedAffinity -4.21139002
REMARK minimizedRMSD -1
REMARK  2 active torsions:
REMARK  status: ('A' for Active; 'I' for Inactive)
REMARK    1  A    between atoms: C1_2  and  C2_3 
REMARK    2  A    between atoms: C2_3  and  C3_4 
ROOT
ATOM      1  C3  UNL d   1       1.940  -3.049   0.253  0.00  0.00    -0.075 A 
ATOM      2  C4  UNL d   1       2.718  -1.884   0.319  0.00  0.00     0.002 A 
ATOM      3  C5  UNL d   1       2.124  -0.650   0.585  0.00  0.00     0.002 A 
ATOM      4  C6  UNL d   1       0.747  -0.563   0.779  0.00  0.00    -0.004 A 
ATOM      5  C7  UNL d   1      -0.037  -1.712   0.699  0.00  0.00     0.002 A 
ATOM      6  C8  UNL d   1       0.555  -2.948   0.437  0.00  0.00     0.002 A 
ENDROOT
BRANCH   1   7
ATOM      7  C2  UNL d   1       2.581  -4.392  -0.006  0.00  0.00     0.056 C 
BRANCH   7   8
ATOM      8  C1  UNL d   1       4.087  -4.322  -0.277  0.00  0.00     0.007 C 
ATOM      9  C   UNL d   1       4.767  -5.684  -0.240  0.00  0.00     0.009 C 
ENDBRANCH   7   8
ENDBRANCH   1   7
TORSDOF 2
ENDMDL
