MODEL 1
REMARK minimizedAffinity 0.00610689912
REMARK minimizedRMSD -1
REMARK  2 active torsions:
REMARK  status: ('A' for Active; 'I' for Inactive)
REMARK    1  A    between atoms: C1_2  and  C2_3 
REMARK    2  A    between atoms: C2_3  and  C3_4 
ROOT
ATOM      1  C3  UNL d   1       2.106  -3.509   0.308  0.00  0.00    -0.075 A 
ATOM      2  C4  UNL d   1       2.774  -2.319   0.631  0.00  0.00     0.002 A 
ATOM      3  C5  UNL d   1       2.101  -1.097   0.597  0.00  0.00     0.002 A 
ATOM      4  C6  UNL d   1       0.757  -1.049   0.230  0.00  0.00    -0.004 A 
ATOM      5  C7  UNL d   1       0.089  -2.223  -0.108  0.00  0.00     0.002 A 
ATOM      6  C8  UNL d   1       0.759  -3.447  -0.071  0.00  0.00     0.002 A 
ENDROOT
BRANCH   1   7
ATOM      7  C2  UNL d   1       2.822  -4.838   0.372  0.00  0.00     0.056 C 
BRANCH   7   8
ATOM      8  C1  UNL d   1       4.301  -4.769  -0.021  0.00  0.00     0.007 C 
ATOM      9  C   UNL d   1       5.094  -5.997   0.407  0.00  0.00     0.009 C 
ENDBRANCH   7   8
ENDBRANCH   1   7
TORSDOF 2
ENDMDL
