MODEL 1
REMARK minimizedAffinity 0.659358561
REMARK minimizedRMSD -1
REMARK  2 active torsions:
REMARK  status: ('A' for Active; 'I' for Inactive)
REMARK    1  A    between atoms: C1_2  and  C2_3 
REMARK    2  A    between atoms: C2_3  and  C3_4 
ROOT
ATOM      1  C3  UNL d   1       1.547  -3.218   0.256  0.00  0.00    -0.075 A 
ATOM      2  C4  UNL d   1       2.333  -2.086   0.519  0.00  0.00     0.002 A 
ATOM      3  C5  UNL d   1       1.735  -0.878   0.879  0.00  0.00     0.002 A 
ATOM      4  C6  UNL d   1       0.349  -0.783   0.971  0.00  0.00    -0.004 A 
ATOM      5  C7  UNL d   1      -0.442  -1.897   0.697  0.00  0.00     0.002 A 
ATOM      6  C8  UNL d   1       0.153  -3.108   0.341  0.00  0.00     0.002 A 
ENDROOT
BRANCH   1   7
ATOM      7  C2  UNL d   1       2.189  -4.537  -0.105  0.00  0.00     0.056 C 
BRANCH   7   8
ATOM      8  C1  UNL d   1       3.694  -4.596   0.176  0.00  0.00     0.007 C 
ATOM      9  C   UNL d   1       4.167  -5.972   0.625  0.00  0.00     0.009 C 
ENDBRANCH   7   8
ENDBRANCH   1   7
TORSDOF 2
ENDMDL
