MODEL 1
REMARK minimizedAffinity -4.33402252
REMARK minimizedRMSD -1
REMARK  2 active torsions:
REMARK  status: ('A' for Active; 'I' for Inactive)
REMARK    1  A    between atoms: C1_2  and  C2_3 
REMARK    2  A    between atoms: C2_3  and  C3_4 
ROOT
ATOM      1  C3  UNL d   1       1.420  -2.857   0.169  0.00  0.00    -0.075 A 
ATOM      2  C4  UNL d   1       2.125  -1.663   0.381  0.00  0.00     0.002 A 
ATOM      3  C5  UNL d   1       1.444  -0.482   0.680  0.00  0.00     0.002 A 
ATOM      4  C6  UNL d   1       0.053  -0.478   0.760  0.00  0.00    -0.004 A 
ATOM      5  C7  UNL d   1      -0.658  -1.655   0.534  0.00  0.00     0.002 A 
ATOM      6  C8  UNL d   1       0.021  -2.838   0.239  0.00  0.00     0.002 A 
ENDROOT
BRANCH   1   7
ATOM      7  C2  UNL d   1       2.153  -4.144  -0.126  0.00  0.00     0.056 C 
BRANCH   7   8
ATOM      8  C1  UNL d   1       3.674  -3.988  -0.220  0.00  0.00     0.007 C 
ATOM      9  C   UNL d   1       4.429  -5.280   0.064  0.00  0.00     0.009 C 
ENDBRANCH   7   8
ENDBRANCH   1   7
TORSDOF 2
ENDMDL
