MODEL 1
REMARK minimizedAffinity -0.601726592
REMARK minimizedRMSD -1
REMARK  2 active torsions:
REMARK  status: ('A' for Active; 'I' for Inactive)
REMARK    1  A    between atoms: C1_2  and  C2_3 
REMARK    2  A    between atoms: C2_3  and  C3_4 
ROOT
ATOM      1  C3  UNL d   1       1.654  -3.165   0.195  0.00  0.00    -0.075 A 
ATOM      2  C4  UNL d   1       0.326  -2.945   0.587  0.00  0.00     0.002 A 
ATOM      3  C5  UNL d   1      -0.130  -1.654   0.853  0.00  0.00     0.002 A 
ATOM      4  C6  UNL d   1       0.737  -0.569   0.742  0.00  0.00    -0.004 A 
ATOM      5  C7  UNL d   1       2.063  -0.777   0.369  0.00  0.00     0.002 A 
ATOM      6  C8  UNL d   1       2.521  -2.068   0.098  0.00  0.00     0.002 A 
ENDROOT
BRANCH   1   7
ATOM      7  C2  UNL d   1       2.146  -4.556  -0.123  0.00  0.00     0.056 C 
BRANCH   7   8
ATOM      8  C1  UNL d   1       3.653  -4.640  -0.386  0.00  0.00     0.007 C 
ATOM      9  C   UNL d   1       4.248  -5.999  -0.041  0.00  0.00     0.009 C 
ENDBRANCH   7   8
ENDBRANCH   1   7
TORSDOF 2
ENDMDL
