MODEL 1
REMARK minimizedAffinity -2.17773056
REMARK minimizedRMSD -1
REMARK  2 active torsions:
REMARK  status: ('A' for Active; 'I' for Inactive)
REMARK    1  A    between atoms: C1_2  and  C2_3 
REMARK    2  A    between atoms: C2_3  and  C3_4 
ROOT
ATOM      1  C3  UNL d   1       2.530  -3.940   0.371  0.00  0.00    -0.075 A 
ATOM      2  C4  UNL d   1       3.244  -2.732   0.372  0.00  0.00     0.002 A 
ATOM      3  C5  UNL d   1       2.569  -1.511   0.405  0.00  0.00     0.002 A 
ATOM      4  C6  UNL d   1       1.177  -1.481   0.427  0.00  0.00    -0.004 A 
ATOM      5  C7  UNL d   1       0.458  -2.675   0.409  0.00  0.00     0.002 A 
ATOM      6  C8  UNL d   1       1.130  -3.898   0.380  0.00  0.00     0.002 A 
ENDROOT
BRANCH   1   7
ATOM      7  C2  UNL d   1       3.254  -5.265   0.365  0.00  0.00     0.056 C 
BRANCH   7   8
ATOM      8  C1  UNL d   1       4.591  -5.242  -0.384  0.00  0.00     0.007 C 
ATOM      9  C   UNL d   1       5.697  -6.000   0.338  0.00  0.00     0.009 C 
ENDBRANCH   7   8
ENDBRANCH   1   7
TORSDOF 2
ENDMDL
