MODEL 1
REMARK minimizedAffinity -0.800445616
REMARK minimizedRMSD -1
REMARK  2 active torsions:
REMARK  status: ('A' for Active; 'I' for Inactive)
REMARK    1  A    between atoms: C1_2  and  C2_3 
REMARK    2  A    between atoms: C2_3  and  C3_4 
ROOT
ATOM      1  C3  UNL d   1       1.406  -2.893   0.422  0.00  0.00    -0.075 A 
ATOM      2  C4  UNL d   1       2.124  -1.743   0.781  0.00  0.00     0.002 A 
ATOM      3  C5  UNL d   1       1.476  -0.663   1.382  0.00  0.00     0.002 A 
ATOM      4  C6  UNL d   1       0.105  -0.714   1.621  0.00  0.00    -0.004 A 
ATOM      5  C7  UNL d   1      -0.621  -1.845   1.254  0.00  0.00     0.002 A 
ATOM      6  C8  UNL d   1       0.025  -2.929   0.657  0.00  0.00     0.002 A 
ENDROOT
BRANCH   1   7
ATOM      7  C2  UNL d   1       2.106  -4.077  -0.201  0.00  0.00     0.056 C 
BRANCH   7   8
ATOM      8  C1  UNL d   1       3.635  -3.987  -0.167  0.00  0.00     0.007 C 
ATOM      9  C   UNL d   1       4.312  -5.338   0.023  0.00  0.00     0.009 C 
ENDBRANCH   7   8
ENDBRANCH   1   7
TORSDOF 2
ENDMDL
