MODEL 1
REMARK minimizedAffinity 1.89189112
REMARK minimizedRMSD -1
REMARK  2 active torsions:
REMARK  status: ('A' for Active; 'I' for Inactive)
REMARK    1  A    between atoms: C1_2  and  C2_3 
REMARK    2  A    between atoms: C2_3  and  C3_4 
ROOT
ATOM      1  C3  UNL d   1       1.424  -0.299   1.279  0.00  0.00    -0.075 A 
ATOM      2  C4  UNL d   1       1.271  -1.403   0.428  0.00  0.00     0.002 A 
ATOM      3  C5  UNL d   1       0.004  -1.788  -0.013  0.00  0.00     0.002 A 
ATOM      4  C6  UNL d   1      -1.124  -1.081   0.399  0.00  0.00    -0.004 A 
ATOM      5  C7  UNL d   1      -0.985   0.007   1.258  0.00  0.00     0.002 A 
ATOM      6  C8  UNL d   1       0.282   0.396   1.697  0.00  0.00     0.002 A 
ENDROOT
BRANCH   1   7
ATOM      7  C2  UNL d   1       2.795   0.139   1.736  0.00  0.00     0.056 C 
BRANCH   7   8
ATOM      8  C1  UNL d   1       3.946  -0.643   1.095  0.00  0.00     0.007 C 
ATOM      9  C   UNL d   1       5.263  -0.496   1.845  0.00  0.00     0.009 C 
ENDBRANCH   7   8
ENDBRANCH   1   7
TORSDOF 2
ENDMDL
