MODEL 1
REMARK minimizedAffinity -2.86548591
REMARK minimizedRMSD -1
REMARK  2 active torsions:
REMARK  status: ('A' for Active; 'I' for Inactive)
REMARK    1  A    between atoms: C1_2  and  C2_3 
REMARK    2  A    between atoms: C2_3  and  C3_4 
ROOT
ATOM      1  C3  UNL d   1       1.360  -2.817   0.104  0.00  0.00    -0.075 A 
ATOM      2  C4  UNL d   1       1.872  -1.615  -0.406  0.00  0.00     0.002 A 
ATOM      3  C5  UNL d   1       1.285  -0.395  -0.069  0.00  0.00     0.002 A 
ATOM      4  C6  UNL d   1       0.174  -0.362   0.771  0.00  0.00    -0.004 A 
ATOM      5  C7  UNL d   1      -0.354  -1.551   1.270  0.00  0.00     0.002 A 
ATOM      6  C8  UNL d   1       0.235  -2.772   0.938  0.00  0.00     0.002 A 
ENDROOT
BRANCH   1   7
ATOM      7  C2  UNL d   1       2.009  -4.138  -0.233  0.00  0.00     0.056 C 
BRANCH   7   8
ATOM      8  C1  UNL d   1       3.539  -4.086  -0.282  0.00  0.00     0.007 C 
ATOM      9  C   UNL d   1       4.191  -5.454  -0.131  0.00  0.00     0.009 C 
ENDBRANCH   7   8
ENDBRANCH   1   7
TORSDOF 2
ENDMDL
