MODEL 1
REMARK minimizedAffinity -0.380562693
REMARK minimizedRMSD -1
REMARK  2 active torsions:
REMARK  status: ('A' for Active; 'I' for Inactive)
REMARK    1  A    between atoms: C1_2  and  C2_3 
REMARK    2  A    between atoms: C2_3  and  C3_4 
ROOT
ATOM      1  C3  UNL d   1       1.087  -3.231   0.147  0.00  0.00    -0.075 A 
ATOM      2  C4  UNL d   1       1.502  -1.891   0.182  0.00  0.00     0.002 A 
ATOM      3  C5  UNL d   1       0.675  -0.908   0.727  0.00  0.00     0.002 A 
ATOM      4  C6  UNL d   1      -0.577  -1.248   1.233  0.00  0.00    -0.004 A 
ATOM      5  C7  UNL d   1      -1.006  -2.573   1.188  0.00  0.00     0.002 A 
ATOM      6  C8  UNL d   1      -0.179  -3.560   0.648  0.00  0.00     0.002 A 
ENDROOT
BRANCH   1   7
ATOM      7  C2  UNL d   1       1.989  -4.304  -0.414  0.00  0.00     0.056 C 
BRANCH   7   8
ATOM      8  C1  UNL d   1       3.480  -4.062  -0.158  0.00  0.00     0.007 C 
ATOM      9  C   UNL d   1       4.256  -5.342   0.124  0.00  0.00     0.009 C 
ENDBRANCH   7   8
ENDBRANCH   1   7
TORSDOF 2
ENDMDL
