MODEL 1
REMARK minimizedAffinity 1.34166706
REMARK minimizedRMSD -1
REMARK  2 active torsions:
REMARK  status: ('A' for Active; 'I' for Inactive)
REMARK    1  A    between atoms: C1_2  and  C2_3 
REMARK    2  A    between atoms: C2_3  and  C3_4 
ROOT
ATOM      1  C3  UNL d   1       1.477  -3.284   0.321  0.00  0.00    -0.075 A 
ATOM      2  C4  UNL d   1       2.207  -2.168   0.754  0.00  0.00     0.002 A 
ATOM      3  C5  UNL d   1       1.552  -0.989   1.111  0.00  0.00     0.002 A 
ATOM      4  C6  UNL d   1       0.163  -0.908   1.030  0.00  0.00    -0.004 A 
ATOM      5  C7  UNL d   1      -0.570  -2.006   0.586  0.00  0.00     0.002 A 
ATOM      6  C8  UNL d   1       0.082  -3.188   0.232  0.00  0.00     0.002 A 
ENDROOT
BRANCH   1   7
ATOM      7  C2  UNL d   1       2.178  -4.573  -0.038  0.00  0.00     0.056 C 
BRANCH   7   8
ATOM      8  C1  UNL d   1       3.707  -4.491   0.030  0.00  0.00     0.007 C 
ATOM      9  C   UNL d   1       4.380  -5.857   0.060  0.00  0.00     0.009 C 
ENDBRANCH   7   8
ENDBRANCH   1   7
TORSDOF 2
ENDMDL
