MODEL 1
REMARK minimizedAffinity 8.46646214
REMARK minimizedRMSD -1
REMARK  0 active torsions:
REMARK  status: ('A' for Active; 'I' for Inactive)
ROOT
ATOM      1  N1  IND d   1       0.026   4.857  -0.946  0.00  0.00    -0.196 N 
ATOM      2  C2  IND d   1       1.374   4.645  -0.875  0.00  0.00     0.054 A 
ATOM      3  C3  IND d   1       1.633   3.345  -0.610  0.00  0.00    -0.031 A 
ATOM      4  C4  IND d   1      -0.002   1.372  -0.355  0.00  0.00     0.051 A 
ATOM      5  C5  IND d   1      -1.335   1.078  -0.301  0.00  0.00    -0.031 A 
ATOM      6  C6  IND d   1      -2.303   2.048  -0.466  0.00  0.00     0.015 A 
ATOM      7  C7  IND d   1      -1.971   3.352  -0.702  0.00  0.00    -0.016 A 
ATOM      8  C8  IND d   1      -0.618   3.655  -0.750  0.00  0.00    -0.047 A 
ATOM      9  C9  IND d   1       0.368   2.683  -0.542  0.00  0.00    -0.096 A 
ATOM     10  HN1 IND d   1      -0.356   5.615  -1.088  0.00  0.00     0.298 HD
ENDROOT
TORSDOF 0
ENDMDL
