MODEL 1
REMARK minimizedAffinity 2.6441617
REMARK minimizedRMSD -1
REMARK  0 active torsions:
REMARK  status: ('A' for Active; 'I' for Inactive)
ROOT
ATOM      1  N1  IND d   1      -1.827   2.896   3.128  0.00  0.00    -0.196 N 
ATOM      2  C2  IND d   1      -1.167   2.172   4.081  0.00  0.00     0.054 A 
ATOM      3  C3  IND d   1      -0.608   1.070   3.532  0.00  0.00    -0.031 A 
ATOM      4  C4  IND d   1      -0.566   0.311   1.072  0.00  0.00     0.051 A 
ATOM      5  C5  IND d   1      -1.063   0.626  -0.161  0.00  0.00    -0.031 A 
ATOM      6  C6  IND d   1      -1.854   1.738  -0.366  0.00  0.00     0.015 A 
ATOM      7  C7  IND d   1      -2.169   2.586   0.658  0.00  0.00    -0.016 A 
ATOM      8  C8  IND d   1      -1.672   2.265   1.913  0.00  0.00    -0.047 A 
ATOM      9  C9  IND d   1      -0.904   1.115   2.135  0.00  0.00    -0.096 A 
ATOM     10  HN1 IND d   1      -2.266   3.623   3.264  0.00  0.00     0.298 HD
ENDROOT
TORSDOF 0
ENDMDL
