MODEL 1
REMARK minimizedAffinity -1.77023745
REMARK minimizedRMSD -1
REMARK  0 active torsions:
REMARK  status: ('A' for Active; 'I' for Inactive)
ROOT
ATOM      1  N1  IND d   1      -3.728   2.324  -0.378  0.00  0.00    -0.196 N 
ATOM      2  C2  IND d   1      -4.539   1.521   0.374  0.00  0.00     0.054 A 
ATOM      3  C3  IND d   1      -3.798   0.656   1.103  0.00  0.00    -0.031 A 
ATOM      4  C4  IND d   1      -1.239   0.450   1.292  0.00  0.00     0.051 A 
ATOM      5  C5  IND d   1      -0.077   0.942   0.768  0.00  0.00    -0.031 A 
ATOM      6  C6  IND d   1      -0.073   1.943  -0.183  0.00  0.00     0.015 A 
ATOM      7  C7  IND d   1      -1.235   2.498  -0.638  0.00  0.00    -0.016 A 
ATOM      8  C8  IND d   1      -2.417   1.996  -0.113  0.00  0.00    -0.047 A 
ATOM      9  C9  IND d   1      -2.429   0.951   0.821  0.00  0.00    -0.096 A 
ATOM     10  HN1 IND d   1      -3.993   2.932  -0.926  0.00  0.00     0.298 HD
ENDROOT
TORSDOF 0
ENDMDL
