MODEL 1
REMARK minimizedAffinity -2.17833304
REMARK minimizedRMSD -1
REMARK  0 active torsions:
REMARK  status: ('A' for Active; 'I' for Inactive)
ROOT
ATOM      1  N1  IND d   1      -3.030   2.346   0.123  0.00  0.00    -0.196 N 
ATOM      2  C2  IND d   1      -3.999   1.439   0.448  0.00  0.00     0.054 A 
ATOM      3  C3  IND d   1      -3.440   0.284   0.873  0.00  0.00    -0.031 A 
ATOM      4  C4  IND d   1      -0.956  -0.302   1.210  0.00  0.00     0.051 A 
ATOM      5  C5  IND d   1       0.304   0.191   1.014  0.00  0.00    -0.031 A 
ATOM      6  C6  IND d   1       0.521   1.454   0.504  0.00  0.00     0.015 A 
ATOM      7  C7  IND d   1      -0.518   2.280   0.179  0.00  0.00    -0.016 A 
ATOM      8  C8  IND d   1      -1.799   1.779   0.370  0.00  0.00    -0.047 A 
ATOM      9  C9  IND d   1      -2.025   0.482   0.848  0.00  0.00    -0.096 A 
ATOM     10  HN1 IND d   1      -3.166   3.138  -0.184  0.00  0.00     0.298 HD
ENDROOT
TORSDOF 0
ENDMDL
