MODEL 1
REMARK minimizedAffinity 2.36855102
REMARK minimizedRMSD -1
REMARK  0 active torsions:
REMARK  status: ('A' for Active; 'I' for Inactive)
ROOT
ATOM      1  N1  IND d   1      -3.496   1.473   0.083  0.00  0.00    -0.196 N 
ATOM      2  C2  IND d   1      -3.569   0.331   0.831  0.00  0.00     0.054 A 
ATOM      3  C3  IND d   1      -2.370  -0.293   0.856  0.00  0.00    -0.031 A 
ATOM      4  C4  IND d   1      -0.126   0.434  -0.176  0.00  0.00     0.051 A 
ATOM      5  C5  IND d   1       0.430   1.388  -0.982  0.00  0.00    -0.031 A 
ATOM      6  C6  IND d   1      -0.308   2.442  -1.481  0.00  0.00     0.015 A 
ATOM      7  C7  IND d   1      -1.633   2.588  -1.183  0.00  0.00    -0.016 A 
ATOM      8  C8  IND d   1      -2.203   1.617  -0.371  0.00  0.00    -0.047 A 
ATOM      9  C9  IND d   1      -1.470   0.523   0.104  0.00  0.00    -0.096 A 
ATOM     10  HN1 IND d   1      -4.147   2.011  -0.076  0.00  0.00     0.298 HD
ENDROOT
TORSDOF 0
ENDMDL
