MODEL 1
REMARK minimizedAffinity 4.01236105
REMARK minimizedRMSD -1
REMARK  0 active torsions:
REMARK  status: ('A' for Active; 'I' for Inactive)
ROOT
ATOM      1  N1  IND d   1      -2.297   2.906  -0.563  0.00  0.00    -0.196 N 
ATOM      2  C2  IND d   1      -3.477   2.220  -0.632  0.00  0.00     0.054 A 
ATOM      3  C3  IND d   1      -3.344   0.997  -0.071  0.00  0.00    -0.031 A 
ATOM      4  C4  IND d   1      -1.309  -0.047   1.110  0.00  0.00     0.051 A 
ATOM      5  C5  IND d   1       0.009   0.182   1.390  0.00  0.00    -0.031 A 
ATOM      6  C6  IND d   1       0.638   1.356   1.028  0.00  0.00     0.015 A 
ATOM      7  C7  IND d   1      -0.034   2.354   0.380  0.00  0.00    -0.016 A 
ATOM      8  C8  IND d   1      -1.371   2.121   0.088  0.00  0.00    -0.047 A 
ATOM      9  C9  IND d   1      -2.003   0.915   0.415  0.00  0.00    -0.096 A 
ATOM     10  HN1 IND d   1      -2.157   3.695  -0.875  0.00  0.00     0.298 HD
ENDROOT
TORSDOF 0
ENDMDL
