MODEL 1
REMARK minimizedAffinity 7.5967145
REMARK minimizedRMSD -1
REMARK  0 active torsions:
REMARK  status: ('A' for Active; 'I' for Inactive)
ROOT
ATOM      1  N1  IND d   1      -1.804   1.499  -1.084  0.00  0.00    -0.196 N 
ATOM      2  C2  IND d   1      -3.040   0.974  -0.828  0.00  0.00     0.054 A 
ATOM      3  C3  IND d   1      -3.061   0.396   0.394  0.00  0.00    -0.031 A 
ATOM      4  C4  IND d   1      -1.214   0.286   2.183  0.00  0.00     0.051 A 
ATOM      5  C5  IND d   1       0.101   0.594   2.395  0.00  0.00    -0.031 A 
ATOM      6  C6  IND d   1       0.862   1.234   1.439  0.00  0.00     0.015 A 
ATOM      7  C7  IND d   1       0.332   1.603   0.235  0.00  0.00    -0.016 A 
ATOM      8  C8  IND d   1      -1.001   1.286   0.014  0.00  0.00    -0.047 A 
ATOM      9  C9  IND d   1      -1.767   0.598   0.964  0.00  0.00    -0.096 A 
ATOM     10  HN1 IND d   1      -1.568   1.896  -1.810  0.00  0.00     0.298 HD
ENDROOT
TORSDOF 0
ENDMDL
