MODEL 1
REMARK minimizedAffinity 4.61607838
REMARK minimizedRMSD -1
REMARK  0 active torsions:
REMARK  status: ('A' for Active; 'I' for Inactive)
ROOT
ATOM      1  N1  IND d   1      -3.912   1.587  -0.172  0.00  0.00    -0.196 N 
ATOM      2  C2  IND d   1      -4.559   0.605   0.526  0.00  0.00     0.054 A 
ATOM      3  C3  IND d   1      -3.704  -0.012   1.372  0.00  0.00    -0.031 A 
ATOM      4  C4  IND d   1      -1.225   0.492   1.849  0.00  0.00     0.051 A 
ATOM      5  C5  IND d   1      -0.185   1.275   1.431  0.00  0.00    -0.031 A 
ATOM      6  C6  IND d   1      -0.338   2.222   0.439  0.00  0.00     0.015 A 
ATOM      7  C7  IND d   1      -1.545   2.431  -0.166  0.00  0.00    -0.016 A 
ATOM      8  C8  IND d   1      -2.602   1.634   0.251  0.00  0.00    -0.047 A 
ATOM      9  C9  IND d   1      -2.442   0.641   1.227  0.00  0.00    -0.096 A 
ATOM     10  HN1 IND d   1      -4.264   2.090  -0.773  0.00  0.00     0.298 HD
ENDROOT
TORSDOF 0
ENDMDL
