MODEL 1
REMARK minimizedAffinity 1.44880748
REMARK minimizedRMSD -1
REMARK  0 active torsions:
REMARK  status: ('A' for Active; 'I' for Inactive)
ROOT
ATOM      1  N1  IND d   1       0.380   0.017   1.238  0.00  0.00    -0.196 N 
ATOM      2  C2  IND d   1       1.204   0.932   0.644  0.00  0.00     0.054 A 
ATOM      3  C3  IND d   1       0.478   1.856  -0.024  0.00  0.00    -0.031 A 
ATOM      4  C4  IND d   1      -2.077   2.119  -0.191  0.00  0.00     0.051 A 
ATOM      5  C5  IND d   1      -3.248   1.505   0.154  0.00  0.00    -0.031 A 
ATOM      6  C6  IND d   1      -3.270   0.341   0.895  0.00  0.00     0.015 A 
ATOM      7  C7  IND d   1      -2.117  -0.248   1.331  0.00  0.00    -0.016 A 
ATOM      8  C8  IND d   1      -0.926   0.369   0.976  0.00  0.00    -0.047 A 
ATOM      9  C9  IND d   1      -0.896   1.527   0.188  0.00  0.00    -0.096 A 
ATOM     10  HN1 IND d   1       0.634  -0.664   1.698  0.00  0.00     0.298 HD
ENDROOT
TORSDOF 0
ENDMDL
