MODEL 1
REMARK minimizedAffinity 3.31255746
REMARK minimizedRMSD -1
REMARK  0 active torsions:
REMARK  status: ('A' for Active; 'I' for Inactive)
ROOT
ATOM      1  N1  IND d   1      -0.568   0.892   1.480  0.00  0.00    -0.196 N 
ATOM      2  C2  IND d   1       0.061   1.899   0.803  0.00  0.00     0.054 A 
ATOM      3  C3  IND d   1      -0.833   2.606   0.076  0.00  0.00    -0.031 A 
ATOM      4  C4  IND d   1      -3.390   2.349  -0.073  0.00  0.00     0.051 A 
ATOM      5  C5  IND d   1      -4.417   1.547   0.338  0.00  0.00    -0.031 A 
ATOM      6  C6  IND d   1      -4.210   0.465   1.170  0.00  0.00     0.015 A 
ATOM      7  C7  IND d   1      -2.964   0.151   1.632  0.00  0.00    -0.016 A 
ATOM      8  C8  IND d   1      -1.917   0.959   1.212  0.00  0.00    -0.047 A 
ATOM      9  C9  IND d   1      -2.115   2.032   0.334  0.00  0.00    -0.096 A 
ATOM     10  HN1 IND d   1      -0.185   0.313   1.988  0.00  0.00     0.298 HD
ENDROOT
TORSDOF 0
ENDMDL
