MODEL 1
REMARK minimizedAffinity 3.25862908
REMARK minimizedRMSD -1
REMARK  0 active torsions:
REMARK  status: ('A' for Active; 'I' for Inactive)
ROOT
ATOM      1  N1  IND d   1       0.604   0.068   1.696  0.00  0.00    -0.196 N 
ATOM      2  C2  IND d   1      -0.261  -0.519   2.577  0.00  0.00     0.054 A 
ATOM      3  C3  IND d   1      -1.534  -0.165   2.292  0.00  0.00    -0.031 A 
ATOM      4  C4  IND d   1      -2.437   1.286   0.367  0.00  0.00     0.051 A 
ATOM      5  C5  IND d   1      -2.027   2.072  -0.673  0.00  0.00    -0.031 A 
ATOM      6  C6  IND d   1      -0.692   2.231  -0.985  0.00  0.00     0.015 A 
ATOM      7  C7  IND d   1       0.286   1.598  -0.272  0.00  0.00    -0.016 A 
ATOM      8  C8  IND d   1      -0.126   0.805   0.790  0.00  0.00    -0.047 A 
ATOM      9  C9  IND d   1      -1.477   0.673   1.137  0.00  0.00    -0.096 A 
ATOM     10  HN1 IND d   1       1.460  -0.010   1.706  0.00  0.00     0.298 HD
ENDROOT
TORSDOF 0
ENDMDL
