MODEL 1
REMARK minimizedAffinity 3.28768921
REMARK minimizedRMSD -1
REMARK  0 active torsions:
REMARK  status: ('A' for Active; 'I' for Inactive)
ROOT
ATOM      1  N1  IND d   1       0.740   0.432   1.416  0.00  0.00    -0.196 N 
ATOM      2  C2  IND d   1       1.585   1.425   1.004  0.00  0.00     0.054 A 
ATOM      3  C3  IND d   1       0.892   2.406   0.384  0.00  0.00    -0.031 A 
ATOM      4  C4  IND d   1      -1.646   2.638   0.023  0.00  0.00     0.051 A 
ATOM      5  C5  IND d   1      -2.824   1.966   0.192  0.00  0.00    -0.031 A 
ATOM      6  C6  IND d   1      -2.876   0.725   0.792  0.00  0.00     0.015 A 
ATOM      7  C7  IND d   1      -1.747   0.111   1.258  0.00  0.00    -0.016 A 
ATOM      8  C8  IND d   1      -0.548   0.788   1.082  0.00  0.00    -0.047 A 
ATOM      9  C9  IND d   1      -0.485   2.029   0.435  0.00  0.00    -0.096 A 
ATOM     10  HN1 IND d   1       0.974  -0.292   1.816  0.00  0.00     0.298 HD
ENDROOT
TORSDOF 0
ENDMDL
