MODEL 1
REMARK minimizedAffinity 5.75226355
REMARK minimizedRMSD -1
REMARK  0 active torsions:
REMARK  status: ('A' for Active; 'I' for Inactive)
ROOT
ATOM      1  N1  IND d   1       2.798   1.174   0.707  0.00  0.00    -0.196 N 
ATOM      2  C2  IND d   1       3.394   1.929   1.679  0.00  0.00     0.054 A 
ATOM      3  C3  IND d   1       2.468   2.658   2.341  0.00  0.00    -0.031 A 
ATOM      4  C4  IND d   1      -0.092   2.691   2.065  0.00  0.00     0.051 A 
ATOM      5  C5  IND d   1      -1.097   2.198   1.282  0.00  0.00    -0.031 A 
ATOM      6  C6  IND d   1      -0.851   1.318   0.248  0.00  0.00     0.015 A 
ATOM      7  C7  IND d   1       0.415   0.888  -0.036  0.00  0.00    -0.016 A 
ATOM      8  C8  IND d   1       1.439   1.393   0.753  0.00  0.00    -0.047 A 
ATOM      9  C9  IND d   1       1.200   2.319   1.776  0.00  0.00    -0.096 A 
ATOM     10  HN1 IND d   1       3.205   0.651   0.158  0.00  0.00     0.298 HD
ENDROOT
TORSDOF 0
ENDMDL
