MODEL 1
REMARK minimizedAffinity 8.91220856
REMARK minimizedRMSD -1
REMARK  0 active torsions:
REMARK  status: ('A' for Active; 'I' for Inactive)
ROOT
ATOM      1  N1  IND d   1      -1.266   2.600   1.827  0.00  0.00    -0.196 N 
ATOM      2  C2  IND d   1      -1.027   3.350   2.945  0.00  0.00     0.054 A 
ATOM      3  C3  IND d   1       0.294   3.357   3.232  0.00  0.00    -0.031 A 
ATOM      4  C4  IND d   1       2.253   2.291   1.948  0.00  0.00     0.051 A 
ATOM      5  C5  IND d   1       2.529   1.476   0.886  0.00  0.00    -0.031 A 
ATOM      6  C6  IND d   1       1.533   0.987   0.065  0.00  0.00     0.015 A 
ATOM      7  C7  IND d   1       0.220   1.304   0.270  0.00  0.00    -0.016 A 
ATOM      8  C8  IND d   1      -0.064   2.126   1.352  0.00  0.00    -0.047 A 
ATOM      9  C9  IND d   1       0.938   2.591   2.213  0.00  0.00    -0.096 A 
ATOM     10  HN1 IND d   1      -2.038   2.449   1.480  0.00  0.00     0.298 HD
ENDROOT
TORSDOF 0
ENDMDL
