MODEL 1
REMARK minimizedAffinity -1.10344791
REMARK minimizedRMSD -1
REMARK  0 active torsions:
REMARK  status: ('A' for Active; 'I' for Inactive)
ROOT
ATOM      1  N1  IND d   1      -0.767   2.899   2.594  0.00  0.00    -0.196 N 
ATOM      2  C2  IND d   1       0.114   3.368   3.528  0.00  0.00     0.054 A 
ATOM      3  C3  IND d   1       1.360   2.911   3.270  0.00  0.00    -0.031 A 
ATOM      4  C4  IND d   1       2.200   1.464   1.314  0.00  0.00     0.051 A 
ATOM      5  C5  IND d   1       1.760   0.761   0.227  0.00  0.00    -0.031 A 
ATOM      6  C6  IND d   1       0.428   0.737  -0.134  0.00  0.00     0.015 A 
ATOM      7  C7  IND d   1      -0.515   1.426   0.573  0.00  0.00    -0.016 A 
ATOM      8  C8  IND d   1      -0.073   2.135   1.681  0.00  0.00    -0.047 A 
ATOM      9  C9  IND d   1       1.270   2.130   2.078  0.00  0.00    -0.096 A 
ATOM     10  HN1 IND d   1      -1.613   3.053   2.580  0.00  0.00     0.298 HD
ENDROOT
TORSDOF 0
ENDMDL
