MODEL 1
REMARK minimizedAffinity -2.68013215
REMARK minimizedRMSD -1
REMARK  0 active torsions:
REMARK  status: ('A' for Active; 'I' for Inactive)
ROOT
ATOM      1  C   UNL d   1      -0.243  -0.818   2.863  0.00  0.00     0.023 A 
ATOM      2  C1  UNL d   1      -0.956  -1.485   1.867  0.00  0.00     0.003 A 
ATOM      3  C2  UNL d   1      -0.788  -1.127   0.527  0.00  0.00     0.048 A 
ATOM      4  C3  UNL d   1       0.095  -0.102   0.191  0.00  0.00     0.023 A 
ATOM      5  C4  UNL d   1       0.812   0.568   1.185  0.00  0.00     0.048 A 
ATOM      6  C5  UNL d   1       0.640   0.207   2.523  0.00  0.00     0.003 A 
ATOM      7  I   UNL d   1       0.347   0.433  -1.801  0.00  0.00    -0.146 I 
ENDROOT
TORSDOF 0
ENDMDL
