MODEL 1
REMARK minimizedAffinity -2.54189968
REMARK minimizedRMSD -1
REMARK  0 active torsions:
REMARK  status: ('A' for Active; 'I' for Inactive)
ROOT
ATOM      1  C   UNL d   1      -1.716   0.037   0.266  0.00  0.00     0.023 A 
ATOM      2  C1  UNL d   1      -1.915   0.656  -0.969  0.00  0.00     0.003 A 
ATOM      3  C2  UNL d   1      -0.898   0.653  -1.925  0.00  0.00     0.048 A 
ATOM      4  C3  UNL d   1       0.316   0.029  -1.641  0.00  0.00     0.023 A 
ATOM      5  C4  UNL d   1       0.520  -0.592  -0.408  0.00  0.00     0.048 A 
ATOM      6  C5  UNL d   1      -0.499  -0.586   0.546  0.00  0.00     0.003 A 
ATOM      7  I   UNL d   1       1.832   0.023  -3.063  0.00  0.00    -0.146 I 
ENDROOT
TORSDOF 0
ENDMDL
