MODEL 1
REMARK minimizedAffinity -3.14867854
REMARK minimizedRMSD -1
REMARK  0 active torsions:
REMARK  status: ('A' for Active; 'I' for Inactive)
ROOT
ATOM      1  C   UNL d   1      -0.535  -0.248   3.147  0.00  0.00     0.023 A 
ATOM      2  C1  UNL d   1      -1.293  -0.921   2.189  0.00  0.00     0.003 A 
ATOM      3  C2  UNL d   1      -0.957  -0.824   0.837  0.00  0.00     0.048 A 
ATOM      4  C3  UNL d   1       0.139  -0.053   0.450  0.00  0.00     0.023 A 
ATOM      5  C4  UNL d   1       0.901   0.621   1.406  0.00  0.00     0.048 A 
ATOM      6  C5  UNL d   1       0.560   0.522   2.756  0.00  0.00     0.003 A 
ATOM      7  I   UNL d   1       0.641   0.092  -1.561  0.00  0.00    -0.146 I 
ENDROOT
TORSDOF 0
ENDMDL
