MODEL 1
REMARK minimizedAffinity -5.52441025
REMARK minimizedRMSD -1
REMARK  0 active torsions:
REMARK  status: ('A' for Active; 'I' for Inactive)
ROOT
ATOM      1  C   UNL d   1      -1.930   0.184   3.232  0.00  0.00     0.023 A 
ATOM      2  C1  UNL d   1      -0.549   0.003   3.156  0.00  0.00     0.003 A 
ATOM      3  C2  UNL d   1       0.086  -0.013   1.913  0.00  0.00     0.048 A 
ATOM      4  C3  UNL d   1      -0.665   0.154   0.750  0.00  0.00     0.023 A 
ATOM      5  C4  UNL d   1      -2.047   0.336   0.821  0.00  0.00     0.048 A 
ATOM      6  C5  UNL d   1      -2.678   0.350   2.067  0.00  0.00     0.003 A 
ATOM      7  I   UNL d   1       0.279   0.131  -1.102  0.00  0.00    -0.146 I 
ENDROOT
TORSDOF 0
ENDMDL
