MODEL 1
REMARK minimizedAffinity -3.56743813
REMARK minimizedRMSD -1
REMARK  0 active torsions:
REMARK  status: ('A' for Active; 'I' for Inactive)
ROOT
ATOM      1  C   UNL d   1      -1.361   0.162   2.836  0.00  0.00     0.023 A 
ATOM      2  C1  UNL d   1      -2.231   0.314   1.756  0.00  0.00     0.003 A 
ATOM      3  C2  UNL d   1      -1.753   0.189   0.450  0.00  0.00     0.048 A 
ATOM      4  C3  UNL d   1      -0.404  -0.089   0.231  0.00  0.00     0.023 A 
ATOM      5  C4  UNL d   1       0.470  -0.243   1.308  0.00  0.00     0.048 A 
ATOM      6  C5  UNL d   1      -0.012  -0.116   2.612  0.00  0.00     0.003 A 
ATOM      7  I   UNL d   1       0.309  -0.275  -1.713  0.00  0.00    -0.146 I 
ENDROOT
TORSDOF 0
ENDMDL
