MODEL 1
REMARK minimizedAffinity -4.17003012
REMARK minimizedRMSD -1
REMARK  0 active torsions:
REMARK  status: ('A' for Active; 'I' for Inactive)
ROOT
ATOM      1  C   UNL d   1      -0.270  -0.171   2.994  0.00  0.00     0.023 A 
ATOM      2  C1  UNL d   1      -1.157  -0.821   2.136  0.00  0.00     0.003 A 
ATOM      3  C2  UNL d   1      -1.013  -0.693   0.753  0.00  0.00     0.048 A 
ATOM      4  C3  UNL d   1       0.021   0.086   0.235  0.00  0.00     0.023 A 
ATOM      5  C4  UNL d   1       0.912   0.738   1.090  0.00  0.00     0.048 A 
ATOM      6  C5  UNL d   1       0.763   0.607   2.472  0.00  0.00     0.003 A 
ATOM      7  I   UNL d   1       0.238   0.278  -1.823  0.00  0.00    -0.146 I 
ENDROOT
TORSDOF 0
ENDMDL
