MODEL 1
REMARK minimizedAffinity -3.37790442
REMARK minimizedRMSD -1
REMARK  0 active torsions:
REMARK  status: ('A' for Active; 'I' for Inactive)
ROOT
ATOM      1  C   UNL d   1       0.018   0.358   2.931  0.00  0.00     0.023 A 
ATOM      2  C1  UNL d   1       0.922   1.098   2.168  0.00  0.00     0.003 A 
ATOM      3  C2  UNL d   1       1.001   0.897   0.789  0.00  0.00     0.048 A 
ATOM      4  C3  UNL d   1       0.172  -0.043   0.178  0.00  0.00     0.023 A 
ATOM      5  C4  UNL d   1      -0.735  -0.784   0.937  0.00  0.00     0.048 A 
ATOM      6  C5  UNL d   1      -0.810  -0.581   2.317  0.00  0.00     0.003 A 
ATOM      7  I   UNL d   1       0.287  -0.343  -1.875  0.00  0.00    -0.146 I 
ENDROOT
TORSDOF 0
ENDMDL
