MODEL 1
REMARK minimizedAffinity -3.59755111
REMARK minimizedRMSD -1
REMARK  0 active torsions:
REMARK  status: ('A' for Active; 'I' for Inactive)
ROOT
ATOM      1  C   UNL d   1      -0.455  -0.504   2.153  0.00  0.00     0.023 A 
ATOM      2  C1  UNL d   1      -1.333  -0.633   1.077  0.00  0.00     0.003 A 
ATOM      3  C2  UNL d   1      -0.850  -0.579  -0.231  0.00  0.00     0.048 A 
ATOM      4  C3  UNL d   1       0.514  -0.397  -0.458  0.00  0.00     0.023 A 
ATOM      5  C4  UNL d   1       1.397  -0.268   0.615  0.00  0.00     0.048 A 
ATOM      6  C5  UNL d   1       0.909  -0.321   1.922  0.00  0.00     0.003 A 
ATOM      7  I   UNL d   1       1.236  -0.316  -2.405  0.00  0.00    -0.146 I 
ENDROOT
TORSDOF 0
ENDMDL
