MODEL 1
REMARK minimizedAffinity -4.34230661
REMARK minimizedRMSD -1
REMARK  0 active torsions:
REMARK  status: ('A' for Active; 'I' for Inactive)
ROOT
ATOM      1  C   UNL d   1      -1.293  -0.408   3.009  0.00  0.00     0.023 A 
ATOM      2  C1  UNL d   1      -2.217  -0.583   1.978  0.00  0.00     0.003 A 
ATOM      3  C2  UNL d   1      -1.835  -0.368   0.653  0.00  0.00     0.048 A 
ATOM      4  C3  UNL d   1      -0.528   0.021   0.364  0.00  0.00     0.023 A 
ATOM      5  C4  UNL d   1       0.401   0.197   1.391  0.00  0.00     0.048 A 
ATOM      6  C5  UNL d   1       0.014  -0.018   2.716  0.00  0.00     0.003 A 
ATOM      7  I   UNL d   1       0.043   0.342  -1.609  0.00  0.00    -0.146 I 
ENDROOT
TORSDOF 0
ENDMDL
