MODEL 1
REMARK minimizedAffinity -3.2735455
REMARK minimizedRMSD -1
REMARK  0 active torsions:
REMARK  status: ('A' for Active; 'I' for Inactive)
ROOT
ATOM      1  C   UNL d   1       0.757  -1.125  -3.803  0.00  0.00     0.023 A 
ATOM      2  C1  UNL d   1      -0.335  -1.646  -3.109  0.00  0.00     0.003 A 
ATOM      3  C2  UNL d   1      -0.537  -1.312  -1.769  0.00  0.00     0.048 A 
ATOM      4  C3  UNL d   1       0.357  -0.455  -1.128  0.00  0.00     0.023 A 
ATOM      5  C4  UNL d   1       1.450   0.070  -1.818  0.00  0.00     0.048 A 
ATOM      6  C5  UNL d   1       1.648  -0.267  -3.158  0.00  0.00     0.003 A 
ATOM      7  I   UNL d   1       0.059   0.044   0.868  0.00  0.00    -0.146 I 
ENDROOT
TORSDOF 0
ENDMDL
