MODEL 1
REMARK minimizedAffinity -3.35746336
REMARK minimizedRMSD -1
REMARK  0 active torsions:
REMARK  status: ('A' for Active; 'I' for Inactive)
ROOT
ATOM      1  C   UNL d   1       1.378  -1.108  -4.184  0.00  0.00     0.023 A 
ATOM      2  C1  UNL d   1       0.071  -0.689  -3.935  0.00  0.00     0.003 A 
ATOM      3  C2  UNL d   1      -0.332  -0.391  -2.631  0.00  0.00     0.048 A 
ATOM      4  C3  UNL d   1       0.577  -0.515  -1.581  0.00  0.00     0.023 A 
ATOM      5  C4  UNL d   1       1.886  -0.934  -1.826  0.00  0.00     0.048 A 
ATOM      6  C5  UNL d   1       2.284  -1.231  -3.131  0.00  0.00     0.003 A 
ATOM      7  I   UNL d   1      -0.020  -0.073   0.360  0.00  0.00    -0.146 I 
ENDROOT
TORSDOF 0
ENDMDL
