MODEL 1
REMARK minimizedAffinity -3.21717095
REMARK minimizedRMSD -1
REMARK  0 active torsions:
REMARK  status: ('A' for Active; 'I' for Inactive)
ROOT
ATOM      1  C   UNL d   1      -1.304  -0.626   2.490  0.00  0.00     0.023 A 
ATOM      2  C1  UNL d   1      -2.151  -0.429   1.399  0.00  0.00     0.003 A 
ATOM      3  C2  UNL d   1      -1.615  -0.220   0.127  0.00  0.00     0.048 A 
ATOM      4  C3  UNL d   1      -0.232  -0.209  -0.048  0.00  0.00     0.023 A 
ATOM      5  C4  UNL d   1       0.619  -0.406   1.040  0.00  0.00     0.048 A 
ATOM      6  C5  UNL d   1       0.080  -0.614   2.311  0.00  0.00     0.003 A 
ATOM      7  I   UNL d   1       0.567   0.103  -1.941  0.00  0.00    -0.146 I 
ENDROOT
TORSDOF 0
ENDMDL
