MODEL 1
REMARK minimizedAffinity -4.57032967
REMARK minimizedRMSD -1
REMARK  0 active torsions:
REMARK  status: ('A' for Active; 'I' for Inactive)
ROOT
ATOM      1  C   UNL d   1      -0.947  -0.412   2.986  0.00  0.00     0.023 A 
ATOM      2  C1  UNL d   1      -1.908  -0.522   1.981  0.00  0.00     0.003 A 
ATOM      3  C2  UNL d   1      -1.566  -0.254   0.654  0.00  0.00     0.048 A 
ATOM      4  C3  UNL d   1      -0.261   0.122   0.339  0.00  0.00     0.023 A 
ATOM      5  C4  UNL d   1       0.704   0.232   1.341  0.00  0.00     0.048 A 
ATOM      6  C5  UNL d   1       0.358  -0.036   2.666  0.00  0.00     0.003 A 
ATOM      7  I   UNL d   1       0.251   0.521  -1.636  0.00  0.00    -0.146 I 
ENDROOT
TORSDOF 0
ENDMDL
