MODEL 1
REMARK minimizedAffinity -1.88455379
REMARK minimizedRMSD -1
REMARK  0 active torsions:
REMARK  status: ('A' for Active; 'I' for Inactive)
ROOT
ATOM      1  C   UNL d   1       1.094   0.451   2.370  0.00  0.00     0.023 A 
ATOM      2  C1  UNL d   1       1.106   1.001   1.089  0.00  0.00     0.003 A 
ATOM      3  C2  UNL d   1       0.016   0.813   0.236  0.00  0.00     0.048 A 
ATOM      4  C3  UNL d   1      -1.084   0.075   0.673  0.00  0.00     0.023 A 
ATOM      5  C4  UNL d   1      -1.101  -0.477   1.955  0.00  0.00     0.048 A 
ATOM      6  C5  UNL d   1      -0.008  -0.287   2.803  0.00  0.00     0.003 A 
ATOM      7  I   UNL d   1      -2.708  -0.206  -0.594  0.00  0.00    -0.146 I 
ENDROOT
TORSDOF 0
ENDMDL
