MODEL 1
REMARK minimizedAffinity 10.3897161
REMARK minimizedRMSD -1
REMARK  0 active torsions:
REMARK  status: ('A' for Active; 'I' for Inactive)
ROOT
ATOM      1  C   UNL d   1      -5.852  -5.981  -4.470  0.00  0.00     0.020 A 
ATOM      2  C1  UNL d   1      -5.642  -5.510  -5.765  0.00  0.00     0.020 A 
ATOM      3  C2  UNL d   1      -5.524  -4.139  -5.999  0.00  0.00     0.034 A 
ATOM      4  C3  UNL d   1      -5.616  -3.233  -4.936  0.00  0.00     0.017 A 
ATOM      5  C4  UNL d   1      -5.828  -3.706  -3.636  0.00  0.00     0.017 A 
ATOM      6  C5  UNL d   1      -5.945  -5.080  -3.408  0.00  0.00     0.034 A 
ATOM      7 Cl   UNL d   1      -5.952  -2.649  -2.274  0.00  0.00    -0.070 Cl
ATOM      8 Cl1  UNL d   1      -5.461  -1.550  -5.299  0.00  0.00    -0.070 Cl
ENDROOT
TORSDOF 0
ENDMDL
