MODEL 1
REMARK minimizedAffinity 4.94397783
REMARK minimizedRMSD -1
REMARK  0 active torsions:
REMARK  status: ('A' for Active; 'I' for Inactive)
ROOT
ATOM      1  C   UNL d   1       0.803  -1.865   5.263  0.00  0.00     0.020 A 
ATOM      2  C1  UNL d   1       1.449  -2.857   5.999  0.00  0.00     0.020 A 
ATOM      3  C2  UNL d   1       2.402  -3.673   5.386  0.00  0.00     0.034 A 
ATOM      4  C3  UNL d   1       2.712  -3.498   4.032  0.00  0.00     0.017 A 
ATOM      5  C4  UNL d   1       2.063  -2.501   3.294  0.00  0.00     0.017 A 
ATOM      6  C5  UNL d   1       1.110  -1.687   3.913  0.00  0.00     0.034 A 
ATOM      7 Cl   UNL d   1       2.392  -2.225   1.620  0.00  0.00    -0.070 Cl
ATOM      8 Cl1  UNL d   1       3.901  -4.542   3.338  0.00  0.00    -0.070 Cl
ENDROOT
TORSDOF 0
ENDMDL
