MODEL 1
REMARK minimizedAffinity 10.465476
REMARK minimizedRMSD -1
REMARK  0 active torsions:
REMARK  status: ('A' for Active; 'I' for Inactive)
ROOT
ATOM      1  C   UNL d   1       5.506  -2.772   0.514  0.00  0.00     0.020 A 
ATOM      2  C1  UNL d   1       4.147  -2.463   0.512  0.00  0.00     0.020 A 
ATOM      3  C2  UNL d   1       3.280  -3.133  -0.354  0.00  0.00     0.034 A 
ATOM      4  C3  UNL d   1       3.771  -4.115  -1.222  0.00  0.00     0.017 A 
ATOM      5  C4  UNL d   1       5.136  -4.425  -1.219  0.00  0.00     0.017 A 
ATOM      6  C5  UNL d   1       6.000  -3.751  -0.350  0.00  0.00     0.034 A 
ATOM      7 Cl   UNL d   1       5.817  -5.624  -2.261  0.00  0.00    -0.070 Cl
ATOM      8 Cl1  UNL d   1       2.642  -4.903  -2.266  0.00  0.00    -0.070 Cl
ENDROOT
TORSDOF 0
ENDMDL
