MODEL 1
REMARK minimizedAffinity 12.6201143
REMARK minimizedRMSD -1
REMARK  0 active torsions:
REMARK  status: ('A' for Active; 'I' for Inactive)
ROOT
ATOM      1  C   UNL d   1      -3.726   4.750  -2.200  0.00  0.00     0.020 A 
ATOM      2  C1  UNL d   1      -3.719   5.367  -3.450  0.00  0.00     0.020 A 
ATOM      3  C2  UNL d   1      -3.770   4.592  -4.611  0.00  0.00     0.034 A 
ATOM      4  C3  UNL d   1      -3.828   3.196  -4.523  0.00  0.00     0.017 A 
ATOM      5  C4  UNL d   1      -3.834   2.578  -3.267  0.00  0.00     0.017 A 
ATOM      6  C5  UNL d   1      -3.783   3.359  -2.109  0.00  0.00     0.034 A 
ATOM      7 Cl   UNL d   1      -3.904   0.861  -3.079  0.00  0.00    -0.070 Cl
ATOM      8 Cl1  UNL d   1      -3.889   2.300  -5.999  0.00  0.00    -0.070 Cl
ENDROOT
TORSDOF 0
ENDMDL
