MODEL 1
REMARK minimizedAffinity 8.72520542
REMARK minimizedRMSD -1
REMARK  0 active torsions:
REMARK  status: ('A' for Active; 'I' for Inactive)
ROOT
ATOM      1  C   UNL d   1      -4.030   4.706  -4.273  0.00  0.00     0.020 A 
ATOM      2  C1  UNL d   1      -3.428   3.644  -4.946  0.00  0.00     0.020 A 
ATOM      3  C2  UNL d   1      -3.115   2.469  -4.260  0.00  0.00     0.034 A 
ATOM      4  C3  UNL d   1      -3.404   2.353  -2.895  0.00  0.00     0.017 A 
ATOM      5  C4  UNL d   1      -4.009   3.420  -2.220  0.00  0.00     0.017 A 
ATOM      6  C5  UNL d   1      -4.320   4.594  -2.912  0.00  0.00     0.034 A 
ATOM      7 Cl   UNL d   1      -4.396   3.351  -0.537  0.00  0.00    -0.070 Cl
ATOM      8 Cl1  UNL d   1      -2.990   0.871  -2.109  0.00  0.00    -0.070 Cl
ENDROOT
TORSDOF 0
ENDMDL
