MODEL 1
REMARK minimizedAffinity 10.6310177
REMARK minimizedRMSD -1
REMARK  0 active torsions:
REMARK  status: ('A' for Active; 'I' for Inactive)
ROOT
ATOM      1  C   UNL d   1      -2.060  -4.578   0.158  0.00  0.00     0.020 A 
ATOM      2  C1  UNL d   1      -2.401  -3.287   0.560  0.00  0.00     0.020 A 
ATOM      3  C2  UNL d   1      -1.498  -2.527   1.307  0.00  0.00     0.034 A 
ATOM      4  C3  UNL d   1      -0.251  -3.057   1.654  0.00  0.00     0.017 A 
ATOM      5  C4  UNL d   1       0.091  -4.353   1.251  0.00  0.00     0.017 A 
ATOM      6  C5  UNL d   1      -0.817  -5.110   0.503  0.00  0.00     0.034 A 
ATOM      7 Cl   UNL d   1       1.612  -5.075   1.642  0.00  0.00    -0.070 Cl
ATOM      8 Cl1  UNL d   1       0.816  -2.061   2.579  0.00  0.00    -0.070 Cl
ENDROOT
TORSDOF 0
ENDMDL
