MODEL 1
REMARK minimizedAffinity 9.9080019
REMARK minimizedRMSD -1
REMARK  0 active torsions:
REMARK  status: ('A' for Active; 'I' for Inactive)
ROOT
ATOM      1  C   UNL d   1       1.783  -1.690   1.152  0.00  0.00     0.020 A 
ATOM      2  C1  UNL d   1       1.471  -0.749   2.132  0.00  0.00     0.020 A 
ATOM      3  C2  UNL d   1       1.301  -1.152   3.459  0.00  0.00     0.034 A 
ATOM      4  C3  UNL d   1       1.443  -2.500   3.808  0.00  0.00     0.017 A 
ATOM      5  C4  UNL d   1       1.755  -3.444   2.824  0.00  0.00     0.017 A 
ATOM      6  C5  UNL d   1       1.924  -3.035   1.497  0.00  0.00     0.034 A 
ATOM      7 Cl   UNL d   1       1.946  -5.125   3.179  0.00  0.00    -0.070 Cl
ATOM      8 Cl1  UNL d   1       1.219  -2.927   5.467  0.00  0.00    -0.070 Cl
ENDROOT
TORSDOF 0
ENDMDL
