MODEL 1
REMARK minimizedAffinity 11.178463
REMARK minimizedRMSD -1
REMARK  0 active torsions:
REMARK  status: ('A' for Active; 'I' for Inactive)
ROOT
ATOM      1  C   UNL d   1      -1.623  -4.802   0.047  0.00  0.00     0.020 A 
ATOM      2  C1  UNL d   1      -1.456  -4.577  -1.318  0.00  0.00     0.020 A 
ATOM      3  C2  UNL d   1      -0.203  -4.758  -1.907  0.00  0.00     0.034 A 
ATOM      4  C3  UNL d   1       0.888  -5.166  -1.130  0.00  0.00     0.017 A 
ATOM      5  C4  UNL d   1       0.719  -5.392   0.241  0.00  0.00     0.017 A 
ATOM      6  C5  UNL d   1      -0.538  -5.209   0.825  0.00  0.00     0.034 A 
ATOM      7 Cl   UNL d   1       2.017  -5.896   1.264  0.00  0.00    -0.070 Cl
ATOM      8 Cl1  UNL d   1       2.409  -5.370  -1.925  0.00  0.00    -0.070 Cl
ENDROOT
TORSDOF 0
ENDMDL
