MODEL 1
REMARK minimizedAffinity -3.13643074
REMARK minimizedRMSD -1
REMARK  1 active torsions:
REMARK  status: ('A' for Active; 'I' for Inactive)
REMARK    1  A    between atoms: C3_4  and  O_7 
ROOT
ATOM      1  C   UNL d   1       0.558  -1.693  -2.987  0.00  0.00    -0.033 A 
ATOM      2  C1  UNL d   1       0.306  -0.428  -2.452  0.00  0.00     0.039 A 
ATOM      3  C2  UNL d   1       1.214   0.613  -2.659  0.00  0.00    -0.080 A 
ATOM      4  C3  UNL d   1       2.367   0.377  -3.403  0.00  0.00     0.150 A 
ATOM      5  C4  UNL d   1       2.622  -0.880  -3.942  0.00  0.00    -0.007 A 
ATOM      6  C5  UNL d   1       1.715  -1.918  -3.734  0.00  0.00     0.039 A 
ENDROOT
BRANCH   4   7
ATOM      7  O   UNL d   1       3.284   1.360  -3.628  0.00  0.00    -0.526 OA
ATOM      8  H5  UNL d   1       2.989   2.166  -3.171  0.00  0.00     0.418 HD
ENDBRANCH   4   7
TORSDOF 1
ENDMDL
