MODEL 1
REMARK minimizedAffinity -2.05664611
REMARK minimizedRMSD -1
REMARK  1 active torsions:
REMARK  status: ('A' for Active; 'I' for Inactive)
REMARK    1  A    between atoms: C3_4  and  O_7 
ROOT
ATOM      1  C   UNL d   1       1.785  -0.261   1.433  0.00  0.00    -0.033 A 
ATOM      2  C1  UNL d   1       0.473  -0.713   1.281  0.00  0.00     0.039 A 
ATOM      3  C2  UNL d   1      -0.313  -0.238   0.229  0.00  0.00    -0.080 A 
ATOM      4  C3  UNL d   1       0.225   0.686  -0.662  0.00  0.00     0.150 A 
ATOM      5  C4  UNL d   1       1.533   1.138  -0.519  0.00  0.00    -0.007 A 
ATOM      6  C5  UNL d   1       2.316   0.663   0.533  0.00  0.00     0.039 A 
ENDROOT
BRANCH   4   7
ATOM      7  O   UNL d   1      -0.505   1.182  -1.701  0.00  0.00    -0.526 OA
ATOM      8  H5  UNL d   1      -1.399   0.803  -1.658  0.00  0.00     0.418 HD
ENDBRANCH   4   7
TORSDOF 1
ENDMDL
