MODEL 1
REMARK minimizedAffinity -5.51661873
REMARK minimizedRMSD -1
REMARK  1 active torsions:
REMARK  status: ('A' for Active; 'I' for Inactive)
REMARK    1  A    between atoms: C3_4  and  O_7 
ROOT
ATOM      1  C   UNL d   1      -1.775  -0.168   3.272  0.00  0.00    -0.033 A 
ATOM      2  C1  UNL d   1      -2.679  -0.086   2.211  0.00  0.00     0.039 A 
ATOM      3  C2  UNL d   1      -2.211   0.023   0.900  0.00  0.00    -0.080 A 
ATOM      4  C3  UNL d   1      -0.839   0.047   0.664  0.00  0.00     0.150 A 
ATOM      5  C4  UNL d   1       0.067  -0.038   1.716  0.00  0.00    -0.007 A 
ATOM      6  C5  UNL d   1      -0.402  -0.146   3.025  0.00  0.00     0.039 A 
ENDROOT
BRANCH   4   7
ATOM      7  O   UNL d   1      -0.335   0.157  -0.598  0.00  0.00    -0.526 OA
ATOM      8  H5  UNL d   1      -1.077   0.236  -1.220  0.00  0.00     0.418 HD
ENDBRANCH   4   7
TORSDOF 1
ENDMDL
