MODEL 1
REMARK minimizedAffinity -3.93603158
REMARK minimizedRMSD -1
REMARK  1 active torsions:
REMARK  status: ('A' for Active; 'I' for Inactive)
REMARK    1  A    between atoms: C3_4  and  O_7 
ROOT
ATOM      1  C   UNL d   1       0.304   0.484  -0.378  0.00  0.00    -0.033 A 
ATOM      2  C1  UNL d   1      -0.871  -0.260  -0.251  0.00  0.00     0.039 A 
ATOM      3  C2  UNL d   1      -1.322  -0.645   1.013  0.00  0.00    -0.080 A 
ATOM      4  C3  UNL d   1      -0.592  -0.278   2.140  0.00  0.00     0.150 A 
ATOM      5  C4  UNL d   1       0.577   0.466   2.022  0.00  0.00    -0.007 A 
ATOM      6  C5  UNL d   1       1.027   0.849   0.759  0.00  0.00     0.039 A 
ENDROOT
BRANCH   4   7
ATOM      7  O   UNL d   1      -0.991  -0.635   3.394  0.00  0.00    -0.526 OA
ATOM      8  H5  UNL d   1      -1.798  -1.171   3.320  0.00  0.00     0.418 HD
ENDBRANCH   4   7
TORSDOF 1
ENDMDL
