MODEL 1
REMARK minimizedAffinity -3.94908047
REMARK minimizedRMSD -1
REMARK  1 active torsions:
REMARK  status: ('A' for Active; 'I' for Inactive)
REMARK    1  A    between atoms: C3_4  and  O_7 
ROOT
ATOM      1  C   UNL d   1       5.253   2.260  -4.821  0.00  0.00    -0.033 A 
ATOM      2  C1  UNL d   1       3.991   1.886  -4.355  0.00  0.00     0.039 A 
ATOM      3  C2  UNL d   1       2.865   2.634  -4.706  0.00  0.00    -0.080 A 
ATOM      4  C3  UNL d   1       3.015   3.751  -5.524  0.00  0.00     0.150 A 
ATOM      5  C4  UNL d   1       4.268   4.126  -5.995  0.00  0.00    -0.007 A 
ATOM      6  C5  UNL d   1       5.391   3.379  -5.643  0.00  0.00     0.039 A 
ENDROOT
BRANCH   4   7
ATOM      7  O   UNL d   1       1.946   4.515  -5.889  0.00  0.00    -0.526 OA
ATOM      8  H5  UNL d   1       1.150   4.153  -5.466  0.00  0.00     0.418 HD
ENDBRANCH   4   7
TORSDOF 1
ENDMDL
