MODEL 1
REMARK minimizedAffinity -2.96087098
REMARK minimizedRMSD -1
REMARK  1 active torsions:
REMARK  status: ('A' for Active; 'I' for Inactive)
REMARK    1  A    between atoms: C3_4  and  O_7 
ROOT
ATOM      1  C   UNL d   1       0.093   0.512  -0.953  0.00  0.00    -0.033 A 
ATOM      2  C1  UNL d   1      -1.171   0.034  -0.601  0.00  0.00     0.039 A 
ATOM      3  C2  UNL d   1      -1.445  -0.309   0.725  0.00  0.00    -0.080 A 
ATOM      4  C3  UNL d   1      -0.448  -0.169   1.687  0.00  0.00     0.150 A 
ATOM      5  C4  UNL d   1       0.812   0.311   1.343  0.00  0.00    -0.007 A 
ATOM      6  C5  UNL d   1       1.083   0.652   0.019  0.00  0.00     0.039 A 
ENDROOT
BRANCH   4   7
ATOM      7  O   UNL d   1      -0.667  -0.495   2.992  0.00  0.00    -0.526 OA
ATOM      8  H5  UNL d   1      -1.572  -0.839   3.076  0.00  0.00     0.418 HD
ENDBRANCH   4   7
TORSDOF 1
ENDMDL
