MODEL 1
REMARK minimizedAffinity -3.69331217
REMARK minimizedRMSD -1
REMARK  1 active torsions:
REMARK  status: ('A' for Active; 'I' for Inactive)
REMARK    1  A    between atoms: C3_4  and  O_7 
ROOT
ATOM      1  C   UNL d   1      -0.684   0.117   2.667  0.00  0.00    -0.033 A 
ATOM      2  C1  UNL d   1       0.663   0.304   2.350  0.00  0.00     0.039 A 
ATOM      3  C2  UNL d   1       1.073   0.317   1.015  0.00  0.00    -0.080 A 
ATOM      4  C3  UNL d   1       0.127   0.144   0.008  0.00  0.00     0.150 A 
ATOM      5  C4  UNL d   1      -1.217  -0.038   0.316  0.00  0.00    -0.007 A 
ATOM      6  C5  UNL d   1      -1.624  -0.053   1.650  0.00  0.00     0.039 A 
ENDROOT
BRANCH   4   7
ATOM      7  O   UNL d   1       0.480   0.145  -1.308  0.00  0.00    -0.526 OA
ATOM      8  H5  UNL d   1       1.444   0.253  -1.368  0.00  0.00     0.418 HD
ENDBRANCH   4   7
TORSDOF 1
ENDMDL
