MODEL 1
REMARK minimizedAffinity -1.76097167
REMARK minimizedRMSD -1
REMARK  1 active torsions:
REMARK  status: ('A' for Active; 'I' for Inactive)
REMARK    1  A    between atoms: C3_4  and  O_7 
ROOT
ATOM      1  C   UNL d   1       0.171  -0.115   2.064  0.00  0.00    -0.033 A 
ATOM      2  C1  UNL d   1       1.313   0.425   1.468  0.00  0.00     0.039 A 
ATOM      3  C2  UNL d   1       1.319   0.715   0.102  0.00  0.00    -0.080 A 
ATOM      4  C3  UNL d   1       0.178   0.463  -0.655  0.00  0.00     0.150 A 
ATOM      5  C4  UNL d   1      -0.964  -0.071  -0.067  0.00  0.00    -0.007 A 
ATOM      6  C5  UNL d   1      -0.968  -0.361   1.296  0.00  0.00     0.039 A 
ENDROOT
BRANCH   4   7
ATOM      7  O   UNL d   1       0.138   0.725  -1.992  0.00  0.00    -0.526 OA
ATOM      8  H5  UNL d   1       1.007   1.063  -2.266  0.00  0.00     0.418 HD
ENDBRANCH   4   7
TORSDOF 1
ENDMDL
