MODEL 1
REMARK minimizedAffinity -4.99373484
REMARK minimizedRMSD -1
REMARK  1 active torsions:
REMARK  status: ('A' for Active; 'I' for Inactive)
REMARK    1  A    between atoms: C3_4  and  O_7 
ROOT
ATOM      1  C   UNL d   1      -1.345   0.362   2.104  0.00  0.00    -0.033 A 
ATOM      2  C1  UNL d   1      -2.062   0.451   0.909  0.00  0.00     0.039 A 
ATOM      3  C2  UNL d   1      -1.384   0.560  -0.306  0.00  0.00    -0.080 A 
ATOM      4  C3  UNL d   1       0.008   0.576  -0.314  0.00  0.00     0.150 A 
ATOM      5  C4  UNL d   1       0.728   0.484   0.873  0.00  0.00    -0.007 A 
ATOM      6  C5  UNL d   1       0.050   0.377   2.086  0.00  0.00     0.039 A 
ENDROOT
BRANCH   4   7
ATOM      7  O   UNL d   1       0.714   0.686  -1.475  0.00  0.00    -0.526 OA
ATOM      8  H5  UNL d   1       0.084   0.770  -2.211  0.00  0.00     0.418 HD
ENDBRANCH   4   7
TORSDOF 1
ENDMDL
