MODEL 1
REMARK minimizedAffinity -3.04152298
REMARK minimizedRMSD -1
REMARK  1 active torsions:
REMARK  status: ('A' for Active; 'I' for Inactive)
REMARK    1  A    between atoms: C3_4  and  O_7 
ROOT
ATOM      1  C   UNL d   1      -0.031   0.793  -2.087  0.00  0.00    -0.033 A 
ATOM      2  C1  UNL d   1      -0.127   0.265  -3.376  0.00  0.00     0.039 A 
ATOM      3  C2  UNL d   1       0.601  -0.875  -3.721  0.00  0.00    -0.080 A 
ATOM      4  C3  UNL d   1       1.418  -1.479  -2.769  0.00  0.00     0.150 A 
ATOM      5  C4  UNL d   1       1.515  -0.960  -1.482  0.00  0.00    -0.007 A 
ATOM      6  C5  UNL d   1       0.789   0.179  -1.139  0.00  0.00     0.039 A 
ENDROOT
BRANCH   4   7
ATOM      7  O   UNL d   1       2.151  -2.591  -3.061  0.00  0.00    -0.526 OA
ATOM      8  H5  UNL d   1       2.007  -2.818  -3.994  0.00  0.00     0.418 HD
ENDBRANCH   4   7
TORSDOF 1
ENDMDL
