MODEL 1
REMARK minimizedAffinity -5.33981037
REMARK minimizedRMSD -1
REMARK  1 active torsions:
REMARK  status: ('A' for Active; 'I' for Inactive)
REMARK    1  A    between atoms: C3_4  and  O_7 
ROOT
ATOM      1  C   UNL d   1      -0.898  -0.209   3.080  0.00  0.00    -0.033 A 
ATOM      2  C1  UNL d   1       0.452   0.090   2.888  0.00  0.00     0.039 A 
ATOM      3  C2  UNL d   1       0.966   0.209   1.596  0.00  0.00    -0.080 A 
ATOM      4  C3  UNL d   1       0.120   0.027   0.505  0.00  0.00     0.150 A 
ATOM      5  C4  UNL d   1      -1.227  -0.268   0.689  0.00  0.00    -0.007 A 
ATOM      6  C5  UNL d   1      -1.738  -0.387   1.980  0.00  0.00     0.039 A 
ENDROOT
BRANCH   4   7
ATOM      7  O   UNL d   1       0.577   0.127  -0.776  0.00  0.00    -0.526 OA
ATOM      8  H5  UNL d   1       1.532   0.306  -0.749  0.00  0.00     0.418 HD
ENDBRANCH   4   7
TORSDOF 1
ENDMDL
