MODEL 1
REMARK minimizedAffinity -3.11982751
REMARK minimizedRMSD -1
REMARK  1 active torsions:
REMARK  status: ('A' for Active; 'I' for Inactive)
REMARK    1  A    between atoms: C3_4  and  O_7 
ROOT
ATOM      1  C   UNL d   1      -0.225   0.345  -0.785  0.00  0.00    -0.033 A 
ATOM      2  C1  UNL d   1       0.949   0.323  -0.030  0.00  0.00     0.039 A 
ATOM      3  C2  UNL d   1       0.895   0.060   1.340  0.00  0.00    -0.080 A 
ATOM      4  C3  UNL d   1      -0.337  -0.180   1.942  0.00  0.00     0.150 A 
ATOM      5  C4  UNL d   1      -1.510  -0.164   1.196  0.00  0.00    -0.007 A 
ATOM      6  C5  UNL d   1      -1.455   0.100  -0.172  0.00  0.00     0.039 A 
ENDROOT
BRANCH   4   7
ATOM      7  O   UNL d   1      -0.440  -0.437   3.277  0.00  0.00    -0.526 OA
ATOM      8  H5  UNL d   1       0.448  -0.387   3.670  0.00  0.00     0.418 HD
ENDBRANCH   4   7
TORSDOF 1
ENDMDL
