MODEL 1
REMARK minimizedAffinity -4.75390291
REMARK minimizedRMSD -1
REMARK  1 active torsions:
REMARK  status: ('A' for Active; 'I' for Inactive)
REMARK    1  A    between atoms: C3_4  and  O_7 
ROOT
ATOM      1  C   UNL d   1      -2.002   0.530  -0.308  0.00  0.00    -0.033 A 
ATOM      2  C1  UNL d   1      -0.698   0.089  -0.074  0.00  0.00     0.039 A 
ATOM      3  C2  UNL d   1      -0.364  -0.486   1.154  0.00  0.00    -0.080 A 
ATOM      4  C3  UNL d   1      -1.342  -0.615   2.136  0.00  0.00     0.150 A 
ATOM      5  C4  UNL d   1      -2.644  -0.182   1.908  0.00  0.00    -0.007 A 
ATOM      6  C5  UNL d   1      -2.975   0.393   0.682  0.00  0.00     0.039 A 
ENDROOT
BRANCH   4   7
ATOM      7  O   UNL d   1      -1.062  -1.166   3.352  0.00  0.00    -0.526 OA
ATOM      8  H5  UNL d   1      -0.117  -1.393   3.377  0.00  0.00     0.418 HD
ENDBRANCH   4   7
TORSDOF 1
ENDMDL
