MODEL 1
REMARK minimizedAffinity -5.05390787
REMARK minimizedRMSD -1
REMARK  1 active torsions:
REMARK  status: ('A' for Active; 'I' for Inactive)
REMARK    1  A    between atoms: C3_4  and  O_7 
ROOT
ATOM      1  C   UNL d   1      -1.933  -0.149   3.229  0.00  0.00    -0.033 A 
ATOM      2  C1  UNL d   1      -2.799   0.132   2.170  0.00  0.00     0.039 A 
ATOM      3  C2  UNL d   1      -2.315   0.166   0.861  0.00  0.00    -0.080 A 
ATOM      4  C3  UNL d   1      -0.966  -0.082   0.624  0.00  0.00     0.150 A 
ATOM      5  C4  UNL d   1      -0.099  -0.366   1.674  0.00  0.00    -0.007 A 
ATOM      6  C5  UNL d   1      -0.583  -0.399   2.981  0.00  0.00     0.039 A 
ENDROOT
BRANCH   4   7
ATOM      7  O   UNL d   1      -0.447  -0.055  -0.636  0.00  0.00    -0.526 OA
ATOM      8  H5  UNL d   1      -1.157   0.183  -1.256  0.00  0.00     0.418 HD
ENDBRANCH   4   7
TORSDOF 1
ENDMDL
