MODEL 1
REMARK minimizedAffinity -3.28649116
REMARK minimizedRMSD -1
REMARK  1 active torsions:
REMARK  status: ('A' for Active; 'I' for Inactive)
REMARK    1  A    between atoms: C3_4  and  O_7 
ROOT
ATOM      1  C   UNL d   1      -2.518   0.341   3.040  0.00  0.00    -0.033 A 
ATOM      2  C1  UNL d   1      -1.243  -0.200   3.220  0.00  0.00     0.039 A 
ATOM      3  C2  UNL d   1      -0.475  -0.566   2.112  0.00  0.00    -0.080 A 
ATOM      4  C3  UNL d   1      -0.992  -0.384   0.832  0.00  0.00     0.150 A 
ATOM      5  C4  UNL d   1      -2.259   0.158   0.646  0.00  0.00    -0.007 A 
ATOM      6  C5  UNL d   1      -3.025   0.521   1.753  0.00  0.00     0.039 A 
ENDROOT
BRANCH   4   7
ATOM      7  O   UNL d   1      -0.282  -0.730  -0.279  0.00  0.00    -0.526 OA
ATOM      8  H5  UNL d   1       0.563  -1.118   0.005  0.00  0.00     0.418 HD
ENDBRANCH   4   7
TORSDOF 1
ENDMDL
