MODEL 1
REMARK minimizedAffinity -4.40448666
REMARK minimizedRMSD -1
REMARK  1 active torsions:
REMARK  status: ('A' for Active; 'I' for Inactive)
REMARK    1  A    between atoms: C3_4  and  O_7 
ROOT
ATOM      1  C   UNL d   1       0.120  -0.402   2.177  0.00  0.00    -0.033 A 
ATOM      2  C1  UNL d   1      -0.874  -0.203   3.137  0.00  0.00     0.039 A 
ATOM      3  C2  UNL d   1      -2.168   0.146   2.744  0.00  0.00    -0.080 A 
ATOM      4  C3  UNL d   1      -2.454   0.292   1.389  0.00  0.00     0.150 A 
ATOM      5  C4  UNL d   1      -1.470   0.092   0.427  0.00  0.00    -0.007 A 
ATOM      6  C5  UNL d   1      -0.178  -0.256   0.822  0.00  0.00     0.039 A 
ENDROOT
BRANCH   4   7
ATOM      7  O   UNL d   1      -3.700   0.636   0.957  0.00  0.00    -0.526 OA
ATOM      8  H5  UNL d   1      -4.269   0.770   1.734  0.00  0.00     0.418 HD
ENDBRANCH   4   7
TORSDOF 1
ENDMDL
