MODEL 1
REMARK minimizedAffinity -6.31157255
REMARK minimizedRMSD -1
REMARK  1 active torsions:
REMARK  status: ('A' for Active; 'I' for Inactive)
REMARK    1  A    between atoms: C1_2  and  C2_3 
ROOT
ATOM      1  C2  UNL d   1      -0.076  -2.124  -0.671  0.00  0.00    -0.073 A 
ATOM      2  C3  UNL d   1      -0.769  -2.519   0.479  0.00  0.00    -0.002 A 
ATOM      3  C4  UNL d   1      -0.866  -1.658   1.573  0.00  0.00     0.004 A 
ATOM      4  C5  UNL d   1      -0.280  -0.393   1.526  0.00  0.00    -0.004 A 
ATOM      5  C6  UNL d   1       0.407   0.024   0.381  0.00  0.00    -0.075 A 
ATOM      6  C7  UNL d   1       1.046   1.380   0.315  0.00  0.00     0.076 C 
ATOM      7  C8  UNL d   1       0.503  -0.848  -0.712  0.00  0.00     0.001 A 
ENDROOT
BRANCH   1   8
ATOM      8  C1  UNL d   1       0.027  -3.048  -1.857  0.00  0.00     0.053 C 
ATOM      9  C   UNL d   1       0.108  -2.284  -3.169  0.00  0.00     0.018 C 
ENDBRANCH   1   8
TORSDOF 1
ENDMDL
