MODEL 1
REMARK minimizedAffinity -3.95394588
REMARK minimizedRMSD -1
REMARK  1 active torsions:
REMARK  status: ('A' for Active; 'I' for Inactive)
REMARK    1  A    between atoms: C1_2  and  C2_3 
ROOT
ATOM      1  C2  UNL d   1       0.049   0.623  -0.289  0.00  0.00    -0.073 A 
ATOM      2  C3  UNL d   1      -1.168   0.793   0.380  0.00  0.00    -0.002 A 
ATOM      3  C4  UNL d   1      -1.775  -0.286   1.024  0.00  0.00     0.004 A 
ATOM      4  C5  UNL d   1      -1.169  -1.542   1.011  0.00  0.00    -0.004 A 
ATOM      5  C6  UNL d   1       0.053  -1.729   0.357  0.00  0.00    -0.075 A 
ATOM      6  C7  UNL d   1       0.716  -3.075   0.332  0.00  0.00     0.076 C 
ATOM      7  C8  UNL d   1       0.655  -0.641  -0.289  0.00  0.00     0.001 A 
ENDROOT
BRANCH   1   8
ATOM      8  C1  UNL d   1       0.711   1.787  -0.980  0.00  0.00     0.053 C 
ATOM      9  C   UNL d   1       1.519   2.639  -0.014  0.00  0.00     0.018 C 
ENDBRANCH   1   8
TORSDOF 1
ENDMDL
