MODEL 1
REMARK minimizedAffinity -5.57971334
REMARK minimizedRMSD -1
REMARK  1 active torsions:
REMARK  status: ('A' for Active; 'I' for Inactive)
REMARK    1  A    between atoms: C1_2  and  C2_3 
ROOT
ATOM      1  C2  UNL d   1       0.370   0.539   0.159  0.00  0.00    -0.073 A 
ATOM      2  C3  UNL d   1       0.392  -0.652  -0.576  0.00  0.00    -0.002 A 
ATOM      3  C4  UNL d   1      -0.061  -1.841  -0.005  0.00  0.00     0.004 A 
ATOM      4  C5  UNL d   1      -0.547  -1.852   1.302  0.00  0.00    -0.004 A 
ATOM      5  C6  UNL d   1      -0.589  -0.670   2.049  0.00  0.00    -0.075 A 
ATOM      6  C7  UNL d   1      -1.106  -0.665   3.457  0.00  0.00     0.076 C 
ATOM      7  C8  UNL d   1      -0.129   0.520   1.469  0.00  0.00     0.001 A 
ENDROOT
BRANCH   1   8
ATOM      8  C1  UNL d   1       0.853   1.827  -0.456  0.00  0.00     0.053 C 
ATOM      9  C   UNL d   1       0.453   3.039   0.371  0.00  0.00     0.018 C 
ENDBRANCH   1   8
TORSDOF 1
ENDMDL
