MODEL 1
REMARK minimizedAffinity -2.39446807
REMARK minimizedRMSD -1
REMARK  1 active torsions:
REMARK  status: ('A' for Active; 'I' for Inactive)
REMARK    1  A    between atoms: C1_2  and  C2_3 
ROOT
ATOM      1  C2  UNL d   1      -0.389  -2.115  -0.580  0.00  0.00    -0.073 A 
ATOM      2  C3  UNL d   1      -1.029  -2.332   0.646  0.00  0.00    -0.002 A 
ATOM      3  C4  UNL d   1      -1.022  -1.343   1.630  0.00  0.00     0.004 A 
ATOM      4  C5  UNL d   1      -0.383  -0.126   1.397  0.00  0.00    -0.004 A 
ATOM      5  C6  UNL d   1       0.253   0.115   0.175  0.00  0.00    -0.075 A 
ATOM      6  C7  UNL d   1       0.947   1.418  -0.090  0.00  0.00     0.076 C 
ATOM      7  C8  UNL d   1       0.244  -0.884  -0.808  0.00  0.00     0.001 A 
ENDROOT
BRANCH   1   8
ATOM      8  C1  UNL d   1      -0.399  -3.178  -1.648  0.00  0.00     0.053 C 
ATOM      9  C   UNL d   1       0.016  -2.627  -3.003  0.00  0.00     0.018 C 
ENDBRANCH   1   8
TORSDOF 1
ENDMDL
