MODEL 1
REMARK minimizedAffinity -5.19837141
REMARK minimizedRMSD -1
REMARK  1 active torsions:
REMARK  status: ('A' for Active; 'I' for Inactive)
REMARK    1  A    between atoms: C1_2  and  C2_3 
ROOT
ATOM      1  C2  UNL d   1      -0.623  -1.089   0.147  0.00  0.00    -0.073 A 
ATOM      2  C3  UNL d   1      -0.139  -0.375  -0.955  0.00  0.00    -0.002 A 
ATOM      3  C4  UNL d   1       0.434  -1.048  -2.035  0.00  0.00     0.004 A 
ATOM      4  C5  UNL d   1       0.523  -2.440  -2.027  0.00  0.00    -0.004 A 
ATOM      5  C6  UNL d   1       0.034  -3.172  -0.940  0.00  0.00    -0.075 A 
ATOM      6  C7  UNL d   1       0.124  -4.670  -0.916  0.00  0.00     0.076 C 
ATOM      7  C8  UNL d   1      -0.537  -2.489   0.141  0.00  0.00     0.001 A 
ENDROOT
BRANCH   1   8
ATOM      8  C1  UNL d   1      -1.248  -0.368   1.312  0.00  0.00     0.053 C 
ATOM      9  C   UNL d   1      -2.089   0.817   0.864  0.00  0.00     0.018 C 
ENDBRANCH   1   8
TORSDOF 1
ENDMDL
