MODEL 1
REMARK minimizedAffinity -3.74832869
REMARK minimizedRMSD -1
REMARK  1 active torsions:
REMARK  status: ('A' for Active; 'I' for Inactive)
REMARK    1  A    between atoms: C1_2  and  C2_3 
ROOT
ATOM      1  C2  UNL d   1       0.594   1.691   0.006  0.00  0.00    -0.073 A 
ATOM      2  C3  UNL d   1       0.075   1.720  -1.293  0.00  0.00    -0.002 A 
ATOM      3  C4  UNL d   1      -0.225   0.531  -1.960  0.00  0.00     0.004 A 
ATOM      4  C5  UNL d   1      -0.015  -0.697  -1.333  0.00  0.00    -0.004 A 
ATOM      5  C6  UNL d   1       0.492  -0.746  -0.030  0.00  0.00    -0.075 A 
ATOM      6  C7  UNL d   1       0.725  -2.060   0.658  0.00  0.00     0.076 C 
ATOM      7  C8  UNL d   1       0.792   0.452   0.632  0.00  0.00     0.001 A 
ENDROOT
BRANCH   1   8
ATOM      8  C1  UNL d   1       0.912   2.972   0.732  0.00  0.00     0.053 C 
ATOM      9  C   UNL d   1       2.337   3.436   0.473  0.00  0.00     0.018 C 
ENDBRANCH   1   8
TORSDOF 1
ENDMDL
