MODEL 1
REMARK minimizedAffinity -1.51553607
REMARK minimizedRMSD -1
REMARK  1 active torsions:
REMARK  status: ('A' for Active; 'I' for Inactive)
REMARK    1  A    between atoms: C1_2  and  C2_3 
ROOT
ATOM      1  C2  UNL d   1       0.406   0.949   1.040  0.00  0.00    -0.073 A 
ATOM      2  C3  UNL d   1      -0.488   0.216   1.828  0.00  0.00    -0.002 A 
ATOM      3  C4  UNL d   1      -0.812  -1.098   1.489  0.00  0.00     0.004 A 
ATOM      4  C5  UNL d   1      -0.240  -1.695   0.365  0.00  0.00    -0.004 A 
ATOM      5  C6  UNL d   1       0.665  -0.982  -0.428  0.00  0.00    -0.075 A 
ATOM      6  C7  UNL d   1       1.288  -1.608  -1.641  0.00  0.00     0.076 C 
ATOM      7  C8  UNL d   1       0.983   0.338  -0.083  0.00  0.00     0.001 A 
ENDROOT
BRANCH   1   8
ATOM      8  C1  UNL d   1       0.764   2.367   1.406  0.00  0.00     0.053 C 
ATOM      9  C   UNL d   1       2.133   2.764   0.877  0.00  0.00     0.018 C 
ENDBRANCH   1   8
TORSDOF 1
ENDMDL
