MODEL 1
REMARK minimizedAffinity -2.44087505
REMARK minimizedRMSD -1
REMARK  1 active torsions:
REMARK  status: ('A' for Active; 'I' for Inactive)
REMARK    1  A    between atoms: C1_2  and  C2_3 
ROOT
ATOM      1  C2  UNL d   1       0.409   0.835   0.136  0.00  0.00    -0.073 A 
ATOM      2  C3  UNL d   1       0.247   0.835  -1.254  0.00  0.00    -0.002 A 
ATOM      3  C4  UNL d   1       0.130  -0.368  -1.950  0.00  0.00     0.004 A 
ATOM      4  C5  UNL d   1       0.167  -1.583  -1.265  0.00  0.00    -0.004 A 
ATOM      5  C6  UNL d   1       0.316  -1.603   0.126  0.00  0.00    -0.075 A 
ATOM      6  C7  UNL d   1       0.360  -2.901   0.878  0.00  0.00     0.076 C 
ATOM      7  C8  UNL d   1       0.436  -0.391   0.818  0.00  0.00     0.001 A 
ENDROOT
BRANCH   1   8
ATOM      8  C1  UNL d   1       0.530   2.132   0.893  0.00  0.00     0.053 C 
ATOM      9  C   UNL d   1       1.952   2.670   0.880  0.00  0.00     0.018 C 
ENDBRANCH   1   8
TORSDOF 1
ENDMDL
