MODEL 1
REMARK minimizedAffinity -5.5038085
REMARK minimizedRMSD -1
REMARK  1 active torsions:
REMARK  status: ('A' for Active; 'I' for Inactive)
REMARK    1  A    between atoms: C1_2  and  C2_3 
ROOT
ATOM      1  C2  UNL d   1       0.166   0.465  -0.459  0.00  0.00    -0.073 A 
ATOM      2  C3  UNL d   1      -0.519   0.750   0.728  0.00  0.00    -0.002 A 
ATOM      3  C4  UNL d   1      -0.912  -0.282   1.581  0.00  0.00     0.004 A 
ATOM      4  C5  UNL d   1      -0.621  -1.607   1.259  0.00  0.00    -0.004 A 
ATOM      5  C6  UNL d   1       0.072  -1.912   0.084  0.00  0.00    -0.075 A 
ATOM      6  C7  UNL d   1       0.392  -3.333  -0.278  0.00  0.00     0.076 C 
ATOM      7  C8  UNL d   1       0.462  -0.870  -0.769  0.00  0.00     0.001 A 
ENDROOT
BRANCH   1   8
ATOM      8  C1  UNL d   1       0.599   1.577  -1.379  0.00  0.00     0.053 C 
ATOM      9  C   UNL d   1       1.037   2.814  -0.611  0.00  0.00     0.018 C 
ENDBRANCH   1   8
TORSDOF 1
ENDMDL
