MODEL 1
REMARK minimizedAffinity -4.68850231
REMARK minimizedRMSD -1
REMARK  1 active torsions:
REMARK  status: ('A' for Active; 'I' for Inactive)
REMARK    1  A    between atoms: C1_2  and  C2_3 
ROOT
ATOM      1  C2  UNL d   1       0.704   1.618   0.326  0.00  0.00    -0.073 A 
ATOM      2  C3  UNL d   1       0.699   0.816   1.473  0.00  0.00    -0.002 A 
ATOM      3  C4  UNL d   1       0.547  -0.567   1.366  0.00  0.00     0.004 A 
ATOM      4  C5  UNL d   1       0.404  -1.162   0.112  0.00  0.00    -0.004 A 
ATOM      5  C6  UNL d   1       0.417  -0.379  -1.046  0.00  0.00    -0.075 A 
ATOM      6  C7  UNL d   1       0.263  -1.004  -2.402  0.00  0.00     0.076 C 
ATOM      7  C8  UNL d   1       0.569   1.009  -0.930  0.00  0.00     0.001 A 
ENDROOT
BRANCH   1   8
ATOM      8  C1  UNL d   1       0.875   3.111   0.436  0.00  0.00     0.053 C 
ATOM      9  C   UNL d   1       2.286   3.494   0.854  0.00  0.00     0.018 C 
ENDBRANCH   1   8
TORSDOF 1
ENDMDL
