MODEL 1
REMARK minimizedAffinity -3.31793928
REMARK minimizedRMSD -1
REMARK  1 active torsions:
REMARK  status: ('A' for Active; 'I' for Inactive)
REMARK    1  A    between atoms: C1_2  and  C2_3 
ROOT
ATOM      1  C2  UNL d   1       0.402   1.313  -0.176  0.00  0.00    -0.073 A 
ATOM      2  C3  UNL d   1       0.651   1.092  -1.536  0.00  0.00    -0.002 A 
ATOM      3  C4  UNL d   1       0.515  -0.186  -2.078  0.00  0.00     0.004 A 
ATOM      4  C5  UNL d   1       0.122  -1.254  -1.270  0.00  0.00    -0.004 A 
ATOM      5  C6  UNL d   1      -0.142  -1.051   0.088  0.00  0.00    -0.075 A 
ATOM      6  C7  UNL d   1      -0.562  -2.189   0.971  0.00  0.00     0.076 C 
ATOM      7  C8  UNL d   1      -0.000   0.236   0.626  0.00  0.00     0.001 A 
ENDROOT
BRANCH   1   8
ATOM      8  C1  UNL d   1       0.542   2.693   0.413  0.00  0.00     0.053 C 
ATOM      9  C   UNL d   1       1.978   3.191   0.364  0.00  0.00     0.018 C 
ENDBRANCH   1   8
TORSDOF 1
ENDMDL
