MODEL 1
REMARK minimizedAffinity -4.09302998
REMARK minimizedRMSD -1
REMARK  1 active torsions:
REMARK  status: ('A' for Active; 'I' for Inactive)
REMARK    1  A    between atoms: C1_2  and  C2_3 
ROOT
ATOM      1  C2  UNL d   1       0.204   0.241   0.370  0.00  0.00    -0.073 A 
ATOM      2  C3  UNL d   1       0.133   0.494   1.745  0.00  0.00    -0.002 A 
ATOM      3  C4  UNL d   1      -0.140  -0.542   2.639  0.00  0.00     0.004 A 
ATOM      4  C5  UNL d   1      -0.337  -1.841   2.170  0.00  0.00    -0.004 A 
ATOM      5  C6  UNL d   1      -0.258  -2.116   0.801  0.00  0.00    -0.075 A 
ATOM      6  C7  UNL d   1      -0.470  -3.507   0.280  0.00  0.00     0.076 C 
ATOM      7  C8  UNL d   1       0.014  -1.070  -0.091  0.00  0.00     0.001 A 
ENDROOT
BRANCH   1   8
ATOM      8  C1  UNL d   1       0.505   1.355  -0.598  0.00  0.00     0.053 C 
ATOM      9  C   UNL d   1       1.351   2.448   0.035  0.00  0.00     0.018 C 
ENDBRANCH   1   8
TORSDOF 1
ENDMDL
