MODEL 1
REMARK minimizedAffinity 7.18142605
REMARK minimizedRMSD -1
REMARK  0 active torsions:
REMARK  status: ('A' for Active; 'I' for Inactive)
ROOT
ATOM      1  C2' OXE d   1      -5.953  -4.104   3.436  0.00  0.00     0.078 C 
ATOM      2  C1' OXE d   1      -5.967  -1.882   1.720  0.00  0.00     0.078 C 
ATOM      3  C1  OXE d   1      -5.959  -1.624   3.206  0.00  0.00    -0.078 A 
ATOM      4  C2  OXE d   1      -5.999  -2.717   4.038  0.00  0.00    -0.078 A 
ATOM      5  C3  OXE d   1      -5.938  -2.536   5.417  0.00  0.00     0.003 A 
ATOM      6  C4  OXE d   1      -5.992  -1.249   5.967  0.00  0.00    -0.002 A 
ATOM      7  C5  OXE d   1      -5.991  -0.123   5.137  0.00  0.00    -0.002 A 
ATOM      8  C6  OXE d   1      -5.932  -0.292   3.758  0.00  0.00     0.003 A 
ENDROOT
TORSDOF 0
ENDMDL
