MODEL 1
REMARK minimizedAffinity 17.0003738
REMARK minimizedRMSD -1
REMARK  0 active torsions:
REMARK  status: ('A' for Active; 'I' for Inactive)
ROOT
ATOM      1  C2' OXE d   1      -5.994  -3.702   5.676  0.00  0.00     0.078 C 
ATOM      2  C1' OXE d   1      -5.995  -3.267   2.902  0.00  0.00     0.078 C 
ATOM      3  C1  OXE d   1      -5.408  -2.192   3.783  0.00  0.00    -0.078 A 
ATOM      4  C2  OXE d   1      -5.454  -2.393   5.142  0.00  0.00    -0.078 A 
ATOM      5  C3  OXE d   1      -4.877  -1.458   5.996  0.00  0.00     0.003 A 
ATOM      6  C4  OXE d   1      -4.388  -0.246   5.495  0.00  0.00    -0.002 A 
ATOM      7  C5  OXE d   1      -4.368  -0.004   4.117  0.00  0.00    -0.002 A 
ATOM      8  C6  OXE d   1      -4.834  -0.983   3.247  0.00  0.00     0.003 A 
ENDROOT
TORSDOF 0
ENDMDL
