MODEL 1
REMARK minimizedAffinity 7.10551357
REMARK minimizedRMSD -1
REMARK  0 active torsions:
REMARK  status: ('A' for Active; 'I' for Inactive)
ROOT
ATOM      1  C2' OXE d   1       0.371   3.252   2.144  0.00  0.00     0.078 C 
ATOM      2  C1' OXE d   1      -1.202   1.813   0.317  0.00  0.00     0.078 C 
ATOM      3  C1  OXE d   1      -0.340   1.028   1.273  0.00  0.00    -0.078 A 
ATOM      4  C2  OXE d   1       0.462   1.741   2.132  0.00  0.00    -0.078 A 
ATOM      5  C3  OXE d   1       1.236   1.066   3.072  0.00  0.00     0.003 A 
ATOM      6  C4  OXE d   1       1.322  -0.331   3.048  0.00  0.00    -0.002 A 
ATOM      7  C5  OXE d   1       0.544  -1.075   2.155  0.00  0.00    -0.002 A 
ATOM      8  C6  OXE d   1      -0.322  -0.414   1.291  0.00  0.00     0.003 A 
ENDROOT
TORSDOF 0
ENDMDL
