MODEL 1
REMARK minimizedAffinity -1.26393902
REMARK minimizedRMSD -1
REMARK  0 active torsions:
REMARK  status: ('A' for Active; 'I' for Inactive)
ROOT
ATOM      1  C2' OXE d   1      -0.735   0.668  -0.610  0.00  0.00     0.078 C 
ATOM      2  C1' OXE d   1       1.123  -0.806   0.893  0.00  0.00     0.078 C 
ATOM      3  C1  OXE d   1       0.574  -1.437  -0.362  0.00  0.00    -0.078 A 
ATOM      4  C2  OXE d   1      -0.370  -0.728  -1.066  0.00  0.00    -0.078 A 
ATOM      5  C3  OXE d   1      -0.869  -1.241  -2.260  0.00  0.00     0.003 A 
ATOM      6  C4  OXE d   1      -0.533  -2.537  -2.669  0.00  0.00    -0.002 A 
ATOM      7  C5  OXE d   1       0.396  -3.292  -1.946  0.00  0.00    -0.002 A 
ATOM      8  C6  OXE d   1       0.989  -2.741  -0.816  0.00  0.00     0.003 A 
ENDROOT
TORSDOF 0
ENDMDL
