MODEL 1
REMARK minimizedAffinity -4.41611671
REMARK minimizedRMSD -1
REMARK  0 active torsions:
REMARK  status: ('A' for Active; 'I' for Inactive)
ROOT
ATOM      1  C2' OXE d   1      -0.190  -0.891  -0.487  0.00  0.00     0.078 C 
ATOM      2  C1' OXE d   1       1.699  -0.258   1.491  0.00  0.00     0.078 C 
ATOM      3  C1  OXE d   1       0.659   0.782   1.153  0.00  0.00    -0.078 A 
ATOM      4  C2  OXE d   1      -0.232   0.481   0.151  0.00  0.00    -0.078 A 
ATOM      5  C3  OXE d   1      -1.245   1.383  -0.164  0.00  0.00     0.003 A 
ATOM      6  C4  OXE d   1      -1.271   2.653   0.424  0.00  0.00    -0.002 A 
ATOM      7  C5  OXE d   1      -0.348   2.995   1.418  0.00  0.00    -0.002 A 
ATOM      8  C6  OXE d   1       0.595   2.057   1.824  0.00  0.00     0.003 A 
ENDROOT
TORSDOF 0
ENDMDL
