MODEL 1
REMARK minimizedAffinity -3.19299126
REMARK minimizedRMSD -1
REMARK  0 active torsions:
REMARK  status: ('A' for Active; 'I' for Inactive)
ROOT
ATOM      1  C2' OXE d   1       2.355   2.315   2.736  0.00  0.00     0.078 C 
ATOM      2  C1' OXE d   1       1.057   0.252   1.344  0.00  0.00     0.078 C 
ATOM      3  C1  OXE d   1       0.371   1.593   1.414  0.00  0.00    -0.078 A 
ATOM      4  C2  OXE d   1       0.992   2.584   2.137  0.00  0.00    -0.078 A 
ATOM      5  C3  OXE d   1       0.429   3.856   2.188  0.00  0.00     0.003 A 
ATOM      6  C4  OXE d   1      -0.838   4.093   1.640  0.00  0.00    -0.002 A 
ATOM      7  C5  OXE d   1      -1.505   3.087   0.934  0.00  0.00    -0.002 A 
ATOM      8  C6  OXE d   1      -0.897   1.847   0.775  0.00  0.00     0.003 A 
ENDROOT
TORSDOF 0
ENDMDL
