MODEL 1
REMARK minimizedAffinity -3.46461439
REMARK minimizedRMSD -1
REMARK  0 active torsions:
REMARK  status: ('A' for Active; 'I' for Inactive)
ROOT
ATOM      1  C2' OXE d   1       0.038  -0.287  -1.125  0.00  0.00     0.078 C 
ATOM      2  C1' OXE d   1       0.255  -0.028   1.662  0.00  0.00     0.078 C 
ATOM      3  C1  OXE d   1      -0.270   1.153   0.884  0.00  0.00    -0.078 A 
ATOM      4  C2  OXE d   1      -0.329   1.034  -0.483  0.00  0.00    -0.078 A 
ATOM      5  C3  OXE d   1      -0.858   2.073  -1.244  0.00  0.00     0.003 A 
ATOM      6  C4  OXE d   1      -1.186   3.295  -0.644  0.00  0.00    -0.002 A 
ATOM      7  C5  OXE d   1      -1.096   3.451   0.743  0.00  0.00    -0.002 A 
ATOM      8  C6  OXE d   1      -0.681   2.378   1.525  0.00  0.00     0.003 A 
ENDROOT
TORSDOF 0
ENDMDL
