MODEL 1
REMARK minimizedAffinity -0.112185836
REMARK minimizedRMSD -1
REMARK  0 active torsions:
REMARK  status: ('A' for Active; 'I' for Inactive)
ROOT
ATOM      1  C2' OXE d   1       0.225   1.361  -0.024  0.00  0.00     0.078 C 
ATOM      2  C1' OXE d   1       0.914   2.917   2.210  0.00  0.00     0.078 C 
ATOM      3  C1  OXE d   1       0.764   3.618   0.883  0.00  0.00    -0.078 A 
ATOM      4  C2  OXE d   1       0.472   2.843  -0.213  0.00  0.00    -0.078 A 
ATOM      5  C3  OXE d   1       0.269   3.447  -1.451  0.00  0.00     0.003 A 
ATOM      6  C4  OXE d   1       0.509   4.816  -1.619  0.00  0.00    -0.002 A 
ATOM      7  C5  OXE d   1       0.846   5.617  -0.524  0.00  0.00    -0.002 A 
ATOM      8  C6  OXE d   1       0.935   5.043   0.739  0.00  0.00     0.003 A 
ENDROOT
TORSDOF 0
ENDMDL
