MODEL 1
REMARK minimizedAffinity -1.99523342
REMARK minimizedRMSD -1
REMARK  0 active torsions:
REMARK  status: ('A' for Active; 'I' for Inactive)
ROOT
ATOM      1  C2' OXE d   1       0.787   0.827  -1.642  0.00  0.00     0.078 C 
ATOM      2  C1' OXE d   1       0.584   3.447  -0.656  0.00  0.00     0.078 C 
ATOM      3  C1  OXE d   1       0.780   2.333   0.342  0.00  0.00    -0.078 A 
ATOM      4  C2  OXE d   1       0.831   1.049  -0.145  0.00  0.00    -0.078 A 
ATOM      5  C3  OXE d   1       1.065  -0.010   0.726  0.00  0.00     0.003 A 
ATOM      6  C4  OXE d   1       1.095   0.203   2.110  0.00  0.00    -0.002 A 
ATOM      7  C5  OXE d   1       1.004   1.499   2.630  0.00  0.00    -0.002 A 
ATOM      8  C6  OXE d   1       0.889   2.576   1.759  0.00  0.00     0.003 A 
ENDROOT
TORSDOF 0
ENDMDL
