MODEL 1
REMARK minimizedAffinity -4.08755922
REMARK minimizedRMSD -1
REMARK  0 active torsions:
REMARK  status: ('A' for Active; 'I' for Inactive)
ROOT
ATOM      1  C2' OXE d   1       1.642   0.077   1.598  0.00  0.00     0.078 C 
ATOM      2  C1' OXE d   1       0.038  -0.700  -0.571  0.00  0.00     0.078 C 
ATOM      3  C1  OXE d   1      -0.375   0.525   0.206  0.00  0.00    -0.078 A 
ATOM      4  C2  OXE d   1       0.390   0.871   1.294  0.00  0.00    -0.078 A 
ATOM      5  C3  OXE d   1       0.084   2.023   2.013  0.00  0.00     0.003 A 
ATOM      6  C4  OXE d   1      -1.081   2.746   1.732  0.00  0.00    -0.002 A 
ATOM      7  C5  OXE d   1      -1.896   2.387   0.653  0.00  0.00    -0.002 A 
ATOM      8  C6  OXE d   1      -1.535   1.307  -0.145  0.00  0.00     0.003 A 
ENDROOT
TORSDOF 0
ENDMDL
