MODEL 1
REMARK minimizedAffinity -4.01656628
REMARK minimizedRMSD -1
REMARK  0 active torsions:
REMARK  status: ('A' for Active; 'I' for Inactive)
ROOT
ATOM      1  C2' OXE d   1       0.330  -0.388  -0.899  0.00  0.00     0.078 C 
ATOM      2  C1' OXE d   1      -1.028   1.941  -1.682  0.00  0.00     0.078 C 
ATOM      3  C1  OXE d   1      -0.762   1.742  -0.211  0.00  0.00    -0.078 A 
ATOM      4  C2  OXE d   1      -0.138   0.578   0.167  0.00  0.00    -0.078 A 
ATOM      5  C3  OXE d   1       0.180   0.370   1.506  0.00  0.00     0.003 A 
ATOM      6  C4  OXE d   1      -0.266   1.263   2.488  0.00  0.00    -0.002 A 
ATOM      7  C5  OXE d   1      -0.938   2.436   2.128  0.00  0.00    -0.002 A 
ATOM      8  C6  OXE d   1      -1.156   2.711   0.782  0.00  0.00     0.003 A 
ENDROOT
TORSDOF 0
ENDMDL
