MODEL 1
REMARK minimizedAffinity -2.42764211
REMARK minimizedRMSD -1
REMARK  0 active torsions:
REMARK  status: ('A' for Active; 'I' for Inactive)
ROOT
ATOM      1  C2' OXE d   1       0.227  -1.252  -0.923  0.00  0.00     0.078 C 
ATOM      2  C1' OXE d   1       0.857  -0.992   1.800  0.00  0.00     0.078 C 
ATOM      3  C1  OXE d   1       0.103   0.136   1.142  0.00  0.00    -0.078 A 
ATOM      4  C2  OXE d   1      -0.160   0.021  -0.202  0.00  0.00    -0.078 A 
ATOM      5  C3  OXE d   1      -0.901   1.009  -0.846  0.00  0.00     0.003 A 
ATOM      6  C4  OXE d   1      -1.246   2.188  -0.174  0.00  0.00    -0.002 A 
ATOM      7  C5  OXE d   1      -0.952   2.342   1.186  0.00  0.00    -0.002 A 
ATOM      8  C6  OXE d   1      -0.317   1.310   1.867  0.00  0.00     0.003 A 
ENDROOT
TORSDOF 0
ENDMDL
