MODEL 1
REMARK minimizedAffinity 9.12116718
REMARK minimizedRMSD -1
REMARK  0 active torsions:
REMARK  status: ('A' for Active; 'I' for Inactive)
ROOT
ATOM      1  C2' OXE d   1      -1.979   3.282   1.463  0.00  0.00     0.078 C 
ATOM      2  C1' OXE d   1       0.066   1.634   2.454  0.00  0.00     0.078 C 
ATOM      3  C1  OXE d   1      -0.168   1.646   0.964  0.00  0.00    -0.078 A 
ATOM      4  C2  OXE d   1      -1.201   2.419   0.492  0.00  0.00    -0.078 A 
ATOM      5  C3  OXE d   1      -1.425   2.508  -0.879  0.00  0.00     0.003 A 
ATOM      6  C4  OXE d   1      -0.708   1.700  -1.768  0.00  0.00    -0.002 A 
ATOM      7  C5  OXE d   1       0.322   0.875  -1.305  0.00  0.00    -0.002 A 
ATOM      8  C6  OXE d   1       0.633   0.869   0.051  0.00  0.00     0.003 A 
ENDROOT
TORSDOF 0
ENDMDL
