MODEL 1
REMARK minimizedAffinity -3.36075354
REMARK minimizedRMSD -1
REMARK  0 active torsions:
REMARK  status: ('A' for Active; 'I' for Inactive)
ROOT
ATOM      1  C2' OXE d   1       0.433  -1.272  -0.984  0.00  0.00     0.078 C 
ATOM      2  C1' OXE d   1       0.074   1.418  -1.702  0.00  0.00     0.078 C 
ATOM      3  C1  OXE d   1       0.034   1.071  -0.235  0.00  0.00    -0.078 A 
ATOM      4  C2  OXE d   1       0.165  -0.255   0.104  0.00  0.00    -0.078 A 
ATOM      5  C3  OXE d   1       0.190  -0.623   1.446  0.00  0.00     0.003 A 
ATOM      6  C4  OXE d   1      -0.069   0.322   2.446  0.00  0.00    -0.002 A 
ATOM      7  C5  OXE d   1      -0.244   1.671   2.119  0.00  0.00    -0.002 A 
ATOM      8  C6  OXE d   1      -0.153   2.068   0.790  0.00  0.00     0.003 A 
ENDROOT
TORSDOF 0
ENDMDL
