MODEL 1
REMARK minimizedAffinity -5.1214366
REMARK minimizedRMSD -1
REMARK  0 active torsions:
REMARK  status: ('A' for Active; 'I' for Inactive)
ROOT
ATOM      1  C2' OXE d   1       0.607  -0.191   1.811  0.00  0.00     0.078 C 
ATOM      2  C1' OXE d   1       0.310  -0.092  -0.979  0.00  0.00     0.078 C 
ATOM      3  C1  OXE d   1      -0.121   1.114  -0.182  0.00  0.00    -0.078 A 
ATOM      4  C2  OXE d   1      -0.016   1.039   1.186  0.00  0.00    -0.078 A 
ATOM      5  C3  OXE d   1      -0.348   2.144   1.965  0.00  0.00     0.003 A 
ATOM      6  C4  OXE d   1      -0.932   3.274   1.380  0.00  0.00    -0.002 A 
ATOM      7  C5  OXE d   1      -1.085   3.356  -0.009  0.00  0.00    -0.002 A 
ATOM      8  C6  OXE d   1      -0.647   2.304  -0.806  0.00  0.00     0.003 A 
ENDROOT
TORSDOF 0
ENDMDL
