MODEL 1
REMARK minimizedAffinity -5.69445467
REMARK minimizedRMSD -1
REMARK  0 active torsions:
REMARK  status: ('A' for Active; 'I' for Inactive)
ROOT
ATOM      1  C2' OXE d   1       0.191  -0.078   1.809  0.00  0.00     0.078 C 
ATOM      2  C1' OXE d   1      -1.686   1.937   1.263  0.00  0.00     0.078 C 
ATOM      3  C1  OXE d   1      -0.855   1.421   0.116  0.00  0.00    -0.078 A 
ATOM      4  C2  OXE d   1       0.093   0.468   0.401  0.00  0.00    -0.078 A 
ATOM      5  C3  OXE d   1       0.850  -0.082  -0.631  0.00  0.00     0.003 A 
ATOM      6  C4  OXE d   1       0.761   0.435  -1.929  0.00  0.00    -0.002 A 
ATOM      7  C5  OXE d   1      -0.171   1.434  -2.233  0.00  0.00    -0.002 A 
ATOM      8  C6  OXE d   1      -1.014   1.906  -1.233  0.00  0.00     0.003 A 
ENDROOT
TORSDOF 0
ENDMDL
