MODEL 1
REMARK minimizedAffinity -4.31708717
REMARK minimizedRMSD -1
REMARK  0 active torsions:
REMARK  status: ('A' for Active; 'I' for Inactive)
ROOT
ATOM      1  C2' OXE d   1       1.540  -0.662   1.295  0.00  0.00     0.078 C 
ATOM      2  C1' OXE d   1       0.840  -0.183  -1.381  0.00  0.00     0.078 C 
ATOM      3  C1  OXE d   1       0.233   0.706  -0.325  0.00  0.00    -0.078 A 
ATOM      4  C2  OXE d   1       0.545   0.435   0.985  0.00  0.00    -0.078 A 
ATOM      5  C3  OXE d   1       0.055   1.258   1.995  0.00  0.00     0.003 A 
ATOM      6  C4  OXE d   1      -0.873   2.264   1.702  0.00  0.00    -0.002 A 
ATOM      7  C5  OXE d   1      -1.235   2.532   0.377  0.00  0.00    -0.002 A 
ATOM      8  C6  OXE d   1      -0.659   1.792  -0.649  0.00  0.00     0.003 A 
ENDROOT
TORSDOF 0
ENDMDL
