MODEL 1
REMARK minimizedAffinity -4.59379482
REMARK minimizedRMSD -1
REMARK  0 active torsions:
REMARK  status: ('A' for Active; 'I' for Inactive)
ROOT
ATOM      1  C2' OXE d   1       0.075   1.410  -2.360  0.00  0.00     0.078 C 
ATOM      2  C1' OXE d   1       0.249  -1.057  -1.032  0.00  0.00     0.078 C 
ATOM      3  C1  OXE d   1       0.016   0.177  -0.197  0.00  0.00    -0.078 A 
ATOM      4  C2  OXE d   1      -0.021   1.385  -0.850  0.00  0.00    -0.078 A 
ATOM      5  C3  OXE d   1      -0.287   2.548  -0.133  0.00  0.00     0.003 A 
ATOM      6  C4  OXE d   1      -0.364   2.518   1.265  0.00  0.00    -0.002 A 
ATOM      7  C5  OXE d   1      -0.290   1.302   1.953  0.00  0.00    -0.002 A 
ATOM      8  C6  OXE d   1      -0.143   0.120   1.236  0.00  0.00     0.003 A 
ENDROOT
TORSDOF 0
ENDMDL
