MODEL 1
REMARK minimizedAffinity -3.16933608
REMARK minimizedRMSD -1
REMARK  0 active torsions:
REMARK  status: ('A' for Active; 'I' for Inactive)
ROOT
ATOM      1  C2' OXE d   1       0.558  -0.289  -2.435  0.00  0.00     0.078 C 
ATOM      2  C1' OXE d   1       0.352  -0.673   0.339  0.00  0.00     0.078 C 
ATOM      3  C1  OXE d   1       0.252  -1.888  -0.549  0.00  0.00    -0.078 A 
ATOM      4  C2  OXE d   1       0.307  -1.685  -1.907  0.00  0.00    -0.078 A 
ATOM      5  C3  OXE d   1       0.274  -2.778  -2.769  0.00  0.00     0.003 A 
ATOM      6  C4  OXE d   1       0.031  -4.065  -2.274  0.00  0.00    -0.002 A 
ATOM      7  C5  OXE d   1      -0.067  -4.288  -0.896  0.00  0.00    -0.002 A 
ATOM      8  C6  OXE d   1       0.083  -3.219  -0.020  0.00  0.00     0.003 A 
ENDROOT
TORSDOF 0
ENDMDL
