MODEL 1
REMARK minimizedAffinity -4.92097616
REMARK minimizedRMSD -1
REMARK  0 active torsions:
REMARK  status: ('A' for Active; 'I' for Inactive)
ROOT
ATOM      1  C2' OXE d   1       0.614  -0.228   1.890  0.00  0.00     0.078 C 
ATOM      2  C1' OXE d   1       0.476  -0.237  -0.914  0.00  0.00     0.078 C 
ATOM      3  C1  OXE d   1      -0.094   0.954  -0.185  0.00  0.00    -0.078 A 
ATOM      4  C2  OXE d   1      -0.064   0.929   1.188  0.00  0.00    -0.078 A 
ATOM      5  C3  OXE d   1      -0.526   2.027   1.908  0.00  0.00     0.003 A 
ATOM      6  C4  OXE d   1      -1.161   3.089   1.252  0.00  0.00    -0.002 A 
ATOM      7  C5  OXE d   1      -1.237   3.116  -0.145  0.00  0.00    -0.002 A 
ATOM      8  C6  OXE d   1      -0.672   2.079  -0.878  0.00  0.00     0.003 A 
ENDROOT
TORSDOF 0
ENDMDL
