MODEL 1
REMARK minimizedAffinity 1.91686785
REMARK minimizedRMSD -1
REMARK  0 active torsions:
REMARK  status: ('A' for Active; 'I' for Inactive)
ROOT
ATOM      1  C   UNL d   1       0.670   0.057   3.590  0.00  0.00     0.172 C 
ATOM      2  N   UNL d   1       1.144  -1.166   4.194  0.00  0.00    -0.070 N 
ATOM      3  C1  UNL d   1       1.521  -1.317   5.502  0.00  0.00    -0.004 A 
ATOM      4  C2  UNL d   1       1.907  -2.628   5.681  0.00  0.00    -0.047 A 
ATOM      5  C3  UNL d   1       1.758  -3.287   4.438  0.00  0.00    -0.047 A 
ATOM      6  C4  UNL d   1       1.284  -2.359   3.535  0.00  0.00    -0.004 A 
ENDROOT
TORSDOF 0
ENDMDL
