MODEL 1
REMARK minimizedAffinity 0.942332983
REMARK minimizedRMSD -1
REMARK  0 active torsions:
REMARK  status: ('A' for Active; 'I' for Inactive)
ROOT
ATOM      1  C   UNL d   1      -3.063  -5.576  -5.973  0.00  0.00     0.172 C 
ATOM      2  N   UNL d   1      -2.073  -4.524  -5.983  0.00  0.00    -0.070 N 
ATOM      3  C1  UNL d   1      -0.716  -4.706  -5.986  0.00  0.00    -0.004 A 
ATOM      4  C2  UNL d   1      -0.123  -3.462  -5.997  0.00  0.00    -0.047 A 
ATOM      5  C3  UNL d   1      -1.160  -2.499  -5.999  0.00  0.00    -0.047 A 
ATOM      6  C4  UNL d   1      -2.357  -3.184  -5.990  0.00  0.00    -0.004 A 
ENDROOT
TORSDOF 0
ENDMDL
