MODEL 1
REMARK minimizedAffinity 0.638637185
REMARK minimizedRMSD -1
REMARK  0 active torsions:
REMARK  status: ('A' for Active; 'I' for Inactive)
ROOT
ATOM      1  C   UNL d   1      -4.864   0.237   2.617  0.00  0.00     0.172 C 
ATOM      2  N   UNL d   1      -5.133  -0.724   3.661  0.00  0.00    -0.070 N 
ATOM      3  C1  UNL d   1      -6.000  -0.546   4.705  0.00  0.00    -0.004 A 
ATOM      4  C2  UNL d   1      -5.973  -1.688   5.476  0.00  0.00    -0.047 A 
ATOM      5  C3  UNL d   1      -5.057  -2.583   4.874  0.00  0.00    -0.047 A 
ATOM      6  C4  UNL d   1      -4.552  -1.961   3.752  0.00  0.00    -0.004 A 
ENDROOT
TORSDOF 0
ENDMDL
