MODEL 1
REMARK minimizedAffinity 2.74541306
REMARK minimizedRMSD -1
REMARK  0 active torsions:
REMARK  status: ('A' for Active; 'I' for Inactive)
ROOT
ATOM      1  C   UNL d   1      -2.701   1.113   2.982  0.00  0.00     0.172 C 
ATOM      2  N   UNL d   1      -3.863   0.317   3.299  0.00  0.00    -0.070 N 
ATOM      3  C1  UNL d   1      -3.873  -1.039   3.495  0.00  0.00    -0.004 A 
ATOM      4  C2  UNL d   1      -5.169  -1.415   3.777  0.00  0.00    -0.047 A 
ATOM      5  C3  UNL d   1      -5.965  -0.245   3.749  0.00  0.00    -0.047 A 
ATOM      6  C4  UNL d   1      -5.131   0.812   3.451  0.00  0.00    -0.004 A 
ENDROOT
TORSDOF 0
ENDMDL
