MODEL 1
REMARK minimizedAffinity -1.31976318
REMARK minimizedRMSD -1
REMARK  0 active torsions:
REMARK  status: ('A' for Active; 'I' for Inactive)
ROOT
ATOM      1  C   UNL d   1      -1.305  -2.873  -5.995  0.00  0.00     0.172 C 
ATOM      2  N   UNL d   1      -2.274  -3.943  -5.983  0.00  0.00    -0.070 N 
ATOM      3  C1  UNL d   1      -3.634  -3.789  -6.000  0.00  0.00    -0.004 A 
ATOM      4  C2  UNL d   1      -4.202  -5.044  -5.980  0.00  0.00    -0.047 A 
ATOM      5  C3  UNL d   1      -3.146  -5.986  -5.948  0.00  0.00    -0.047 A 
ATOM      6  C4  UNL d   1      -1.964  -5.277  -5.951  0.00  0.00    -0.004 A 
ENDROOT
TORSDOF 0
ENDMDL
