MODEL 1
REMARK minimizedAffinity 0.973862588
REMARK minimizedRMSD -1
REMARK  0 active torsions:
REMARK  status: ('A' for Active; 'I' for Inactive)
ROOT
ATOM      1  C   UNL d   1      -1.838  -5.998  -5.506  0.00  0.00     0.172 C 
ATOM      2  N   UNL d   1      -3.121  -5.362  -5.688  0.00  0.00    -0.070 N 
ATOM      3  C1  UNL d   1      -4.333  -6.000  -5.715  0.00  0.00    -0.004 A 
ATOM      4  C2  UNL d   1      -5.308  -5.046  -5.908  0.00  0.00    -0.047 A 
ATOM      5  C3  UNL d   1      -4.661  -3.791  -6.000  0.00  0.00    -0.047 A 
ATOM      6  C4  UNL d   1      -3.308  -4.015  -5.861  0.00  0.00    -0.004 A 
ENDROOT
TORSDOF 0
ENDMDL
