MODEL 1
REMARK minimizedAffinity 1.51441836
REMARK minimizedRMSD -1
REMARK  0 active torsions:
REMARK  status: ('A' for Active; 'I' for Inactive)
ROOT
ATOM      1  O1  BZF d   1       2.114   3.772  -5.097  0.00  0.00    -0.204 OA
ATOM      2  C2  BZF d   1       1.331   4.786  -5.615  0.00  0.00     0.174 A 
ATOM      3  C3  BZF d   1       2.094   5.830  -5.999  0.00  0.00    -0.012 A 
ATOM      4  C3A BZF d   1       3.445   5.407  -5.788  0.00  0.00    -0.107 A 
ATOM      5  C4  BZF d   1       4.657   6.000  -5.996  0.00  0.00     0.055 A 
ATOM      6  C5  BZF d   1       5.786   5.345  -5.615  0.00  0.00    -0.016 A 
ATOM      7  C6  BZF d   1       5.739   4.102  -5.021  0.00  0.00     0.022 A 
ATOM      8  C7  BZF d   1       4.559   3.471  -4.799  0.00  0.00     0.029 A 
ATOM      9  C7A BZF d   1       3.419   4.116  -5.212  0.00  0.00     0.058 A 
ENDROOT
TORSDOF 0
ENDMDL
