MODEL 1
REMARK minimizedAffinity 5.26366615
REMARK minimizedRMSD -1
REMARK  0 active torsions:
REMARK  status: ('A' for Active; 'I' for Inactive)
ROOT
ATOM      1  O1  BZF d   1      -0.191  -1.149  -0.857  0.00  0.00    -0.204 OA
ATOM      2  C2  BZF d   1       1.157  -1.156  -1.162  0.00  0.00     0.174 A 
ATOM      3  C3  BZF d   1       1.345  -1.270  -2.493  0.00  0.00    -0.012 A 
ATOM      4  C3A BZF d   1       0.032  -1.246  -3.062  0.00  0.00    -0.107 A 
ATOM      5  C4  BZF d   1      -0.437  -1.307  -4.343  0.00  0.00     0.055 A 
ATOM      6  C5  BZF d   1      -1.779  -1.334  -4.554  0.00  0.00    -0.016 A 
ATOM      7  C6  BZF d   1      -2.679  -1.305  -3.509  0.00  0.00     0.022 A 
ATOM      8  C7  BZF d   1      -2.262  -1.239  -2.222  0.00  0.00     0.029 A 
ATOM      9  C7A BZF d   1      -0.906  -1.180  -2.006  0.00  0.00     0.058 A 
ENDROOT
TORSDOF 0
ENDMDL
