MODEL 1
REMARK minimizedAffinity 2.05714107
REMARK minimizedRMSD -1
REMARK  0 active torsions:
REMARK  status: ('A' for Active; 'I' for Inactive)
ROOT
ATOM      1  O1  BZF d   1      -2.627   5.949  -1.190  0.00  0.00    -0.204 OA
ATOM      2  C2  BZF d   1      -3.793   5.941  -1.931  0.00  0.00     0.174 A 
ATOM      3  C3  BZF d   1      -3.521   6.000  -3.251  0.00  0.00    -0.012 A 
ATOM      4  C3A BZF d   1      -2.094   5.955  -3.344  0.00  0.00    -0.107 A 
ATOM      5  C4  BZF d   1      -1.221   5.964  -4.393  0.00  0.00     0.055 A 
ATOM      6  C5  BZF d   1       0.114   5.983  -4.142  0.00  0.00    -0.016 A 
ATOM      7  C6  BZF d   1       0.610   6.000  -2.854  0.00  0.00     0.022 A 
ATOM      8  C7  BZF d   1      -0.217   5.987  -1.781  0.00  0.00     0.029 A 
ATOM      9  C7A BZF d   1      -1.566   5.933  -2.032  0.00  0.00     0.058 A 
ENDROOT
TORSDOF 0
ENDMDL
