MODEL 1
REMARK minimizedAffinity 10.83846
REMARK minimizedRMSD -1
REMARK  0 active torsions:
REMARK  status: ('A' for Active; 'I' for Inactive)
ROOT
ATOM      1  O1  BZF d   1      -0.260   5.938  -1.478  0.00  0.00    -0.204 OA
ATOM      2  C2  BZF d   1      -1.458   5.921  -0.791  0.00  0.00     0.174 A 
ATOM      3  C3  BZF d   1      -2.500   5.976  -1.645  0.00  0.00    -0.012 A 
ATOM      4  C3A BZF d   1      -1.919   5.937  -2.952  0.00  0.00    -0.107 A 
ATOM      5  C4  BZF d   1      -2.442   5.946  -4.213  0.00  0.00     0.055 A 
ATOM      6  C5  BZF d   1      -1.598   5.973  -5.278  0.00  0.00    -0.016 A 
ATOM      7  C6  BZF d   1      -0.228   5.998  -5.118  0.00  0.00     0.022 A 
ATOM      8  C7  BZF d   1       0.338   5.985  -3.887  0.00  0.00     0.029 A 
ATOM      9  C7A BZF d   1      -0.512   5.924  -2.809  0.00  0.00     0.058 A 
ENDROOT
TORSDOF 0
ENDMDL
