MODEL 1
REMARK minimizedAffinity 3.94434738
REMARK minimizedRMSD -1
REMARK  0 active torsions:
REMARK  status: ('A' for Active; 'I' for Inactive)
ROOT
ATOM      1  O1  BZF d   1       0.809  -1.249  -0.065  0.00  0.00    -0.204 OA
ATOM      2  C2  BZF d   1       1.205  -1.430  -1.376  0.00  0.00     0.174 A 
ATOM      3  C3  BZF d   1       1.583  -0.258  -1.927  0.00  0.00    -0.012 A 
ATOM      4  C3A BZF d   1       1.500   0.700  -0.868  0.00  0.00    -0.107 A 
ATOM      5  C4  BZF d   1       1.763   2.038  -0.790  0.00  0.00     0.055 A 
ATOM      6  C5  BZF d   1       1.508   2.694   0.373  0.00  0.00    -0.016 A 
ATOM      7  C6  BZF d   1       0.986   2.046   1.473  0.00  0.00     0.022 A 
ATOM      8  C7  BZF d   1       0.714   0.719   1.445  0.00  0.00     0.029 A 
ATOM      9  C7A BZF d   1       1.001   0.046   0.282  0.00  0.00     0.058 A 
ENDROOT
TORSDOF 0
ENDMDL
