MODEL 1
REMARK minimizedAffinity -0.408141226
REMARK minimizedRMSD -1
REMARK  0 active torsions:
REMARK  status: ('A' for Active; 'I' for Inactive)
ROOT
ATOM      1  O1  BZF d   1      -2.654   5.995  -1.639  0.00  0.00    -0.204 OA
ATOM      2  C2  BZF d   1      -3.855   5.977  -2.322  0.00  0.00     0.174 A 
ATOM      3  C3  BZF d   1      -3.648   6.000  -3.654  0.00  0.00    -0.012 A 
ATOM      4  C3A BZF d   1      -2.227   5.942  -3.815  0.00  0.00    -0.107 A 
ATOM      5  C4  BZF d   1      -1.406   5.917  -4.906  0.00  0.00     0.055 A 
ATOM      6  C5  BZF d   1      -0.060   5.933  -4.721  0.00  0.00    -0.016 A 
ATOM      7  C6  BZF d   1       0.498   5.979  -3.460  0.00  0.00     0.022 A 
ATOM      8  C7  BZF d   1      -0.275   6.000  -2.347  0.00  0.00     0.029 A 
ATOM      9  C7A BZF d   1      -1.636   5.950  -2.531  0.00  0.00     0.058 A 
ENDROOT
TORSDOF 0
ENDMDL
