MODEL 1
REMARK minimizedAffinity 2.4158783
REMARK minimizedRMSD -1
REMARK  0 active torsions:
REMARK  status: ('A' for Active; 'I' for Inactive)
ROOT
ATOM      1  O1  BZF d   1       1.241   3.254   1.820  0.00  0.00    -0.204 OA
ATOM      2  C2  BZF d   1       1.833   3.488   0.594  0.00  0.00     0.174 A 
ATOM      3  C3  BZF d   1       1.764   2.392  -0.189  0.00  0.00    -0.012 A 
ATOM      4  C3A BZF d   1       1.005   1.441   0.563  0.00  0.00    -0.107 A 
ATOM      5  C4  BZF d   1       0.585   0.166   0.312  0.00  0.00     0.055 A 
ATOM      6  C5  BZF d   1      -0.076  -0.516   1.285  0.00  0.00    -0.016 A 
ATOM      7  C6  BZF d   1      -0.329   0.045   2.520  0.00  0.00     0.022 A 
ATOM      8  C7  BZF d   1       0.063   1.308   2.814  0.00  0.00     0.029 A 
ATOM      9  C7A BZF d   1       0.702   2.011   1.821  0.00  0.00     0.058 A 
ENDROOT
TORSDOF 0
ENDMDL
