MODEL 1
REMARK minimizedAffinity 5.83708096
REMARK minimizedRMSD -1
REMARK  0 active torsions:
REMARK  status: ('A' for Active; 'I' for Inactive)
ROOT
ATOM      1  O1  BZF d   1      -2.629   5.970  -0.477  0.00  0.00    -0.204 OA
ATOM      2  C2  BZF d   1      -3.985   5.955  -0.739  0.00  0.00     0.174 A 
ATOM      3  C3  BZF d   1      -4.216   6.000  -2.067  0.00  0.00    -0.012 A 
ATOM      4  C3A BZF d   1      -2.922   5.952  -2.676  0.00  0.00    -0.107 A 
ATOM      5  C4  BZF d   1      -2.494   5.949  -3.973  0.00  0.00     0.055 A 
ATOM      6  C5  BZF d   1      -1.159   5.970  -4.228  0.00  0.00    -0.016 A 
ATOM      7  C6  BZF d   1      -0.226   6.000  -3.212  0.00  0.00     0.022 A 
ATOM      8  C7  BZF d   1      -0.603   5.999  -1.910  0.00  0.00     0.029 A 
ATOM      9  C7A BZF d   1      -1.950   5.944  -1.649  0.00  0.00     0.058 A 
ENDROOT
TORSDOF 0
ENDMDL
