MODEL 1
REMARK minimizedAffinity -1.24706542
REMARK minimizedRMSD -1
REMARK  0 active torsions:
REMARK  status: ('A' for Active; 'I' for Inactive)
ROOT
ATOM      1  O1  BZF d   1      -0.436   5.950  -1.641  0.00  0.00    -0.204 OA
ATOM      2  C2  BZF d   1      -0.861   5.939  -0.326  0.00  0.00     0.174 A 
ATOM      3  C3  BZF d   1      -2.207   5.995  -0.258  0.00  0.00    -0.012 A 
ATOM      4  C3A BZF d   1      -2.654   5.950  -1.617  0.00  0.00    -0.107 A 
ATOM      5  C4  BZF d   1      -3.890   5.958  -2.199  0.00  0.00     0.055 A 
ATOM      6  C5  BZF d   1      -3.981   5.979  -3.554  0.00  0.00    -0.016 A 
ATOM      7  C6  BZF d   1      -2.859   5.999  -4.357  0.00  0.00     0.022 A 
ATOM      8  C7  BZF d   1      -1.613   5.988  -3.826  0.00  0.00     0.029 A 
ATOM      9  C7A BZF d   1      -1.517   5.933  -2.457  0.00  0.00     0.058 A 
ENDROOT
TORSDOF 0
ENDMDL
