MODEL 1
REMARK minimizedAffinity 0.345056057
REMARK minimizedRMSD -1
REMARK  0 active torsions:
REMARK  status: ('A' for Active; 'I' for Inactive)
ROOT
ATOM      1  O1  BZF d   1      -4.134   5.998  -1.833  0.00  0.00    -0.204 OA
ATOM      2  C2  BZF d   1      -4.326   5.995  -0.465  0.00  0.00     0.174 A 
ATOM      3  C3  BZF d   1      -3.147   5.913   0.184  0.00  0.00    -0.012 A 
ATOM      4  C3A BZF d   1      -2.149   5.955  -0.841  0.00  0.00    -0.107 A 
ATOM      5  C4  BZF d   1      -0.784   5.927  -0.825  0.00  0.00     0.055 A 
ATOM      6  C5  BZF d   1      -0.110   5.910  -2.004  0.00  0.00    -0.016 A 
ATOM      7  C6  BZF d   1      -0.767   5.915  -3.217  0.00  0.00     0.022 A 
ATOM      8  C7  BZF d   1      -2.121   5.947  -3.284  0.00  0.00     0.029 A 
ATOM      9  C7A BZF d   1      -2.804   5.998  -2.094  0.00  0.00     0.058 A 
ENDROOT
TORSDOF 0
ENDMDL
