MODEL 1
REMARK minimizedAffinity -0.324395269
REMARK minimizedRMSD -1
REMARK  0 active torsions:
REMARK  status: ('A' for Active; 'I' for Inactive)
ROOT
ATOM      1  O1  BZF d   1      -0.544   5.959  -5.999  0.00  0.00    -0.204 OA
ATOM      2  C2  BZF d   1       0.824   5.948  -5.813  0.00  0.00     0.174 A 
ATOM      3  C3  BZF d   1       1.129   6.000  -4.501  0.00  0.00    -0.012 A 
ATOM      4  C3A BZF d   1      -0.128   5.953  -3.820  0.00  0.00    -0.107 A 
ATOM      5  C4  BZF d   1      -0.483   5.956  -2.501  0.00  0.00     0.055 A 
ATOM      6  C5  BZF d   1      -1.801   5.977  -2.172  0.00  0.00    -0.016 A 
ATOM      7  C6  BZF d   1      -2.790   6.000  -3.133  0.00  0.00     0.022 A 
ATOM      8  C7  BZF d   1      -2.487   5.993  -4.455  0.00  0.00     0.029 A 
ATOM      9  C7A BZF d   1      -1.156   5.939  -4.791  0.00  0.00     0.058 A 
ENDROOT
TORSDOF 0
ENDMDL
