MODEL 1
REMARK minimizedAffinity 4.77972412
REMARK minimizedRMSD -1
REMARK  0 active torsions:
REMARK  status: ('A' for Active; 'I' for Inactive)
ROOT
ATOM      1  O1  BZF d   1       0.392   2.507   1.429  0.00  0.00    -0.204 OA
ATOM      2  C2  BZF d   1       1.484   2.942   0.703  0.00  0.00     0.174 A 
ATOM      3  C3  BZF d   1       1.969   1.950  -0.072  0.00  0.00    -0.012 A 
ATOM      4  C3A BZF d   1       1.070   0.852   0.116  0.00  0.00    -0.107 A 
ATOM      5  C4  BZF d   1       1.011  -0.412  -0.398  0.00  0.00     0.055 A 
ATOM      6  C5  BZF d   1       0.049  -1.261   0.047  0.00  0.00    -0.016 A 
ATOM      7  C6  BZF d   1      -0.867  -0.883   1.007  0.00  0.00     0.022 A 
ATOM      8  C7  BZF d   1      -0.851   0.362   1.543  0.00  0.00     0.029 A 
ATOM      9  C7A BZF d   1       0.100   1.234   1.072  0.00  0.00     0.058 A 
ENDROOT
TORSDOF 0
ENDMDL
