MODEL 1
REMARK minimizedAffinity 8.17045784
REMARK minimizedRMSD -1
REMARK  0 active torsions:
REMARK  status: ('A' for Active; 'I' for Inactive)
ROOT
ATOM      1  O1  BZF d   1       2.035   6.000  -5.337  0.00  0.00    -0.204 OA
ATOM      2  C2  BZF d   1       2.883   5.003  -5.779  0.00  0.00     0.174 A 
ATOM      3  C3  BZF d   1       2.363   3.785  -5.527  0.00  0.00    -0.012 A 
ATOM      4  C3A BZF d   1       1.069   4.037  -4.970  0.00  0.00    -0.107 A 
ATOM      5  C4  BZF d   1       0.062   3.226  -4.532  0.00  0.00     0.055 A 
ATOM      6  C5  BZF d   1      -1.044   3.787  -3.977  0.00  0.00    -0.016 A 
ATOM      7  C6  BZF d   1      -1.174   5.154  -3.840  0.00  0.00     0.022 A 
ATOM      8  C7  BZF d   1      -0.203   5.999  -4.265  0.00  0.00     0.029 A 
ATOM      9  C7A BZF d   1       0.901   5.436  -4.856  0.00  0.00     0.058 A 
ENDROOT
TORSDOF 0
ENDMDL
