MODEL 1
REMARK minimizedAffinity 2.96054745
REMARK minimizedRMSD -1
REMARK  0 active torsions:
REMARK  status: ('A' for Active; 'I' for Inactive)
ROOT
ATOM      1  O1  BZF d   1       0.708   3.167   1.857  0.00  0.00    -0.204 OA
ATOM      2  C2  BZF d   1       1.379   3.254   0.653  0.00  0.00     0.174 A 
ATOM      3  C3  BZF d   1       1.525   2.034   0.097  0.00  0.00    -0.012 A 
ATOM      4  C3A BZF d   1       0.825   1.139   0.966  0.00  0.00    -0.107 A 
ATOM      5  C4  BZF d   1       0.597  -0.208   0.941  0.00  0.00     0.055 A 
ATOM      6  C5  BZF d   1      -0.062  -0.785   1.979  0.00  0.00    -0.016 A 
ATOM      7  C6  BZF d   1      -0.501  -0.049   3.060  0.00  0.00     0.022 A 
ATOM      8  C7  BZF d   1      -0.303   1.290   3.128  0.00  0.00     0.029 A 
ATOM      9  C7A BZF d   1       0.334   1.882   2.064  0.00  0.00     0.058 A 
ENDROOT
TORSDOF 0
ENDMDL
