MODEL 1
REMARK minimizedAffinity -0.290684879
REMARK minimizedRMSD -1
REMARK  0 active torsions:
REMARK  status: ('A' for Active; 'I' for Inactive)
ROOT
ATOM      1  O1  BZF d   1       1.242   5.951  -3.705  0.00  0.00    -0.204 OA
ATOM      2  C2  BZF d   1       1.213   5.942  -5.086  0.00  0.00     0.174 A 
ATOM      3  C3  BZF d   1      -0.057   5.900  -5.537  0.00  0.00    -0.012 A 
ATOM      4  C3A BZF d   1      -0.876   5.976  -4.366  0.00  0.00    -0.107 A 
ATOM      5  C4  BZF d   1      -2.226   5.994  -4.164  0.00  0.00     0.055 A 
ATOM      6  C5  BZF d   1      -2.703   6.000  -2.891  0.00  0.00    -0.016 A 
ATOM      7  C6  BZF d   1      -1.860   5.982  -1.800  0.00  0.00     0.022 A 
ATOM      8  C7  BZF d   1      -0.513   5.969  -1.950  0.00  0.00     0.029 A 
ATOM      9  C7A BZF d   1      -0.028   5.996  -3.235  0.00  0.00     0.058 A 
ENDROOT
TORSDOF 0
ENDMDL
