MODEL 1
REMARK minimizedAffinity 4.69800138
REMARK minimizedRMSD -1
REMARK  0 active torsions:
REMARK  status: ('A' for Active; 'I' for Inactive)
ROOT
ATOM      1  O1  BZF d   1       2.155   0.315   3.443  0.00  0.00    -0.204 OA
ATOM      2  C2  BZF d   1       1.730   0.570   4.733  0.00  0.00     0.174 A 
ATOM      3  C3  BZF d   1       0.399   0.788   4.763  0.00  0.00    -0.012 A 
ATOM      4  C3A BZF d   1      -0.049   0.571   3.422  0.00  0.00    -0.107 A 
ATOM      5  C4  BZF d   1      -1.274   0.622   2.822  0.00  0.00     0.055 A 
ATOM      6  C5  BZF d   1      -1.361   0.430   1.479  0.00  0.00    -0.016 A 
ATOM      7  C6  BZF d   1      -0.243   0.190   0.707  0.00  0.00     0.022 A 
ATOM      8  C7  BZF d   1       0.993   0.126   1.258  0.00  0.00     0.029 A 
ATOM      9  C7A BZF d   1       1.080   0.287   2.619  0.00  0.00     0.058 A 
ENDROOT
TORSDOF 0
ENDMDL
