MODEL 1
REMARK minimizedAffinity 2.30905867
REMARK minimizedRMSD -1
REMARK  0 active torsions:
REMARK  status: ('A' for Active; 'I' for Inactive)
ROOT
ATOM      1  O1  BZF d   1       2.622   3.661  -3.966  0.00  0.00    -0.204 OA
ATOM      2  C2  BZF d   1       1.529   4.258  -4.563  0.00  0.00     0.174 A 
ATOM      3  C3  BZF d   1       1.915   5.267  -5.369  0.00  0.00    -0.012 A 
ATOM      4  C3A BZF d   1       3.346   5.244  -5.342  0.00  0.00    -0.107 A 
ATOM      5  C4  BZF d   1       4.309   5.993  -5.956  0.00  0.00     0.055 A 
ATOM      6  C5  BZF d   1       5.614   5.760  -5.660  0.00  0.00    -0.016 A 
ATOM      7  C6  BZF d   1       5.992   4.792  -4.754  0.00  0.00     0.022 A 
ATOM      8  C7  BZF d   1       5.073   4.020  -4.124  0.00  0.00     0.029 A 
ATOM      9  C7A BZF d   1       3.755   4.230  -4.445  0.00  0.00     0.058 A 
ENDROOT
TORSDOF 0
ENDMDL
