MODEL 1
REMARK minimizedAffinity 2.00953841
REMARK minimizedRMSD -1
REMARK  0 active torsions:
REMARK  status: ('A' for Active; 'I' for Inactive)
ROOT
ATOM      1  O1  BZF d   1      -3.966   5.961  -4.088  0.00  0.00    -0.204 OA
ATOM      2  C2  BZF d   1      -4.685   5.957  -2.908  0.00  0.00     0.174 A 
ATOM      3  C3  BZF d   1      -3.857   5.911  -1.845  0.00  0.00    -0.012 A 
ATOM      4  C3A BZF d   1      -2.537   5.979  -2.392  0.00  0.00    -0.107 A 
ATOM      5  C4  BZF d   1      -1.290   5.991  -1.836  0.00  0.00     0.055 A 
ATOM      6  C5  BZF d   1      -0.203   5.990  -2.651  0.00  0.00    -0.016 A 
ATOM      7  C6  BZF d   1      -0.326   5.972  -4.025  0.00  0.00     0.022 A 
ATOM      8  C7  BZF d   1      -1.543   5.965  -4.623  0.00  0.00     0.029 A 
ATOM      9  C7A BZF d   1      -2.643   5.999  -3.802  0.00  0.00     0.058 A 
ENDROOT
TORSDOF 0
ENDMDL
