MODEL 1
REMARK minimizedAffinity 2.22715759
REMARK minimizedRMSD -1
REMARK  0 active torsions:
REMARK  status: ('A' for Active; 'I' for Inactive)
ROOT
ATOM      1  O1  BZF d   1       1.806   0.526  -2.206  0.00  0.00    -0.204 OA
ATOM      2  C2  BZF d   1       1.442  -0.772  -1.904  0.00  0.00     0.174 A 
ATOM      3  C3  BZF d   1       1.209  -0.909  -0.583  0.00  0.00    -0.012 A 
ATOM      4  C3A BZF d   1       1.352   0.406  -0.037  0.00  0.00    -0.107 A 
ATOM      5  C4  BZF d   1       1.226   0.918   1.222  0.00  0.00     0.055 A 
ATOM      6  C5  BZF d   1       1.504   2.232   1.431  0.00  0.00    -0.016 A 
ATOM      7  C6  BZF d   1       1.914   3.060   0.407  0.00  0.00     0.022 A 
ATOM      8  C7  BZF d   1       2.048   2.598  -0.861  0.00  0.00     0.029 A 
ATOM      9  C7A BZF d   1       1.736   1.279  -1.081  0.00  0.00     0.058 A 
ENDROOT
TORSDOF 0
ENDMDL
