MODEL 1
REMARK minimizedAffinity -0.990975797
REMARK minimizedRMSD -1
REMARK  1 active torsions:
REMARK  status: ('A' for Active; 'I' for Inactive)
REMARK    1  A    between atoms: C1_2  and  C2_3 
ROOT
ATOM      1  C2  UNL d   1       1.084  -0.398   0.675  0.00  0.00    -0.076 A 
ATOM      2  C3  UNL d   1       1.971  -1.352   0.146  0.00  0.00     0.004 A 
ATOM      3  C4  UNL d   1       1.725  -1.953  -1.087  0.00  0.00    -0.003 A 
ATOM      4  C5  UNL d   1       0.589  -1.609  -1.812  0.00  0.00     0.000 A 
ATOM      5  C6  UNL d   1      -0.292  -0.652  -1.310  0.00  0.00     0.000 A 
ATOM      6  C7  UNL d   1      -0.050  -0.024  -0.076  0.00  0.00    -0.073 A 
ATOM      7  C8  UNL d   1      -1.037   0.997   0.419  0.00  0.00     0.078 C 
ENDROOT
BRANCH   1   8
ATOM      8  C1  UNL d   1       1.389   0.201   2.030  0.00  0.00     0.053 C 
ATOM      9  C   UNL d   1       2.053  -0.793   2.970  0.00  0.00     0.018 C 
ENDBRANCH   1   8
TORSDOF 1
ENDMDL
