MODEL 1
REMARK minimizedAffinity -1.78103113
REMARK minimizedRMSD -1
REMARK  1 active torsions:
REMARK  status: ('A' for Active; 'I' for Inactive)
REMARK    1  A    between atoms: C1_2  and  C2_3 
ROOT
ATOM      1  C2  UNL d   1      -0.000  -0.437  -0.013  0.00  0.00    -0.076 A 
ATOM      2  C3  UNL d   1      -0.851   0.649  -0.285  0.00  0.00     0.004 A 
ATOM      3  C4  UNL d   1      -0.456   1.957  -0.006  0.00  0.00    -0.003 A 
ATOM      4  C5  UNL d   1       0.795   2.200   0.550  0.00  0.00     0.000 A 
ATOM      5  C6  UNL d   1       1.658   1.136   0.810  0.00  0.00     0.000 A 
ATOM      6  C7  UNL d   1       1.283  -0.187   0.520  0.00  0.00    -0.073 A 
ATOM      7  C8  UNL d   1       2.251  -1.296   0.827  0.00  0.00     0.078 C 
ENDROOT
BRANCH   1   8
ATOM      8  C1  UNL d   1      -0.493  -1.835  -0.311  0.00  0.00     0.053 C 
ATOM      9  C   UNL d   1      -0.402  -2.181  -1.789  0.00  0.00     0.018 C 
ENDBRANCH   1   8
TORSDOF 1
ENDMDL
