MODEL 1
REMARK minimizedAffinity -6.10822153
REMARK minimizedRMSD -1
REMARK  1 active torsions:
REMARK  status: ('A' for Active; 'I' for Inactive)
REMARK    1  A    between atoms: C1_2  and  C2_3 
ROOT
ATOM      1  C2  UNL d   1       0.283   0.101  -0.295  0.00  0.00    -0.076 A 
ATOM      2  C3  UNL d   1       1.200   0.765   0.538  0.00  0.00     0.004 A 
ATOM      3  C4  UNL d   1       2.272   0.083   1.112  0.00  0.00    -0.003 A 
ATOM      4  C5  UNL d   1       2.444  -1.274   0.862  0.00  0.00     0.000 A 
ATOM      5  C6  UNL d   1       1.554  -1.945   0.023  0.00  0.00     0.000 A 
ATOM      6  C7  UNL d   1       0.478  -1.268  -0.577  0.00  0.00    -0.073 A 
ATOM      7  C8  UNL d   1      -0.455  -2.042  -1.468  0.00  0.00     0.078 C 
ENDROOT
BRANCH   1   8
ATOM      8  C1  UNL d   1      -0.875   0.887  -0.868  0.00  0.00     0.053 C 
ATOM      9  C   UNL d   1      -2.025   1.030   0.117  0.00  0.00     0.018 C 
ENDBRANCH   1   8
TORSDOF 1
ENDMDL
