MODEL 1
REMARK minimizedAffinity -0.96799314
REMARK minimizedRMSD -1
REMARK  1 active torsions:
REMARK  status: ('A' for Active; 'I' for Inactive)
REMARK    1  A    between atoms: C1_2  and  C2_3 
ROOT
ATOM      1  C2  UNL d   1       1.118  -0.324   0.543  0.00  0.00    -0.076 A 
ATOM      2  C3  UNL d   1      -0.098  -0.580  -0.114  0.00  0.00     0.004 A 
ATOM      3  C4  UNL d   1      -0.214  -1.625  -1.028  0.00  0.00    -0.003 A 
ATOM      4  C5  UNL d   1       0.884  -2.433  -1.300  0.00  0.00     0.000 A 
ATOM      5  C6  UNL d   1       2.094  -2.205  -0.645  0.00  0.00     0.000 A 
ATOM      6  C7  UNL d   1       2.224  -1.165   0.292  0.00  0.00    -0.073 A 
ATOM      7  C8  UNL d   1       3.553  -0.961   0.964  0.00  0.00     0.078 C 
ENDROOT
BRANCH   1   8
ATOM      8  C1  UNL d   1       1.192   0.841   1.504  0.00  0.00     0.053 C 
ATOM      9  C   UNL d   1       1.823   2.074   0.877  0.00  0.00     0.018 C 
ENDBRANCH   1   8
TORSDOF 1
ENDMDL
