MODEL 1
REMARK minimizedAffinity -0.89067179
REMARK minimizedRMSD -1
REMARK  1 active torsions:
REMARK  status: ('A' for Active; 'I' for Inactive)
REMARK    1  A    between atoms: C1_2  and  C2_3 
ROOT
ATOM      1  C2  UNL d   1      -0.071  -0.104  -0.082  0.00  0.00    -0.076 A 
ATOM      2  C3  UNL d   1      -0.083  -1.495   0.120  0.00  0.00     0.004 A 
ATOM      3  C4  UNL d   1       1.073  -2.175   0.500  0.00  0.00    -0.003 A 
ATOM      4  C5  UNL d   1       2.260  -1.475   0.685  0.00  0.00     0.000 A 
ATOM      5  C6  UNL d   1       2.286  -0.092   0.506  0.00  0.00     0.000 A 
ATOM      6  C7  UNL d   1       1.125   0.611   0.139  0.00  0.00    -0.073 A 
ATOM      7  C8  UNL d   1       1.212   2.101  -0.047  0.00  0.00     0.078 C 
ENDROOT
BRANCH   1   8
ATOM      8  C1  UNL d   1      -1.349   0.575  -0.520  0.00  0.00     0.053 C 
ATOM      9  C   UNL d   1      -2.264   0.904   0.649  0.00  0.00     0.018 C 
ENDBRANCH   1   8
TORSDOF 1
ENDMDL
