MODEL 1
REMARK minimizedAffinity 15.03862
REMARK minimizedRMSD -1
REMARK  0 active torsions:
REMARK  status: ('A' for Active; 'I' for Inactive)
ROOT
ATOM      1  C   UNL d   1       2.553   0.094  -0.400  0.00  0.00     0.124 A 
ATOM      2  C1  UNL d   1       1.946  -1.103  -0.757  0.00  0.00     0.062 A 
ATOM      3  C2  UNL d   1       0.560  -1.223  -0.721  0.00  0.00     0.162 A 
ATOM      4  C3  UNL d   1      -0.230  -0.143  -0.327  0.00  0.00    -0.034 A 
ATOM      5  C4  UNL d   1       0.388   1.057   0.032  0.00  0.00     0.162 A 
ATOM      6  C5  UNL d   1       1.773   1.172  -0.005  0.00  0.00     0.062 A 
ATOM      7  F   UNL d   1       2.358   2.328   0.340  0.00  0.00    -0.097 F 
ATOM      8  F1  UNL d   1      -0.342   2.115   0.416  0.00  0.00    -0.096 F 
ATOM      9  I   UNL d   1      -2.303  -0.318  -0.271  0.00  0.00    -0.060 I 
ATOM     10  F2  UNL d   1       0.001  -2.390  -1.072  0.00  0.00    -0.096 F 
ATOM     11  F3  UNL d   1       2.697  -2.146  -1.137  0.00  0.00    -0.097 F 
ATOM     12  F4  UNL d   1       3.887   0.206  -0.434  0.00  0.00    -0.092 F 
ENDROOT
TORSDOF 0
ENDMDL
