MODEL 1
REMARK minimizedAffinity 5.68087626
REMARK minimizedRMSD -1
REMARK  0 active torsions:
REMARK  status: ('A' for Active; 'I' for Inactive)
ROOT
ATOM      1  C   UNL d   1       1.053  -1.967  -0.630  0.00  0.00     0.124 A 
ATOM      2  C1  UNL d   1       0.682  -0.651  -0.395  0.00  0.00     0.062 A 
ATOM      3  C2  UNL d   1       1.651   0.344  -0.303  0.00  0.00     0.162 A 
ATOM      4  C3  UNL d   1       3.001   0.027  -0.448  0.00  0.00    -0.034 A 
ATOM      5  C4  UNL d   1       3.367  -1.300  -0.684  0.00  0.00     0.162 A 
ATOM      6  C5  UNL d   1       2.395  -2.290  -0.775  0.00  0.00     0.062 A 
ATOM      7  F   UNL d   1       2.756  -3.562  -1.002  0.00  0.00    -0.097 F 
ATOM      8  F1  UNL d   1       4.657  -1.640  -0.828  0.00  0.00    -0.096 F 
ATOM      9  I   UNL d   1       4.453   1.512  -0.312  0.00  0.00    -0.060 I 
ATOM     10  F2  UNL d   1       1.263   1.608  -0.075  0.00  0.00    -0.096 F 
ATOM     11  F3  UNL d   1      -0.614  -0.336  -0.254  0.00  0.00    -0.097 F 
ATOM     12  F4  UNL d   1       0.119  -2.923  -0.717  0.00  0.00    -0.092 F 
ENDROOT
TORSDOF 0
ENDMDL
