MODEL 1
REMARK minimizedAffinity 15.6333694
REMARK minimizedRMSD -1
REMARK  0 active torsions:
REMARK  status: ('A' for Active; 'I' for Inactive)
ROOT
ATOM      1  C   UNL d   1      -0.099  -0.658   0.395  0.00  0.00     0.124 A 
ATOM      2  C1  UNL d   1      -0.662  -1.072  -0.804  0.00  0.00     0.062 A 
ATOM      3  C2  UNL d   1       0.113  -1.739  -1.748  0.00  0.00     0.162 A 
ATOM      4  C3  UNL d   1       1.461  -1.998  -1.496  0.00  0.00    -0.034 A 
ATOM      5  C4  UNL d   1       2.021  -1.577  -0.289  0.00  0.00     0.162 A 
ATOM      6  C5  UNL d   1       1.242  -0.911   0.652  0.00  0.00     0.062 A 
ATOM      7  F   UNL d   1       1.788  -0.511   1.809  0.00  0.00    -0.097 F 
ATOM      8  F1  UNL d   1       3.313  -1.809  -0.014  0.00  0.00    -0.096 F 
ATOM      9  I   UNL d   1       2.624  -2.995  -2.905  0.00  0.00    -0.060 I 
ATOM     10  F2  UNL d   1      -0.457  -2.128  -2.898  0.00  0.00    -0.096 F 
ATOM     11  F3  UNL d   1      -1.956  -0.828  -1.055  0.00  0.00    -0.097 F 
ATOM     12  F4  UNL d   1      -0.847  -0.015   1.301  0.00  0.00    -0.092 F 
ENDROOT
TORSDOF 0
ENDMDL
