MODEL 1
REMARK minimizedAffinity 0.953314662
REMARK minimizedRMSD -1
REMARK  0 active torsions:
REMARK  status: ('A' for Active; 'I' for Inactive)
ROOT
ATOM      1  C   UNL d   1       2.561  -0.920  -0.472  0.00  0.00     0.124 A 
ATOM      2  C1  UNL d   1       2.331   0.426  -0.223  0.00  0.00     0.062 A 
ATOM      3  C2  UNL d   1       1.031   0.896  -0.058  0.00  0.00     0.162 A 
ATOM      4  C3  UNL d   1      -0.050   0.018  -0.142  0.00  0.00    -0.034 A 
ATOM      5  C4  UNL d   1       0.189  -1.334  -0.394  0.00  0.00     0.162 A 
ATOM      6  C5  UNL d   1       1.490  -1.799  -0.557  0.00  0.00     0.062 A 
ATOM      7  F   UNL d   1       1.710  -3.099  -0.798  0.00  0.00    -0.097 F 
ATOM      8  F1  UNL d   1      -0.827  -2.205  -0.480  0.00  0.00    -0.096 F 
ATOM      9  I   UNL d   1      -1.995   0.716   0.103  0.00  0.00    -0.060 I 
ATOM     10  F2  UNL d   1       0.839   2.201   0.181  0.00  0.00    -0.096 F 
ATOM     11  F3  UNL d   1       3.364   1.277  -0.141  0.00  0.00    -0.097 F 
ATOM     12  F4  UNL d   1       3.812  -1.369  -0.630  0.00  0.00    -0.092 F 
ENDROOT
TORSDOF 0
ENDMDL
