MODEL 1
REMARK minimizedAffinity 3.40737867
REMARK minimizedRMSD -1
REMARK  0 active torsions:
REMARK  status: ('A' for Active; 'I' for Inactive)
ROOT
ATOM      1  C   UNL d   1       2.938  -1.577  -1.245  0.00  0.00     0.124 A 
ATOM      2  C1  UNL d   1       1.908  -2.059  -0.450  0.00  0.00     0.062 A 
ATOM      3  C2  UNL d   1       1.368  -1.263   0.556  0.00  0.00     0.162 A 
ATOM      4  C3  UNL d   1       1.858   0.025   0.773  0.00  0.00    -0.034 A 
ATOM      5  C4  UNL d   1       2.895   0.503  -0.030  0.00  0.00     0.162 A 
ATOM      6  C5  UNL d   1       3.431  -0.297  -1.034  0.00  0.00     0.062 A 
ATOM      7  F   UNL d   1       4.427   0.171  -1.801  0.00  0.00    -0.097 F 
ATOM      8  F1  UNL d   1       3.389   1.737   0.151  0.00  0.00    -0.096 F 
ATOM      9  I   UNL d   1       1.054   1.219   2.276  0.00  0.00    -0.060 I 
ATOM     10  F2  UNL d   1       0.373  -1.755   1.309  0.00  0.00    -0.096 F 
ATOM     11  F3  UNL d   1       1.431  -3.296  -0.651  0.00  0.00    -0.097 F 
ATOM     12  F4  UNL d   1       3.456  -2.346  -2.211  0.00  0.00    -0.092 F 
ENDROOT
TORSDOF 0
ENDMDL
