MODEL 1
REMARK minimizedAffinity 17.5213013
REMARK minimizedRMSD -1
REMARK  0 active torsions:
REMARK  status: ('A' for Active; 'I' for Inactive)
ROOT
ATOM      1  C   UNL d   1       1.857  -1.059  -0.538  0.00  0.00     0.124 A 
ATOM      2  C1  UNL d   1       0.996  -2.061  -0.964  0.00  0.00     0.062 A 
ATOM      3  C2  UNL d   1      -0.381  -1.900  -0.839  0.00  0.00     0.162 A 
ATOM      4  C3  UNL d   1      -0.906  -0.731  -0.287  0.00  0.00    -0.034 A 
ATOM      5  C4  UNL d   1      -0.033   0.271   0.140  0.00  0.00     0.162 A 
ATOM      6  C5  UNL d   1       1.342   0.105   0.013  0.00  0.00     0.062 A 
ATOM      7  F   UNL d   1       2.173   1.074   0.425  0.00  0.00    -0.097 F 
ATOM      8  F1  UNL d   1      -0.503   1.407   0.676  0.00  0.00    -0.096 F 
ATOM      9  I   UNL d   1      -2.964  -0.486  -0.098  0.00  0.00    -0.060 I 
ATOM     10  F2  UNL d   1      -1.190  -2.884  -1.259  0.00  0.00    -0.096 F 
ATOM     11  F3  UNL d   1       1.491  -3.187  -1.497  0.00  0.00    -0.097 F 
ATOM     12  F4  UNL d   1       3.182  -1.217  -0.659  0.00  0.00    -0.092 F 
ENDROOT
TORSDOF 0
ENDMDL
