MODEL 1
REMARK minimizedAffinity 14.655098
REMARK minimizedRMSD -1
REMARK  0 active torsions:
REMARK  status: ('A' for Active; 'I' for Inactive)
ROOT
ATOM      1  C   UNL d   1       4.067  -1.457  -2.204  0.00  0.00     0.124 A 
ATOM      2  C1  UNL d   1       3.526  -2.724  -2.371  0.00  0.00     0.062 A 
ATOM      3  C2  UNL d   1       2.300  -3.042  -1.794  0.00  0.00     0.162 A 
ATOM      4  C3  UNL d   1       1.606  -2.092  -1.045  0.00  0.00    -0.034 A 
ATOM      5  C4  UNL d   1       2.158  -0.820  -0.880  0.00  0.00     0.162 A 
ATOM      6  C5  UNL d   1       3.383  -0.506  -1.459  0.00  0.00     0.062 A 
ATOM      7  F   UNL d   1       3.906   0.718  -1.296  0.00  0.00    -0.097 F 
ATOM      8  F1  UNL d   1       1.518   0.118  -0.166  0.00  0.00    -0.096 F 
ATOM      9  I   UNL d   1      -0.227  -2.564  -0.180  0.00  0.00    -0.060 I 
ATOM     10  F2  UNL d   1       1.800  -4.274  -1.972  0.00  0.00    -0.096 F 
ATOM     11  F3  UNL d   1       4.185  -3.644  -3.089  0.00  0.00    -0.097 F 
ATOM     12  F4  UNL d   1       5.248  -1.153  -2.759  0.00  0.00    -0.092 F 
ENDROOT
TORSDOF 0
ENDMDL
