MODEL 1
REMARK minimizedAffinity 11.0244894
REMARK minimizedRMSD -1
REMARK  0 active torsions:
REMARK  status: ('A' for Active; 'I' for Inactive)
ROOT
ATOM      1  C   UNL d   1      -0.147  -2.404  -0.772  0.00  0.00     0.124 A 
ATOM      2  C1  UNL d   1      -0.415  -1.043  -0.741  0.00  0.00     0.062 A 
ATOM      3  C2  UNL d   1       0.630  -0.125  -0.682  0.00  0.00     0.162 A 
ATOM      4  C3  UNL d   1       1.953  -0.566  -0.654  0.00  0.00    -0.034 A 
ATOM      5  C4  UNL d   1       2.215  -1.937  -0.685  0.00  0.00     0.162 A 
ATOM      6  C5  UNL d   1       1.167  -2.850  -0.744  0.00  0.00     0.062 A 
ATOM      7  F   UNL d   1       1.428  -4.165  -0.773  0.00  0.00    -0.097 F 
ATOM      8  F1  UNL d   1       3.475  -2.395  -0.660  0.00  0.00    -0.096 F 
ATOM      9  I   UNL d   1       3.518   0.803  -0.566  0.00  0.00    -0.060 I 
ATOM     10  F2  UNL d   1       0.342   1.185  -0.653  0.00  0.00    -0.096 F 
ATOM     11  F3  UNL d   1      -1.683  -0.610  -0.767  0.00  0.00    -0.097 F 
ATOM     12  F4  UNL d   1      -1.154  -3.285  -0.827  0.00  0.00    -0.092 F 
ENDROOT
TORSDOF 0
ENDMDL
