MODEL 1
REMARK minimizedAffinity 16.2301464
REMARK minimizedRMSD -1
REMARK  0 active torsions:
REMARK  status: ('A' for Active; 'I' for Inactive)
ROOT
ATOM      1  C   UNL d   1       2.313  -2.928  -2.357  0.00  0.00     0.124 A 
ATOM      2  C1  UNL d   1       1.246  -2.966  -3.243  0.00  0.00     0.062 A 
ATOM      3  C2  UNL d   1       0.027  -2.392  -2.896  0.00  0.00     0.162 A 
ATOM      4  C3  UNL d   1      -0.132  -1.773  -1.656  0.00  0.00    -0.034 A 
ATOM      5  C4  UNL d   1       0.946  -1.739  -0.769  0.00  0.00     0.162 A 
ATOM      6  C5  UNL d   1       2.162  -2.315  -1.121  0.00  0.00     0.062 A 
ATOM      7  F   UNL d   1       3.192  -2.277  -0.263  0.00  0.00    -0.097 F 
ATOM      8  F1  UNL d   1       0.828  -1.153   0.431  0.00  0.00    -0.096 F 
ATOM      9  I   UNL d   1      -1.954  -0.913  -1.133  0.00  0.00    -0.060 I 
ATOM     10  F2  UNL d   1      -0.988  -2.443  -3.772  0.00  0.00    -0.096 F 
ATOM     11  F3  UNL d   1       1.389  -3.559  -4.438  0.00  0.00    -0.097 F 
ATOM     12  F4  UNL d   1       3.485  -3.482  -2.693  0.00  0.00    -0.092 F 
ENDROOT
TORSDOF 0
ENDMDL
