MODEL 1
REMARK minimizedAffinity 2.68627167
REMARK minimizedRMSD -1
REMARK  0 active torsions:
REMARK  status: ('A' for Active; 'I' for Inactive)
ROOT
ATOM      1  C   UNL d   1       2.330  -0.327   0.030  0.00  0.00     0.124 A 
ATOM      2  C1  UNL d   1       1.785   0.950   0.046  0.00  0.00     0.062 A 
ATOM      3  C2  UNL d   1       0.421   1.132  -0.161  0.00  0.00     0.162 A 
ATOM      4  C3  UNL d   1      -0.409   0.033  -0.384  0.00  0.00    -0.034 A 
ATOM      5  C4  UNL d   1       0.146  -1.248  -0.400  0.00  0.00     0.162 A 
ATOM      6  C5  UNL d   1       1.510  -1.424  -0.192  0.00  0.00     0.062 A 
ATOM      7  F   UNL d   1       2.035  -2.658  -0.208  0.00  0.00    -0.097 F 
ATOM      8  F1  UNL d   1      -0.623  -2.326  -0.612  0.00  0.00    -0.096 F 
ATOM      9  I   UNL d   1      -2.450   0.300  -0.694  0.00  0.00    -0.060 I 
ATOM     10  F2  UNL d   1      -0.078   2.376  -0.140  0.00  0.00    -0.096 F 
ATOM     11  F3  UNL d   1       2.576   2.012   0.260  0.00  0.00    -0.097 F 
ATOM     12  F4  UNL d   1       3.643  -0.498   0.229  0.00  0.00    -0.092 F 
ENDROOT
TORSDOF 0
ENDMDL
