MODEL 1
REMARK minimizedAffinity 20.0625248
REMARK minimizedRMSD -1
REMARK  0 active torsions:
REMARK  status: ('A' for Active; 'I' for Inactive)
ROOT
ATOM      1  C   UNL d   1       2.625  -0.125  -0.707  0.00  0.00     0.124 A 
ATOM      2  C1  UNL d   1       2.122  -1.356  -0.310  0.00  0.00     0.062 A 
ATOM      3  C2  UNL d   1       1.624  -1.527   0.978  0.00  0.00     0.162 A 
ATOM      4  C3  UNL d   1       1.625  -0.462   1.880  0.00  0.00    -0.034 A 
ATOM      5  C4  UNL d   1       2.132   0.773   1.474  0.00  0.00     0.162 A 
ATOM      6  C5  UNL d   1       2.629   0.939   0.185  0.00  0.00     0.062 A 
ATOM      7  F   UNL d   1       3.114   2.129  -0.197  0.00  0.00    -0.097 F 
ATOM      8  F1  UNL d   1       2.148   1.818   2.315  0.00  0.00    -0.096 F 
ATOM      9  I   UNL d   1       0.881  -0.714   3.807  0.00  0.00    -0.060 I 
ATOM     10  F2  UNL d   1       1.145  -2.728   1.334  0.00  0.00    -0.096 F 
ATOM     11  F3  UNL d   1       2.118  -2.385  -1.170  0.00  0.00    -0.097 F 
ATOM     12  F4  UNL d   1       3.104   0.037  -1.947  0.00  0.00    -0.092 F 
ENDROOT
TORSDOF 0
ENDMDL
