MODEL 1
REMARK minimizedAffinity -2.90575171
REMARK minimizedRMSD -1
REMARK  1 active torsions:
REMARK  status: ('A' for Active; 'I' for Inactive)
REMARK    1  A    between atoms: C1_2  and  C2_3 
ROOT
ATOM      1  C2  UNL d   1       0.040  -1.441  -1.036  0.00  0.00    -0.076 A 
ATOM      2  C3  UNL d   1       0.524  -0.317  -0.344  0.00  0.00     0.004 A 
ATOM      3  C4  UNL d   1       0.097   0.968  -0.675  0.00  0.00    -0.003 A 
ATOM      4  C5  UNL d   1      -0.821   1.150  -1.703  0.00  0.00     0.000 A 
ATOM      5  C6  UNL d   1      -1.325   0.045  -2.388  0.00  0.00     0.000 A 
ATOM      6  C7  UNL d   1      -0.918  -1.259  -2.056  0.00  0.00    -0.073 A 
ATOM      7  C8  UNL d   1      -1.489  -2.414  -2.832  0.00  0.00     0.078 C 
ENDROOT
BRANCH   1   8
ATOM      8  C1  UNL d   1       0.560  -2.808  -0.650  0.00  0.00     0.053 C 
ATOM      9  C   UNL d   1       1.563  -2.749   0.491  0.00  0.00     0.018 C 
ENDBRANCH   1   8
TORSDOF 1
ENDMDL
