MODEL 1
REMARK minimizedAffinity -1.93128276
REMARK minimizedRMSD -1
REMARK  1 active torsions:
REMARK  status: ('A' for Active; 'I' for Inactive)
REMARK    1  A    between atoms: C1_2  and  C2_3 
ROOT
ATOM      1  C2  UNL d   1       0.488  -2.588   3.966  0.00  0.00    -0.076 A 
ATOM      2  C3  UNL d   1       0.001  -2.638   5.284  0.00  0.00     0.004 A 
ATOM      3  C4  UNL d   1      -0.049  -3.842   5.984  0.00  0.00    -0.003 A 
ATOM      4  C5  UNL d   1       0.387  -5.015   5.379  0.00  0.00     0.000 A 
ATOM      5  C6  UNL d   1       0.890  -4.981   4.079  0.00  0.00     0.000 A 
ATOM      6  C7  UNL d   1       0.963  -3.773   3.364  0.00  0.00    -0.073 A 
ATOM      7  C8  UNL d   1       1.508  -3.795   1.963  0.00  0.00     0.078 C 
ENDROOT
BRANCH   1   8
ATOM      8  C1  UNL d   1       0.494  -1.258   3.246  0.00  0.00     0.053 C 
ATOM      9  C   UNL d   1       1.698  -0.404   3.610  0.00  0.00     0.018 C 
ENDBRANCH   1   8
TORSDOF 1
ENDMDL
