MODEL 1
REMARK minimizedAffinity 13.6305618
REMARK minimizedRMSD -1
REMARK  1 active torsions:
REMARK  status: ('A' for Active; 'I' for Inactive)
REMARK    1  A    between atoms: C1_2  and  C2_3 
ROOT
ATOM      1  C2  UNL d   1       3.408   1.694   0.485  0.00  0.00    -0.076 A 
ATOM      2  C3  UNL d   1       2.911   0.458   0.936  0.00  0.00     0.004 A 
ATOM      3  C4  UNL d   1       2.579  -0.553   0.036  0.00  0.00    -0.003 A 
ATOM      4  C5  UNL d   1       2.738  -0.345  -1.330  0.00  0.00     0.000 A 
ATOM      5  C6  UNL d   1       3.246   0.868  -1.794  0.00  0.00     0.000 A 
ATOM      6  C7  UNL d   1       3.602   1.892  -0.899  0.00  0.00    -0.073 A 
ATOM      7  C8  UNL d   1       4.139   3.182  -1.454  0.00  0.00     0.078 C 
ENDROOT
BRANCH   1   8
ATOM      8  C1  UNL d   1       3.725   2.762   1.506  0.00  0.00     0.053 C 
ATOM      9  C   UNL d   1       3.512   2.285   2.935  0.00  0.00     0.018 C 
ENDBRANCH   1   8
TORSDOF 1
ENDMDL
