MODEL 1
REMARK minimizedAffinity 12.6497917
REMARK minimizedRMSD -1
REMARK  1 active torsions:
REMARK  status: ('A' for Active; 'I' for Inactive)
REMARK    1  A    between atoms: C1_2  and  C2_3 
ROOT
ATOM      1  C2  UNL d   1       4.532   3.078   0.321  0.00  0.00    -0.076 A 
ATOM      2  C3  UNL d   1       4.203   2.977  -1.042  0.00  0.00     0.004 A 
ATOM      3  C4  UNL d   1       3.656   1.806  -1.563  0.00  0.00    -0.003 A 
ATOM      4  C5  UNL d   1       3.427   0.717  -0.729  0.00  0.00     0.000 A 
ATOM      5  C6  UNL d   1       3.730   0.806   0.629  0.00  0.00     0.000 A 
ATOM      6  C7  UNL d   1       4.268   1.985   1.174  0.00  0.00    -0.073 A 
ATOM      7  C8  UNL d   1       4.581   2.024   2.644  0.00  0.00     0.078 C 
ENDROOT
BRANCH   1   8
ATOM      8  C1  UNL d   1       5.148   4.364   0.824  0.00  0.00     0.053 C 
ATOM      9  C   UNL d   1       5.785   5.180  -0.290  0.00  0.00     0.018 C 
ENDBRANCH   1   8
TORSDOF 1
ENDMDL
