MODEL 1
REMARK minimizedAffinity 0.348752856
REMARK minimizedRMSD -1
REMARK  0 active torsions:
REMARK  status: ('A' for Active; 'I' for Inactive)
ROOT
ATOM      1  C   UNL d   1       0.969  -2.183   2.477  0.00  0.00     0.172 C 
ATOM      2  N   UNL d   1       0.053  -2.979   1.695  0.00  0.00    -0.070 N 
ATOM      3  C1  UNL d   1       0.407  -3.955   0.801  0.00  0.00    -0.004 A 
ATOM      4  C2  UNL d   1      -0.751  -4.476   0.266  0.00  0.00    -0.047 A 
ATOM      5  C3  UNL d   1      -1.838  -3.789   0.857  0.00  0.00    -0.047 A 
ATOM      6  C4  UNL d   1      -1.311  -2.868   1.738  0.00  0.00    -0.004 A 
ENDROOT
TORSDOF 0
ENDMDL
