MODEL 1
REMARK minimizedAffinity 1.3593359
REMARK minimizedRMSD -1
REMARK  0 active torsions:
REMARK  status: ('A' for Active; 'I' for Inactive)
ROOT
ATOM      1  C   UNL d   1       1.311   3.751  -2.900  0.00  0.00     0.172 C 
ATOM      2  N   UNL d   1       0.534   4.314  -3.980  0.00  0.00    -0.070 N 
ATOM      3  C1  UNL d   1      -0.760   4.752  -3.888  0.00  0.00    -0.004 A 
ATOM      4  C2  UNL d   1      -1.138   5.215  -5.130  0.00  0.00    -0.047 A 
ATOM      5  C3  UNL d   1      -0.034   5.048  -5.998  0.00  0.00    -0.047 A 
ATOM      6  C4  UNL d   1       0.988   4.488  -5.260  0.00  0.00    -0.004 A 
ENDROOT
TORSDOF 0
ENDMDL
