MODEL 1
REMARK minimizedAffinity -1.41233909
REMARK minimizedRMSD -1
REMARK  0 active torsions:
REMARK  status: ('A' for Active; 'I' for Inactive)
ROOT
ATOM      1  C   UNL d   1      -5.967   0.518  -5.870  0.00  0.00     0.172 C 
ATOM      2  N   UNL d   1      -5.976   0.682  -4.435  0.00  0.00    -0.070 N 
ATOM      3  C1  UNL d   1      -5.997   1.878  -3.769  0.00  0.00    -0.004 A 
ATOM      4  C2  UNL d   1      -6.000   1.608  -2.417  0.00  0.00    -0.047 A 
ATOM      5  C3  UNL d   1      -5.979   0.201  -2.266  0.00  0.00    -0.047 A 
ATOM      6  C4  UNL d   1      -5.964  -0.347  -3.531  0.00  0.00    -0.004 A 
ENDROOT
TORSDOF 0
ENDMDL
