MODEL 1
REMARK minimizedAffinity 2.63414645
REMARK minimizedRMSD -1
REMARK  0 active torsions:
REMARK  status: ('A' for Active; 'I' for Inactive)
ROOT
ATOM      1  C   UNL d   1       1.490   3.752  -3.046  0.00  0.00     0.172 C 
ATOM      2  N   UNL d   1       0.680   4.304  -4.108  0.00  0.00    -0.070 N 
ATOM      3  C1  UNL d   1       1.154   4.905  -5.243  0.00  0.00    -0.004 A 
ATOM      4  C2  UNL d   1       0.069   5.293  -5.999  0.00  0.00    -0.047 A 
ATOM      5  C3  UNL d   1      -1.097   4.913  -5.293  0.00  0.00    -0.047 A 
ATOM      6  C4  UNL d   1      -0.690   4.303  -4.126  0.00  0.00    -0.004 A 
ENDROOT
TORSDOF 0
ENDMDL
