MODEL 1
REMARK minimizedAffinity -1.42154908
REMARK minimizedRMSD -1
REMARK  0 active torsions:
REMARK  status: ('A' for Active; 'I' for Inactive)
ROOT
ATOM      1  C   UNL d   1      -2.617  -5.595  -3.712  0.00  0.00     0.172 C 
ATOM      2  N   UNL d   1      -3.873  -5.521  -4.422  0.00  0.00    -0.070 N 
ATOM      3  C1  UNL d   1      -4.106  -6.000  -5.683  0.00  0.00    -0.004 A 
ATOM      4  C2  UNL d   1      -5.421  -5.737  -5.998  0.00  0.00    -0.047 A 
ATOM      5  C3  UNL d   1      -5.999  -5.076  -4.888  0.00  0.00    -0.047 A 
ATOM      6  C4  UNL d   1      -5.018  -4.956  -3.926  0.00  0.00    -0.004 A 
ENDROOT
TORSDOF 0
ENDMDL
