MODEL 1
REMARK minimizedAffinity 3.07285571
REMARK minimizedRMSD -1
REMARK  0 active torsions:
REMARK  status: ('A' for Active; 'I' for Inactive)
ROOT
ATOM      1  C   UNL d   1      -5.988  -0.808  -3.409  0.00  0.00     0.172 C 
ATOM      2  N   UNL d   1      -5.942   0.377  -4.232  0.00  0.00    -0.070 N 
ATOM      3  C1  UNL d   1      -5.835   0.398  -5.597  0.00  0.00    -0.004 A 
ATOM      4  C2  UNL d   1      -5.824   1.716  -6.000  0.00  0.00    -0.047 A 
ATOM      5  C3  UNL d   1      -5.928   2.515  -4.837  0.00  0.00    -0.047 A 
ATOM      6  C4  UNL d   1      -6.000   1.661  -3.756  0.00  0.00    -0.004 A 
ENDROOT
TORSDOF 0
ENDMDL
