MODEL 1
REMARK minimizedAffinity -0.197620064
REMARK minimizedRMSD -1
REMARK  0 active torsions:
REMARK  status: ('A' for Active; 'I' for Inactive)
ROOT
ATOM      1  C   UNL d   1       1.494   4.284  -3.043  0.00  0.00     0.172 C 
ATOM      2  N   UNL d   1       0.740   4.710  -4.199  0.00  0.00    -0.070 N 
ATOM      3  C1  UNL d   1       1.057   5.762  -5.016  0.00  0.00    -0.004 A 
ATOM      4  C2  UNL d   1       0.094   5.838  -5.999  0.00  0.00    -0.047 A 
ATOM      5  C3  UNL d   1      -0.834   4.796  -5.764  0.00  0.00    -0.047 A 
ATOM      6  C4  UNL d   1      -0.410   4.113  -4.644  0.00  0.00    -0.004 A 
ENDROOT
TORSDOF 0
ENDMDL
