MODEL 1
REMARK minimizedAffinity 0.0762455091
REMARK minimizedRMSD -1
REMARK  0 active torsions:
REMARK  status: ('A' for Active; 'I' for Inactive)
ROOT
ATOM      1  C   UNL d   1      -2.442  -5.776  -4.876  0.00  0.00     0.172 C 
ATOM      2  N   UNL d   1      -3.884  -5.843  -4.885  0.00  0.00    -0.070 N 
ATOM      3  C1  UNL d   1      -4.672  -5.950  -6.000  0.00  0.00    -0.004 A 
ATOM      4  C2  UNL d   1      -5.986  -5.985  -5.587  0.00  0.00    -0.047 A 
ATOM      5  C3  UNL d   1      -5.989  -5.894  -4.174  0.00  0.00    -0.047 A 
ATOM      6  C4  UNL d   1      -4.674  -5.807  -3.766  0.00  0.00    -0.004 A 
ENDROOT
TORSDOF 0
ENDMDL
