MODEL 1
REMARK minimizedAffinity -0.922652423
REMARK minimizedRMSD -1
REMARK  0 active torsions:
REMARK  status: ('A' for Active; 'I' for Inactive)
ROOT
ATOM      1  C   UNL d   1      -0.185   5.133  -6.000  0.00  0.00     0.172 C 
ATOM      2  N   UNL d   1       0.579   4.565  -4.914  0.00  0.00    -0.070 N 
ATOM      3  C1  UNL d   1       1.829   4.964  -4.523  0.00  0.00    -0.004 A 
ATOM      4  C2  UNL d   1       2.209   4.178  -3.456  0.00  0.00    -0.047 A 
ATOM      5  C3  UNL d   1       1.150   3.276  -3.197  0.00  0.00    -0.047 A 
ATOM      6  C4  UNL d   1       0.154   3.537  -4.114  0.00  0.00    -0.004 A 
ENDROOT
TORSDOF 0
ENDMDL
