MODEL 1
REMARK minimizedAffinity 0.45964247
REMARK minimizedRMSD -1
REMARK  0 active torsions:
REMARK  status: ('A' for Active; 'I' for Inactive)
ROOT
ATOM      1  C   UNL d   1       1.457   3.733  -2.864  0.00  0.00     0.172 C 
ATOM      2  N   UNL d   1       0.870   4.301  -4.055  0.00  0.00    -0.070 N 
ATOM      3  C1  UNL d   1      -0.458   4.264  -4.387  0.00  0.00    -0.004 A 
ATOM      4  C2  UNL d   1      -0.610   4.914  -5.592  0.00  0.00    -0.047 A 
ATOM      5  C3  UNL d   1       0.671   5.357  -6.000  0.00  0.00    -0.047 A 
ATOM      6  C4  UNL d   1       1.569   4.964  -5.030  0.00  0.00    -0.004 A 
ENDROOT
TORSDOF 0
ENDMDL
