MODEL 1
REMARK minimizedAffinity 0.407568187
REMARK minimizedRMSD -1
REMARK  0 active torsions:
REMARK  status: ('A' for Active; 'I' for Inactive)
ROOT
ATOM      1  C   UNL d   1       1.485   3.738  -3.010  0.00  0.00     0.172 C 
ATOM      2  N   UNL d   1       0.867   4.493  -4.075  0.00  0.00    -0.070 N 
ATOM      3  C1  UNL d   1      -0.425   4.947  -4.086  0.00  0.00    -0.004 A 
ATOM      4  C2  UNL d   1      -0.626   5.619  -5.272  0.00  0.00    -0.047 A 
ATOM      5  C3  UNL d   1       0.587   5.566  -6.000  0.00  0.00    -0.047 A 
ATOM      6  C4  UNL d   1       1.494   4.863  -5.236  0.00  0.00    -0.004 A 
ENDROOT
TORSDOF 0
ENDMDL
