MODEL 1
REMARK minimizedAffinity 1.57093477
REMARK minimizedRMSD -1
REMARK  0 active torsions:
REMARK  status: ('A' for Active; 'I' for Inactive)
ROOT
ATOM      1  C   UNL d   1       1.118   3.692  -3.006  0.00  0.00     0.172 C 
ATOM      2  N   UNL d   1       0.620   4.478  -4.111  0.00  0.00    -0.070 N 
ATOM      3  C1  UNL d   1       1.367   4.941  -5.162  0.00  0.00    -0.004 A 
ATOM      4  C2  UNL d   1       0.527   5.644  -5.998  0.00  0.00    -0.047 A 
ATOM      5  C3  UNL d   1      -0.769   5.602  -5.431  0.00  0.00    -0.047 A 
ATOM      6  C4  UNL d   1      -0.682   4.874  -4.263  0.00  0.00    -0.004 A 
ENDROOT
TORSDOF 0
ENDMDL
