MODEL 1
REMARK minimizedAffinity -0.899420381
REMARK minimizedRMSD -1
REMARK  0 active torsions:
REMARK  status: ('A' for Active; 'I' for Inactive)
ROOT
ATOM      1  C   UNL d   1       1.105   3.443  -3.201  0.00  0.00     0.172 C 
ATOM      2  N   UNL d   1       0.638   4.369  -4.206  0.00  0.00    -0.070 N 
ATOM      3  C1  UNL d   1      -0.612   4.926  -4.260  0.00  0.00    -0.004 A 
ATOM      4  C2  UNL d   1      -0.660   5.750  -5.363  0.00  0.00    -0.047 A 
ATOM      5  C3  UNL d   1       0.605   5.685  -5.995  0.00  0.00    -0.047 A 
ATOM      6  C4  UNL d   1       1.389   4.823  -5.258  0.00  0.00    -0.004 A 
ENDROOT
TORSDOF 0
ENDMDL
