MODEL 1
REMARK minimizedAffinity -0.279933304
REMARK minimizedRMSD -1
REMARK  0 active torsions:
REMARK  status: ('A' for Active; 'I' for Inactive)
ROOT
ATOM      1  C   UNL d   1      -1.222   4.529  -5.424  0.00  0.00     0.172 C 
ATOM      2  N   UNL d   1      -0.186   4.336  -4.437  0.00  0.00    -0.070 N 
ATOM      3  C1  UNL d   1      -0.201   3.402  -3.436  0.00  0.00    -0.004 A 
ATOM      4  C2  UNL d   1       0.964   3.540  -2.712  0.00  0.00    -0.047 A 
ATOM      5  C3  UNL d   1       1.705   4.593  -3.299  0.00  0.00    -0.047 A 
ATOM      6  C4  UNL d   1       0.970   5.068  -4.364  0.00  0.00    -0.004 A 
ENDROOT
TORSDOF 0
ENDMDL
