MODEL 1
REMARK minimizedAffinity 2.05261922
REMARK minimizedRMSD -1
REMARK  0 active torsions:
REMARK  status: ('A' for Active; 'I' for Inactive)
ROOT
ATOM      1  C   UNL d   1       0.011   3.194  -3.023  0.00  0.00     0.172 C 
ATOM      2  N   UNL d   1      -0.299   4.181  -4.031  0.00  0.00    -0.070 N 
ATOM      3  C1  UNL d   1      -1.034   5.320  -3.833  0.00  0.00    -0.004 A 
ATOM      4  C2  UNL d   1      -1.102   5.992  -5.034  0.00  0.00    -0.047 A 
ATOM      5  C3  UNL d   1      -0.385   5.230  -5.987  0.00  0.00    -0.047 A 
ATOM      6  C4  UNL d   1       0.102   4.114  -5.339  0.00  0.00    -0.004 A 
ENDROOT
TORSDOF 0
ENDMDL
