MODEL 1
REMARK minimizedAffinity 2.36462426
REMARK minimizedRMSD -1
REMARK  0 active torsions:
REMARK  status: ('A' for Active; 'I' for Inactive)
ROOT
ATOM      1  C   UNL d   1       1.870   4.479  -3.004  0.00  0.00     0.172 C 
ATOM      2  N   UNL d   1       0.908   4.830  -4.023  0.00  0.00    -0.070 N 
ATOM      3  C1  UNL d   1       1.137   4.827  -5.373  0.00  0.00    -0.004 A 
ATOM      4  C2  UNL d   1      -0.026   5.220  -5.999  0.00  0.00    -0.047 A 
ATOM      5  C3  UNL d   1      -0.987   5.470  -4.991  0.00  0.00    -0.047 A 
ATOM      6  C4  UNL d   1      -0.382   5.220  -3.777  0.00  0.00    -0.004 A 
ENDROOT
TORSDOF 0
ENDMDL
