MODEL 1
REMARK minimizedAffinity 1.0046041
REMARK minimizedRMSD -1
REMARK  0 active torsions:
REMARK  status: ('A' for Active; 'I' for Inactive)
ROOT
ATOM      1  C   UNL d   1      -0.847   5.592  -5.989  0.00  0.00     0.172 C 
ATOM      2  N   UNL d   1       0.068   5.146  -4.965  0.00  0.00    -0.070 N 
ATOM      3  C1  UNL d   1      -0.104   4.049  -4.163  0.00  0.00    -0.004 A 
ATOM      4  C2  UNL d   1       0.984   3.966  -3.322  0.00  0.00    -0.047 A 
ATOM      5  C3  UNL d   1       1.839   5.051  -3.628  0.00  0.00    -0.047 A 
ATOM      6  C4  UNL d   1       1.248   5.765  -4.648  0.00  0.00    -0.004 A 
ENDROOT
TORSDOF 0
ENDMDL
