MODEL 1
REMARK minimizedAffinity -0.0377410725
REMARK minimizedRMSD -1
REMARK  0 active torsions:
REMARK  status: ('A' for Active; 'I' for Inactive)
ROOT
ATOM      1  C   UNL d   1      -1.117  -1.227   2.098  0.00  0.00     0.124 A 
ATOM      2  C1  UNL d   1      -1.567  -0.095   1.432  0.00  0.00     0.062 A 
ATOM      3  C2  UNL d   1      -0.720   0.589   0.564  0.00  0.00     0.162 A 
ATOM      4  C3  UNL d   1       0.585   0.143   0.356  0.00  0.00    -0.034 A 
ATOM      5  C4  UNL d   1       1.030  -0.996   1.030  0.00  0.00     0.162 A 
ATOM      6  C5  UNL d   1       0.180  -1.676   1.896  0.00  0.00     0.062 A 
ATOM      7  F   UNL d   1       0.616  -2.769   2.538  0.00  0.00    -0.097 F 
ATOM      8  F1  UNL d   1       2.278  -1.453   0.853  0.00  0.00    -0.096 F 
ATOM      9  I   UNL d   1       1.853   1.162  -0.941  0.00  0.00    -0.060 I 
ATOM     10  F2  UNL d   1      -1.181   1.680  -0.066  0.00  0.00    -0.096 F 
ATOM     11  F3  UNL d   1      -2.819   0.342   1.626  0.00  0.00    -0.097 F 
ATOM     12  F4  UNL d   1      -1.933  -1.882   2.933  0.00  0.00    -0.092 F 
ENDROOT
TORSDOF 0
ENDMDL
