MODEL 1
REMARK minimizedAffinity 4.34229422
REMARK minimizedRMSD -1
REMARK  0 active torsions:
REMARK  status: ('A' for Active; 'I' for Inactive)
ROOT
ATOM      1  C   UNL d   1      -2.002  -1.888  -0.402  0.00  0.00     0.124 A 
ATOM      2  C1  UNL d   1      -1.000  -2.184   0.511  0.00  0.00     0.062 A 
ATOM      3  C2  UNL d   1       0.088  -1.328   0.659  0.00  0.00     0.162 A 
ATOM      4  C3  UNL d   1       0.179  -0.167  -0.108  0.00  0.00    -0.034 A 
ATOM      5  C4  UNL d   1      -0.832   0.124  -1.026  0.00  0.00     0.162 A 
ATOM      6  C5  UNL d   1      -1.917  -0.735  -1.170  0.00  0.00     0.062 A 
ATOM      7  F   UNL d   1      -2.884  -0.447  -2.053  0.00  0.00    -0.097 F 
ATOM      8  F1  UNL d   1      -0.776   1.232  -1.780  0.00  0.00    -0.096 F 
ATOM      9  I   UNL d   1       1.804   1.116   0.110  0.00  0.00    -0.060 I 
ATOM     10  F2  UNL d   1       1.041  -1.639   1.550  0.00  0.00    -0.096 F 
ATOM     11  F3  UNL d   1      -1.079  -3.298   1.253  0.00  0.00    -0.097 F 
ATOM     12  F4  UNL d   1      -3.047  -2.714  -0.543  0.00  0.00    -0.092 F 
ENDROOT
TORSDOF 0
ENDMDL
