MODEL 1
REMARK minimizedAffinity -1.16481197
REMARK minimizedRMSD -1
REMARK  0 active torsions:
REMARK  status: ('A' for Active; 'I' for Inactive)
ROOT
ATOM      1  C   UNL d   1      -2.501  -2.258  -0.260  0.00  0.00     0.124 A 
ATOM      2  C1  UNL d   1      -1.805  -2.451   0.926  0.00  0.00     0.062 A 
ATOM      3  C2  UNL d   1      -0.706  -1.653   1.230  0.00  0.00     0.162 A 
ATOM      4  C3  UNL d   1      -0.297  -0.653   0.347  0.00  0.00    -0.034 A 
ATOM      5  C4  UNL d   1      -1.001  -0.466  -0.843  0.00  0.00     0.162 A 
ATOM      6  C5  UNL d   1      -2.099  -1.266  -1.143  0.00  0.00     0.062 A 
ATOM      7  F   UNL d   1      -2.770  -1.079  -2.289  0.00  0.00    -0.097 F 
ATOM      8  F1  UNL d   1      -0.634   0.486  -1.714  0.00  0.00    -0.096 F 
ATOM      9  I   UNL d   1       1.346   0.542   0.798  0.00  0.00    -0.060 I 
ATOM     10  F2  UNL d   1      -0.053  -1.861   2.382  0.00  0.00    -0.096 F 
ATOM     11  F3  UNL d   1      -2.192  -3.409   1.780  0.00  0.00    -0.097 F 
ATOM     12  F4  UNL d   1      -3.558  -3.028  -0.550  0.00  0.00    -0.092 F 
ENDROOT
TORSDOF 0
ENDMDL
