MODEL 1
REMARK minimizedAffinity -1.16860151
REMARK minimizedRMSD -1
REMARK  0 active torsions:
REMARK  status: ('A' for Active; 'I' for Inactive)
ROOT
ATOM      1  C   UNL d   1      -1.275  -1.502  -0.188  0.00  0.00     0.124 A 
ATOM      2  C1  UNL d   1      -0.400  -1.533   0.889  0.00  0.00     0.062 A 
ATOM      3  C2  UNL d   1       0.682  -0.658   0.936  0.00  0.00     0.162 A 
ATOM      4  C3  UNL d   1       0.894   0.256  -0.096  0.00  0.00    -0.034 A 
ATOM      5  C4  UNL d   1       0.010   0.280  -1.176  0.00  0.00     0.162 A 
ATOM      6  C5  UNL d   1      -1.070  -0.596  -1.219  0.00  0.00     0.062 A 
ATOM      7  F   UNL d   1      -1.914  -0.564  -2.260  0.00  0.00    -0.097 F 
ATOM      8  F1  UNL d   1       0.185   1.146  -2.185  0.00  0.00    -0.096 F 
ATOM      9  I   UNL d   1       2.511   1.565  -0.028  0.00  0.00    -0.060 I 
ATOM     10  F2  UNL d   1       1.512  -0.710   1.989  0.00  0.00    -0.096 F 
ATOM     11  F3  UNL d   1      -0.596  -2.408   1.885  0.00  0.00    -0.097 F 
ATOM     12  F4  UNL d   1      -2.315  -2.345  -0.232  0.00  0.00    -0.092 F 
ENDROOT
TORSDOF 0
ENDMDL
