MODEL 1
REMARK minimizedAffinity 3.7485826
REMARK minimizedRMSD -1
REMARK  0 active torsions:
REMARK  status: ('A' for Active; 'I' for Inactive)
ROOT
ATOM      1  C   UNL d   1      -1.985  -1.507  -0.483  0.00  0.00     0.124 A 
ATOM      2  C1  UNL d   1      -1.388  -0.943  -1.602  0.00  0.00     0.062 A 
ATOM      3  C2  UNL d   1      -0.268  -0.129  -1.463  0.00  0.00     0.162 A 
ATOM      4  C3  UNL d   1       0.264   0.126  -0.199  0.00  0.00    -0.034 A 
ATOM      5  C4  UNL d   1      -0.343  -0.444   0.922  0.00  0.00     0.162 A 
ATOM      6  C5  UNL d   1      -1.462  -1.257   0.778  0.00  0.00     0.062 A 
ATOM      7  F   UNL d   1      -2.037  -1.800   1.860  0.00  0.00    -0.097 F 
ATOM      8  F1  UNL d   1       0.143  -0.219   2.152  0.00  0.00    -0.096 F 
ATOM      9  I   UNL d   1       1.939   1.343   0.014  0.00  0.00    -0.060 I 
ATOM     10  F2  UNL d   1       0.288   0.402  -2.562  0.00  0.00    -0.096 F 
ATOM     11  F3  UNL d   1      -1.893  -1.183  -2.821  0.00  0.00    -0.097 F 
ATOM     12  F4  UNL d   1      -3.064  -2.289  -0.620  0.00  0.00    -0.092 F 
ENDROOT
TORSDOF 0
ENDMDL
