MODEL 1
REMARK minimizedAffinity 0.85292834
REMARK minimizedRMSD -1
REMARK  0 active torsions:
REMARK  status: ('A' for Active; 'I' for Inactive)
ROOT
ATOM      1  C   UNL d   1      -1.898  -1.429  -0.451  0.00  0.00     0.124 A 
ATOM      2  C1  UNL d   1      -1.070  -1.385   0.663  0.00  0.00     0.062 A 
ATOM      3  C2  UNL d   1       0.082  -0.604   0.649  0.00  0.00     0.162 A 
ATOM      4  C3  UNL d   1       0.413   0.142  -0.483  0.00  0.00    -0.034 A 
ATOM      5  C4  UNL d   1      -0.424   0.092  -1.599  0.00  0.00     0.162 A 
ATOM      6  C5  UNL d   1      -1.574  -0.690  -1.580  0.00  0.00     0.062 A 
ATOM      7  F   UNL d   1      -2.372  -0.731  -2.657  0.00  0.00    -0.097 F 
ATOM      8  F1  UNL d   1      -0.136   0.797  -2.703  0.00  0.00    -0.096 F 
ATOM      9  I   UNL d   1       2.134   1.311  -0.507  0.00  0.00    -0.060 I 
ATOM     10  F2  UNL d   1       0.863  -0.581   1.739  0.00  0.00    -0.096 F 
ATOM     11  F3  UNL d   1      -1.380  -2.099   1.755  0.00  0.00    -0.097 F 
ATOM     12  F4  UNL d   1      -3.005  -2.182  -0.435  0.00  0.00    -0.092 F 
ENDROOT
TORSDOF 0
ENDMDL
