MODEL 1
REMARK minimizedAffinity -0.223007202
REMARK minimizedRMSD -1
REMARK  0 active torsions:
REMARK  status: ('A' for Active; 'I' for Inactive)
ROOT
ATOM      1  C   UNL d   1      -2.822  -1.235  -0.627  0.00  0.00     0.124 A 
ATOM      2  C1  UNL d   1      -2.462  -0.833   0.652  0.00  0.00     0.062 A 
ATOM      3  C2  UNL d   1      -1.199  -0.300   0.889  0.00  0.00     0.162 A 
ATOM      4  C3  UNL d   1      -0.285  -0.164  -0.156  0.00  0.00    -0.034 A 
ATOM      5  C4  UNL d   1      -0.653  -0.571  -1.440  0.00  0.00     0.162 A 
ATOM      6  C5  UNL d   1      -1.918  -1.104  -1.672  0.00  0.00     0.062 A 
ATOM      7  F   UNL d   1      -2.263  -1.491  -2.908  0.00  0.00    -0.097 F 
ATOM      8  F1  UNL d   1       0.201  -0.455  -2.468  0.00  0.00    -0.096 F 
ATOM      9  I   UNL d   1       1.606   0.632   0.194  0.00  0.00    -0.060 I 
ATOM     10  F2  UNL d   1      -0.878   0.080   2.135  0.00  0.00    -0.096 F 
ATOM     11  F3  UNL d   1      -3.334  -0.960   1.663  0.00  0.00    -0.097 F 
ATOM     12  F4  UNL d   1      -4.038  -1.748  -0.852  0.00  0.00    -0.092 F 
ENDROOT
TORSDOF 0
ENDMDL
