MODEL 1
REMARK minimizedAffinity 2.43438458
REMARK minimizedRMSD -1
REMARK  0 active torsions:
REMARK  status: ('A' for Active; 'I' for Inactive)
ROOT
ATOM      1  C   UNL d   1      -2.268  -0.075  -1.559  0.00  0.00     0.124 A 
ATOM      2  C1  UNL d   1      -1.192   0.733  -1.901  0.00  0.00     0.062 A 
ATOM      3  C2  UNL d   1      -0.001   0.652  -1.186  0.00  0.00     0.162 A 
ATOM      4  C3  UNL d   1       0.122  -0.241  -0.122  0.00  0.00    -0.034 A 
ATOM      5  C4  UNL d   1      -0.964  -1.050   0.217  0.00  0.00     0.162 A 
ATOM      6  C5  UNL d   1      -2.152  -0.965  -0.500  0.00  0.00     0.062 A 
ATOM      7  F   UNL d   1      -3.190  -1.747  -0.168  0.00  0.00    -0.097 F 
ATOM      8  F1  UNL d   1      -0.879  -1.919   1.235  0.00  0.00    -0.096 F 
ATOM      9  I   UNL d   1       1.903  -0.364   0.949  0.00  0.00    -0.060 I 
ATOM     10  F2  UNL d   1       1.022   1.445  -1.540  0.00  0.00    -0.096 F 
ATOM     11  F3  UNL d   1      -1.302   1.594  -2.923  0.00  0.00    -0.097 F 
ATOM     12  F4  UNL d   1      -3.413   0.005  -2.247  0.00  0.00    -0.092 F 
ENDROOT
TORSDOF 0
ENDMDL
