MODEL 1
REMARK minimizedAffinity -0.0481540449
REMARK minimizedRMSD -1
REMARK  0 active torsions:
REMARK  status: ('A' for Active; 'I' for Inactive)
ROOT
ATOM      1  C   UNL d   1       2.658   2.536   1.134  0.00  0.00     0.124 A 
ATOM      2  C1  UNL d   1       1.327   2.896   1.292  0.00  0.00     0.062 A 
ATOM      3  C2  UNL d   1       0.317   2.080   0.791  0.00  0.00     0.162 A 
ATOM      4  C3  UNL d   1       0.634   0.894   0.128  0.00  0.00    -0.034 A 
ATOM      5  C4  UNL d   1       1.975   0.539  -0.028  0.00  0.00     0.162 A 
ATOM      6  C5  UNL d   1       2.981   1.358   0.475  0.00  0.00     0.062 A 
ATOM      7  F   UNL d   1       4.266   1.008   0.322  0.00  0.00    -0.097 F 
ATOM      8  F1  UNL d   1       2.315  -0.594  -0.660  0.00  0.00    -0.096 F 
ATOM      9  I   UNL d   1      -0.874  -0.329  -0.623  0.00  0.00    -0.060 I 
ATOM     10  F2  UNL d   1      -0.961   2.453   0.958  0.00  0.00    -0.096 F 
ATOM     11  F3  UNL d   1       1.012   4.034   1.928  0.00  0.00    -0.097 F 
ATOM     12  F4  UNL d   1       3.628   3.323   1.617  0.00  0.00    -0.092 F 
ENDROOT
TORSDOF 0
ENDMDL
