MODEL 1
REMARK minimizedAffinity -2.72966194
REMARK minimizedRMSD -1
REMARK  0 active torsions:
REMARK  status: ('A' for Active; 'I' for Inactive)
ROOT
ATOM      1  C   UNL d   1      -2.032  -2.272   0.077  0.00  0.00     0.124 A 
ATOM      2  C1  UNL d   1      -0.889  -2.616   0.786  0.00  0.00     0.062 A 
ATOM      3  C2  UNL d   1       0.192  -1.742   0.838  0.00  0.00     0.162 A 
ATOM      4  C3  UNL d   1       0.136  -0.513   0.180  0.00  0.00    -0.034 A 
ATOM      5  C4  UNL d   1      -1.016  -0.174  -0.531  0.00  0.00     0.162 A 
ATOM      6  C5  UNL d   1      -2.094  -1.051  -0.581  0.00  0.00     0.062 A 
ATOM      7  F   UNL d   1      -3.197  -0.716  -1.266  0.00  0.00    -0.097 F 
ATOM      8  F1  UNL d   1      -1.103   0.999  -1.175  0.00  0.00    -0.096 F 
ATOM      9  I   UNL d   1       1.752   0.797   0.256  0.00  0.00    -0.060 I 
ATOM     10  F2  UNL d   1       1.283  -2.101   1.531  0.00  0.00    -0.096 F 
ATOM     11  F3  UNL d   1      -0.827  -3.795   1.421  0.00  0.00    -0.097 F 
ATOM     12  F4  UNL d   1      -3.071  -3.115   0.028  0.00  0.00    -0.092 F 
ENDROOT
TORSDOF 0
ENDMDL
