MODEL 1
REMARK minimizedAffinity -0.497529298
REMARK minimizedRMSD -1
REMARK  0 active torsions:
REMARK  status: ('A' for Active; 'I' for Inactive)
ROOT
ATOM      1  C   UNL d   1      -1.791  -1.475   0.123  0.00  0.00     0.124 A 
ATOM      2  C1  UNL d   1      -1.794  -0.328  -0.658  0.00  0.00     0.062 A 
ATOM      3  C2  UNL d   1      -0.643   0.447  -0.770  0.00  0.00     0.162 A 
ATOM      4  C3  UNL d   1       0.522   0.076  -0.098  0.00  0.00    -0.034 A 
ATOM      5  C4  UNL d   1       0.517  -1.078   0.687  0.00  0.00     0.162 A 
ATOM      6  C5  UNL d   1      -0.636  -1.849   0.795  0.00  0.00     0.062 A 
ATOM      7  F   UNL d   1      -0.631  -2.957   1.551  0.00  0.00    -0.097 F 
ATOM      8  F1  UNL d   1       1.620  -1.464   1.346  0.00  0.00    -0.096 F 
ATOM      9  I   UNL d   1       2.246   1.231  -0.262  0.00  0.00    -0.060 I 
ATOM     10  F2  UNL d   1      -0.674   1.550  -1.532  0.00  0.00    -0.096 F 
ATOM     11  F3  UNL d   1      -2.909   0.037  -1.308  0.00  0.00    -0.097 F 
ATOM     12  F4  UNL d   1      -2.901  -2.217   0.229  0.00  0.00    -0.092 F 
ENDROOT
TORSDOF 0
ENDMDL
