MODEL 1
REMARK minimizedAffinity 0.943826616
REMARK minimizedRMSD -1
REMARK  0 active torsions:
REMARK  status: ('A' for Active; 'I' for Inactive)
ROOT
ATOM      1  C   UNL d   1       2.047   1.561   1.350  0.00  0.00     0.124 A 
ATOM      2  C1  UNL d   1       1.507   2.487   0.468  0.00  0.00     0.062 A 
ATOM      3  C2  UNL d   1       0.497   2.110  -0.412  0.00  0.00     0.162 A 
ATOM      4  C3  UNL d   1       0.018   0.800  -0.413  0.00  0.00    -0.034 A 
ATOM      5  C4  UNL d   1       0.566  -0.126   0.476  0.00  0.00     0.162 A 
ATOM      6  C5  UNL d   1       1.576   0.256   1.353  0.00  0.00     0.062 A 
ATOM      7  F   UNL d   1       2.096  -0.640   2.205  0.00  0.00    -0.097 F 
ATOM      8  F1  UNL d   1       0.129  -1.394   0.501  0.00  0.00    -0.096 F 
ATOM      9  I   UNL d   1      -1.493   0.231  -1.727  0.00  0.00    -0.060 I 
ATOM     10  F2  UNL d   1      -0.006   3.025  -1.253  0.00  0.00    -0.096 F 
ATOM     11  F3  UNL d   1       1.961   3.749   0.462  0.00  0.00    -0.097 F 
ATOM     12  F4  UNL d   1       3.019   1.927   2.195  0.00  0.00    -0.092 F 
ENDROOT
TORSDOF 0
ENDMDL
