MODEL 1
REMARK minimizedAffinity -0.6883654
REMARK minimizedRMSD -1
REMARK  0 active torsions:
REMARK  status: ('A' for Active; 'I' for Inactive)
ROOT
ATOM      1  C   UNL d   1       0.561  -0.773   0.996  0.00  0.00     0.124 A 
ATOM      2  C1  UNL d   1       0.440  -0.027   2.160  0.00  0.00     0.062 A 
ATOM      3  C2  UNL d   1       1.039   1.226   2.255  0.00  0.00     0.162 A 
ATOM      4  C3  UNL d   1       1.764   1.742   1.181  0.00  0.00    -0.034 A 
ATOM      5  C4  UNL d   1       1.883   0.986   0.014  0.00  0.00     0.162 A 
ATOM      6  C5  UNL d   1       1.282  -0.266  -0.076  0.00  0.00     0.062 A 
ATOM      7  F   UNL d   1       1.401  -0.985  -1.202  0.00  0.00    -0.097 F 
ATOM      8  F1  UNL d   1       2.573   1.452  -1.038  0.00  0.00    -0.096 F 
ATOM      9  I   UNL d   1       2.662   3.615   1.319  0.00  0.00    -0.060 I 
ATOM     10  F2  UNL d   1       0.905   1.924   3.392  0.00  0.00    -0.096 F 
ATOM     11  F3  UNL d   1      -0.255  -0.515   3.198  0.00  0.00    -0.097 F 
ATOM     12  F4  UNL d   1      -0.015  -1.978   0.908  0.00  0.00    -0.092 F 
ENDROOT
TORSDOF 0
ENDMDL
