MODEL 1
REMARK minimizedAffinity 0.275194496
REMARK minimizedRMSD -1
REMARK  0 active torsions:
REMARK  status: ('A' for Active; 'I' for Inactive)
ROOT
ATOM      1  C1  DEN d   1      -1.299   0.117   3.745  0.00  0.00     0.130 A 
ATOM      2  C2  DEN d   1      -2.453   1.007   3.837  0.00  0.00    -0.031 A 
ATOM      3  C3  DEN d   1      -2.784   1.468   2.474  0.00  0.00     0.027 A 
ATOM      4  C4  DEN d   1      -1.630   0.891   0.241  0.00  0.00     0.027 A 
ATOM      5  C5  DEN d   1      -0.600   0.186  -0.341  0.00  0.00    -0.003 A 
ATOM      6  C6  DEN d   1       0.283  -0.559   0.396  0.00  0.00     0.001 A 
ATOM      7  C7  DEN d   1       0.125  -0.651   1.753  0.00  0.00     0.017 A 
ATOM      8  C8  DEN d   1      -0.907   0.063   2.348  0.00  0.00    -0.094 A 
ATOM      9  C9  DEN d   1      -1.796   0.800   1.584  0.00  0.00    -0.072 A 
ENDROOT
TORSDOF 0
ENDMDL
