MODEL 1
REMARK minimizedAffinity -1.53696251
REMARK minimizedRMSD -1
REMARK  0 active torsions:
REMARK  status: ('A' for Active; 'I' for Inactive)
ROOT
ATOM      1  C1  DEN d   1       2.339  -0.881  -1.696  0.00  0.00     0.130 A 
ATOM      2  C2  DEN d   1       2.574   0.031  -2.812  0.00  0.00    -0.031 A 
ATOM      3  C3  DEN d   1       1.623   1.154  -2.692  0.00  0.00     0.027 A 
ATOM      4  C4  DEN d   1      -0.178   1.571  -0.893  0.00  0.00     0.027 A 
ATOM      5  C5  DEN d   1      -0.761   1.068   0.249  0.00  0.00    -0.003 A 
ATOM      6  C6  DEN d   1      -0.378  -0.127   0.799  0.00  0.00     0.001 A 
ATOM      7  C7  DEN d   1       0.647  -0.837   0.233  0.00  0.00     0.017 A 
ATOM      8  C8  DEN d   1       1.235  -0.340  -0.923  0.00  0.00    -0.094 A 
ATOM      9  C9  DEN d   1       0.842   0.875  -1.457  0.00  0.00    -0.072 A 
ENDROOT
TORSDOF 0
ENDMDL
