MODEL 1
REMARK minimizedAffinity -4.52032137
REMARK minimizedRMSD -1
REMARK  0 active torsions:
REMARK  status: ('A' for Active; 'I' for Inactive)
ROOT
ATOM      1  C1  DEN d   1      -0.460  -1.523  -0.015  0.00  0.00     0.130 A 
ATOM      2  C2  DEN d   1      -1.010  -0.447   0.804  0.00  0.00    -0.031 A 
ATOM      3  C3  DEN d   1      -0.178   0.756   0.598  0.00  0.00     0.027 A 
ATOM      4  C4  DEN d   1       1.895   1.055  -0.907  0.00  0.00     0.027 A 
ATOM      5  C5  DEN d   1       2.746   0.420  -1.784  0.00  0.00    -0.003 A 
ATOM      6  C6  DEN d   1       2.610  -0.905  -2.104  0.00  0.00     0.001 A 
ATOM      7  C7  DEN d   1       1.572  -1.627  -1.578  0.00  0.00     0.017 A 
ATOM      8  C8  DEN d   1       0.714  -0.996  -0.687  0.00  0.00    -0.094 A 
ATOM      9  C9  DEN d   1       0.861   0.347  -0.385  0.00  0.00    -0.072 A 
ENDROOT
TORSDOF 0
ENDMDL
