MODEL 1
REMARK minimizedAffinity -2.28030753
REMARK minimizedRMSD -1
REMARK  0 active torsions:
REMARK  status: ('A' for Active; 'I' for Inactive)
ROOT
ATOM      1  C1  DEN d   1      -0.583   0.674   1.791  0.00  0.00     0.130 A 
ATOM      2  C2  DEN d   1      -1.870   0.922   1.148  0.00  0.00    -0.031 A 
ATOM      3  C3  DEN d   1      -1.891   0.185  -0.131  0.00  0.00     0.027 A 
ATOM      4  C4  DEN d   1      -0.066  -1.311  -1.172  0.00  0.00     0.027 A 
ATOM      5  C5  DEN d   1       1.205  -1.813  -1.003  0.00  0.00    -0.003 A 
ATOM      6  C6  DEN d   1       1.976  -1.497   0.084  0.00  0.00     0.001 A 
ATOM      7  C7  DEN d   1       1.466  -0.690   1.067  0.00  0.00     0.017 A 
ATOM      8  C8  DEN d   1       0.188  -0.174   0.900  0.00  0.00    -0.094 A 
ATOM      9  C9  DEN d   1      -0.581  -0.516  -0.200  0.00  0.00    -0.072 A 
ENDROOT
TORSDOF 0
ENDMDL
