MODEL 1
REMARK minimizedAffinity -4.27354527
REMARK minimizedRMSD -1
REMARK  0 active torsions:
REMARK  status: ('A' for Active; 'I' for Inactive)
ROOT
ATOM      1  C1  DEN d   1      -1.517   0.428  -0.013  0.00  0.00     0.130 A 
ATOM      2  C2  DEN d   1      -1.731   0.790   1.385  0.00  0.00    -0.031 A 
ATOM      3  C3  DEN d   1      -0.512   0.436   2.141  0.00  0.00     0.027 A 
ATOM      4  C4  DEN d   1       1.676  -0.627   1.284  0.00  0.00     0.027 A 
ATOM      5  C5  DEN d   1       2.323  -1.123   0.174  0.00  0.00    -0.003 A 
ATOM      6  C6  DEN d   1       1.729  -1.168  -1.059  0.00  0.00     0.001 A 
ATOM      7  C7  DEN d   1       0.464  -0.667  -1.221  0.00  0.00     0.017 A 
ATOM      8  C8  DEN d   1      -0.198  -0.172  -0.106  0.00  0.00    -0.094 A 
ATOM      9  C9  DEN d   1       0.425  -0.124   1.130  0.00  0.00    -0.072 A 
ENDROOT
TORSDOF 0
ENDMDL
