MODEL 1
REMARK minimizedAffinity -5.81393147
REMARK minimizedRMSD -1
REMARK  0 active torsions:
REMARK  status: ('A' for Active; 'I' for Inactive)
ROOT
ATOM      1  C1  DEN d   1      -0.920   0.794  -0.640  0.00  0.00     0.130 A 
ATOM      2  C2  DEN d   1      -0.927  -0.358   0.258  0.00  0.00    -0.031 A 
ATOM      3  C3  DEN d   1       0.328  -1.108   0.048  0.00  0.00     0.027 A 
ATOM      4  C4  DEN d   1       2.272  -0.597  -1.568  0.00  0.00     0.027 A 
ATOM      5  C5  DEN d   1       2.726   0.267  -2.540  0.00  0.00    -0.003 A 
ATOM      6  C6  DEN d   1       1.988   1.339  -2.967  0.00  0.00     0.001 A 
ATOM      7  C7  DEN d   1       0.774   1.601  -2.389  0.00  0.00     0.017 A 
ATOM      8  C8  DEN d   1       0.306   0.730  -1.414  0.00  0.00    -0.094 A 
ATOM      9  C9  DEN d   1       1.073  -0.341  -0.987  0.00  0.00    -0.072 A 
ENDROOT
TORSDOF 0
ENDMDL
