MODEL 1
REMARK minimizedAffinity -7.00658178
REMARK minimizedRMSD -1
REMARK  0 active torsions:
REMARK  status: ('A' for Active; 'I' for Inactive)
ROOT
ATOM      1  C1  DEN d   1       2.275   0.348  -2.768  0.00  0.00     0.130 A 
ATOM      2  C2  DEN d   1       1.449   1.534  -2.977  0.00  0.00    -0.031 A 
ATOM      3  C3  DEN d   1       0.381   1.531  -1.958  0.00  0.00     0.027 A 
ATOM      4  C4  DEN d   1      -0.069  -0.183  -0.084  0.00  0.00     0.027 A 
ATOM      5  C5  DEN d   1       0.357  -1.364   0.484  0.00  0.00    -0.003 A 
ATOM      6  C6  DEN d   1       1.422  -2.068  -0.010  0.00  0.00     0.001 A 
ATOM      7  C7  DEN d   1       2.127  -1.575  -1.076  0.00  0.00     0.017 A 
ATOM      8  C8  DEN d   1       1.699  -0.389  -1.658  0.00  0.00    -0.094 A 
ATOM      9  C9  DEN d   1       0.627   0.315  -1.137  0.00  0.00    -0.072 A 
ENDROOT
TORSDOF 0
ENDMDL
