MODEL 1
REMARK minimizedAffinity -1.23125494
REMARK minimizedRMSD -1
REMARK  0 active torsions:
REMARK  status: ('A' for Active; 'I' for Inactive)
ROOT
ATOM      1  C1  DEN d   1       2.068   0.009  -2.871  0.00  0.00     0.130 A 
ATOM      2  C2  DEN d   1       3.003  -1.092  -2.659  0.00  0.00    -0.031 A 
ATOM      3  C3  DEN d   1       2.609  -1.794  -1.421  0.00  0.00     0.027 A 
ATOM      4  C4  DEN d   1       0.648  -1.288   0.176  0.00  0.00     0.027 A 
ATOM      5  C5  DEN d   1      -0.413  -0.444   0.419  0.00  0.00    -0.003 A 
ATOM      6  C6  DEN d   1      -0.699   0.621  -0.393  0.00  0.00     0.001 A 
ATOM      7  C7  DEN d   1       0.059   0.845  -1.512  0.00  0.00     0.017 A 
ATOM      8  C8  DEN d   1       1.135   0.003  -1.759  0.00  0.00    -0.094 A 
ATOM      9  C9  DEN d   1       1.401  -1.076  -0.933  0.00  0.00    -0.072 A 
ENDROOT
TORSDOF 0
ENDMDL
