MODEL 1
REMARK minimizedAffinity -4.05358696
REMARK minimizedRMSD -1
REMARK  0 active torsions:
REMARK  status: ('A' for Active; 'I' for Inactive)
ROOT
ATOM      1  C1  DEN d   1      -0.642  -1.530  -0.406  0.00  0.00     0.130 A 
ATOM      2  C2  DEN d   1      -1.361  -0.599   0.459  0.00  0.00    -0.031 A 
ATOM      3  C3  DEN d   1      -0.393   0.395   0.964  0.00  0.00     0.027 A 
ATOM      4  C4  DEN d   1       2.135   0.585   0.489  0.00  0.00     0.027 A 
ATOM      5  C5  DEN d   1       3.198   0.016  -0.176  0.00  0.00    -0.003 A 
ATOM      6  C6  DEN d   1       3.063  -1.119  -0.932  0.00  0.00     0.001 A 
ATOM      7  C7  DEN d   1       1.829  -1.695  -1.077  0.00  0.00     0.017 A 
ATOM      8  C8  DEN d   1       0.754  -1.131  -0.403  0.00  0.00    -0.094 A 
ATOM      9  C9  DEN d   1       0.908   0.023   0.346  0.00  0.00    -0.072 A 
ENDROOT
TORSDOF 0
ENDMDL
