MODEL 1
REMARK minimizedAffinity -3.49210382
REMARK minimizedRMSD -1
REMARK  0 active torsions:
REMARK  status: ('A' for Active; 'I' for Inactive)
ROOT
ATOM      1  C1  DEN d   1      -0.369  -0.357   1.778  0.00  0.00     0.130 A 
ATOM      2  C2  DEN d   1      -1.510   0.303   1.150  0.00  0.00    -0.031 A 
ATOM      3  C3  DEN d   1      -1.150   0.601  -0.251  0.00  0.00     0.027 A 
ATOM      4  C4  DEN d   1       1.049   0.102  -1.503  0.00  0.00     0.027 A 
ATOM      5  C5  DEN d   1       2.312  -0.435  -1.383  0.00  0.00    -0.003 A 
ATOM      6  C6  DEN d   1       2.778  -0.948  -0.202  0.00  0.00     0.001 A 
ATOM      7  C7  DEN d   1       1.959  -0.977   0.896  0.00  0.00     0.017 A 
ATOM      8  C8  DEN d   1       0.687  -0.431   0.785  0.00  0.00    -0.094 A 
ATOM      9  C9  DEN d   1       0.230   0.072  -0.422  0.00  0.00    -0.072 A 
ENDROOT
TORSDOF 0
ENDMDL
