MODEL 1
REMARK minimizedAffinity -5.02617693
REMARK minimizedRMSD -1
REMARK  0 active torsions:
REMARK  status: ('A' for Active; 'I' for Inactive)
ROOT
ATOM      1  C1  DEN d   1       2.961   0.403  -2.454  0.00  0.00     0.130 A 
ATOM      2  C2  DEN d   1       2.313   1.693  -2.677  0.00  0.00    -0.031 A 
ATOM      3  C3  DEN d   1       1.083   1.732  -1.861  0.00  0.00     0.027 A 
ATOM      4  C4  DEN d   1       0.127  -0.066  -0.279  0.00  0.00     0.027 A 
ATOM      5  C5  DEN d   1       0.319  -1.333   0.227  0.00  0.00    -0.003 A 
ATOM      6  C6  DEN d   1       1.378  -2.116  -0.148  0.00  0.00     0.001 A 
ATOM      7  C7  DEN d   1       2.311  -1.623  -1.021  0.00  0.00     0.017 A 
ATOM      8  C8  DEN d   1       2.120  -0.350  -1.541  0.00  0.00    -0.094 A 
ATOM      9  C9  DEN d   1       1.050   0.431  -1.140  0.00  0.00    -0.072 A 
ENDROOT
TORSDOF 0
ENDMDL
