MODEL 1
REMARK minimizedAffinity 1.24252963
REMARK minimizedRMSD -1
REMARK  0 active torsions:
REMARK  status: ('A' for Active; 'I' for Inactive)
ROOT
ATOM      1  C1  DEN d   1      -0.327   1.904   3.282  0.00  0.00     0.130 A 
ATOM      2  C2  DEN d   1      -1.161   1.072   4.143  0.00  0.00    -0.031 A 
ATOM      3  C3  DEN d   1      -1.575  -0.116   3.369  0.00  0.00     0.027 A 
ATOM      4  C4  DEN d   1      -1.002  -0.745   0.934  0.00  0.00     0.027 A 
ATOM      5  C5  DEN d   1      -0.334  -0.344  -0.202  0.00  0.00    -0.003 A 
ATOM      6  C6  DEN d   1       0.350   0.841  -0.266  0.00  0.00     0.001 A 
ATOM      7  C7  DEN d   1       0.419   1.646   0.840  0.00  0.00     0.017 A 
ATOM      8  C8  DEN d   1      -0.259   1.252   1.986  0.00  0.00    -0.094 A 
ATOM      9  C9  DEN d   1      -0.935   0.045   2.035  0.00  0.00    -0.072 A 
ENDROOT
TORSDOF 0
ENDMDL
