MODEL 1
REMARK minimizedAffinity -4.29000854
REMARK minimizedRMSD -1
REMARK  0 active torsions:
REMARK  status: ('A' for Active; 'I' for Inactive)
ROOT
ATOM      1  C1  BNZ d   1      -0.772   0.527   0.097  0.00  0.00     0.000 A 
ATOM      2  C2  BNZ d   1      -0.910   1.286   1.228  0.00  0.00     0.000 A 
ATOM      3  C3  BNZ d   1       0.062   2.172   1.601  0.00  0.00     0.000 A 
ATOM      4  C4  BNZ d   1       1.188   2.268   0.864  0.00  0.00     0.000 A 
ATOM      5  C5  BNZ d   1       1.347   1.503  -0.274  0.00  0.00     0.000 A 
ATOM      6  C6  BNZ d   1       0.349   0.641  -0.667  0.00  0.00     0.000 A 
ENDROOT
TORSDOF 0
ENDMDL
