MODEL 1
REMARK minimizedAffinity -4.84202099
REMARK minimizedRMSD -1
REMARK  0 active torsions:
REMARK  status: ('A' for Active; 'I' for Inactive)
ROOT
ATOM      1  C1  BNZ d   1      -0.657   1.007   1.673  0.00  0.00     0.000 A 
ATOM      2  C2  BNZ d   1       0.038   2.186   1.610  0.00  0.00     0.000 A 
ATOM      3  C3  BNZ d   1       1.061   2.348   0.718  0.00  0.00     0.000 A 
ATOM      4  C4  BNZ d   1       1.415   1.320  -0.080  0.00  0.00     0.000 A 
ATOM      5  C5  BNZ d   1       0.730   0.123  -0.022  0.00  0.00     0.000 A 
ATOM      6  C6  BNZ d   1      -0.324  -0.024   0.849  0.00  0.00     0.000 A 
ENDROOT
TORSDOF 0
ENDMDL
