MODEL 1
REMARK minimizedAffinity -2.17386079
REMARK minimizedRMSD -1
REMARK  0 active torsions:
REMARK  status: ('A' for Active; 'I' for Inactive)
ROOT
ATOM      1  C1  BNZ d   1       1.436   0.021   0.026  0.00  0.00     0.000 A 
ATOM      2  C2  BNZ d   1       0.897  -0.968  -0.754  0.00  0.00     0.000 A 
ATOM      3  C3  BNZ d   1      -0.442  -1.236  -0.719  0.00  0.00     0.000 A 
ATOM      4  C4  BNZ d   1      -1.235  -0.544   0.125  0.00  0.00     0.000 A 
ATOM      5  C5  BNZ d   1      -0.706   0.449   0.925  0.00  0.00     0.000 A 
ATOM      6  C6  BNZ d   1       0.637   0.743   0.858  0.00  0.00     0.000 A 
ENDROOT
TORSDOF 0
ENDMDL
