MODEL 1
REMARK minimizedAffinity -4.75049829
REMARK minimizedRMSD -1
REMARK  0 active torsions:
REMARK  status: ('A' for Active; 'I' for Inactive)
ROOT
ATOM      1  C1  BNZ d   1       0.576   1.107  -0.565  0.00  0.00     0.000 A 
ATOM      2  C2  BNZ d   1      -0.197   0.127  -0.002  0.00  0.00     0.000 A 
ATOM      3  C3  BNZ d   1      -0.759   0.301   1.232  0.00  0.00     0.000 A 
ATOM      4  C4  BNZ d   1      -0.514   1.436   1.918  0.00  0.00     0.000 A 
ATOM      5  C5  BNZ d   1       0.271   2.429   1.368  0.00  0.00     0.000 A 
ATOM      6  C6  BNZ d   1       0.803   2.267   0.109  0.00  0.00     0.000 A 
ENDROOT
TORSDOF 0
ENDMDL
