MODEL 1
REMARK minimizedAffinity -3.55775905
REMARK minimizedRMSD -1
REMARK  0 active torsions:
REMARK  status: ('A' for Active; 'I' for Inactive)
ROOT
ATOM      1  C1  BNZ d   1       1.047   0.830   0.091  0.00  0.00     0.000 A 
ATOM      2  C2  BNZ d   1       1.042  -0.335  -0.628  0.00  0.00     0.000 A 
ATOM      3  C3  BNZ d   1       0.013  -1.227  -0.508  0.00  0.00     0.000 A 
ATOM      4  C4  BNZ d   1      -0.987  -0.973   0.361  0.00  0.00     0.000 A 
ATOM      5  C5  BNZ d   1      -0.991   0.193   1.100  0.00  0.00     0.000 A 
ATOM      6  C6  BNZ d   1       0.027   1.107   0.948  0.00  0.00     0.000 A 
ENDROOT
TORSDOF 0
ENDMDL
