MODEL 1
REMARK minimizedAffinity -3.70091081
REMARK minimizedRMSD -1
REMARK  0 active torsions:
REMARK  status: ('A' for Active; 'I' for Inactive)
ROOT
ATOM      1  C1  BNZ d   1      -0.964   0.154   1.088  0.00  0.00     0.000 A 
ATOM      2  C2  BNZ d   1      -0.292   1.305   1.404  0.00  0.00     0.000 A 
ATOM      3  C3  BNZ d   1       0.749   1.742   0.633  0.00  0.00     0.000 A 
ATOM      4  C4  BNZ d   1       1.142   1.008  -0.427  0.00  0.00     0.000 A 
ATOM      5  C5  BNZ d   1       0.481  -0.159  -0.754  0.00  0.00     0.000 A 
ATOM      6  C6  BNZ d   1      -0.591  -0.576   0.002  0.00  0.00     0.000 A 
ENDROOT
TORSDOF 0
ENDMDL
