MODEL 1
REMARK minimizedAffinity -4.01464844
REMARK minimizedRMSD -1
REMARK  0 active torsions:
REMARK  status: ('A' for Active; 'I' for Inactive)
ROOT
ATOM      1  C1  BNZ d   1       0.129   0.788   0.711  0.00  0.00     0.000 A 
ATOM      2  C2  BNZ d   1       0.838   1.887   1.116  0.00  0.00     0.000 A 
ATOM      3  C3  BNZ d   1       2.117   2.096   0.679  0.00  0.00     0.000 A 
ATOM      4  C4  BNZ d   1       2.698   1.185  -0.129  0.00  0.00     0.000 A 
ATOM      5  C5  BNZ d   1       1.999   0.067  -0.538  0.00  0.00     0.000 A 
ATOM      6  C6  BNZ d   1       0.699  -0.120  -0.127  0.00  0.00     0.000 A 
ENDROOT
TORSDOF 0
ENDMDL
