MODEL 1
REMARK minimizedAffinity -3.09732151
REMARK minimizedRMSD -1
REMARK  0 active torsions:
REMARK  status: ('A' for Active; 'I' for Inactive)
ROOT
ATOM      1  C1  BNZ d   1       1.496   0.407   0.064  0.00  0.00     0.000 A 
ATOM      2  C2  BNZ d   1       1.255  -0.726  -0.666  0.00  0.00     0.000 A 
ATOM      3  C3  BNZ d   1       0.069  -1.395  -0.550  0.00  0.00     0.000 A 
ATOM      4  C4  BNZ d   1      -0.858  -0.954   0.324  0.00  0.00     0.000 A 
ATOM      5  C5  BNZ d   1      -0.627   0.182   1.075  0.00  0.00     0.000 A 
ATOM      6  C6  BNZ d   1       0.553   0.875   0.926  0.00  0.00     0.000 A 
ENDROOT
TORSDOF 0
ENDMDL
