MODEL 1
REMARK minimizedAffinity -3.45639229
REMARK minimizedRMSD -1
REMARK  0 active torsions:
REMARK  status: ('A' for Active; 'I' for Inactive)
ROOT
ATOM      1  C1  BNZ d   1       1.992   0.914  -0.572  0.00  0.00     0.000 A 
ATOM      2  C2  BNZ d   1       0.783   1.262  -0.032  0.00  0.00     0.000 A 
ATOM      3  C3  BNZ d   1       0.716   1.997   1.118  0.00  0.00     0.000 A 
ATOM      4  C4  BNZ d   1       1.856   2.348   1.748  0.00  0.00     0.000 A 
ATOM      5  C5  BNZ d   1       3.082   1.997   1.221  0.00  0.00     0.000 A 
ATOM      6  C6  BNZ d   1       3.146   1.290   0.042  0.00  0.00     0.000 A 
ENDROOT
TORSDOF 0
ENDMDL
