MODEL 1
REMARK minimizedAffinity -4.21882248
REMARK minimizedRMSD -1
REMARK  0 active torsions:
REMARK  status: ('A' for Active; 'I' for Inactive)
ROOT
ATOM      1  C1  BNZ d   1      -0.394  -1.933  -0.768  0.00  0.00     0.000 A 
ATOM      2  C2  BNZ d   1      -1.680  -2.341  -1.001  0.00  0.00     0.000 A 
ATOM      3  C3  BNZ d   1      -2.198  -2.334  -2.266  0.00  0.00     0.000 A 
ATOM      4  C4  BNZ d   1      -1.445  -1.882  -3.289  0.00  0.00     0.000 A 
ATOM      5  C5  BNZ d   1      -0.149  -1.458  -3.069  0.00  0.00     0.000 A 
ATOM      6  C6  BNZ d   1       0.382  -1.503  -1.800  0.00  0.00     0.000 A 
ENDROOT
TORSDOF 0
ENDMDL
