MODEL 1
REMARK minimizedAffinity -0.96246171
REMARK minimizedRMSD -1
REMARK  0 active torsions:
REMARK  status: ('A' for Active; 'I' for Inactive)
ROOT
ATOM      1  C1  BNZ d   1      -0.723  -0.626   0.526  0.00  0.00     0.000 A 
ATOM      2  C2  BNZ d   1      -1.372   0.080   1.504  0.00  0.00     0.000 A 
ATOM      3  C3  BNZ d   1      -0.816   1.208   2.038  0.00  0.00     0.000 A 
ATOM      4  C4  BNZ d   1       0.403   1.608   1.623  0.00  0.00     0.000 A 
ATOM      5  C5  BNZ d   1       1.074   0.902   0.644  0.00  0.00     0.000 A 
ATOM      6  C6  BNZ d   1       0.494  -0.212   0.081  0.00  0.00     0.000 A 
ENDROOT
TORSDOF 0
ENDMDL
