MODEL 1
REMARK minimizedAffinity -4.04344463
REMARK minimizedRMSD -1
REMARK  0 active torsions:
REMARK  status: ('A' for Active; 'I' for Inactive)
ROOT
ATOM      1  C1  BNZ d   1      -0.398   0.836   1.065  0.00  0.00     0.000 A 
ATOM      2  C2  BNZ d   1       0.144   1.793   1.881  0.00  0.00     0.000 A 
ATOM      3  C3  BNZ d   1       1.483   2.069   1.842  0.00  0.00     0.000 A 
ATOM      4  C4  BNZ d   1       2.282   1.362   1.018  0.00  0.00     0.000 A 
ATOM      5  C5  BNZ d   1       1.752   0.387   0.196  0.00  0.00     0.000 A 
ATOM      6  C6  BNZ d   1       0.399   0.139   0.209  0.00  0.00     0.000 A 
ENDROOT
TORSDOF 0
ENDMDL
