MODEL 1
REMARK minimizedAffinity -4.01084137
REMARK minimizedRMSD -1
REMARK  0 active torsions:
REMARK  status: ('A' for Active; 'I' for Inactive)
ROOT
ATOM      1  C1  BNZ d   1       1.753   5.754  -4.041  0.00  0.00     0.000 A 
ATOM      2  C2  BNZ d   1       2.233   4.926  -3.061  0.00  0.00     0.000 A 
ATOM      3  C3  BNZ d   1       3.452   4.322  -3.191  0.00  0.00     0.000 A 
ATOM      4  C4  BNZ d   1       4.171   4.513  -4.316  0.00  0.00     0.000 A 
ATOM      5  C5  BNZ d   1       3.696   5.337  -5.317  0.00  0.00     0.000 A 
ATOM      6  C6  BNZ d   1       2.486   5.975  -5.166  0.00  0.00     0.000 A 
ENDROOT
TORSDOF 0
ENDMDL
