MODEL 1
REMARK minimizedAffinity 6.8834343
REMARK minimizedRMSD -1
REMARK  0 active torsions:
REMARK  status: ('A' for Active; 'I' for Inactive)
ROOT
ATOM      1  C   UNL d   1      -1.386   1.588  -0.433  0.00  0.00     0.023 A 
ATOM      2  C1  UNL d   1      -1.906   2.870  -0.608  0.00  0.00     0.003 A 
ATOM      3  C2  UNL d   1      -1.045   3.960  -0.758  0.00  0.00     0.048 A 
ATOM      4  C3  UNL d   1       0.334   3.759  -0.731  0.00  0.00     0.023 A 
ATOM      5  C4  UNL d   1       0.859   2.478  -0.557  0.00  0.00     0.048 A 
ATOM      6  C5  UNL d   1      -0.005   1.392  -0.407  0.00  0.00     0.003 A 
ATOM      7  I   UNL d   1       1.618   5.379  -0.953  0.00  0.00    -0.146 I 
ENDROOT
TORSDOF 0
ENDMDL
