MODEL 1
REMARK minimizedAffinity -0.285751641
REMARK minimizedRMSD -1
REMARK  0 active torsions:
REMARK  status: ('A' for Active; 'I' for Inactive)
ROOT
ATOM      1  C   UNL d   1      -3.200   1.489   0.408  0.00  0.00     0.023 A 
ATOM      2  C1  UNL d   1      -2.856   0.366   1.160  0.00  0.00     0.003 A 
ATOM      3  C2  UNL d   1      -1.517   0.107   1.458  0.00  0.00     0.048 A 
ATOM      4  C3  UNL d   1      -0.527   0.976   1.002  0.00  0.00     0.023 A 
ATOM      5  C4  UNL d   1      -0.866   2.102   0.251  0.00  0.00     0.048 A 
ATOM      6  C5  UNL d   1      -2.207   2.356  -0.046  0.00  0.00     0.003 A 
ATOM      7  I   UNL d   1       1.468   0.593   1.445  0.00  0.00    -0.146 I 
ENDROOT
TORSDOF 0
ENDMDL
