MODEL 1
REMARK minimizedAffinity 7.84032154
REMARK minimizedRMSD -1
REMARK  0 active torsions:
REMARK  status: ('A' for Active; 'I' for Inactive)
ROOT
ATOM      1  C   UNL d   1      -0.048   0.706   2.222  0.00  0.00     0.023 A 
ATOM      2  C1  UNL d   1       0.512   1.417   1.161  0.00  0.00     0.003 A 
ATOM      3  C2  UNL d   1      -0.217   1.608  -0.015  0.00  0.00     0.048 A 
ATOM      4  C3  UNL d   1      -1.506   1.087  -0.122  0.00  0.00     0.023 A 
ATOM      5  C4  UNL d   1      -2.071   0.376   0.938  0.00  0.00     0.048 A 
ATOM      6  C5  UNL d   1      -1.338   0.186   2.111  0.00  0.00     0.003 A 
ATOM      7  I   UNL d   1      -2.593   1.370  -1.870  0.00  0.00    -0.146 I 
ENDROOT
TORSDOF 0
ENDMDL
