MODEL 1
REMARK minimizedAffinity -0.988766134
REMARK minimizedRMSD -1
REMARK  0 active torsions:
REMARK  status: ('A' for Active; 'I' for Inactive)
ROOT
ATOM      1  C   UNL d   1       0.004   1.503   0.229  0.00  0.00     0.023 A 
ATOM      2  C1  UNL d   1      -0.731   2.352  -0.598  0.00  0.00     0.003 A 
ATOM      3  C2  UNL d   1      -2.126   2.363  -0.527  0.00  0.00     0.048 A 
ATOM      4  C3  UNL d   1      -2.779   1.522   0.373  0.00  0.00     0.023 A 
ATOM      5  C4  UNL d   1      -2.047   0.670   1.203  0.00  0.00     0.048 A 
ATOM      6  C5  UNL d   1      -0.653   0.663   1.128  0.00  0.00     0.003 A 
ATOM      7  I   UNL d   1      -4.854   1.535   0.481  0.00  0.00    -0.146 I 
ENDROOT
TORSDOF 0
ENDMDL
