MODEL 1
REMARK minimizedAffinity -1.9839313
REMARK minimizedRMSD -1
REMARK  0 active torsions:
REMARK  status: ('A' for Active; 'I' for Inactive)
ROOT
ATOM      1  C   UNL d   1      -3.168   0.532   0.573  0.00  0.00     0.023 A 
ATOM      2  C1  UNL d   1      -2.809   1.859   0.337  0.00  0.00     0.003 A 
ATOM      3  C2  UNL d   1      -1.462   2.224   0.307  0.00  0.00     0.048 A 
ATOM      4  C3  UNL d   1      -0.479   1.257   0.514  0.00  0.00     0.023 A 
ATOM      5  C4  UNL d   1      -0.833  -0.072   0.749  0.00  0.00     0.048 A 
ATOM      6  C5  UNL d   1      -2.182  -0.432   0.779  0.00  0.00     0.003 A 
ATOM      7  I   UNL d   1       1.528   1.799   0.470  0.00  0.00    -0.146 I 
ENDROOT
TORSDOF 0
ENDMDL
