MODEL 1
REMARK minimizedAffinity 2.45153213
REMARK minimizedRMSD -1
REMARK  0 active torsions:
REMARK  status: ('A' for Active; 'I' for Inactive)
ROOT
ATOM      1  C   UNL d   1      -1.693   1.237  -0.805  0.00  0.00     0.023 A 
ATOM      2  C1  UNL d   1      -2.360   2.264  -0.137  0.00  0.00     0.003 A 
ATOM      3  C2  UNL d   1      -2.154   2.458   1.231  0.00  0.00     0.048 A 
ATOM      4  C3  UNL d   1      -1.279   1.622   1.924  0.00  0.00     0.023 A 
ATOM      5  C4  UNL d   1      -0.608   0.594   1.259  0.00  0.00     0.048 A 
ATOM      6  C5  UNL d   1      -0.818   0.403  -0.108  0.00  0.00     0.003 A 
ATOM      7  I   UNL d   1      -0.971   1.910   3.959  0.00  0.00    -0.146 I 
ENDROOT
TORSDOF 0
ENDMDL
