MODEL 1
REMARK minimizedAffinity -1.15807486
REMARK minimizedRMSD -1
REMARK  0 active torsions:
REMARK  status: ('A' for Active; 'I' for Inactive)
ROOT
ATOM      1  C   UNL d   1       3.843   1.103   0.719  0.00  0.00     0.023 A 
ATOM      2  C1  UNL d   1       2.940   1.034   1.780  0.00  0.00     0.003 A 
ATOM      3  C2  UNL d   1       1.589   1.313   1.567  0.00  0.00     0.048 A 
ATOM      4  C3  UNL d   1       1.146   1.659   0.291  0.00  0.00     0.023 A 
ATOM      5  C4  UNL d   1       2.046   1.727  -0.774  0.00  0.00     0.048 A 
ATOM      6  C5  UNL d   1       3.397   1.449  -0.556  0.00  0.00     0.003 A 
ATOM      7  I   UNL d   1      -0.865   2.074  -0.028  0.00  0.00    -0.146 I 
ENDROOT
TORSDOF 0
ENDMDL
