MODEL 1
REMARK minimizedAffinity 4.26257038
REMARK minimizedRMSD -1
REMARK  0 active torsions:
REMARK  status: ('A' for Active; 'I' for Inactive)
ROOT
ATOM      1  C   UNL d   1      -4.445   0.747   0.703  0.00  0.00     0.023 A 
ATOM      2  C1  UNL d   1      -3.471  -0.040   1.318  0.00  0.00     0.003 A 
ATOM      3  C2  UNL d   1      -2.122   0.302   1.205  0.00  0.00     0.048 A 
ATOM      4  C3  UNL d   1      -1.754   1.432   0.476  0.00  0.00     0.023 A 
ATOM      5  C4  UNL d   1      -2.725   2.223  -0.140  0.00  0.00     0.048 A 
ATOM      6  C5  UNL d   1      -4.072   1.877  -0.024  0.00  0.00     0.003 A 
ATOM      7  I   UNL d   1       0.254   1.943   0.306  0.00  0.00    -0.146 I 
ENDROOT
TORSDOF 0
ENDMDL
