MODEL 1
REMARK minimizedAffinity 8.32407188
REMARK minimizedRMSD -1
REMARK  0 active torsions:
REMARK  status: ('A' for Active; 'I' for Inactive)
ROOT
ATOM      1  C   UNL d   1      -0.258   2.826  -0.070  0.00  0.00     0.023 A 
ATOM      2  C1  UNL d   1       0.087   2.084   1.060  0.00  0.00     0.003 A 
ATOM      3  C2  UNL d   1      -0.831   1.194   1.620  0.00  0.00     0.048 A 
ATOM      4  C3  UNL d   1      -2.093   1.048   1.043  0.00  0.00     0.023 A 
ATOM      5  C4  UNL d   1      -2.442   1.787  -0.088  0.00  0.00     0.048 A 
ATOM      6  C5  UNL d   1      -1.521   2.677  -0.644  0.00  0.00     0.003 A 
ATOM      7  I   UNL d   1      -3.461  -0.277   1.874  0.00  0.00    -0.146 I 
ENDROOT
TORSDOF 0
ENDMDL
