MODEL 1
REMARK minimizedAffinity 0.585108936
REMARK minimizedRMSD -1
REMARK  0 active torsions:
REMARK  status: ('A' for Active; 'I' for Inactive)
ROOT
ATOM      1  C   UNL d   1      -2.801   1.722   0.432  0.00  0.00     0.023 A 
ATOM      2  C1  UNL d   1      -1.970   2.823   0.223  0.00  0.00     0.003 A 
ATOM      3  C2  UNL d   1      -0.586   2.688   0.347  0.00  0.00     0.048 A 
ATOM      4  C3  UNL d   1      -0.039   1.449   0.680  0.00  0.00     0.023 A 
ATOM      5  C4  UNL d   1      -0.866   0.345   0.890  0.00  0.00     0.048 A 
ATOM      6  C5  UNL d   1      -2.250   0.484   0.765  0.00  0.00     0.003 A 
ATOM      7  I   UNL d   1       2.021   1.247   0.866  0.00  0.00    -0.146 I 
ENDROOT
TORSDOF 0
ENDMDL
