MODEL 1
REMARK minimizedAffinity 2.31894112
REMARK minimizedRMSD -1
REMARK  0 active torsions:
REMARK  status: ('A' for Active; 'I' for Inactive)
ROOT
ATOM      1  C   UNL d   1      -3.591   0.782   0.621  0.00  0.00     0.023 A 
ATOM      2  C1  UNL d   1      -3.033   1.912   0.022  0.00  0.00     0.003 A 
ATOM      3  C2  UNL d   1      -1.646   2.033  -0.087  0.00  0.00     0.048 A 
ATOM      4  C3  UNL d   1      -0.823   1.020   0.403  0.00  0.00     0.023 A 
ATOM      5  C4  UNL d   1      -1.377  -0.113   1.002  0.00  0.00     0.048 A 
ATOM      6  C5  UNL d   1      -2.764  -0.229   1.110  0.00  0.00     0.003 A 
ATOM      7  I   UNL d   1       1.241   1.198   0.242  0.00  0.00    -0.146 I 
ENDROOT
TORSDOF 0
ENDMDL
