MODEL 1
REMARK minimizedAffinity 3.33232737
REMARK minimizedRMSD -1
REMARK  0 active torsions:
REMARK  status: ('A' for Active; 'I' for Inactive)
ROOT
ATOM      1  C   UNL d   1      -0.070   0.019   1.817  0.00  0.00     0.023 A 
ATOM      2  C1  UNL d   1       0.681   0.759   0.904  0.00  0.00     0.003 A 
ATOM      3  C2  UNL d   1       0.041   1.486  -0.102  0.00  0.00     0.048 A 
ATOM      4  C3  UNL d   1      -1.350   1.469  -0.189  0.00  0.00     0.023 A 
ATOM      5  C4  UNL d   1      -2.106   0.730   0.723  0.00  0.00     0.048 A 
ATOM      6  C5  UNL d   1      -1.462   0.004   1.727  0.00  0.00     0.003 A 
ATOM      7  I   UNL d   1      -2.305   2.549  -1.686  0.00  0.00    -0.146 I 
ENDROOT
TORSDOF 0
ENDMDL
