MODEL 1
REMARK minimizedAffinity 5.55576372
REMARK minimizedRMSD -1
REMARK  0 active torsions:
REMARK  status: ('A' for Active; 'I' for Inactive)
ROOT
ATOM      1  C   UNL d   1       0.099   2.375   2.524  0.00  0.00     0.023 A 
ATOM      2  C1  UNL d   1      -0.752   2.240   1.427  0.00  0.00     0.003 A 
ATOM      3  C2  UNL d   1      -0.232   1.910   0.174  0.00  0.00     0.048 A 
ATOM      4  C3  UNL d   1       1.141   1.715   0.025  0.00  0.00     0.023 A 
ATOM      5  C4  UNL d   1       1.997   1.848   1.120  0.00  0.00     0.048 A 
ATOM      6  C5  UNL d   1       1.472   2.179   2.371  0.00  0.00     0.003 A 
ATOM      7  I   UNL d   1       1.918   1.224  -1.839  0.00  0.00    -0.146 I 
ENDROOT
TORSDOF 0
ENDMDL
