MODEL 1
REMARK minimizedAffinity 2.70983338
REMARK minimizedRMSD -1
REMARK  0 active torsions:
REMARK  status: ('A' for Active; 'I' for Inactive)
ROOT
ATOM      1  C   UNL d   1       0.200   3.403   3.607  0.00  0.00     0.023 A 
ATOM      2  C1  UNL d   1      -0.850   2.865   2.862  0.00  0.00     0.003 A 
ATOM      3  C2  UNL d   1      -0.588   2.210   1.656  0.00  0.00     0.048 A 
ATOM      4  C3  UNL d   1       0.726   2.096   1.203  0.00  0.00     0.023 A 
ATOM      5  C4  UNL d   1       1.779   2.632   1.946  0.00  0.00     0.048 A 
ATOM      6  C5  UNL d   1       1.512   3.287   3.149  0.00  0.00     0.003 A 
ATOM      7  I   UNL d   1       1.118   1.121  -0.591  0.00  0.00    -0.146 I 
ENDROOT
TORSDOF 0
ENDMDL
