MODEL 1
REMARK minimizedAffinity 5.48563814
REMARK minimizedRMSD -1
REMARK  0 active torsions:
REMARK  status: ('A' for Active; 'I' for Inactive)
ROOT
ATOM      1  C   UNL d   1       0.013   2.366   2.183  0.00  0.00     0.023 A 
ATOM      2  C1  UNL d   1      -0.679   1.883   1.072  0.00  0.00     0.003 A 
ATOM      3  C2  UNL d   1       0.020   1.485  -0.069  0.00  0.00     0.048 A 
ATOM      4  C3  UNL d   1       1.412   1.573  -0.093  0.00  0.00     0.023 A 
ATOM      5  C4  UNL d   1       2.108   2.055   1.017  0.00  0.00     0.048 A 
ATOM      6  C5  UNL d   1       1.405   2.452   2.155  0.00  0.00     0.003 A 
ATOM      7  I   UNL d   1       2.455   0.982  -1.790  0.00  0.00    -0.146 I 
ENDROOT
TORSDOF 0
ENDMDL
