MODEL 1
REMARK minimizedAffinity 8.75353527
REMARK minimizedRMSD -1
REMARK  0 active torsions:
REMARK  status: ('A' for Active; 'I' for Inactive)
ROOT
ATOM      1  C   UNL d   1       0.011   3.103   3.146  0.00  0.00     0.023 A 
ATOM      2  C1  UNL d   1      -0.910   2.758   2.156  0.00  0.00     0.003 A 
ATOM      3  C2  UNL d   1      -0.465   2.260   0.930  0.00  0.00     0.048 A 
ATOM      4  C3  UNL d   1       0.902   2.108   0.700  0.00  0.00     0.023 A 
ATOM      5  C4  UNL d   1       1.827   2.451   1.688  0.00  0.00     0.048 A 
ATOM      6  C5  UNL d   1       1.378   2.949   2.912  0.00  0.00     0.003 A 
ATOM      7  I   UNL d   1       1.567   1.367  -1.124  0.00  0.00    -0.146 I 
ENDROOT
TORSDOF 0
ENDMDL
