MODEL 1
REMARK minimizedAffinity -0.38369441
REMARK minimizedRMSD -1
REMARK  0 active torsions:
REMARK  status: ('A' for Active; 'I' for Inactive)
ROOT
ATOM      1  C   UNL d   1       0.070   0.497  -0.413  0.00  0.00     0.172 C 
ATOM      2  N   UNL d   1      -0.452  -0.771   0.041  0.00  0.00    -0.070 N 
ATOM      3  C1  UNL d   1      -0.815  -1.071   1.326  0.00  0.00    -0.004 A 
ATOM      4  C2  UNL d   1      -1.261  -2.375   1.346  0.00  0.00    -0.047 A 
ATOM      5  C3  UNL d   1      -1.161  -2.876   0.026  0.00  0.00    -0.047 A 
ATOM      6  C4  UNL d   1      -0.658  -1.862  -0.761  0.00  0.00    -0.004 A 
ENDROOT
TORSDOF 0
ENDMDL
