MODEL 1
REMARK minimizedAffinity -2.11136746
REMARK minimizedRMSD -1
REMARK  0 active torsions:
REMARK  status: ('A' for Active; 'I' for Inactive)
ROOT
ATOM      1  C   UNL d   1       0.197   0.752  -0.011  0.00  0.00     0.172 C 
ATOM      2  N   UNL d   1       1.090   1.826   0.356  0.00  0.00    -0.070 N 
ATOM      3  C1  UNL d   1       0.731   2.974   1.012  0.00  0.00    -0.004 A 
ATOM      4  C2  UNL d   1       1.866   3.739   1.174  0.00  0.00    -0.047 A 
ATOM      5  C3  UNL d   1       2.943   3.028   0.594  0.00  0.00    -0.047 A 
ATOM      6  C4  UNL d   1       2.435   1.847   0.096  0.00  0.00    -0.004 A 
ENDROOT
TORSDOF 0
ENDMDL
