MODEL 1
REMARK minimizedAffinity 0.0962226093
REMARK minimizedRMSD -1
REMARK  0 active torsions:
REMARK  status: ('A' for Active; 'I' for Inactive)
ROOT
ATOM      1  C   UNL d   1       0.116   0.996   0.064  0.00  0.00     0.172 C 
ATOM      2  N   UNL d   1       0.856   2.121   0.585  0.00  0.00    -0.070 N 
ATOM      3  C1  UNL d   1       0.468   2.918   1.628  0.00  0.00    -0.004 A 
ATOM      4  C2  UNL d   1       1.444   3.873   1.815  0.00  0.00    -0.047 A 
ATOM      5  C3  UNL d   1       2.453   3.642   0.851  0.00  0.00    -0.047 A 
ATOM      6  C4  UNL d   1       2.064   2.552   0.102  0.00  0.00    -0.004 A 
ENDROOT
TORSDOF 0
ENDMDL
