MODEL 1
REMARK minimizedAffinity 0.490137666
REMARK minimizedRMSD -1
REMARK  0 active torsions:
REMARK  status: ('A' for Active; 'I' for Inactive)
ROOT
ATOM      1  C   UNL d   1       0.240   0.066  -2.032  0.00  0.00     0.172 C 
ATOM      2  N   UNL d   1      -0.199   0.129  -0.658  0.00  0.00    -0.070 N 
ATOM      3  C1  UNL d   1      -1.245  -0.572  -0.121  0.00  0.00    -0.004 A 
ATOM      4  C2  UNL d   1      -1.338  -0.236   1.213  0.00  0.00    -0.047 A 
ATOM      5  C3  UNL d   1      -0.312   0.700   1.486  0.00  0.00    -0.047 A 
ATOM      6  C4  UNL d   1       0.378   0.908   0.310  0.00  0.00    -0.004 A 
ENDROOT
TORSDOF 0
ENDMDL
