MODEL 1
REMARK minimizedAffinity 2.1185565
REMARK minimizedRMSD -1
REMARK  0 active torsions:
REMARK  status: ('A' for Active; 'I' for Inactive)
ROOT
ATOM      1  C   UNL d   1      -0.079   0.422  -0.972  0.00  0.00     0.172 C 
ATOM      2  N   UNL d   1      -0.474  -0.451   0.109  0.00  0.00    -0.070 N 
ATOM      3  C1  UNL d   1      -0.972  -1.719  -0.030  0.00  0.00    -0.004 A 
ATOM      4  C2  UNL d   1      -1.225  -2.214   1.231  0.00  0.00    -0.047 A 
ATOM      5  C3  UNL d   1      -0.868  -1.208   2.160  0.00  0.00    -0.047 A 
ATOM      6  C4  UNL d   1      -0.406  -0.127   1.438  0.00  0.00    -0.004 A 
ENDROOT
TORSDOF 0
ENDMDL
