MODEL 1
REMARK minimizedAffinity -2.07782245
REMARK minimizedRMSD -1
REMARK  0 active torsions:
REMARK  status: ('A' for Active; 'I' for Inactive)
ROOT
ATOM      1  C   UNL d   1       2.061   3.310   1.389  0.00  0.00     0.172 C 
ATOM      2  N   UNL d   1       1.498   2.189   0.674  0.00  0.00    -0.070 N 
ATOM      3  C1  UNL d   1       0.178   1.826   0.670  0.00  0.00    -0.004 A 
ATOM      4  C2  UNL d   1       0.049   0.711  -0.129  0.00  0.00    -0.047 A 
ATOM      5  C3  UNL d   1       1.337   0.391  -0.622  0.00  0.00    -0.047 A 
ATOM      6  C4  UNL d   1       2.215   1.323  -0.109  0.00  0.00    -0.004 A 
ENDROOT
TORSDOF 0
ENDMDL
