MODEL 1
REMARK minimizedAffinity 4.01614475
REMARK minimizedRMSD -1
REMARK  0 active torsions:
REMARK  status: ('A' for Active; 'I' for Inactive)
ROOT
ATOM      1  C   UNL d   1       1.893   3.364   1.748  0.00  0.00     0.172 C 
ATOM      2  N   UNL d   1       1.490   2.177   1.032  0.00  0.00    -0.070 N 
ATOM      3  C1  UNL d   1       2.253   1.495   0.122  0.00  0.00    -0.004 A 
ATOM      4  C2  UNL d   1       1.513   0.426  -0.333  0.00  0.00    -0.047 A 
ATOM      5  C3  UNL d   1       0.261   0.467   0.325  0.00  0.00    -0.047 A 
ATOM      6  C4  UNL d   1       0.273   1.560   1.164  0.00  0.00    -0.004 A 
ENDROOT
TORSDOF 0
ENDMDL
