MODEL 1
REMARK minimizedAffinity 0.183705971
REMARK minimizedRMSD -1
REMARK  0 active torsions:
REMARK  status: ('A' for Active; 'I' for Inactive)
ROOT
ATOM      1  C   UNL d   1       1.023  -0.036   2.938  0.00  0.00     0.172 C 
ATOM      2  N   UNL d   1       0.057   0.143   1.880  0.00  0.00    -0.070 N 
ATOM      3  C1  UNL d   1       0.239   0.899   0.753  0.00  0.00    -0.004 A 
ATOM      4  C2  UNL d   1      -0.910   0.812  -0.003  0.00  0.00    -0.047 A 
ATOM      5  C3  UNL d   1      -1.814  -0.024   0.694  0.00  0.00    -0.047 A 
ATOM      6  C4  UNL d   1      -1.189  -0.424   1.857  0.00  0.00    -0.004 A 
ENDROOT
TORSDOF 0
ENDMDL
