MODEL 1
REMARK minimizedAffinity -0.677250147
REMARK minimizedRMSD -1
REMARK  0 active torsions:
REMARK  status: ('A' for Active; 'I' for Inactive)
ROOT
ATOM      1  C   UNL d   1       0.262  -0.643  -2.426  0.00  0.00     0.172 C 
ATOM      2  N   UNL d   1      -0.097  -0.295  -1.072  0.00  0.00    -0.070 N 
ATOM      3  C1  UNL d   1       0.265   0.854  -0.420  0.00  0.00    -0.004 A 
ATOM      4  C2  UNL d   1      -0.274   0.808   0.848  0.00  0.00    -0.047 A 
ATOM      5  C3  UNL d   1      -0.984  -0.411   0.962  0.00  0.00    -0.047 A 
ATOM      6  C4  UNL d   1      -0.858  -1.074  -0.241  0.00  0.00    -0.004 A 
ENDROOT
TORSDOF 0
ENDMDL
