MODEL 1
REMARK minimizedAffinity -2.32787895
REMARK minimizedRMSD -1
REMARK  0 active torsions:
REMARK  status: ('A' for Active; 'I' for Inactive)
ROOT
ATOM      1  C   UNL d   1      -0.054   1.074  -0.044  0.00  0.00     0.172 C 
ATOM      2  N   UNL d   1      -0.450  -0.258   0.350  0.00  0.00    -0.070 N 
ATOM      3  C1  UNL d   1      -0.639  -1.318  -0.496  0.00  0.00    -0.004 A 
ATOM      4  C2  UNL d   1      -1.010  -2.405   0.265  0.00  0.00    -0.047 A 
ATOM      5  C3  UNL d   1      -1.045  -1.984   1.616  0.00  0.00    -0.047 A 
ATOM      6  C4  UNL d   1      -0.694  -0.651   1.640  0.00  0.00    -0.004 A 
ENDROOT
TORSDOF 0
ENDMDL
