MODEL 1
REMARK minimizedAffinity -3.84140873
REMARK minimizedRMSD -1
REMARK  0 active torsions:
REMARK  status: ('A' for Active; 'I' for Inactive)
ROOT
ATOM      1  C   UNL d   1       0.066   0.916   0.104  0.00  0.00     0.172 C 
ATOM      2  N   UNL d   1      -0.036  -0.517   0.251  0.00  0.00    -0.070 N 
ATOM      3  C1  UNL d   1       0.108  -1.435  -0.754  0.00  0.00    -0.004 A 
ATOM      4  C2  UNL d   1      -0.059  -2.689  -0.208  0.00  0.00    -0.047 A 
ATOM      5  C3  UNL d   1      -0.314  -2.519   1.173  0.00  0.00    -0.047 A 
ATOM      6  C4  UNL d   1      -0.294  -1.164   1.431  0.00  0.00    -0.004 A 
ENDROOT
TORSDOF 0
ENDMDL
