MODEL 1
REMARK minimizedAffinity 4.55937099
REMARK minimizedRMSD -1
REMARK  0 active torsions:
REMARK  status: ('A' for Active; 'I' for Inactive)
ROOT
ATOM      1  C   UNL d   1      -2.070  -2.650   1.235  0.00  0.00     0.172 C 
ATOM      2  N   UNL d   1      -1.525  -1.313   1.249  0.00  0.00    -0.070 N 
ATOM      3  C1  UNL d   1      -1.127  -0.601   0.149  0.00  0.00    -0.004 A 
ATOM      4  C2  UNL d   1      -0.669   0.624   0.582  0.00  0.00    -0.047 A 
ATOM      5  C3  UNL d   1      -0.795   0.650   1.991  0.00  0.00    -0.047 A 
ATOM      6  C4  UNL d   1      -1.327  -0.562   2.378  0.00  0.00    -0.004 A 
ENDROOT
TORSDOF 0
ENDMDL
