MODEL 1
REMARK minimizedAffinity -2.64749551
REMARK minimizedRMSD -1
REMARK  0 active torsions:
REMARK  status: ('A' for Active; 'I' for Inactive)
ROOT
ATOM      1  C   UNL d   1      -0.865  -1.876   0.392  0.00  0.00     0.172 C 
ATOM      2  N   UNL d   1      -0.394  -0.780  -0.421  0.00  0.00    -0.070 N 
ATOM      3  C1  UNL d   1      -0.065  -0.853  -1.748  0.00  0.00    -0.004 A 
ATOM      4  C2  UNL d   1       0.337   0.401  -2.153  0.00  0.00    -0.047 A 
ATOM      5  C3  UNL d   1       0.249   1.258  -1.030  0.00  0.00    -0.047 A 
ATOM      6  C4  UNL d   1      -0.206   0.501   0.029  0.00  0.00    -0.004 A 
ENDROOT
TORSDOF 0
ENDMDL
