MODEL 1
REMARK minimizedAffinity -1.72764409
REMARK minimizedRMSD -1
REMARK  0 active torsions:
REMARK  status: ('A' for Active; 'I' for Inactive)
ROOT
ATOM      1  C   UNL d   1       0.224  -0.032  -2.582  0.00  0.00     0.172 C 
ATOM      2  N   UNL d   1      -0.137   0.104  -1.191  0.00  0.00    -0.070 N 
ATOM      3  C1  UNL d   1       0.342   1.056  -0.331  0.00  0.00    -0.004 A 
ATOM      4  C2  UNL d   1      -0.244   0.847   0.899  0.00  0.00    -0.047 A 
ATOM      5  C3  UNL d   1      -1.104  -0.269   0.774  0.00  0.00    -0.047 A 
ATOM      6  C4  UNL d   1      -1.019  -0.710  -0.530  0.00  0.00    -0.004 A 
ENDROOT
TORSDOF 0
ENDMDL
