MODEL 1
REMARK minimizedAffinity -0.857504189
REMARK minimizedRMSD -1
REMARK  0 active torsions:
REMARK  status: ('A' for Active; 'I' for Inactive)
ROOT
ATOM      1  C   UNL d   1      -1.104  -2.682   0.882  0.00  0.00     0.172 C 
ATOM      2  N   UNL d   1      -0.700  -1.346   0.511  0.00  0.00    -0.070 N 
ATOM      3  C1  UNL d   1      -1.015  -0.199   1.188  0.00  0.00    -0.004 A 
ATOM      4  C2  UNL d   1      -0.442   0.859   0.516  0.00  0.00    -0.047 A 
ATOM      5  C3  UNL d   1       0.240   0.330  -0.604  0.00  0.00    -0.047 A 
ATOM      6  C4  UNL d   1       0.065  -1.038  -0.584  0.00  0.00    -0.004 A 
ENDROOT
TORSDOF 0
ENDMDL
