MODEL 1
REMARK minimizedAffinity -1.05525315
REMARK minimizedRMSD -1
REMARK  0 active torsions:
REMARK  status: ('A' for Active; 'I' for Inactive)
ROOT
ATOM      1  C   UNL d   1       1.328   2.532   0.166  0.00  0.00     0.172 C 
ATOM      2  N   UNL d   1       0.429   1.403   0.203  0.00  0.00    -0.070 N 
ATOM      3  C1  UNL d   1      -0.366   0.982  -0.830  0.00  0.00    -0.004 A 
ATOM      4  C2  UNL d   1      -1.070  -0.121  -0.397  0.00  0.00    -0.047 A 
ATOM      5  C3  UNL d   1      -0.687  -0.370   0.942  0.00  0.00    -0.047 A 
ATOM      6  C4  UNL d   1       0.242   0.588   1.288  0.00  0.00    -0.004 A 
ENDROOT
TORSDOF 0
ENDMDL
