MODEL 1
REMARK minimizedAffinity 7.86899233
REMARK minimizedRMSD -1
REMARK  0 active torsions:
REMARK  status: ('A' for Active; 'I' for Inactive)
ROOT
ATOM      1  C   UNL d   1      -5.960  -2.393  -4.130  0.00  0.00     0.172 C 
ATOM      2  N   UNL d   1      -5.657  -1.085  -4.660  0.00  0.00    -0.070 N 
ATOM      3  C1  UNL d   1      -5.996   0.109  -4.081  0.00  0.00    -0.004 A 
ATOM      4  C2  UNL d   1      -5.529   1.120  -4.893  0.00  0.00    -0.047 A 
ATOM      5  C3  UNL d   1      -4.887   0.512  -5.999  0.00  0.00    -0.047 A 
ATOM      6  C4  UNL d   1      -4.982  -0.853  -5.829  0.00  0.00    -0.004 A 
ENDROOT
TORSDOF 0
ENDMDL
