MODEL 1
REMARK minimizedAffinity 4.08331156
REMARK minimizedRMSD -1
REMARK  0 active torsions:
REMARK  status: ('A' for Active; 'I' for Inactive)
ROOT
ATOM      1  C   UNL d   1      -2.125   2.827  -3.214  0.00  0.00     0.172 C 
ATOM      2  N   UNL d   1      -2.948   3.502  -4.190  0.00  0.00    -0.070 N 
ATOM      3  C1  UNL d   1      -3.578   2.907  -5.251  0.00  0.00    -0.004 A 
ATOM      4  C2  UNL d   1      -4.259   3.887  -5.940  0.00  0.00    -0.047 A 
ATOM      5  C3  UNL d   1      -4.031   5.113  -5.270  0.00  0.00    -0.047 A 
ATOM      6  C4  UNL d   1      -3.216   4.845  -4.191  0.00  0.00    -0.004 A 
ENDROOT
TORSDOF 0
ENDMDL
