MODEL 1
REMARK minimizedAffinity 9.49507713
REMARK minimizedRMSD -1
REMARK  0 active torsions:
REMARK  status: ('A' for Active; 'I' for Inactive)
ROOT
ATOM      1  C   UNL d   1      -2.315   0.398  -1.793  0.00  0.00     0.172 C 
ATOM      2  N   UNL d   1      -1.981   1.500  -2.664  0.00  0.00    -0.070 N 
ATOM      3  C1  UNL d   1      -0.764   2.123  -2.733  0.00  0.00    -0.004 A 
ATOM      4  C2  UNL d   1      -0.852   3.120  -3.681  0.00  0.00    -0.047 A 
ATOM      5  C3  UNL d   1      -2.169   3.096  -4.199  0.00  0.00    -0.047 A 
ATOM      6  C4  UNL d   1      -2.847   2.084  -3.552  0.00  0.00    -0.004 A 
ENDROOT
TORSDOF 0
ENDMDL
