MODEL 1
REMARK minimizedAffinity 3.46063352
REMARK minimizedRMSD -1
REMARK  0 active torsions:
REMARK  status: ('A' for Active; 'I' for Inactive)
ROOT
ATOM      1  C   UNL d   1      -5.592   1.286  -4.531  0.00  0.00     0.172 C 
ATOM      2  N   UNL d   1      -4.392   1.770  -3.891  0.00  0.00    -0.070 N 
ATOM      3  C1  UNL d   1      -3.782   1.203  -2.803  0.00  0.00    -0.004 A 
ATOM      4  C2  UNL d   1      -2.671   1.959  -2.500  0.00  0.00    -0.047 A 
ATOM      5  C3  UNL d   1      -2.611   3.018  -3.437  0.00  0.00    -0.047 A 
ATOM      6  C4  UNL d   1      -3.688   2.877  -4.286  0.00  0.00    -0.004 A 
ENDROOT
TORSDOF 0
ENDMDL
