MODEL 1
REMARK minimizedAffinity 4.81203032
REMARK minimizedRMSD -1
REMARK  0 active torsions:
REMARK  status: ('A' for Active; 'I' for Inactive)
ROOT
ATOM      1  C   UNL d   1       4.924  -1.787  -0.358  0.00  0.00     0.172 C 
ATOM      2  N   UNL d   1       3.573  -2.134   0.011  0.00  0.00    -0.070 N 
ATOM      3  C1  UNL d   1       2.843  -3.169  -0.511  0.00  0.00    -0.004 A 
ATOM      4  C2  UNL d   1       1.608  -3.165   0.101  0.00  0.00    -0.047 A 
ATOM      5  C3  UNL d   1       1.595  -2.091   1.022  0.00  0.00    -0.047 A 
ATOM      6  C4  UNL d   1       2.823  -1.470   0.946  0.00  0.00    -0.004 A 
ENDROOT
TORSDOF 0
ENDMDL
