MODEL 1
REMARK minimizedAffinity 2.94031858
REMARK minimizedRMSD -1
REMARK  0 active torsions:
REMARK  status: ('A' for Active; 'I' for Inactive)
ROOT
ATOM      1  C   UNL d   1      -5.956   0.715   2.173  0.00  0.00     0.172 C 
ATOM      2  N   UNL d   1      -5.967   1.111   3.561  0.00  0.00    -0.070 N 
ATOM      3  C1  UNL d   1      -5.957   2.400   4.024  0.00  0.00    -0.004 A 
ATOM      4  C2  UNL d   1      -5.974   2.354   5.401  0.00  0.00    -0.047 A 
ATOM      5  C3  UNL d   1      -5.994   0.991   5.780  0.00  0.00    -0.047 A 
ATOM      6  C4  UNL d   1      -5.989   0.243   4.621  0.00  0.00    -0.004 A 
ENDROOT
TORSDOF 0
ENDMDL
