MODEL 1
REMARK minimizedAffinity 7.57532072
REMARK minimizedRMSD -1
REMARK  0 active torsions:
REMARK  status: ('A' for Active; 'I' for Inactive)
ROOT
ATOM      1  C   UNL d   1      -0.023   2.693  -4.269  0.00  0.00     0.172 C 
ATOM      2  N   UNL d   1      -1.075   2.274  -3.373  0.00  0.00    -0.070 N 
ATOM      3  C1  UNL d   1      -2.403   2.580  -3.503  0.00  0.00    -0.004 A 
ATOM      4  C2  UNL d   1      -3.075   1.995  -2.451  0.00  0.00    -0.047 A 
ATOM      5  C3  UNL d   1      -2.118   1.316  -1.661  0.00  0.00    -0.047 A 
ATOM      6  C4  UNL d   1      -0.887   1.505  -2.255  0.00  0.00    -0.004 A 
ENDROOT
TORSDOF 0
ENDMDL
