MODEL 1
REMARK minimizedAffinity 6.34433746
REMARK minimizedRMSD -1
REMARK  0 active torsions:
REMARK  status: ('A' for Active; 'I' for Inactive)
ROOT
ATOM      1  C   UNL d   1      -0.821   2.423  -3.214  0.00  0.00     0.172 C 
ATOM      2  N   UNL d   1      -1.738   1.513  -2.568  0.00  0.00    -0.070 N 
ATOM      3  C1  UNL d   1      -1.443   0.241  -2.157  0.00  0.00    -0.004 A 
ATOM      4  C2  UNL d   1      -2.579  -0.294  -1.590  0.00  0.00    -0.047 A 
ATOM      5  C3  UNL d   1      -3.593   0.691  -1.664  0.00  0.00    -0.047 A 
ATOM      6  C4  UNL d   1      -3.045   1.800  -2.274  0.00  0.00    -0.004 A 
ENDROOT
TORSDOF 0
ENDMDL
