MODEL 1
REMARK minimizedAffinity 5.71077108
REMARK minimizedRMSD -1
REMARK  0 active torsions:
REMARK  status: ('A' for Active; 'I' for Inactive)
ROOT
ATOM      1  C   UNL d   1      -5.914  -2.459  -4.121  0.00  0.00     0.172 C 
ATOM      2  N   UNL d   1      -5.847  -1.103  -4.614  0.00  0.00    -0.070 N 
ATOM      3  C1  UNL d   1      -5.999   0.029  -3.859  0.00  0.00    -0.004 A 
ATOM      4  C2  UNL d   1      -5.867   1.116  -4.696  0.00  0.00    -0.047 A 
ATOM      5  C3  UNL d   1      -5.628   0.620  -6.000  0.00  0.00    -0.047 A 
ATOM      6  C4  UNL d   1      -5.621  -0.757  -5.920  0.00  0.00    -0.004 A 
ENDROOT
TORSDOF 0
ENDMDL
