MODEL 1
REMARK minimizedAffinity 1.63637471
REMARK minimizedRMSD -1
REMARK  0 active torsions:
REMARK  status: ('A' for Active; 'I' for Inactive)
ROOT
ATOM      1  C   UNL d   1       1.585   5.424  -5.980  0.00  0.00     0.172 C 
ATOM      2  N   UNL d   1       2.991   5.097  -5.967  0.00  0.00    -0.070 N 
ATOM      3  C1  UNL d   1       4.021   6.000  -5.999  0.00  0.00    -0.004 A 
ATOM      4  C2  UNL d   1       5.203   5.292  -5.972  0.00  0.00    -0.047 A 
ATOM      5  C3  UNL d   1       4.873   3.917  -5.923  0.00  0.00    -0.047 A 
ATOM      6  C4  UNL d   1       3.497   3.825  -5.921  0.00  0.00    -0.004 A 
ENDROOT
TORSDOF 0
ENDMDL
