MODEL 1
REMARK minimizedAffinity 1.7519201
REMARK minimizedRMSD -1
REMARK  0 active torsions:
REMARK  status: ('A' for Active; 'I' for Inactive)
ROOT
ATOM      1  C1  BNZ d   1      -1.646  -4.011   3.644  0.00  0.00     0.000 A 
ATOM      2  C2  BNZ d   1      -2.267  -3.991   4.864  0.00  0.00     0.000 A 
ATOM      3  C3  BNZ d   1      -3.057  -2.937   5.230  0.00  0.00     0.000 A 
ATOM      4  C4  BNZ d   1      -3.192  -1.888   4.393  0.00  0.00     0.000 A 
ATOM      5  C5  BNZ d   1      -2.565  -1.889   3.163  0.00  0.00     0.000 A 
ATOM      6  C6  BNZ d   1      -1.802  -2.969   2.782  0.00  0.00     0.000 A 
ENDROOT
TORSDOF 0
ENDMDL
