MODEL 1
REMARK minimizedAffinity 1.52569318
REMARK minimizedRMSD -1
REMARK  0 active torsions:
REMARK  status: ('A' for Active; 'I' for Inactive)
ROOT
ATOM      1  C1  BNZ d   1       0.544   2.603  -0.524  0.00  0.00     0.000 A 
ATOM      2  C2  BNZ d   1      -0.087   1.427  -0.213  0.00  0.00     0.000 A 
ATOM      3  C3  BNZ d   1       0.261   0.721   0.904  0.00  0.00     0.000 A 
ATOM      4  C4  BNZ d   1       1.264   1.168   1.686  0.00  0.00     0.000 A 
ATOM      5  C5  BNZ d   1       1.916   2.347   1.381  0.00  0.00     0.000 A 
ATOM      6  C6  BNZ d   1       1.537   3.075   0.277  0.00  0.00     0.000 A 
ENDROOT
TORSDOF 0
ENDMDL
