MODEL 1
REMARK minimizedAffinity -2.13940978
REMARK minimizedRMSD -1
REMARK  0 active torsions:
REMARK  status: ('A' for Active; 'I' for Inactive)
ROOT
ATOM      1  C1  BNZ d   1      -0.700   5.998  -2.883  0.00  0.00     0.000 A 
ATOM      2  C2  BNZ d   1      -1.549   5.994  -1.808  0.00  0.00     0.000 A 
ATOM      3  C3  BNZ d   1      -2.904   5.968  -1.987  0.00  0.00     0.000 A 
ATOM      4  C4  BNZ d   1      -3.408   5.986  -3.238  0.00  0.00     0.000 A 
ATOM      5  C5  BNZ d   1      -2.566   6.000  -4.331  0.00  0.00     0.000 A 
ATOM      6  C6  BNZ d   1      -1.202   5.987  -4.148  0.00  0.00     0.000 A 
ENDROOT
TORSDOF 0
ENDMDL
