MODEL 1
REMARK minimizedAffinity -0.695530832
REMARK minimizedRMSD -1
REMARK  0 active torsions:
REMARK  status: ('A' for Active; 'I' for Inactive)
ROOT
ATOM      1  C1  BNZ d   1      -2.500   5.989  -4.896  0.00  0.00     0.000 A 
ATOM      2  C2  BNZ d   1      -1.485   5.999  -3.977  0.00  0.00     0.000 A 
ATOM      3  C3  BNZ d   1      -1.753   5.984  -2.637  0.00  0.00     0.000 A 
ATOM      4  C4  BNZ d   1      -3.035   6.000  -2.218  0.00  0.00     0.000 A 
ATOM      5  C5  BNZ d   1      -4.070   5.999  -3.132  0.00  0.00     0.000 A 
ATOM      6  C6  BNZ d   1      -3.796   5.975  -4.480  0.00  0.00     0.000 A 
ENDROOT
TORSDOF 0
ENDMDL
