MODEL 1
REMARK minimizedAffinity 2.94982529
REMARK minimizedRMSD -1
REMARK  0 active torsions:
REMARK  status: ('A' for Active; 'I' for Inactive)
ROOT
ATOM      1  C1  BNZ d   1       3.164   5.903  -4.839  0.00  0.00     0.000 A 
ATOM      2  C2  BNZ d   1       4.027   5.962  -5.900  0.00  0.00     0.000 A 
ATOM      3  C3  BNZ d   1       5.379   5.976  -5.702  0.00  0.00     0.000 A 
ATOM      4  C4  BNZ d   1       5.865   5.971  -4.444  0.00  0.00     0.000 A 
ATOM      5  C5  BNZ d   1       5.008   5.921  -3.363  0.00  0.00     0.000 A 
ATOM      6  C6  BNZ d   1       3.648   5.868  -3.567  0.00  0.00     0.000 A 
ENDROOT
TORSDOF 0
ENDMDL
