MODEL 1
REMARK minimizedAffinity -1.39023614
REMARK minimizedRMSD -1
REMARK  0 active torsions:
REMARK  status: ('A' for Active; 'I' for Inactive)
ROOT
ATOM      1  C1  BNZ d   1      -1.665   5.992  -2.242  0.00  0.00     0.000 A 
ATOM      2  C2  BNZ d   1      -2.980   6.000  -1.860  0.00  0.00     0.000 A 
ATOM      3  C3  BNZ d   1      -3.980   5.983  -2.792  0.00  0.00     0.000 A 
ATOM      4  C4  BNZ d   1      -3.664   5.998  -4.103  0.00  0.00     0.000 A 
ATOM      5  C5  BNZ d   1      -2.343   6.000  -4.505  0.00  0.00     0.000 A 
ATOM      6  C6  BNZ d   1      -1.339   5.977  -3.564  0.00  0.00     0.000 A 
ENDROOT
TORSDOF 0
ENDMDL
