MODEL 1
REMARK minimizedAffinity 0.589123785
REMARK minimizedRMSD -1
REMARK  0 active torsions:
REMARK  status: ('A' for Active; 'I' for Inactive)
ROOT
ATOM      1  C1  BNZ d   1      -0.017   5.998  -2.332  0.00  0.00     0.000 A 
ATOM      2  C2  BNZ d   1      -1.207   5.992  -1.655  0.00  0.00     0.000 A 
ATOM      3  C3  BNZ d   1      -2.396   5.966  -2.330  0.00  0.00     0.000 A 
ATOM      4  C4  BNZ d   1      -2.393   5.985  -3.678  0.00  0.00     0.000 A 
ATOM      5  C5  BNZ d   1      -1.201   6.000  -4.375  0.00  0.00     0.000 A 
ATOM      6  C6  BNZ d   1      -0.006   5.988  -3.693  0.00  0.00     0.000 A 
ENDROOT
TORSDOF 0
ENDMDL
