MODEL 1
REMARK minimizedAffinity -3.61422062
REMARK minimizedRMSD -1
REMARK  0 active torsions:
REMARK  status: ('A' for Active; 'I' for Inactive)
ROOT
ATOM      1  C1  BNZ d   1       0.672   0.641   2.889  0.00  0.00     0.000 A 
ATOM      2  C2  BNZ d   1       1.870   0.804   2.245  0.00  0.00     0.000 A 
ATOM      3  C3  BNZ d   1       1.913   1.207   0.940  0.00  0.00     0.000 A 
ATOM      4  C4  BNZ d   1       0.761   1.407   0.269  0.00  0.00     0.000 A 
ATOM      5  C5  BNZ d   1      -0.455   1.238   0.901  0.00  0.00     0.000 A 
ATOM      6  C6  BNZ d   1      -0.495   0.870   2.226  0.00  0.00     0.000 A 
ENDROOT
TORSDOF 0
ENDMDL
