MODEL 1
REMARK minimizedAffinity -2.42655301
REMARK minimizedRMSD -1
REMARK  0 active torsions:
REMARK  status: ('A' for Active; 'I' for Inactive)
ROOT
ATOM      1  C1  BNZ d   1      -0.758   5.984  -2.848  0.00  0.00     0.000 A 
ATOM      2  C2  BNZ d   1      -0.017   5.977  -3.999  0.00  0.00     0.000 A 
ATOM      3  C3  BNZ d   1      -0.625   5.998  -5.224  0.00  0.00     0.000 A 
ATOM      4  C4  BNZ d   1      -1.971   5.983  -5.295  0.00  0.00     0.000 A 
ATOM      5  C5  BNZ d   1      -2.733   5.980  -4.143  0.00  0.00     0.000 A 
ATOM      6  C6  BNZ d   1      -2.117   5.999  -2.913  0.00  0.00     0.000 A 
ENDROOT
TORSDOF 0
ENDMDL
