MODEL 1
REMARK minimizedAffinity -0.609693706
REMARK minimizedRMSD -1
REMARK  0 active torsions:
REMARK  status: ('A' for Active; 'I' for Inactive)
ROOT
ATOM      1  C1  BNZ d   1       4.449   5.999  -5.998  0.00  0.00     0.000 A 
ATOM      2  C2  BNZ d   1       3.080   5.978  -5.973  0.00  0.00     0.000 A 
ATOM      3  C3  BNZ d   1       2.401   5.969  -4.787  0.00  0.00     0.000 A 
ATOM      4  C4  BNZ d   1       3.091   5.940  -3.629  0.00  0.00     0.000 A 
ATOM      5  C5  BNZ d   1       4.471   5.951  -3.637  0.00  0.00     0.000 A 
ATOM      6  C6  BNZ d   1       5.151   6.000  -4.832  0.00  0.00     0.000 A 
ENDROOT
TORSDOF 0
ENDMDL
