MODEL 1
REMARK minimizedAffinity -2.19887853
REMARK minimizedRMSD -1
REMARK  0 active torsions:
REMARK  status: ('A' for Active; 'I' for Inactive)
ROOT
ATOM      1  C1  BNZ d   1       0.721   5.593  -5.698  0.00  0.00     0.000 A 
ATOM      2  C2  BNZ d   1      -0.637   5.553  -5.874  0.00  0.00     0.000 A 
ATOM      3  C3  BNZ d   1      -1.485   5.754  -4.821  0.00  0.00     0.000 A 
ATOM      4  C4  BNZ d   1      -0.976   5.954  -3.588  0.00  0.00     0.000 A 
ATOM      5  C5  BNZ d   1       0.390   5.988  -3.393  0.00  0.00     0.000 A 
ATOM      6  C6  BNZ d   1       1.241   5.824  -4.462  0.00  0.00     0.000 A 
ENDROOT
TORSDOF 0
ENDMDL
