MODEL 1
REMARK minimizedAffinity 0.722646594
REMARK minimizedRMSD -1
REMARK  0 active torsions:
REMARK  status: ('A' for Active; 'I' for Inactive)
ROOT
ATOM      1  C1  BNZ d   1      -3.436   5.949  -1.525  0.00  0.00     0.000 A 
ATOM      2  C2  BNZ d   1      -3.700   5.973  -2.869  0.00  0.00     0.000 A 
ATOM      3  C3  BNZ d   1      -2.682   5.977  -3.782  0.00  0.00     0.000 A 
ATOM      4  C4  BNZ d   1      -1.405   5.998  -3.351  0.00  0.00     0.000 A 
ATOM      5  C5  BNZ d   1      -1.123   5.983  -1.999  0.00  0.00     0.000 A 
ATOM      6  C6  BNZ d   1      -2.149   5.939  -1.084  0.00  0.00     0.000 A 
ENDROOT
TORSDOF 0
ENDMDL
