MODEL 1
REMARK minimizedAffinity 1.55958319
REMARK minimizedRMSD -1
REMARK  0 active torsions:
REMARK  status: ('A' for Active; 'I' for Inactive)
ROOT
ATOM      1  C1  BNZ d   1      -3.038   5.999  -4.189  0.00  0.00     0.000 A 
ATOM      2  C2  BNZ d   1      -1.800   5.998  -4.777  0.00  0.00     0.000 A 
ATOM      3  C3  BNZ d   1      -0.665   5.972  -4.016  0.00  0.00     0.000 A 
ATOM      4  C4  BNZ d   1      -0.767   5.988  -2.672  0.00  0.00     0.000 A 
ATOM      5  C5  BNZ d   1      -2.006   5.999  -2.065  0.00  0.00     0.000 A 
ATOM      6  C6  BNZ d   1      -3.148   5.986  -2.833  0.00  0.00     0.000 A 
ENDROOT
TORSDOF 0
ENDMDL
