MODEL 1
REMARK minimizedAffinity 1.12931812
REMARK minimizedRMSD -1
REMARK  0 active torsions:
REMARK  status: ('A' for Active; 'I' for Inactive)
ROOT
ATOM      1  C1  BNZ d   1       1.360   5.917  -4.645  0.00  0.00     0.000 A 
ATOM      2  C2  BNZ d   1       0.565   5.947  -3.530  0.00  0.00     0.000 A 
ATOM      3  C3  BNZ d   1      -0.797   5.968  -3.642  0.00  0.00     0.000 A 
ATOM      4  C4  BNZ d   1      -1.362   6.000  -4.866  0.00  0.00     0.000 A 
ATOM      5  C5  BNZ d   1      -0.574   5.980  -6.000  0.00  0.00     0.000 A 
ATOM      6  C6  BNZ d   1       0.796   5.919  -5.884  0.00  0.00     0.000 A 
ENDROOT
TORSDOF 0
ENDMDL
