MODEL 1
REMARK minimizedAffinity 9.21100903
REMARK minimizedRMSD -1
REMARK  1 active torsions:
REMARK  status: ('A' for Active; 'I' for Inactive)
REMARK    1  A    between atoms: C1_2  and  C2_3 
ROOT
ATOM      1  C2  UNL d   1      -2.881  -3.467  -5.528  0.00  0.00    -0.073 A 
ATOM      2  C3  UNL d   1      -2.078  -4.229  -4.673  0.00  0.00    -0.002 A 
ATOM      3  C4  UNL d   1      -2.501  -5.488  -4.243  0.00  0.00     0.004 A 
ATOM      4  C5  UNL d   1      -3.726  -6.000  -4.670  0.00  0.00    -0.004 A 
ATOM      5  C6  UNL d   1      -4.538  -5.258  -5.534  0.00  0.00    -0.075 A 
ATOM      6  C7  UNL d   1      -5.860  -5.794  -6.000  0.00  0.00     0.076 C 
ATOM      7  C8  UNL d   1      -4.108  -3.994  -5.959  0.00  0.00     0.001 A 
ENDROOT
BRANCH   1   8
ATOM      8  C1  UNL d   1      -2.426  -2.110  -6.000  0.00  0.00     0.053 C 
ATOM      9  C   UNL d   1      -1.028  -1.775  -5.506  0.00  0.00     0.018 C 
ENDBRANCH   1   8
TORSDOF 1
ENDMDL
