MODEL 1
REMARK minimizedAffinity 12.4391918
REMARK minimizedRMSD -1
REMARK  1 active torsions:
REMARK  status: ('A' for Active; 'I' for Inactive)
REMARK    1  A    between atoms: C1_2  and  C2_3 
ROOT
ATOM      1  C2  UNL d   1       0.062   2.116   1.035  0.00  0.00    -0.073 A 
ATOM      2  C3  UNL d   1      -1.114   1.607   0.475  0.00  0.00    -0.002 A 
ATOM      3  C4  UNL d   1      -1.590   2.105  -0.739  0.00  0.00     0.004 A 
ATOM      4  C5  UNL d   1      -0.892   3.110  -1.407  0.00  0.00    -0.004 A 
ATOM      5  C6  UNL d   1       0.292   3.624  -0.869  0.00  0.00    -0.075 A 
ATOM      6  C7  UNL d   1       1.054   4.708  -1.574  0.00  0.00     0.076 C 
ATOM      7  C8  UNL d   1       0.762   3.121   0.352  0.00  0.00     0.001 A 
ENDROOT
BRANCH   1   8
ATOM      8  C1  UNL d   1       0.584   1.577   2.342  0.00  0.00     0.053 C 
ATOM      9  C   UNL d   1       2.073   1.834   2.511  0.00  0.00     0.018 C 
ENDBRANCH   1   8
TORSDOF 1
ENDMDL
