MODEL 1
REMARK minimizedAffinity 12.9124107
REMARK minimizedRMSD -1
REMARK  1 active torsions:
REMARK  status: ('A' for Active; 'I' for Inactive)
REMARK    1  A    between atoms: C1_2  and  C2_3 
ROOT
ATOM      1  C2  UNL d   1      -0.252   2.622  -0.008  0.00  0.00    -0.073 A 
ATOM      2  C3  UNL d   1       0.376   2.868  -1.234  0.00  0.00    -0.002 A 
ATOM      3  C4  UNL d   1       0.268   4.118  -1.844  0.00  0.00     0.004 A 
ATOM      4  C5  UNL d   1      -0.462   5.137  -1.231  0.00  0.00    -0.004 A 
ATOM      5  C6  UNL d   1      -1.087   4.915  -0.000  0.00  0.00    -0.075 A 
ATOM      6  C7  UNL d   1      -1.877   6.000   0.671  0.00  0.00     0.076 C 
ATOM      7  C8  UNL d   1      -0.976   3.656   0.605  0.00  0.00     0.001 A 
ENDROOT
BRANCH   1   8
ATOM      8  C1  UNL d   1      -0.133   1.275   0.657  0.00  0.00     0.053 C 
ATOM      9  C   UNL d   1       1.180   1.125   1.409  0.00  0.00     0.018 C 
ENDBRANCH   1   8
TORSDOF 1
ENDMDL
