MODEL 1
REMARK minimizedAffinity 22.2076378
REMARK minimizedRMSD -1
REMARK  1 active torsions:
REMARK  status: ('A' for Active; 'I' for Inactive)
REMARK    1  A    between atoms: C1_2  and  C2_3 
ROOT
ATOM      1  C2  UNL d   1       0.801   4.341  -1.575  0.00  0.00    -0.073 A 
ATOM      2  C3  UNL d   1      -0.341   4.772  -0.889  0.00  0.00    -0.002 A 
ATOM      3  C4  UNL d   1      -1.063   3.882  -0.094  0.00  0.00     0.004 A 
ATOM      4  C5  UNL d   1      -0.649   2.556   0.030  0.00  0.00    -0.004 A 
ATOM      5  C6  UNL d   1       0.496   2.109  -0.637  0.00  0.00    -0.075 A 
ATOM      6  C7  UNL d   1       0.954   0.685  -0.516  0.00  0.00     0.076 C 
ATOM      7  C8  UNL d   1       1.215   3.008  -1.437  0.00  0.00     0.001 A 
ENDROOT
BRANCH   1   8
ATOM      8  C1  UNL d   1       1.588   5.300  -2.429  0.00  0.00     0.053 C 
ATOM      9  C   UNL d   1       0.853   5.656  -3.712  0.00  0.00     0.018 C 
ENDBRANCH   1   8
TORSDOF 1
ENDMDL
