MODEL 1
REMARK minimizedAffinity 11.9607286
REMARK minimizedRMSD -1
REMARK  1 active torsions:
REMARK  status: ('A' for Active; 'I' for Inactive)
REMARK    1  A    between atoms: C1_2  and  C2_3 
ROOT
ATOM      1  C2  UNL d   1      -1.148   4.104  -2.027  0.00  0.00    -0.073 A 
ATOM      2  C3  UNL d   1       0.233   4.051  -2.243  0.00  0.00    -0.002 A 
ATOM      3  C4  UNL d   1       1.083   3.559  -1.252  0.00  0.00     0.004 A 
ATOM      4  C5  UNL d   1       0.561   3.109  -0.039  0.00  0.00    -0.004 A 
ATOM      5  C6  UNL d   1      -0.818   3.143   0.191  0.00  0.00    -0.075 A 
ATOM      6  C7  UNL d   1      -1.395   2.665   1.491  0.00  0.00     0.076 C 
ATOM      7  C8  UNL d   1      -1.665   3.641  -0.808  0.00  0.00     0.001 A 
ENDROOT
BRANCH   1   8
ATOM      8  C1  UNL d   1      -2.071   4.629  -3.097  0.00  0.00     0.053 C 
ATOM      9  C   UNL d   1      -3.515   4.221  -2.854  0.00  0.00     0.018 C 
ENDBRANCH   1   8
TORSDOF 1
ENDMDL
