MODEL 1
REMARK minimizedAffinity 11.8155575
REMARK minimizedRMSD -1
REMARK  1 active torsions:
REMARK  status: ('A' for Active; 'I' for Inactive)
REMARK    1  A    between atoms: C1_2  and  C2_3 
ROOT
ATOM      1  C2  UNL d   1       0.024  -2.825  -2.069  0.00  0.00    -0.073 A 
ATOM      2  C3  UNL d   1      -0.649  -3.216  -3.232  0.00  0.00    -0.002 A 
ATOM      3  C4  UNL d   1      -0.472  -4.499  -3.752  0.00  0.00     0.004 A 
ATOM      4  C5  UNL d   1       0.373  -5.405  -3.112  0.00  0.00    -0.004 A 
ATOM      5  C6  UNL d   1       1.046  -5.037  -1.942  0.00  0.00    -0.075 A 
ATOM      6  C7  UNL d   1       1.960  -6.000  -1.243  0.00  0.00     0.076 C 
ATOM      7  C8  UNL d   1       0.865  -3.746  -1.428  0.00  0.00     0.001 A 
ENDROOT
BRANCH   1   8
ATOM      8  C1  UNL d   1      -0.169  -1.443  -1.501  0.00  0.00     0.053 C 
ATOM      9  C   UNL d   1       1.124  -0.643  -1.497  0.00  0.00     0.018 C 
ENDBRANCH   1   8
TORSDOF 1
ENDMDL
