MODEL 1
REMARK minimizedAffinity -5.26488018
REMARK minimizedRMSD -1
REMARK  1 active torsions:
REMARK  status: ('A' for Active; 'I' for Inactive)
REMARK    1  A    between atoms: C1_2  and  C2_3 
ROOT
ATOM      1  C2  UNL d   1       0.032  -0.465  -0.535  0.00  0.00    -0.073 A 
ATOM      2  C3  UNL d   1       1.298  -0.274  -1.102  0.00  0.00    -0.002 A 
ATOM      3  C4  UNL d   1       2.118   0.765  -0.661  0.00  0.00     0.004 A 
ATOM      4  C5  UNL d   1       1.685   1.619   0.354  0.00  0.00    -0.004 A 
ATOM      5  C6  UNL d   1       0.429   1.438   0.940  0.00  0.00    -0.075 A 
ATOM      6  C7  UNL d   1      -0.052   2.349   2.031  0.00  0.00     0.076 C 
ATOM      7  C8  UNL d   1      -0.390   0.393   0.490  0.00  0.00     0.001 A 
ENDROOT
BRANCH   1   8
ATOM      8  C1  UNL d   1      -0.854  -1.590  -1.003  0.00  0.00     0.053 C 
ATOM      9  C   UNL d   1      -1.575  -1.246  -2.297  0.00  0.00     0.018 C 
ENDBRANCH   1   8
TORSDOF 1
ENDMDL
