MODEL 1
REMARK minimizedAffinity -5.1529417
REMARK minimizedRMSD -1
REMARK  1 active torsions:
REMARK  status: ('A' for Active; 'I' for Inactive)
REMARK    1  A    between atoms: C1_2  and  C2_3 
ROOT
ATOM      1  C2  UNL d   1       1.440   1.542   0.697  0.00  0.00    -0.073 A 
ATOM      2  C3  UNL d   1       0.602   1.865   1.770  0.00  0.00    -0.002 A 
ATOM      3  C4  UNL d   1      -0.584   1.159   1.976  0.00  0.00     0.004 A 
ATOM      4  C5  UNL d   1      -0.940   0.120   1.117  0.00  0.00    -0.004 A 
ATOM      5  C6  UNL d   1      -0.110  -0.226   0.046  0.00  0.00    -0.075 A 
ATOM      6  C7  UNL d   1      -0.480  -1.340  -0.889  0.00  0.00     0.076 C 
ATOM      7  C8  UNL d   1       1.078   0.489  -0.156  0.00  0.00     0.001 A 
ENDROOT
BRANCH   1   8
ATOM      8  C1  UNL d   1       2.725   2.297   0.475  0.00  0.00     0.053 C 
ATOM      9  C   UNL d   1       3.669   1.555  -0.458  0.00  0.00     0.018 C 
ENDBRANCH   1   8
TORSDOF 1
ENDMDL
