MODEL 1
REMARK minimizedAffinity -5.72511148
REMARK minimizedRMSD -1
REMARK  1 active torsions:
REMARK  status: ('A' for Active; 'I' for Inactive)
REMARK    1  A    between atoms: C1_2  and  C2_3 
ROOT
ATOM      1  C2  UNL d   1      -0.007  -0.092  -0.084  0.00  0.00    -0.073 A 
ATOM      2  C3  UNL d   1      -0.935  -0.284   0.946  0.00  0.00    -0.002 A 
ATOM      3  C4  UNL d   1      -1.090   0.679   1.944  0.00  0.00     0.004 A 
ATOM      4  C5  UNL d   1      -0.326   1.845   1.918  0.00  0.00    -0.004 A 
ATOM      5  C6  UNL d   1       0.598   2.061   0.890  0.00  0.00    -0.075 A 
ATOM      6  C7  UNL d   1       1.429   3.310   0.850  0.00  0.00     0.076 C 
ATOM      7  C8  UNL d   1       0.750   1.088  -0.107  0.00  0.00     0.001 A 
ENDROOT
BRANCH   1   8
ATOM      8  C1  UNL d   1       0.159  -1.126  -1.167  0.00  0.00     0.053 C 
ATOM      9  C   UNL d   1      -1.164  -1.478  -1.828  0.00  0.00     0.018 C 
ENDBRANCH   1   8
TORSDOF 1
ENDMDL
