MODEL 1
REMARK minimizedAffinity -3.34737921
REMARK minimizedRMSD -1
REMARK  1 active torsions:
REMARK  status: ('A' for Active; 'I' for Inactive)
REMARK    1  A    between atoms: C1_2  and  C2_3 
ROOT
ATOM      1  C2  UNL d   1      -0.380  -1.090  -0.872  0.00  0.00    -0.073 A 
ATOM      2  C3  UNL d   1       0.834  -1.412  -1.490  0.00  0.00    -0.002 A 
ATOM      3  C4  UNL d   1       1.985  -0.673  -1.212  0.00  0.00     0.004 A 
ATOM      4  C5  UNL d   1       1.935   0.390  -0.311  0.00  0.00    -0.004 A 
ATOM      5  C6  UNL d   1       0.734   0.720   0.326  0.00  0.00    -0.075 A 
ATOM      6  C7  UNL d   1       0.664   1.862   1.297  0.00  0.00     0.076 C 
ATOM      7  C8  UNL d   1      -0.417  -0.025   0.040  0.00  0.00     0.001 A 
ENDROOT
BRANCH   1   8
ATOM      8  C1  UNL d   1      -1.623  -1.889  -1.164  0.00  0.00     0.053 C 
ATOM      9  C   UNL d   1      -2.006  -1.831  -2.634  0.00  0.00     0.018 C 
ENDBRANCH   1   8
TORSDOF 1
ENDMDL
