MODEL 1
REMARK minimizedAffinity -2.15472627
REMARK minimizedRMSD -1
REMARK  1 active torsions:
REMARK  status: ('A' for Active; 'I' for Inactive)
REMARK    1  A    between atoms: C1_2  and  C2_3 
ROOT
ATOM      1  C2  UNL d   1      -1.205  -1.660  -1.092  0.00  0.00    -0.073 A 
ATOM      2  C3  UNL d   1       0.092  -2.106  -1.374  0.00  0.00    -0.002 A 
ATOM      3  C4  UNL d   1       1.191  -1.519  -0.745  0.00  0.00     0.004 A 
ATOM      4  C5  UNL d   1       1.005  -0.488   0.176  0.00  0.00    -0.004 A 
ATOM      5  C6  UNL d   1      -0.283  -0.037   0.479  0.00  0.00    -0.075 A 
ATOM      6  C7  UNL d   1      -0.500   1.073   1.466  0.00  0.00     0.076 C 
ATOM      7  C8  UNL d   1      -1.382  -0.629  -0.158  0.00  0.00     0.001 A 
ENDROOT
BRANCH   1   8
ATOM      8  C1  UNL d   1      -2.395  -2.294  -1.764  0.00  0.00     0.053 C 
ATOM      9  C   UNL d   1      -3.367  -1.256  -2.302  0.00  0.00     0.018 C 
ENDBRANCH   1   8
TORSDOF 1
ENDMDL
