MODEL 1
REMARK minimizedAffinity -3.72490501
REMARK minimizedRMSD -1
REMARK  1 active torsions:
REMARK  status: ('A' for Active; 'I' for Inactive)
REMARK    1  A    between atoms: C1_2  and  C2_3 
ROOT
ATOM      1  C2  UNL d   1      -0.730  -0.830  -0.648  0.00  0.00    -0.073 A 
ATOM      2  C3  UNL d   1       0.530  -1.288  -1.051  0.00  0.00    -0.002 A 
ATOM      3  C4  UNL d   1       1.684  -0.605  -0.665  0.00  0.00     0.004 A 
ATOM      4  C5  UNL d   1       1.592   0.536   0.132  0.00  0.00    -0.004 A 
ATOM      5  C6  UNL d   1       0.343   1.002   0.555  0.00  0.00    -0.075 A 
ATOM      6  C7  UNL d   1       0.227   2.229   1.410  0.00  0.00     0.076 C 
ATOM      7  C8  UNL d   1      -0.812   0.313   0.161  0.00  0.00     0.001 A 
ENDROOT
BRANCH   1   8
ATOM      8  C1  UNL d   1      -1.979  -1.567  -1.057  0.00  0.00     0.053 C 
ATOM      9  C   UNL d   1      -2.287  -1.390  -2.535  0.00  0.00     0.018 C 
ENDBRANCH   1   8
TORSDOF 1
ENDMDL
