MODEL 1
REMARK minimizedAffinity -5.4853363
REMARK minimizedRMSD -1
REMARK  1 active torsions:
REMARK  status: ('A' for Active; 'I' for Inactive)
REMARK    1  A    between atoms: C1_2  and  C2_3 
ROOT
ATOM      1  C2  UNL d   1      -0.301   1.035   1.015  0.00  0.00    -0.073 A 
ATOM      2  C3  UNL d   1      -1.520   1.205   0.348  0.00  0.00    -0.002 A 
ATOM      3  C4  UNL d   1      -1.866   0.368  -0.713  0.00  0.00     0.004 A 
ATOM      4  C5  UNL d   1      -1.001  -0.650  -1.115  0.00  0.00    -0.004 A 
ATOM      5  C6  UNL d   1       0.217  -0.843  -0.454  0.00  0.00    -0.075 A 
ATOM      6  C7  UNL d   1       1.160  -1.931  -0.875  0.00  0.00     0.076 C 
ATOM      7  C8  UNL d   1       0.558   0.004   0.610  0.00  0.00     0.001 A 
ENDROOT
BRANCH   1   8
ATOM      8  C1  UNL d   1       0.073   1.933   2.166  0.00  0.00     0.053 C 
ATOM      9  C   UNL d   1       1.405   2.630   1.936  0.00  0.00     0.018 C 
ENDBRANCH   1   8
TORSDOF 1
ENDMDL
