MODEL 1
REMARK minimizedAffinity -0.994760871
REMARK minimizedRMSD -1
REMARK  1 active torsions:
REMARK  status: ('A' for Active; 'I' for Inactive)
REMARK    1  A    between atoms: C1_2  and  C2_3 
ROOT
ATOM      1  C2  UNL d   1      -1.021  -1.154  -0.635  0.00  0.00    -0.073 A 
ATOM      2  C3  UNL d   1      -1.516  -0.426   0.453  0.00  0.00    -0.002 A 
ATOM      3  C4  UNL d   1      -0.677   0.429   1.169  0.00  0.00     0.004 A 
ATOM      4  C5  UNL d   1       0.660   0.571   0.801  0.00  0.00    -0.004 A 
ATOM      5  C6  UNL d   1       1.171  -0.139  -0.291  0.00  0.00    -0.075 A 
ATOM      6  C7  UNL d   1       2.608   0.000  -0.698  0.00  0.00     0.076 C 
ATOM      7  C8  UNL d   1       0.323  -0.998  -1.003  0.00  0.00     0.001 A 
ENDROOT
BRANCH   1   8
ATOM      8  C1  UNL d   1      -1.925  -2.074  -1.415  0.00  0.00     0.053 C 
ATOM      9  C   UNL d   1      -2.575  -1.369  -2.595  0.00  0.00     0.018 C 
ENDBRANCH   1   8
TORSDOF 1
ENDMDL
