MODEL 1
REMARK minimizedAffinity -3.29012132
REMARK minimizedRMSD -1
REMARK  1 active torsions:
REMARK  status: ('A' for Active; 'I' for Inactive)
REMARK    1  A    between atoms: C1_2  and  C2_3 
ROOT
ATOM      1  C2  UNL d   1      -0.003   0.071  -0.015  0.00  0.00    -0.073 A 
ATOM      2  C3  UNL d   1      -1.118  -0.006   0.826  0.00  0.00    -0.002 A 
ATOM      3  C4  UNL d   1      -1.293   0.923   1.853  0.00  0.00     0.004 A 
ATOM      4  C5  UNL d   1      -0.360   1.942   2.043  0.00  0.00    -0.004 A 
ATOM      5  C6  UNL d   1       0.755   2.043   1.205  0.00  0.00    -0.075 A 
ATOM      6  C7  UNL d   1       1.770   3.132   1.399  0.00  0.00     0.076 C 
ATOM      7  C8  UNL d   1       0.925   1.104   0.179  0.00  0.00     0.001 A 
ENDROOT
BRANCH   1   8
ATOM      8  C1  UNL d   1       0.187  -0.926  -1.129  0.00  0.00     0.053 C 
ATOM      9  C   UNL d   1      -1.110  -1.204  -1.872  0.00  0.00     0.018 C 
ENDBRANCH   1   8
TORSDOF 1
ENDMDL
