MODEL 1
REMARK minimizedAffinity -3.27567363
REMARK minimizedRMSD -1
REMARK  1 active torsions:
REMARK  status: ('A' for Active; 'I' for Inactive)
REMARK    1  A    between atoms: C1_2  and  C2_3 
ROOT
ATOM      1  C2  UNL d   1       0.170   0.683   0.547  0.00  0.00    -0.073 A 
ATOM      2  C3  UNL d   1       1.472   0.496   0.069  0.00  0.00    -0.002 A 
ATOM      3  C4  UNL d   1       1.754  -0.542  -0.821  0.00  0.00     0.004 A 
ATOM      4  C5  UNL d   1       0.738  -1.398  -1.246  0.00  0.00    -0.004 A 
ATOM      5  C6  UNL d   1      -0.572  -1.220  -0.788  0.00  0.00    -0.075 A 
ATOM      6  C7  UNL d   1      -1.675  -2.134  -1.234  0.00  0.00     0.076 C 
ATOM      7  C8  UNL d   1      -0.847  -0.177   0.107  0.00  0.00     0.001 A 
ENDROOT
BRANCH   1   8
ATOM      8  C1  UNL d   1      -0.141   1.806   1.502  0.00  0.00     0.053 C 
ATOM      9  C   UNL d   1       0.909   2.904   1.451  0.00  0.00     0.018 C 
ENDBRANCH   1   8
TORSDOF 1
ENDMDL
