MODEL 1
REMARK minimizedAffinity -1.89896476
REMARK minimizedRMSD -1
REMARK  1 active torsions:
REMARK  status: ('A' for Active; 'I' for Inactive)
REMARK    1  A    between atoms: N_2  and  C1_3 
ROOT
ATOM      1  C1  UNL d   1       0.160   0.177  -0.268  0.00  0.00     0.143 A 
ATOM      2  C2  UNL d   1       0.854   0.193   0.947  0.00  0.00    -0.057 A 
ATOM      3  C3  UNL d   1       0.192   0.421   2.159  0.00  0.00     0.033 A 
ATOM      4  C4  UNL d   1      -1.177   0.666   2.175  0.00  0.00    -0.042 A 
ATOM      5  C5  UNL d   1      -1.884   0.680   0.978  0.00  0.00     0.033 A 
ATOM      6  C6  UNL d   1      -1.218   0.446  -0.229  0.00  0.00    -0.057 A 
ENDROOT
BRANCH   1   7
ATOM      7  N   UNL d   1       0.777   0.054  -1.515  0.00  0.00    -0.732 N 
ATOM      8  C   UNL d   1       0.566  -1.123  -2.329  0.00  0.00     0.284 C 
ATOM      9  H3  UNL d   1       0.773   0.927  -2.038  0.00  0.00     0.395 HD
ENDBRANCH   1   7
TORSDOF 1
ENDMDL
