MODEL 1
REMARK minimizedAffinity -4.37070751
REMARK minimizedRMSD -1
REMARK  1 active torsions:
REMARK  status: ('A' for Active; 'I' for Inactive)
REMARK    1  A    between atoms: N_2  and  C1_3 
ROOT
ATOM      1  C1  UNL d   1      -0.401  -0.187   0.906  0.00  0.00     0.143 A 
ATOM      2  C2  UNL d   1      -1.752   0.150   0.774  0.00  0.00    -0.057 A 
ATOM      3  C3  UNL d   1      -2.589   0.248   1.892  0.00  0.00     0.033 A 
ATOM      4  C4  UNL d   1      -2.094  -0.020   3.164  0.00  0.00    -0.042 A 
ATOM      5  C5  UNL d   1      -0.760  -0.381   3.317  0.00  0.00     0.033 A 
ATOM      6  C6  UNL d   1       0.072  -0.470   2.196  0.00  0.00    -0.057 A 
ENDROOT
BRANCH   1   7
ATOM      7  N   UNL d   1       0.458  -0.396  -0.176  0.00  0.00    -0.732 N 
ATOM      8  C   UNL d   1       0.647   0.633  -1.177  0.00  0.00     0.284 C 
ATOM      9  H3  UNL d   1       1.314  -0.875   0.094  0.00  0.00     0.395 HD
ENDBRANCH   1   7
TORSDOF 1
ENDMDL
