MODEL 1
REMARK minimizedAffinity -2.95985198
REMARK minimizedRMSD -1
REMARK  1 active torsions:
REMARK  status: ('A' for Active; 'I' for Inactive)
REMARK    1  A    between atoms: N_2  and  C1_3 
ROOT
ATOM      1  C1  UNL d   1       0.665  -0.251  -1.522  0.00  0.00     0.143 A 
ATOM      2  C2  UNL d   1       1.562   0.166  -2.512  0.00  0.00    -0.057 A 
ATOM      3  C3  UNL d   1       1.810  -0.620  -3.644  0.00  0.00     0.033 A 
ATOM      4  C4  UNL d   1       1.186  -1.854  -3.793  0.00  0.00    -0.042 A 
ATOM      5  C5  UNL d   1       0.310  -2.300  -2.810  0.00  0.00     0.033 A 
ATOM      6  C6  UNL d   1       0.060  -1.508  -1.685  0.00  0.00    -0.057 A 
ENDROOT
BRANCH   1   7
ATOM      7  N   UNL d   1       0.450   0.439  -0.327  0.00  0.00    -0.732 N 
ATOM      8  C   UNL d   1       1.495   0.530   0.670  0.00  0.00     0.284 C 
ATOM      9  H3  UNL d   1      -0.070   1.303  -0.465  0.00  0.00     0.395 HD
ENDBRANCH   1   7
TORSDOF 1
ENDMDL
