MODEL 1
REMARK minimizedAffinity -2.88622117
REMARK minimizedRMSD -1
REMARK  1 active torsions:
REMARK  status: ('A' for Active; 'I' for Inactive)
REMARK    1  A    between atoms: N_2  and  C1_3 
ROOT
ATOM      1  C1  UNL d   1      -1.301   0.752   0.766  0.00  0.00     0.143 A 
ATOM      2  C2  UNL d   1      -0.502   0.778  -0.381  0.00  0.00    -0.057 A 
ATOM      3  C3  UNL d   1       0.872   0.518  -0.315  0.00  0.00     0.033 A 
ATOM      4  C4  UNL d   1       1.478   0.255   0.909  0.00  0.00    -0.042 A 
ATOM      5  C5  UNL d   1       0.708   0.249   2.066  0.00  0.00     0.033 A 
ATOM      6  C6  UNL d   1      -0.665   0.503   1.992  0.00  0.00    -0.057 A 
ENDROOT
BRANCH   1   7
ATOM      7  N   UNL d   1      -2.655   1.099   0.780  0.00  0.00    -0.732 N 
ATOM      8  C   UNL d   1      -3.389   1.156   2.025  0.00  0.00     0.284 C 
ATOM      9  H3  UNL d   1      -2.868   1.858   0.136  0.00  0.00     0.395 HD
ENDBRANCH   1   7
TORSDOF 1
ENDMDL
