MODEL 1
REMARK minimizedAffinity -2.09896326
REMARK minimizedRMSD -1
REMARK  1 active torsions:
REMARK  status: ('A' for Active; 'I' for Inactive)
REMARK    1  A    between atoms: N_2  and  C1_3 
ROOT
ATOM      1  C1  UNL d   1       0.645   0.220  -1.259  0.00  0.00     0.143 A 
ATOM      2  C2  UNL d   1       0.736  -1.059  -0.699  0.00  0.00    -0.057 A 
ATOM      3  C3  UNL d   1       0.809  -1.240   0.688  0.00  0.00     0.033 A 
ATOM      4  C4  UNL d   1       0.823  -0.141   1.539  0.00  0.00    -0.042 A 
ATOM      5  C5  UNL d   1       0.758   1.141   1.003  0.00  0.00     0.033 A 
ATOM      6  C6  UNL d   1       0.678   1.315  -0.382  0.00  0.00    -0.057 A 
ENDROOT
BRANCH   1   7
ATOM      7  N   UNL d   1       0.668   0.470  -2.634  0.00  0.00    -0.732 N 
ATOM      8  C   UNL d   1       1.048  -0.570  -3.566  0.00  0.00     0.284 C 
ATOM      9  H3  UNL d   1      -0.121   1.034  -2.939  0.00  0.00     0.395 HD
ENDBRANCH   1   7
TORSDOF 1
ENDMDL
