MODEL 1
REMARK minimizedAffinity -0.304889917
REMARK minimizedRMSD -1
REMARK  1 active torsions:
REMARK  status: ('A' for Active; 'I' for Inactive)
REMARK    1  A    between atoms: N_2  and  C1_3 
ROOT
ATOM      1  C1  UNL d   1       0.346  -0.850  -1.291  0.00  0.00     0.143 A 
ATOM      2  C2  UNL d   1       1.024  -1.572  -0.303  0.00  0.00    -0.057 A 
ATOM      3  C3  UNL d   1       1.288  -1.012   0.953  0.00  0.00     0.033 A 
ATOM      4  C4  UNL d   1       0.903   0.294   1.234  0.00  0.00    -0.042 A 
ATOM      5  C5  UNL d   1       0.250   1.039   0.258  0.00  0.00     0.033 A 
ATOM      6  C6  UNL d   1      -0.017   0.472  -0.992  0.00  0.00    -0.057 A 
ENDROOT
BRANCH   1   7
ATOM      7  N   UNL d   1       0.141  -1.316  -2.592  0.00  0.00    -0.732 N 
ATOM      8  C   UNL d   1       1.263  -1.554  -3.475  0.00  0.00     0.284 C 
ATOM      9  H3  UNL d   1      -0.584  -2.028  -2.640  0.00  0.00     0.395 HD
ENDBRANCH   1   7
TORSDOF 1
ENDMDL
