MODEL 1
REMARK minimizedAffinity -1.35859525
REMARK minimizedRMSD -1
REMARK  1 active torsions:
REMARK  status: ('A' for Active; 'I' for Inactive)
REMARK    1  A    between atoms: N_2  and  C1_3 
ROOT
ATOM      1  C1  UNL d   1       0.474  -0.401  -1.239  0.00  0.00     0.143 A 
ATOM      2  C2  UNL d   1      -0.203   0.748  -0.817  0.00  0.00    -0.057 A 
ATOM      3  C3  UNL d   1      -0.169   1.161   0.521  0.00  0.00     0.033 A 
ATOM      4  C4  UNL d   1       0.522   0.412   1.468  0.00  0.00    -0.042 A 
ATOM      5  C5  UNL d   1       1.181  -0.747   1.076  0.00  0.00     0.033 A 
ATOM      6  C6  UNL d   1       1.149  -1.150  -0.262  0.00  0.00    -0.057 A 
ENDROOT
BRANCH   1   7
ATOM      7  N   UNL d   1       0.398  -0.917  -2.535  0.00  0.00    -0.732 N 
ATOM      8  C   UNL d   1       1.569  -0.957  -3.383  0.00  0.00     0.284 C 
ATOM      9  H3  UNL d   1      -0.182  -1.752  -2.587  0.00  0.00     0.395 HD
ENDBRANCH   1   7
TORSDOF 1
ENDMDL
