MODEL 1
REMARK minimizedAffinity -4.72898388
REMARK minimizedRMSD -1
REMARK  1 active torsions:
REMARK  status: ('A' for Active; 'I' for Inactive)
REMARK    1  A    between atoms: N_2  and  C1_3 
ROOT
ATOM      1  C1  UNL d   1      -0.145  -0.215  -1.210  0.00  0.00     0.143 A 
ATOM      2  C2  UNL d   1       0.493   0.599  -2.152  0.00  0.00    -0.057 A 
ATOM      3  C3  UNL d   1       1.218   0.049  -3.215  0.00  0.00     0.033 A 
ATOM      4  C4  UNL d   1       1.343  -1.331  -3.339  0.00  0.00    -0.042 A 
ATOM      5  C5  UNL d   1       0.739  -2.159  -2.400  0.00  0.00     0.033 A 
ATOM      6  C6  UNL d   1       0.010  -1.603  -1.344  0.00  0.00    -0.057 A 
ENDROOT
BRANCH   1   7
ATOM      7  N   UNL d   1      -0.798   0.273  -0.075  0.00  0.00    -0.732 N 
ATOM      8  C   UNL d   1      -2.239   0.411  -0.056  0.00  0.00     0.284 C 
ATOM      9  H3  UNL d   1      -0.404  -0.095   0.788  0.00  0.00     0.395 HD
ENDBRANCH   1   7
TORSDOF 1
ENDMDL
