MODEL 1
REMARK minimizedAffinity -2.19374108
REMARK minimizedRMSD -1
REMARK  1 active torsions:
REMARK  status: ('A' for Active; 'I' for Inactive)
REMARK    1  A    between atoms: N_2  and  C1_3 
ROOT
ATOM      1  C1  UNL d   1      -0.413  -1.220  -1.776  0.00  0.00     0.143 A 
ATOM      2  C2  UNL d   1       0.530  -0.491  -1.044  0.00  0.00    -0.057 A 
ATOM      3  C3  UNL d   1       0.150   0.601  -0.254  0.00  0.00     0.033 A 
ATOM      4  C4  UNL d   1      -1.180   1.002  -0.206  0.00  0.00    -0.042 A 
ATOM      5  C5  UNL d   1      -2.132   0.308  -0.945  0.00  0.00     0.033 A 
ATOM      6  C6  UNL d   1      -1.747  -0.786  -1.726  0.00  0.00    -0.057 A 
ENDROOT
BRANCH   1   7
ATOM      7  N   UNL d   1      -0.085  -2.254  -2.657  0.00  0.00    -0.732 N 
ATOM      8  C   UNL d   1       1.198  -2.271  -3.327  0.00  0.00     0.284 C 
ATOM      9  H3  UNL d   1      -0.389  -3.164  -2.318  0.00  0.00     0.395 HD
ENDBRANCH   1   7
TORSDOF 1
ENDMDL
