MODEL 1
REMARK minimizedAffinity -3.88370752
REMARK minimizedRMSD -1
REMARK  1 active torsions:
REMARK  status: ('A' for Active; 'I' for Inactive)
REMARK    1  A    between atoms: N_2  and  C1_3 
ROOT
ATOM      1  C1  UNL d   1      -0.613   0.356   1.714  0.00  0.00     0.143 A 
ATOM      2  C2  UNL d   1       0.483   0.513   0.858  0.00  0.00    -0.057 A 
ATOM      3  C3  UNL d   1       0.308   0.804  -0.500  0.00  0.00     0.033 A 
ATOM      4  C4  UNL d   1      -0.971   0.914  -1.035  0.00  0.00    -0.042 A 
ATOM      5  C5  UNL d   1      -2.076   0.736  -0.209  0.00  0.00     0.033 A 
ATOM      6  C6  UNL d   1      -1.894   0.453   1.149  0.00  0.00    -0.057 A 
ENDROOT
BRANCH   1   7
ATOM      7  N   UNL d   1      -0.506  -0.031   3.052  0.00  0.00    -0.732 N 
ATOM      8  C   UNL d   1      -1.678  -0.089   3.898  0.00  0.00     0.284 C 
ATOM      9  H3  UNL d   1       0.139  -0.807   3.181  0.00  0.00     0.395 HD
ENDBRANCH   1   7
TORSDOF 1
ENDMDL
