MODEL 1
REMARK minimizedAffinity -4.32136869
REMARK minimizedRMSD -1
REMARK  1 active torsions:
REMARK  status: ('A' for Active; 'I' for Inactive)
REMARK    1  A    between atoms: N_2  and  C1_3 
ROOT
ATOM      1  C1  UNL d   1      -0.654   0.331   0.380  0.00  0.00     0.143 A 
ATOM      2  C2  UNL d   1      -0.466  -0.098   1.699  0.00  0.00    -0.057 A 
ATOM      3  C3  UNL d   1      -1.530  -0.138   2.608  0.00  0.00     0.033 A 
ATOM      4  C4  UNL d   1      -2.799   0.280   2.222  0.00  0.00    -0.042 A 
ATOM      5  C5  UNL d   1      -3.004   0.735   0.924  0.00  0.00     0.033 A 
ATOM      6  C6  UNL d   1      -1.939   0.766   0.018  0.00  0.00    -0.057 A 
ENDROOT
BRANCH   1   7
ATOM      7  N   UNL d   1       0.384   0.487  -0.542  0.00  0.00    -0.732 N 
ATOM      8  C   UNL d   1       1.745   0.686  -0.094  0.00  0.00     0.284 C 
ATOM      9  H3  UNL d   1       0.295  -0.143  -1.336  0.00  0.00     0.395 HD
ENDBRANCH   1   7
TORSDOF 1
ENDMDL
