MODEL 1
REMARK minimizedAffinity 2.03260326
REMARK minimizedRMSD -1
REMARK  1 active torsions:
REMARK  status: ('A' for Active; 'I' for Inactive)
REMARK    1  A    between atoms: N_2  and  C1_3 
ROOT
ATOM      1  C1  UNL d   1      -1.135   0.516   0.696  0.00  0.00     0.143 A 
ATOM      2  C2  UNL d   1      -0.381   0.335  -0.469  0.00  0.00    -0.057 A 
ATOM      3  C3  UNL d   1       1.003   0.127  -0.413  0.00  0.00     0.033 A 
ATOM      4  C4  UNL d   1       1.663   0.125   0.811  0.00  0.00    -0.042 A 
ATOM      5  C5  UNL d   1       0.938   0.328   1.980  0.00  0.00     0.033 A 
ATOM      6  C6  UNL d   1      -0.444   0.528   1.918  0.00  0.00    -0.057 A 
ENDROOT
BRANCH   1   7
ATOM      7  N   UNL d   1      -2.497   0.825   0.700  0.00  0.00    -0.732 N 
ATOM      8  C   UNL d   1      -3.175   1.149   1.937  0.00  0.00     0.284 C 
ATOM      9  H3  UNL d   1      -2.765   1.411  -0.087  0.00  0.00     0.395 HD
ENDBRANCH   1   7
TORSDOF 1
ENDMDL
