MODEL 1
REMARK minimizedAffinity -3.00736833
REMARK minimizedRMSD -1
REMARK  1 active torsions:
REMARK  status: ('A' for Active; 'I' for Inactive)
REMARK    1  A    between atoms: N_2  and  C1_3 
ROOT
ATOM      1  C1  UNL d   1      -0.421  -0.203   0.320  0.00  0.00     0.143 A 
ATOM      2  C2  UNL d   1      -1.705  -0.609   0.699  0.00  0.00    -0.057 A 
ATOM      3  C3  UNL d   1      -2.085  -0.650   2.046  0.00  0.00     0.033 A 
ATOM      4  C4  UNL d   1      -1.174  -0.313   3.043  0.00  0.00    -0.042 A 
ATOM      5  C5  UNL d   1       0.115   0.069   2.690  0.00  0.00     0.033 A 
ATOM      6  C6  UNL d   1       0.486   0.115   1.343  0.00  0.00    -0.057 A 
ENDROOT
BRANCH   1   7
ATOM      7  N   UNL d   1       0.048  -0.236  -0.996  0.00  0.00    -0.732 N 
ATOM      8  C   UNL d   1       0.183  -1.493  -1.699  0.00  0.00     0.284 C 
ATOM      9  H3  UNL d   1      -0.332   0.519  -1.562  0.00  0.00     0.395 HD
ENDBRANCH   1   7
TORSDOF 1
ENDMDL
