MODEL 1
REMARK minimizedAffinity -4.71691322
REMARK minimizedRMSD -1
REMARK  1 active torsions:
REMARK  status: ('A' for Active; 'I' for Inactive)
REMARK    1  A    between atoms: N_2  and  C1_3 
ROOT
ATOM      1  C1  UNL d   1      -0.353  -0.624   1.486  0.00  0.00     0.143 A 
ATOM      2  C2  UNL d   1      -0.467  -0.508   2.876  0.00  0.00    -0.057 A 
ATOM      3  C3  UNL d   1      -1.702  -0.254   3.485  0.00  0.00     0.033 A 
ATOM      4  C4  UNL d   1      -2.844  -0.083   2.710  0.00  0.00    -0.042 A 
ATOM      5  C5  UNL d   1      -2.751  -0.169   1.325  0.00  0.00     0.033 A 
ATOM      6  C6  UNL d   1      -1.516  -0.429   0.723  0.00  0.00    -0.057 A 
ENDROOT
BRANCH   1   7
ATOM      7  N   UNL d   1       0.862  -0.777   0.815  0.00  0.00    -0.732 N 
ATOM      8  C   UNL d   1       1.196   0.072  -0.308  0.00  0.00     0.284 C 
ATOM      9  H3  UNL d   1       1.638  -0.950   1.450  0.00  0.00     0.395 HD
ENDBRANCH   1   7
TORSDOF 1
ENDMDL
