MODEL 1
REMARK minimizedAffinity -3.49489832
REMARK minimizedRMSD -1
REMARK  1 active torsions:
REMARK  status: ('A' for Active; 'I' for Inactive)
REMARK    1  A    between atoms: N_2  and  C1_3 
ROOT
ATOM      1  C1  UNL d   1      -0.395  -0.051   1.002  0.00  0.00     0.143 A 
ATOM      2  C2  UNL d   1      -0.224  -1.406   0.699  0.00  0.00    -0.057 A 
ATOM      3  C3  UNL d   1       1.042  -1.933   0.418  0.00  0.00     0.033 A 
ATOM      4  C4  UNL d   1       2.160  -1.105   0.406  0.00  0.00    -0.042 A 
ATOM      5  C5  UNL d   1       2.010   0.250   0.680  0.00  0.00     0.033 A 
ATOM      6  C6  UNL d   1       0.743   0.769   0.966  0.00  0.00    -0.057 A 
ENDROOT
BRANCH   1   7
ATOM      7  N   UNL d   1      -1.641   0.552   1.193  0.00  0.00    -0.732 N 
ATOM      8  C   UNL d   1      -2.646   0.513   0.153  0.00  0.00     0.284 C 
ATOM      9  H3  UNL d   1      -2.006   0.400   2.130  0.00  0.00     0.395 HD
ENDBRANCH   1   7
TORSDOF 1
ENDMDL
