MODEL 1
REMARK minimizedAffinity 0.152739495
REMARK minimizedRMSD -1
REMARK  0 active torsions:
REMARK  status: ('A' for Active; 'I' for Inactive)
ROOT
ATOM      1  C4' PXY d   1       0.754   6.000  -2.156  0.00  0.00     0.077 C 
ATOM      2  C1' PXY d   1       0.089   1.618   1.556  0.00  0.00     0.077 C 
ATOM      3  C1  PXY d   1       0.267   2.775   0.592  0.00  0.00    -0.082 A 
ATOM      4  C2  PXY d   1      -0.416   2.794  -0.541  0.00  0.00     0.003 A 
ATOM      5  C3  PXY d   1      -0.243   3.816  -1.438  0.00  0.00     0.003 A 
ATOM      6  C4  PXY d   1       0.599   4.857  -1.149  0.00  0.00    -0.082 A 
ATOM      7  C5  PXY d   1       1.291   4.850   0.010  0.00  0.00     0.003 A 
ATOM      8  C6  PXY d   1       1.133   3.783   0.889  0.00  0.00     0.003 A 
ENDROOT
TORSDOF 0
ENDMDL
