MODEL 1
REMARK minimizedAffinity -0.298891991
REMARK minimizedRMSD -1
REMARK  0 active torsions:
REMARK  status: ('A' for Active; 'I' for Inactive)
ROOT
ATOM      1  C4' PXY d   1      -2.342  -4.847  -5.999  0.00  0.00     0.077 C 
ATOM      2  C1' PXY d   1       0.872  -4.879  -1.194  0.00  0.00     0.077 C 
ATOM      3  C1  PXY d   1       0.025  -4.858  -2.451  0.00  0.00    -0.082 A 
ATOM      4  C2  PXY d   1      -0.365  -5.999  -2.996  0.00  0.00     0.003 A 
ATOM      5  C3  PXY d   1      -1.104  -6.000  -4.150  0.00  0.00     0.003 A 
ATOM      6  C4  PXY d   1      -1.494  -4.819  -4.724  0.00  0.00    -0.082 A 
ATOM      7  C5  PXY d   1      -1.109  -3.651  -4.169  0.00  0.00     0.003 A 
ATOM      8  C6  PXY d   1      -0.324  -3.672  -3.020  0.00  0.00     0.003 A 
ENDROOT
TORSDOF 0
ENDMDL
