MODEL 1
REMARK minimizedAffinity 0.335057586
REMARK minimizedRMSD -1
REMARK  0 active torsions:
REMARK  status: ('A' for Active; 'I' for Inactive)
ROOT
ATOM      1  C4' PXY d   1       4.951  -5.999  -3.091  0.00  0.00     0.077 C 
ATOM      2  C1' PXY d   1       4.239  -1.576   0.563  0.00  0.00     0.077 C 
ATOM      3  C1  PXY d   1       4.436  -2.740  -0.389  0.00  0.00    -0.082 A 
ATOM      4  C2  PXY d   1       3.974  -2.659  -1.626  0.00  0.00     0.003 A 
ATOM      5  C3  PXY d   1       4.115  -3.715  -2.489  0.00  0.00     0.003 A 
ATOM      6  C4  PXY d   1       4.783  -4.844  -2.099  0.00  0.00    -0.082 A 
ATOM      7  C5  PXY d   1       5.267  -4.930  -0.842  0.00  0.00     0.003 A 
ATOM      8  C6  PXY d   1       5.077  -3.864   0.032  0.00  0.00     0.003 A 
ENDROOT
TORSDOF 0
ENDMDL
