MODEL 1
REMARK minimizedAffinity -1.11859572
REMARK minimizedRMSD -1
REMARK  0 active torsions:
REMARK  status: ('A' for Active; 'I' for Inactive)
ROOT
ATOM      1  C4' PXY d   1      -0.676   1.778  -1.108  0.00  0.00     0.077 C 
ATOM      2  C1' PXY d   1      -5.989   2.197  -3.346  0.00  0.00     0.077 C 
ATOM      3  C1  PXY d   1      -4.599   2.077  -2.752  0.00  0.00    -0.082 A 
ATOM      4  C2  PXY d   1      -3.812   3.140  -2.708  0.00  0.00     0.003 A 
ATOM      5  C3  PXY d   1      -2.541   3.041  -2.204  0.00  0.00     0.003 A 
ATOM      6  C4  PXY d   1      -2.090   1.855  -1.690  0.00  0.00    -0.082 A 
ATOM      7  C5  PXY d   1      -2.891   0.769  -1.720  0.00  0.00     0.003 A 
ATOM      8  C6  PXY d   1      -4.163   0.880  -2.274  0.00  0.00     0.003 A 
ENDROOT
TORSDOF 0
ENDMDL
