MODEL 1
REMARK minimizedAffinity 4.18959522
REMARK minimizedRMSD -1
REMARK  0 active torsions:
REMARK  status: ('A' for Active; 'I' for Inactive)
ROOT
ATOM      1  C4' PXY d   1       3.839  -6.000  -3.756  0.00  0.00     0.077 C 
ATOM      2  C1' PXY d   1       4.517  -1.878   0.240  0.00  0.00     0.077 C 
ATOM      3  C1  PXY d   1       4.348  -2.966  -0.802  0.00  0.00    -0.082 A 
ATOM      4  C2  PXY d   1       3.856  -2.662  -1.992  0.00  0.00     0.003 A 
ATOM      5  C3  PXY d   1       3.667  -3.639  -2.935  0.00  0.00     0.003 A 
ATOM      6  C4  PXY d   1       4.036  -4.932  -2.676  0.00  0.00    -0.082 A 
ATOM      7  C5  PXY d   1       4.549  -5.249  -1.468  0.00  0.00     0.003 A 
ATOM      8  C6  PXY d   1       4.694  -4.249  -0.510  0.00  0.00     0.003 A 
ENDROOT
TORSDOF 0
ENDMDL
