MODEL 1
REMARK minimizedAffinity -2.02355242
REMARK minimizedRMSD -1
REMARK  0 active torsions:
REMARK  status: ('A' for Active; 'I' for Inactive)
ROOT
ATOM      1  C4' PXY d   1       4.287  -1.277   0.321  0.00  0.00     0.077 C 
ATOM      2  C1' PXY d   1       4.037  -5.345  -3.779  0.00  0.00     0.077 C 
ATOM      3  C1  PXY d   1       4.105  -4.269  -2.713  0.00  0.00    -0.082 A 
ATOM      4  C2  PXY d   1       4.420  -4.598  -1.470  0.00  0.00     0.003 A 
ATOM      5  C3  PXY d   1       4.454  -3.642  -0.487  0.00  0.00     0.003 A 
ATOM      6  C4  PXY d   1       4.216  -2.328  -0.790  0.00  0.00    -0.082 A 
ATOM      7  C5  PXY d   1       3.904  -1.983  -2.057  0.00  0.00     0.003 A 
ATOM      8  C6  PXY d   1       3.834  -2.974  -3.032  0.00  0.00     0.003 A 
ENDROOT
TORSDOF 0
ENDMDL
