MODEL 1
REMARK minimizedAffinity -3.74233866
REMARK minimizedRMSD -1
REMARK  0 active torsions:
REMARK  status: ('A' for Active; 'I' for Inactive)
ROOT
ATOM      1  N1  IND d   1      -2.024   1.146  -1.338  0.00  0.00    -0.196 N 
ATOM      2  C2  IND d   1      -2.069   1.212  -2.703  0.00  0.00     0.054 A 
ATOM      3  C3  IND d   1      -0.934   0.707  -3.236  0.00  0.00    -0.031 A 
ATOM      4  C4  IND d   1       1.085  -0.374  -2.061  0.00  0.00     0.051 A 
ATOM      5  C5  IND d   1       1.601  -0.628  -0.821  0.00  0.00    -0.031 A 
ATOM      6  C6  IND d   1       0.920  -0.299   0.333  0.00  0.00     0.015 A 
ATOM      7  C7  IND d   1      -0.313   0.288   0.290  0.00  0.00    -0.016 A 
ATOM      8  C8  IND d   1      -0.837   0.554  -0.967  0.00  0.00    -0.047 A 
ATOM      9  C9  IND d   1      -0.131   0.261  -2.142  0.00  0.00    -0.096 A 
ATOM     10  HN1 IND d   1      -2.634   1.428  -0.802  0.00  0.00     0.298 HD
ENDROOT
TORSDOF 0
ENDMDL
