MODEL 1
REMARK minimizedAffinity -3.22271514
REMARK minimizedRMSD -1
REMARK  0 active torsions:
REMARK  status: ('A' for Active; 'I' for Inactive)
ROOT
ATOM      1  N1  IND d   1      -1.217   0.759   0.363  0.00  0.00    -0.196 N 
ATOM      2  C2  IND d   1      -1.484   1.151  -0.919  0.00  0.00     0.054 A 
ATOM      3  C3  IND d   1      -0.660   0.519  -1.785  0.00  0.00    -0.031 A 
ATOM      4  C4  IND d   1       1.132  -1.271  -1.328  0.00  0.00     0.051 A 
ATOM      5  C5  IND d   1       1.764  -1.927  -0.309  0.00  0.00    -0.031 A 
ATOM      6  C6  IND d   1       1.426  -1.719   1.013  0.00  0.00     0.015 A 
ATOM      7  C7  IND d   1       0.431  -0.851   1.366  0.00  0.00    -0.016 A 
ATOM      8  C8  IND d   1      -0.208  -0.178   0.334  0.00  0.00    -0.047 A 
ATOM      9  C9  IND d   1       0.159  -0.354  -1.006  0.00  0.00    -0.096 A 
ATOM     10  HN1 IND d   1      -1.612   1.050   1.069  0.00  0.00     0.298 HD
ENDROOT
TORSDOF 0
ENDMDL
