MODEL 1
REMARK minimizedAffinity -3.57737899
REMARK minimizedRMSD -1
REMARK  0 active torsions:
REMARK  status: ('A' for Active; 'I' for Inactive)
ROOT
ATOM      1  N1  IND d   1      -0.906  -0.426   2.650  0.00  0.00    -0.196 N 
ATOM      2  C2  IND d   1      -0.479  -1.336   3.577  0.00  0.00     0.054 A 
ATOM      3  C3  IND d   1       0.650  -1.946   3.153  0.00  0.00    -0.031 A 
ATOM      4  C4  IND d   1       2.027  -1.534   1.017  0.00  0.00     0.051 A 
ATOM      5  C5  IND d   1       2.016  -0.826  -0.152  0.00  0.00    -0.031 A 
ATOM      6  C6  IND d   1       1.012   0.071  -0.452  0.00  0.00     0.015 A 
ATOM      7  C7  IND d   1      -0.018   0.304   0.416  0.00  0.00    -0.016 A 
ATOM      8  C8  IND d   1      -0.014  -0.418   1.601  0.00  0.00    -0.047 A 
ATOM      9  C9  IND d   1       0.980  -1.362   1.891  0.00  0.00    -0.096 A 
ATOM     10  HN1 IND d   1      -1.613   0.060   2.713  0.00  0.00     0.298 HD
ENDROOT
TORSDOF 0
ENDMDL
