MODEL 1
REMARK minimizedAffinity -4.68470955
REMARK minimizedRMSD -1
REMARK  0 active torsions:
REMARK  status: ('A' for Active; 'I' for Inactive)
ROOT
ATOM      1  N1  IND d   1      -2.209   1.624  -1.007  0.00  0.00    -0.196 N 
ATOM      2  C2  IND d   1      -2.781   1.356  -2.219  0.00  0.00     0.054 A 
ATOM      3  C3  IND d   1      -2.019   0.482  -2.915  0.00  0.00    -0.031 A 
ATOM      4  C4  IND d   1       0.151  -0.714  -2.217  0.00  0.00     0.051 A 
ATOM      5  C5  IND d   1       1.079  -0.763  -1.215  0.00  0.00    -0.031 A 
ATOM      6  C6  IND d   1       0.955  -0.007  -0.068  0.00  0.00     0.015 A 
ATOM      7  C7  IND d   1      -0.113   0.823   0.126  0.00  0.00    -0.016 A 
ATOM      8  C8  IND d   1      -1.054   0.882  -0.893  0.00  0.00    -0.047 A 
ATOM      9  C9  IND d   1      -0.911   0.148  -2.078  0.00  0.00    -0.096 A 
ATOM     10  HN1 IND d   1      -2.518   2.165  -0.415  0.00  0.00     0.298 HD
ENDROOT
TORSDOF 0
ENDMDL
