MODEL 1
REMARK minimizedAffinity -2.1653645
REMARK minimizedRMSD -1
REMARK  0 active torsions:
REMARK  status: ('A' for Active; 'I' for Inactive)
ROOT
ATOM      1  N1  IND d   1      -1.154   0.510   0.989  0.00  0.00    -0.196 N 
ATOM      2  C2  IND d   1      -1.476   1.195  -0.149  0.00  0.00     0.054 A 
ATOM      3  C3  IND d   1      -0.570   0.944  -1.121  0.00  0.00    -0.031 A 
ATOM      4  C4  IND d   1       1.461  -0.637  -1.095  0.00  0.00     0.051 A 
ATOM      5  C5  IND d   1       2.182  -1.451  -0.267  0.00  0.00    -0.031 A 
ATOM      6  C6  IND d   1       1.819  -1.660   1.048  0.00  0.00     0.015 A 
ATOM      7  C7  IND d   1       0.709  -1.068   1.583  0.00  0.00    -0.016 A 
ATOM      8  C8  IND d   1      -0.021  -0.235   0.747  0.00  0.00    -0.047 A 
ATOM      9  C9  IND d   1       0.367   0.014  -0.576  0.00  0.00    -0.096 A 
ATOM     10  HN1 IND d   1      -1.587   0.539   1.732  0.00  0.00     0.298 HD
ENDROOT
TORSDOF 0
ENDMDL
