MODEL 1
REMARK minimizedAffinity 6.12955189
REMARK minimizedRMSD -1
REMARK  0 active torsions:
REMARK  status: ('A' for Active; 'I' for Inactive)
ROOT
ATOM      1  N1  IND d   1      -2.829  -0.309  -2.244  0.00  0.00    -0.196 N 
ATOM      2  C2  IND d   1      -2.453  -0.690  -0.986  0.00  0.00     0.054 A 
ATOM      3  C3  IND d   1      -1.635   0.237  -0.439  0.00  0.00    -0.031 A 
ATOM      4  C4  IND d   1      -0.862   2.501  -1.388  0.00  0.00     0.051 A 
ATOM      5  C5  IND d   1      -0.914   3.271  -2.516  0.00  0.00    -0.031 A 
ATOM      6  C6  IND d   1      -1.625   2.880  -3.633  0.00  0.00     0.015 A 
ATOM      7  C7  IND d   1      -2.321   1.705  -3.659  0.00  0.00    -0.016 A 
ATOM      8  C8  IND d   1      -2.264   0.918  -2.517  0.00  0.00    -0.047 A 
ATOM      9  C9  IND d   1      -1.510   1.289  -1.397  0.00  0.00    -0.096 A 
ATOM     10  HN1 IND d   1      -3.333  -0.759  -2.775  0.00  0.00     0.298 HD
ENDROOT
TORSDOF 0
ENDMDL
