MODEL 1
REMARK minimizedAffinity 7.80939388
REMARK minimizedRMSD -1
REMARK  0 active torsions:
REMARK  status: ('A' for Active; 'I' for Inactive)
ROOT
ATOM      1  N1  IND d   1      -3.539   1.896  -2.174  0.00  0.00    -0.196 N 
ATOM      2  C2  IND d   1      -4.732   2.082  -1.534  0.00  0.00     0.054 A 
ATOM      3  C3  IND d   1      -4.923   3.393  -1.266  0.00  0.00    -0.031 A 
ATOM      4  C4  IND d   1      -3.455   5.418  -1.877  0.00  0.00     0.051 A 
ATOM      5  C5  IND d   1      -2.249   5.746  -2.432  0.00  0.00    -0.031 A 
ATOM      6  C6  IND d   1      -1.396   4.788  -2.941  0.00  0.00     0.015 A 
ATOM      7  C7  IND d   1      -1.723   3.462  -2.926  0.00  0.00    -0.016 A 
ATOM      8  C8  IND d   1      -2.943   3.124  -2.357  0.00  0.00    -0.047 A 
ATOM      9  C9  IND d   1      -3.794   4.088  -1.800  0.00  0.00    -0.096 A 
ATOM     10  HN1 IND d   1      -3.214   1.138  -2.420  0.00  0.00     0.298 HD
ENDROOT
TORSDOF 0
ENDMDL
