MODEL 1
REMARK minimizedAffinity -2.81029415
REMARK minimizedRMSD -1
REMARK  0 active torsions:
REMARK  status: ('A' for Active; 'I' for Inactive)
ROOT
ATOM      1  N1  IND d   1      -2.007   1.986  -1.829  0.00  0.00    -0.196 N 
ATOM      2  C2  IND d   1      -2.154   1.604  -3.133  0.00  0.00     0.054 A 
ATOM      3  C3  IND d   1      -1.389   0.520  -3.395  0.00  0.00    -0.031 A 
ATOM      4  C4  IND d   1       0.102  -0.851  -1.806  0.00  0.00     0.051 A 
ATOM      5  C5  IND d   1       0.583  -0.868  -0.527  0.00  0.00    -0.031 A 
ATOM      6  C6  IND d   1       0.216   0.083   0.403  0.00  0.00     0.015 A 
ATOM      7  C7  IND d   1      -0.659   1.085   0.090  0.00  0.00    -0.016 A 
ATOM      8  C8  IND d   1      -1.144   1.109  -1.210  0.00  0.00    -0.047 A 
ATOM      9  C9  IND d   1      -0.742   0.171  -2.170  0.00  0.00    -0.096 A 
ATOM     10  HN1 IND d   1      -2.390   2.661  -1.458  0.00  0.00     0.298 HD
ENDROOT
TORSDOF 0
ENDMDL
