MODEL 1
REMARK minimizedAffinity 7.61588097
REMARK minimizedRMSD -1
REMARK  0 active torsions:
REMARK  status: ('A' for Active; 'I' for Inactive)
ROOT
ATOM      1  N1  IND d   1       2.448   1.394   0.642  0.00  0.00    -0.196 N 
ATOM      2  C2  IND d   1       3.261   1.179  -0.436  0.00  0.00     0.054 A 
ATOM      3  C3  IND d   1       2.665   0.343  -1.315  0.00  0.00    -0.031 A 
ATOM      4  C4  IND d   1       0.318  -0.712  -1.236  0.00  0.00     0.051 A 
ATOM      5  C5  IND d   1      -0.780  -0.839  -0.431  0.00  0.00    -0.031 A 
ATOM      6  C6  IND d   1      -0.860  -0.212   0.796  0.00  0.00     0.015 A 
ATOM      7  C7  IND d   1       0.154   0.577   1.261  0.00  0.00    -0.016 A 
ATOM      8  C8  IND d   1       1.273   0.701   0.450  0.00  0.00    -0.047 A 
ATOM      9  C9  IND d   1       1.378   0.034  -0.777  0.00  0.00    -0.096 A 
ATOM     10  HN1 IND d   1       2.639   1.880   1.325  0.00  0.00     0.298 HD
ENDROOT
TORSDOF 0
ENDMDL
