MODEL 1
REMARK minimizedAffinity -3.02623296
REMARK minimizedRMSD -1
REMARK  0 active torsions:
REMARK  status: ('A' for Active; 'I' for Inactive)
ROOT
ATOM      1  N1  IND d   1      -5.547  -5.970   1.118  0.00  0.00    -0.196 N 
ATOM      2  C2  IND d   1      -4.618  -5.962   2.121  0.00  0.00     0.054 A 
ATOM      3  C3  IND d   1      -3.368  -5.979   1.604  0.00  0.00    -0.031 A 
ATOM      4  C4  IND d   1      -2.614  -5.919  -0.856  0.00  0.00     0.051 A 
ATOM      5  C5  IND d   1      -3.100  -5.957  -2.133  0.00  0.00    -0.031 A 
ATOM      6  C6  IND d   1      -4.454  -6.000  -2.397  0.00  0.00     0.015 A 
ATOM      7  C7  IND d   1      -5.377  -5.994  -1.389  0.00  0.00    -0.016 A 
ATOM      8  C8  IND d   1      -4.887  -5.963  -0.091  0.00  0.00    -0.047 A 
ATOM      9  C9  IND d   1      -3.513  -5.962   0.183  0.00  0.00    -0.096 A 
ATOM     10  HN1 IND d   1      -6.400  -5.979   1.224  0.00  0.00     0.298 HD
ENDROOT
TORSDOF 0
ENDMDL
