MODEL 1
REMARK minimizedAffinity -2.75118017
REMARK minimizedRMSD -1
REMARK  0 active torsions:
REMARK  status: ('A' for Active; 'I' for Inactive)
ROOT
ATOM      1  N1  IND d   1      -1.324   1.823  -0.718  0.00  0.00    -0.196 N 
ATOM      2  C2  IND d   1      -1.995   1.529  -1.872  0.00  0.00     0.054 A 
ATOM      3  C3  IND d   1      -1.407   0.490  -2.507  0.00  0.00    -0.031 A 
ATOM      4  C4  IND d   1       0.605  -0.943  -1.781  0.00  0.00     0.051 A 
ATOM      5  C5  IND d   1       1.571  -1.035  -0.818  0.00  0.00    -0.031 A 
ATOM      6  C6  IND d   1       1.620  -0.163   0.251  0.00  0.00     0.015 A 
ATOM      7  C7  IND d   1       0.694   0.831   0.403  0.00  0.00    -0.016 A 
ATOM      8  C8  IND d   1      -0.283   0.931  -0.577  0.00  0.00    -0.047 A 
ATOM      9  C9  IND d   1      -0.313   0.076  -1.686  0.00  0.00    -0.096 A 
ATOM     10  HN1 IND d   1      -1.519   2.457  -0.172  0.00  0.00     0.298 HD
ENDROOT
TORSDOF 0
ENDMDL
