MODEL 1
REMARK minimizedAffinity -5.25533772
REMARK minimizedRMSD -1
REMARK  0 active torsions:
REMARK  status: ('A' for Active; 'I' for Inactive)
ROOT
ATOM      1  N1  IND d   1      -1.457   0.372  -3.647  0.00  0.00    -0.196 N 
ATOM      2  C2  IND d   1      -2.332   1.355  -3.275  0.00  0.00     0.054 A 
ATOM      3  C3  IND d   1      -2.090   1.744  -2.004  0.00  0.00    -0.031 A 
ATOM      4  C4  IND d   1      -0.244   0.976  -0.382  0.00  0.00     0.051 A 
ATOM      5  C5  IND d   1       0.772   0.070  -0.257  0.00  0.00    -0.031 A 
ATOM      6  C6  IND d   1       1.105  -0.797  -1.278  0.00  0.00     0.015 A 
ATOM      7  C7  IND d   1       0.439  -0.782  -2.471  0.00  0.00    -0.016 A 
ATOM      8  C8  IND d   1      -0.597   0.131  -2.598  0.00  0.00    -0.047 A 
ATOM      9  C9  IND d   1      -0.968   0.984  -1.551  0.00  0.00    -0.096 A 
ATOM     10  HN1 IND d   1      -1.446  -0.028  -4.408  0.00  0.00     0.298 HD
ENDROOT
TORSDOF 0
ENDMDL
