MODEL 1
REMARK minimizedAffinity -1.17324483
REMARK minimizedRMSD -1
REMARK  0 active torsions:
REMARK  status: ('A' for Active; 'I' for Inactive)
ROOT
ATOM      1  N1  IND d   1      -1.178   0.779  -3.426  0.00  0.00    -0.196 N 
ATOM      2  C2  IND d   1      -1.957   1.812  -2.985  0.00  0.00     0.054 A 
ATOM      3  C3  IND d   1      -1.700   2.072  -1.683  0.00  0.00    -0.031 A 
ATOM      4  C4  IND d   1       0.030   0.995  -0.111  0.00  0.00     0.051 A 
ATOM      5  C5  IND d   1       0.949  -0.015  -0.050  0.00  0.00    -0.031 A 
ATOM      6  C6  IND d   1       1.213  -0.827  -1.134  0.00  0.00     0.015 A 
ATOM      7  C7  IND d   1       0.573  -0.650  -2.329  0.00  0.00    -0.016 A 
ATOM      8  C8  IND d   1      -0.365   0.370  -2.392  0.00  0.00    -0.047 A 
ATOM      9  C9  IND d   1      -0.668   1.170  -1.282  0.00  0.00    -0.096 A 
ATOM     10  HN1 IND d   1      -1.192   0.442  -4.217  0.00  0.00     0.298 HD
ENDROOT
TORSDOF 0
ENDMDL
