MODEL 1
REMARK minimizedAffinity -2.28280115
REMARK minimizedRMSD -1
REMARK  0 active torsions:
REMARK  status: ('A' for Active; 'I' for Inactive)
ROOT
ATOM      1  N1  IND d   1      -1.004   1.002   0.737  0.00  0.00    -0.196 N 
ATOM      2  C2  IND d   1      -1.244   1.519  -0.505  0.00  0.00     0.054 A 
ATOM      3  C3  IND d   1      -0.363   1.018  -1.401  0.00  0.00    -0.031 A 
ATOM      4  C4  IND d   1       1.488  -0.739  -1.068  0.00  0.00     0.051 A 
ATOM      5  C5  IND d   1       2.113  -1.475  -0.100  0.00  0.00    -0.031 A 
ATOM      6  C6  IND d   1       1.720  -1.425   1.222  0.00  0.00     0.015 A 
ATOM      7  C7  IND d   1       0.677  -0.641   1.626  0.00  0.00    -0.016 A 
ATOM      8  C8  IND d   1       0.045   0.114   0.647  0.00  0.00    -0.047 A 
ATOM      9  C9  IND d   1       0.466   0.099  -0.689  0.00  0.00    -0.096 A 
ATOM     10  HN1 IND d   1      -1.436   1.199   1.454  0.00  0.00     0.298 HD
ENDROOT
TORSDOF 0
ENDMDL
