MODEL 1
REMARK minimizedAffinity -0.640627265
REMARK minimizedRMSD -1
REMARK  0 active torsions:
REMARK  status: ('A' for Active; 'I' for Inactive)
ROOT
ATOM      1  N1  IND d   1       0.413  -0.189   0.360  0.00  0.00    -0.196 N 
ATOM      2  C2  IND d   1       1.238  -0.738  -0.582  0.00  0.00     0.054 A 
ATOM      3  C3  IND d   1       0.874  -0.332  -1.819  0.00  0.00    -0.031 A 
ATOM      4  C4  IND d   1      -0.979   1.310  -2.523  0.00  0.00     0.051 A 
ATOM      5  C5  IND d   1      -2.019   2.041  -2.020  0.00  0.00    -0.031 A 
ATOM      6  C6  IND d   1      -2.305   2.069  -0.671  0.00  0.00     0.015 A 
ATOM      7  C7  IND d   1      -1.552   1.373   0.232  0.00  0.00    -0.016 A 
ATOM      8  C8  IND d   1      -0.500   0.623  -0.276  0.00  0.00    -0.047 A 
ATOM      9  C9  IND d   1      -0.231   0.558  -1.649  0.00  0.00    -0.096 A 
ATOM     10  HN1 IND d   1       0.456  -0.328   1.208  0.00  0.00     0.298 HD
ENDROOT
TORSDOF 0
ENDMDL
