MODEL 1
REMARK minimizedAffinity -5.44467115
REMARK minimizedRMSD -1
REMARK  3 active torsions:
REMARK  status: ('A' for Active; 'I' for Inactive)
REMARK    1  A    between atoms: C3'_2  and  C2'_3 
REMARK    2  A    between atoms: C2'_3  and  C1'_4 
REMARK    3  A    between atoms: C1'_4  and  C1_5 
ROOT
ATOM      1  C1  N4B d   1      -0.564  -0.306  -0.382  0.00  0.00    -0.075 A 
ATOM      2  C2  N4B d   1      -0.028  -0.749  -1.611  0.00  0.00     0.002 A 
ATOM      3  C3  N4B d   1      -0.007  -2.090  -1.907  0.00  0.00     0.002 A 
ATOM      4  C4  N4B d   1      -0.497  -3.004  -0.986  0.00  0.00    -0.004 A 
ATOM      5  C5  N4B d   1      -1.037  -2.566   0.188  0.00  0.00     0.002 A 
ATOM      6  C6  N4B d   1      -1.068  -1.221   0.497  0.00  0.00     0.002 A 
ENDROOT
BRANCH   1   7
ATOM      7  C1' N4B d   1      -0.531   1.142   0.023  0.00  0.00     0.057 C 
BRANCH   7   8
ATOM      8  C2' N4B d   1       0.905   1.652  -0.058  0.00  0.00     0.009 C 
BRANCH   8   9
ATOM      9  C3' N4B d   1       1.068   3.000   0.623  0.00  0.00     0.004 C 
ATOM     10  C4' N4B d   1       2.468   3.530   0.532  0.00  0.00     0.003 C 
ENDBRANCH   8   9
ENDBRANCH   7   8
ENDBRANCH   1   7
TORSDOF 3
ENDMDL
