MODEL 1
REMARK minimizedAffinity -3.47655797
REMARK minimizedRMSD -1
REMARK  3 active torsions:
REMARK  status: ('A' for Active; 'I' for Inactive)
REMARK    1  A    between atoms: C3'_2  and  C2'_3 
REMARK    2  A    between atoms: C2'_3  and  C1'_4 
REMARK    3  A    between atoms: C1'_4  and  C1_5 
ROOT
ATOM      1  C1  N4B d   1      -0.619   0.025   0.036  0.00  0.00    -0.075 A 
ATOM      2  C2  N4B d   1       0.156  -0.797  -0.811  0.00  0.00     0.002 A 
ATOM      3  C3  N4B d   1       0.084  -2.164  -0.694  0.00  0.00     0.002 A 
ATOM      4  C4  N4B d   1      -0.737  -2.728   0.271  0.00  0.00    -0.004 A 
ATOM      5  C5  N4B d   1      -1.502  -1.927   1.067  0.00  0.00     0.002 A 
ATOM      6  C6  N4B d   1      -1.443  -0.552   0.958  0.00  0.00     0.002 A 
ENDROOT
BRANCH   1   7
ATOM      7  C1' N4B d   1      -0.510   1.525   0.003  0.00  0.00     0.057 C 
BRANCH   7   8
ATOM      8  C2' N4B d   1       0.963   1.919  -0.043  0.00  0.00     0.009 C 
BRANCH   8   9
ATOM      9  C3' N4B d   1       1.226   3.223   0.689  0.00  0.00     0.004 C 
ATOM     10  C4' N4B d   1       2.670   3.627   0.657  0.00  0.00     0.003 C 
ENDBRANCH   8   9
ENDBRANCH   7   8
ENDBRANCH   1   7
TORSDOF 3
ENDMDL
