MODEL 1
REMARK minimizedAffinity -6.24696732
REMARK minimizedRMSD -1
REMARK  3 active torsions:
REMARK  status: ('A' for Active; 'I' for Inactive)
REMARK    1  A    between atoms: C3'_2  and  C2'_3 
REMARK    2  A    between atoms: C2'_3  and  C1'_4 
REMARK    3  A    between atoms: C1'_4  and  C1_5 
ROOT
ATOM      1  C1  N4B d   1      -0.048  -0.120  -0.069  0.00  0.00    -0.075 A 
ATOM      2  C2  N4B d   1       0.768  -1.000  -0.814  0.00  0.00     0.002 A 
ATOM      3  C3  N4B d   1       0.700  -2.353  -0.592  0.00  0.00     0.002 A 
ATOM      4  C4  N4B d   1      -0.159  -2.847   0.379  0.00  0.00    -0.004 A 
ATOM      5  C5  N4B d   1      -0.962  -1.993   1.077  0.00  0.00     0.002 A 
ATOM      6  C6  N4B d   1      -0.907  -0.630   0.861  0.00  0.00     0.002 A 
ENDROOT
BRANCH   1   7
ATOM      7  C1' N4B d   1       0.053   1.373  -0.216  0.00  0.00     0.057 C 
BRANCH   7   8
ATOM      8  C2' N4B d   1       1.432   1.830   0.252  0.00  0.00     0.009 C 
BRANCH   8   9
ATOM      9  C3' N4B d   1       1.498   3.336   0.438  0.00  0.00     0.004 C 
ATOM     10  C4' N4B d   1       2.178   3.735   1.714  0.00  0.00     0.003 C 
ENDBRANCH   8   9
ENDBRANCH   7   8
ENDBRANCH   1   7
TORSDOF 3
ENDMDL
