MODEL 1
REMARK minimizedAffinity -6.19664669
REMARK minimizedRMSD -1
REMARK  3 active torsions:
REMARK  status: ('A' for Active; 'I' for Inactive)
REMARK    1  A    between atoms: C3'_2  and  C2'_3 
REMARK    2  A    between atoms: C2'_3  and  C1'_4 
REMARK    3  A    between atoms: C1'_4  and  C1_5 
ROOT
ATOM      1  C1  N4B d   1       0.223   0.028   0.077  0.00  0.00    -0.075 A 
ATOM      2  C2  N4B d   1      -0.544   0.015   1.262  0.00  0.00     0.002 A 
ATOM      3  C3  N4B d   1      -0.919  -1.180   1.824  0.00  0.00     0.002 A 
ATOM      4  C4  N4B d   1      -0.555  -2.370   1.212  0.00  0.00    -0.004 A 
ATOM      5  C5  N4B d   1       0.209  -2.349   0.081  0.00  0.00     0.002 A 
ATOM      6  C6  N4B d   1       0.595  -1.155  -0.493  0.00  0.00     0.002 A 
ENDROOT
BRANCH   1   7
ATOM      7  C1' N4B d   1       0.584   1.311  -0.622  0.00  0.00     0.057 C 
BRANCH   7   8
ATOM      8  C2' N4B d   1       1.782   1.943   0.079  0.00  0.00     0.009 C 
BRANCH   8   9
ATOM      9  C3' N4B d   1       1.477   3.348   0.569  0.00  0.00     0.004 C 
ATOM     10  C4' N4B d   1       2.195   3.688   1.841  0.00  0.00     0.003 C 
ENDBRANCH   8   9
ENDBRANCH   7   8
ENDBRANCH   1   7
TORSDOF 3
ENDMDL
