MODEL 1
REMARK minimizedAffinity -4.91426516
REMARK minimizedRMSD -1
REMARK  3 active torsions:
REMARK  status: ('A' for Active; 'I' for Inactive)
REMARK    1  A    between atoms: C3'_2  and  C2'_3 
REMARK    2  A    between atoms: C2'_3  and  C1'_4 
REMARK    3  A    between atoms: C1'_4  and  C1_5 
ROOT
ATOM      1  C1  N4B d   1      -0.166   0.046  -0.331  0.00  0.00    -0.075 A 
ATOM      2  C2  N4B d   1       0.708  -0.949  -0.821  0.00  0.00     0.002 A 
ATOM      3  C3  N4B d   1       0.567  -2.251  -0.408  0.00  0.00     0.002 A 
ATOM      4  C4  N4B d   1      -0.424  -2.577   0.504  0.00  0.00    -0.004 A 
ATOM      5  C5  N4B d   1      -1.281  -1.615   0.953  0.00  0.00     0.002 A 
ATOM      6  C6  N4B d   1      -1.154  -0.303   0.543  0.00  0.00     0.002 A 
ENDROOT
BRANCH   1   7
ATOM      7  C1' N4B d   1       0.003   1.498  -0.688  0.00  0.00     0.057 C 
BRANCH   7   8
ATOM      8  C2' N4B d   1       0.466   2.266   0.547  0.00  0.00     0.009 C 
BRANCH   8   9
ATOM      9  C3' N4B d   1       1.719   3.080   0.272  0.00  0.00     0.004 C 
ATOM     10  C4' N4B d   1       2.284   3.711   1.510  0.00  0.00     0.003 C 
ENDBRANCH   8   9
ENDBRANCH   7   8
ENDBRANCH   1   7
TORSDOF 3
ENDMDL
