MODEL 1
REMARK minimizedAffinity -5.02747107
REMARK minimizedRMSD -1
REMARK  3 active torsions:
REMARK  status: ('A' for Active; 'I' for Inactive)
REMARK    1  A    between atoms: C3'_2  and  C2'_3 
REMARK    2  A    between atoms: C2'_3  and  C1'_4 
REMARK    3  A    between atoms: C1'_4  and  C1_5 
ROOT
ATOM      1  C1  N4B d   1      -0.336  -0.329   0.145  0.00  0.00    -0.075 A 
ATOM      2  C2  N4B d   1      -1.268  -0.961   0.997  0.00  0.00     0.002 A 
ATOM      3  C3  N4B d   1      -1.186  -2.314   1.222  0.00  0.00     0.002 A 
ATOM      4  C4  N4B d   1      -0.196  -3.054   0.594  0.00  0.00    -0.004 A 
ATOM      5  C5  N4B d   1       0.716  -2.432  -0.207  0.00  0.00     0.002 A 
ATOM      6  C6  N4B d   1       0.648  -1.073  -0.439  0.00  0.00     0.002 A 
ENDROOT
BRANCH   1   7
ATOM      7  C1' N4B d   1      -0.439   1.132  -0.199  0.00  0.00     0.057 C 
BRANCH   7   8
ATOM      8  C2' N4B d   1       0.877   1.821   0.150  0.00  0.00     0.009 C 
BRANCH   8   9
ATOM      9  C3' N4B d   1       0.653   3.173   0.806  0.00  0.00     0.004 C 
ATOM     10  C4' N4B d   1       1.935   3.858   1.176  0.00  0.00     0.003 C 
ENDBRANCH   8   9
ENDBRANCH   7   8
ENDBRANCH   1   7
TORSDOF 3
ENDMDL
