MODEL 1
REMARK minimizedAffinity -3.50916982
REMARK minimizedRMSD -1
REMARK  3 active torsions:
REMARK  status: ('A' for Active; 'I' for Inactive)
REMARK    1  A    between atoms: C3'_2  and  C2'_3 
REMARK    2  A    between atoms: C2'_3  and  C1'_4 
REMARK    3  A    between atoms: C1'_4  and  C1_5 
ROOT
ATOM      1  C1  N4B d   1       0.556  -1.640  -1.378  0.00  0.00    -0.075 A 
ATOM      2  C2  N4B d   1      -0.717  -2.045  -0.923  0.00  0.00     0.002 A 
ATOM      3  C3  N4B d   1      -0.824  -2.919   0.132  0.00  0.00     0.002 A 
ATOM      4  C4  N4B d   1       0.325  -3.413   0.731  0.00  0.00    -0.004 A 
ATOM      5  C5  N4B d   1       1.551  -2.997   0.302  0.00  0.00     0.002 A 
ATOM      6  C6  N4B d   1       1.673  -2.116  -0.754  0.00  0.00     0.002 A 
ENDROOT
BRANCH   1   7
ATOM      7  C1' N4B d   1       0.724  -0.753  -2.582  0.00  0.00     0.057 C 
BRANCH   7   8
ATOM      8  C2' N4B d   1       0.206   0.643  -2.251  0.00  0.00     0.009 C 
BRANCH   8   9
ATOM      9  C3' N4B d   1       0.664   1.110  -0.880  0.00  0.00     0.004 C 
ATOM     10  C4' N4B d   1      -0.478   1.456   0.027  0.00  0.00     0.003 C 
ENDBRANCH   8   9
ENDBRANCH   7   8
ENDBRANCH   1   7
TORSDOF 3
ENDMDL
