MODEL 1
REMARK minimizedAffinity -6.17076635
REMARK minimizedRMSD -1
REMARK  3 active torsions:
REMARK  status: ('A' for Active; 'I' for Inactive)
REMARK    1  A    between atoms: C3'_2  and  C2'_3 
REMARK    2  A    between atoms: C2'_3  and  C1'_4 
REMARK    3  A    between atoms: C1'_4  and  C1_5 
ROOT
ATOM      1  C1  N4B d   1       0.075  -0.332  -0.781  0.00  0.00    -0.075 A 
ATOM      2  C2  N4B d   1      -0.437  -0.704   0.481  0.00  0.00     0.002 A 
ATOM      3  C3  N4B d   1      -0.575  -2.032   0.802  0.00  0.00     0.002 A 
ATOM      4  C4  N4B d   1      -0.226  -3.001  -0.126  0.00  0.00    -0.004 A 
ATOM      5  C5  N4B d   1       0.292  -2.634  -1.333  0.00  0.00     0.002 A 
ATOM      6  C6  N4B d   1       0.440  -1.303  -1.668  0.00  0.00     0.002 A 
ENDROOT
BRANCH   1   7
ATOM      7  C1' N4B d   1       0.163   1.108  -1.210  0.00  0.00     0.057 C 
BRANCH   7   8
ATOM      8  C2' N4B d   1       0.555   1.964  -0.009  0.00  0.00     0.009 C 
BRANCH   8   9
ATOM      9  C3' N4B d   1       1.711   2.896  -0.329  0.00  0.00     0.004 C 
ATOM     10  C4' N4B d   1       2.468   3.324   0.893  0.00  0.00     0.003 C 
ENDBRANCH   8   9
ENDBRANCH   7   8
ENDBRANCH   1   7
TORSDOF 3
ENDMDL
