MODEL 1
REMARK minimizedAffinity -3.95004368
REMARK minimizedRMSD -1
REMARK  3 active torsions:
REMARK  status: ('A' for Active; 'I' for Inactive)
REMARK    1  A    between atoms: C3'_2  and  C2'_3 
REMARK    2  A    between atoms: C2'_3  and  C1'_4 
REMARK    3  A    between atoms: C1'_4  and  C1_5 
ROOT
ATOM      1  C1  N4B d   1      -0.159  -0.626  -0.191  0.00  0.00    -0.075 A 
ATOM      2  C2  N4B d   1      -0.076  -0.896  -1.575  0.00  0.00     0.002 A 
ATOM      3  C3  N4B d   1      -0.299  -2.169  -2.041  0.00  0.00     0.002 A 
ATOM      4  C4  N4B d   1      -0.587  -3.187  -1.145  0.00  0.00    -0.004 A 
ATOM      5  C5  N4B d   1      -0.691  -2.913   0.188  0.00  0.00     0.002 A 
ATOM      6  C6  N4B d   1      -0.473  -1.638   0.670  0.00  0.00     0.002 A 
ENDROOT
BRANCH   1   7
ATOM      7  C1' N4B d   1       0.161   0.730   0.374  0.00  0.00     0.057 C 
BRANCH   7   8
ATOM      8  C2' N4B d   1      -0.222   1.800  -0.645  0.00  0.00     0.009 C 
BRANCH   8   9
ATOM      9  C3' N4B d   1       0.172   3.192  -0.181  0.00  0.00     0.004 C 
ATOM     10  C4' N4B d   1       1.635   3.311   0.125  0.00  0.00     0.003 C 
ENDBRANCH   8   9
ENDBRANCH   7   8
ENDBRANCH   1   7
TORSDOF 3
ENDMDL
