MODEL 1
REMARK minimizedAffinity 6.1793561
REMARK minimizedRMSD -1
REMARK  1 active torsions:
REMARK  status: ('A' for Active; 'I' for Inactive)
REMARK    1  A    between atoms: C1_2  and  C2_3 
ROOT
ATOM      1  C2  UNL d   1       3.808  -0.623   0.840  0.00  0.00    -0.073 A 
ATOM      2  C3  UNL d   1       2.527  -0.198   1.211  0.00  0.00    -0.002 A 
ATOM      3  C4  UNL d   1       1.871   0.789   0.475  0.00  0.00     0.004 A 
ATOM      4  C5  UNL d   1       2.484   1.356  -0.642  0.00  0.00    -0.004 A 
ATOM      5  C6  UNL d   1       3.759   0.937  -1.035  0.00  0.00    -0.075 A 
ATOM      6  C7  UNL d   1       4.434   1.539  -2.233  0.00  0.00     0.076 C 
ATOM      7  C8  UNL d   1       4.413  -0.053  -0.289  0.00  0.00     0.001 A 
ENDROOT
BRANCH   1   8
ATOM      8  C1  UNL d   1       4.518  -1.693   1.628  0.00  0.00     0.053 C 
ATOM      9  C   UNL d   1       6.000  -1.394   1.789  0.00  0.00     0.018 C 
ENDBRANCH   1   8
TORSDOF 1
ENDMDL
