MODEL 1
REMARK minimizedAffinity 10.6529446
REMARK minimizedRMSD -1
REMARK  1 active torsions:
REMARK  status: ('A' for Active; 'I' for Inactive)
REMARK    1  A    between atoms: C1_2  and  C2_3 
ROOT
ATOM      1  C2  UNL d   1       3.493   0.852  -0.739  0.00  0.00    -0.073 A 
ATOM      2  C3  UNL d   1       4.273   1.078  -1.879  0.00  0.00    -0.002 A 
ATOM      3  C4  UNL d   1       5.393   1.909  -1.814  0.00  0.00     0.004 A 
ATOM      4  C5  UNL d   1       5.747   2.515  -0.609  0.00  0.00    -0.004 A 
ATOM      5  C6  UNL d   1       4.988   2.291   0.544  0.00  0.00    -0.075 A 
ATOM      6  C7  UNL d   1       5.355   2.938   1.847  0.00  0.00     0.076 C 
ATOM      7  C8  UNL d   1       3.863   1.458   0.470  0.00  0.00     0.001 A 
ENDROOT
BRANCH   1   8
ATOM      8  C1  UNL d   1       2.287  -0.049  -0.804  0.00  0.00     0.053 C 
ATOM      9  C   UNL d   1       2.562  -1.414  -0.193  0.00  0.00     0.018 C 
ENDBRANCH   1   8
TORSDOF 1
ENDMDL
