MODEL 1
REMARK minimizedAffinity 11.1682272
REMARK minimizedRMSD -1
REMARK  1 active torsions:
REMARK  status: ('A' for Active; 'I' for Inactive)
REMARK    1  A    between atoms: C1_2  and  C2_3 
ROOT
ATOM      1  C2  UNL d   1      -3.251   0.179  -1.335  0.00  0.00    -0.073 A 
ATOM      2  C3  UNL d   1      -4.489  -0.375  -1.680  0.00  0.00    -0.002 A 
ATOM      3  C4  UNL d   1      -5.644  -0.005  -0.990  0.00  0.00     0.004 A 
ATOM      4  C5  UNL d   1      -5.574   0.926   0.046  0.00  0.00    -0.004 A 
ATOM      5  C6  UNL d   1      -4.348   1.500   0.398  0.00  0.00    -0.075 A 
ATOM      6  C7  UNL d   1      -4.256   2.502   1.511  0.00  0.00     0.076 C 
ATOM      7  C8  UNL d   1      -3.192   1.121  -0.298  0.00  0.00     0.001 A 
ENDROOT
BRANCH   1   8
ATOM      8  C1  UNL d   1      -2.002  -0.213  -2.082  0.00  0.00     0.053 C 
ATOM      9  C   UNL d   1      -2.286  -0.520  -3.544  0.00  0.00     0.018 C 
ENDBRANCH   1   8
TORSDOF 1
ENDMDL
