MODEL 1
REMARK minimizedAffinity 5.58472157
REMARK minimizedRMSD -1
REMARK  1 active torsions:
REMARK  status: ('A' for Active; 'I' for Inactive)
REMARK    1  A    between atoms: C3_4  and  O_7 
ROOT
ATOM      1  C   UNL d   1      -0.803  -1.286  -4.102  0.00  0.00    -0.033 A 
ATOM      2  C1  UNL d   1      -0.278  -1.187  -5.392  0.00  0.00     0.039 A 
ATOM      3  C2  UNL d   1       1.000  -0.661  -5.589  0.00  0.00    -0.080 A 
ATOM      4  C3  UNL d   1       1.742  -0.239  -4.489  0.00  0.00     0.150 A 
ATOM      5  C4  UNL d   1       1.227  -0.338  -3.201  0.00  0.00    -0.007 A 
ATOM      6  C5  UNL d   1      -0.050  -0.863  -3.006  0.00  0.00     0.039 A 
ENDROOT
BRANCH   4   7
ATOM      7  O   UNL d   1       2.992   0.285  -4.632  0.00  0.00    -0.526 OA
ATOM      8  H5  UNL d   1       3.206   0.319  -5.579  0.00  0.00     0.418 HD
ENDBRANCH   4   7
TORSDOF 1
ENDMDL
