MODEL 1
REMARK minimizedAffinity 11.2774105
REMARK minimizedRMSD -1
REMARK  1 active torsions:
REMARK  status: ('A' for Active; 'I' for Inactive)
REMARK    1  A    between atoms: C3_4  and  O_7 
ROOT
ATOM      1  C   UNL d   1       0.025   0.672   2.542  0.00  0.00    -0.033 A 
ATOM      2  C1  UNL d   1       0.808   0.240   3.615  0.00  0.00     0.039 A 
ATOM      3  C2  UNL d   1       0.866   0.995   4.788  0.00  0.00    -0.080 A 
ATOM      4  C3  UNL d   1       0.137   2.178   4.876  0.00  0.00     0.150 A 
ATOM      5  C4  UNL d   1      -0.648   2.612   3.813  0.00  0.00    -0.007 A 
ATOM      6  C5  UNL d   1      -0.704   1.857   2.642  0.00  0.00     0.039 A 
ENDROOT
BRANCH   4   7
ATOM      7  O   UNL d   1       0.165   2.951   5.998  0.00  0.00    -0.526 OA
ATOM      8  H5  UNL d   1       0.772   2.542   6.638  0.00  0.00     0.418 HD
ENDBRANCH   4   7
TORSDOF 1
ENDMDL
