MODEL 1
REMARK minimizedAffinity 9.58421898
REMARK minimizedRMSD -1
REMARK  1 active torsions:
REMARK  status: ('A' for Active; 'I' for Inactive)
REMARK    1  A    between atoms: C3_4  and  O_7 
ROOT
ATOM      1  C   UNL d   1      -0.328  -1.815  -5.720  0.00  0.00    -0.033 A 
ATOM      2  C1  UNL d   1       0.329  -3.015  -6.000  0.00  0.00     0.039 A 
ATOM      3  C2  UNL d   1       1.691  -3.149  -5.722  0.00  0.00    -0.080 A 
ATOM      4  C3  UNL d   1       2.383  -2.078  -5.163  0.00  0.00     0.150 A 
ATOM      5  C4  UNL d   1       1.734  -0.881  -4.878  0.00  0.00    -0.007 A 
ATOM      6  C5  UNL d   1       0.374  -0.748  -5.157  0.00  0.00     0.039 A 
ENDROOT
BRANCH   4   7
ATOM      7  O   UNL d   1       3.713  -2.160  -4.878  0.00  0.00    -0.526 OA
ATOM      8  H5  UNL d   1       4.034  -3.035  -5.155  0.00  0.00     0.418 HD
ENDBRANCH   4   7
TORSDOF 1
ENDMDL
