MODEL 1
REMARK minimizedAffinity 14.3343201
REMARK minimizedRMSD -1
REMARK  1 active torsions:
REMARK  status: ('A' for Active; 'I' for Inactive)
REMARK    1  A    between atoms: C3_4  and  O_7 
ROOT
ATOM      1  C   UNL d   1       5.821   1.161   3.339  0.00  0.00    -0.033 A 
ATOM      2  C1  UNL d   1       5.143   2.185   4.004  0.00  0.00     0.039 A 
ATOM      3  C2  UNL d   1       4.386   3.108   3.280  0.00  0.00    -0.080 A 
ATOM      4  C3  UNL d   1       4.312   2.995   1.894  0.00  0.00     0.150 A 
ATOM      5  C4  UNL d   1       4.981   1.975   1.226  0.00  0.00    -0.007 A 
ATOM      6  C5  UNL d   1       5.739   1.055   1.950  0.00  0.00     0.039 A 
ENDROOT
BRANCH   4   7
ATOM      7  O   UNL d   1       3.589   3.875   1.145  0.00  0.00    -0.526 OA
ATOM      8  H5  UNL d   1       3.205   4.542   1.738  0.00  0.00     0.418 HD
ENDBRANCH   4   7
TORSDOF 1
ENDMDL
