MODEL 1
REMARK minimizedAffinity 7.15057182
REMARK minimizedRMSD -1
REMARK  1 active torsions:
REMARK  status: ('A' for Active; 'I' for Inactive)
REMARK    1  A    between atoms: C3_4  and  O_7 
ROOT
ATOM      1  C   UNL d   1       1.058   0.350   2.752  0.00  0.00    -0.033 A 
ATOM      2  C1  UNL d   1       2.204   0.776   2.078  0.00  0.00     0.039 A 
ATOM      3  C2  UNL d   1       3.371   1.056   2.790  0.00  0.00    -0.080 A 
ATOM      4  C3  UNL d   1       3.380   0.906   4.174  0.00  0.00     0.150 A 
ATOM      5  C4  UNL d   1       2.243   0.478   4.852  0.00  0.00    -0.007 A 
ATOM      6  C5  UNL d   1       1.078   0.199   4.138  0.00  0.00     0.039 A 
ENDROOT
BRANCH   4   7
ATOM      7  O   UNL d   1       4.494   1.172   4.913  0.00  0.00    -0.526 OA
ATOM      8  H5  UNL d   1       5.192   1.485   4.314  0.00  0.00     0.418 HD
ENDBRANCH   4   7
TORSDOF 1
ENDMDL
