MODEL 1
REMARK minimizedAffinity 15.9960184
REMARK minimizedRMSD -1
REMARK  1 active torsions:
REMARK  status: ('A' for Active; 'I' for Inactive)
REMARK    1  A    between atoms: C3_4  and  O_7 
ROOT
ATOM      1  C   UNL d   1      -5.334   1.529  -1.856  0.00  0.00    -0.033 A 
ATOM      2  C1  UNL d   1      -4.988   0.328  -1.233  0.00  0.00     0.039 A 
ATOM      3  C2  UNL d   1      -4.404   0.341   0.035  0.00  0.00    -0.080 A 
ATOM      4  C3  UNL d   1      -4.173   1.558   0.669  0.00  0.00     0.150 A 
ATOM      5  C4  UNL d   1      -4.519   2.758   0.057  0.00  0.00    -0.007 A 
ATOM      6  C5  UNL d   1      -5.101   2.744  -1.210  0.00  0.00     0.039 A 
ENDROOT
BRANCH   4   7
ATOM      7  O   UNL d   1      -3.601   1.620   1.905  0.00  0.00    -0.526 OA
ATOM      8  H5  UNL d   1      -3.390   0.717   2.192  0.00  0.00     0.418 HD
ENDBRANCH   4   7
TORSDOF 1
ENDMDL
