MODEL 1
REMARK minimizedAffinity 8.61930752
REMARK minimizedRMSD -1
REMARK  1 active torsions:
REMARK  status: ('A' for Active; 'I' for Inactive)
REMARK    1  A    between atoms: C3_4  and  O_7 
ROOT
ATOM      1  C   UNL d   1      -3.536   0.828   1.018  0.00  0.00    -0.033 A 
ATOM      2  C1  UNL d   1      -3.458  -0.410   0.376  0.00  0.00     0.039 A 
ATOM      3  C2  UNL d   1      -4.127  -0.615  -0.832  0.00  0.00    -0.080 A 
ATOM      4  C3  UNL d   1      -4.870   0.424  -1.387  0.00  0.00     0.150 A 
ATOM      5  C4  UNL d   1      -4.949   1.660  -0.754  0.00  0.00    -0.007 A 
ATOM      6  C5  UNL d   1      -4.281   1.863   0.452  0.00  0.00     0.039 A 
ENDROOT
BRANCH   4   7
ATOM      7  O   UNL d   1      -5.544   0.269  -2.561  0.00  0.00    -0.526 OA
ATOM      8  H5  UNL d   1      -5.422  -0.644  -2.869  0.00  0.00     0.418 HD
ENDBRANCH   4   7
TORSDOF 1
ENDMDL
