MODEL 1
REMARK minimizedAffinity -5.73914909
REMARK minimizedRMSD -1
REMARK  0 active torsions:
REMARK  status: ('A' for Active; 'I' for Inactive)
ROOT
ATOM      1  C1  DEN d   1      -0.610  -3.034  -1.408  0.00  0.00     0.130 A 
ATOM      2  C2  DEN d   1      -0.013  -2.521  -2.637  0.00  0.00    -0.031 A 
ATOM      3  C3  DEN d   1       0.258  -1.082  -2.447  0.00  0.00     0.027 A 
ATOM      4  C4  DEN d   1      -0.183   0.392  -0.377  0.00  0.00     0.027 A 
ATOM      5  C5  DEN d   1      -0.687   0.406   0.905  0.00  0.00    -0.003 A 
ATOM      6  C6  DEN d   1      -1.227  -0.709   1.489  0.00  0.00     0.001 A 
ATOM      7  C7  DEN d   1      -1.235  -1.897   0.806  0.00  0.00     0.017 A 
ATOM      8  C8  DEN d   1      -0.736  -1.916  -0.490  0.00  0.00    -0.094 A 
ATOM      9  C9  DEN d   1      -0.183  -0.781  -1.058  0.00  0.00    -0.072 A 
ENDROOT
TORSDOF 0
ENDMDL
