MODEL 1
REMARK minimizedAffinity -1.82172418
REMARK minimizedRMSD -1
REMARK  0 active torsions:
REMARK  status: ('A' for Active; 'I' for Inactive)
ROOT
ATOM      1  C1  DEN d   1      -0.369  -2.905  -2.056  0.00  0.00     0.130 A 
ATOM      2  C2  DEN d   1       0.067  -2.136  -3.218  0.00  0.00    -0.031 A 
ATOM      3  C3  DEN d   1       0.236  -0.730  -2.799  0.00  0.00     0.027 A 
ATOM      4  C4  DEN d   1      -0.128   0.324  -0.474  0.00  0.00     0.027 A 
ATOM      5  C5  DEN d   1      -0.510   0.073   0.826  0.00  0.00    -0.003 A 
ATOM      6  C6  DEN d   1      -0.900  -1.172   1.244  0.00  0.00     0.001 A 
ATOM      7  C7  DEN d   1      -0.875  -2.222   0.365  0.00  0.00     0.017 A 
ATOM      8  C8  DEN d   1      -0.499  -1.975  -0.948  0.00  0.00    -0.094 A 
ATOM      9  C9  DEN d   1      -0.096  -0.712  -1.349  0.00  0.00    -0.072 A 
ENDROOT
TORSDOF 0
ENDMDL
