MODEL 1
REMARK minimizedAffinity -6.61215258
REMARK minimizedRMSD -1
REMARK  0 active torsions:
REMARK  status: ('A' for Active; 'I' for Inactive)
ROOT
ATOM      1  C1  DEN d   1       0.010  -3.069  -1.079  0.00  0.00     0.130 A 
ATOM      2  C2  DEN d   1      -0.213  -3.212   0.357  0.00  0.00    -0.031 A 
ATOM      3  C3  DEN d   1      -0.437  -1.866   0.920  0.00  0.00     0.027 A 
ATOM      4  C4  DEN d   1      -0.464   0.414  -0.286  0.00  0.00     0.027 A 
ATOM      5  C5  DEN d   1      -0.313   1.042  -1.503  0.00  0.00    -0.003 A 
ATOM      6  C6  DEN d   1      -0.013   0.353  -2.648  0.00  0.00     0.001 A 
ATOM      7  C7  DEN d   1       0.102  -1.011  -2.609  0.00  0.00     0.017 A 
ATOM      8  C8  DEN d   1      -0.042  -1.651  -1.384  0.00  0.00    -0.094 A 
ATOM      9  C9  DEN d   1      -0.357  -0.938  -0.240  0.00  0.00    -0.072 A 
ENDROOT
TORSDOF 0
ENDMDL
