MODEL 1
REMARK minimizedAffinity -4.05399561
REMARK minimizedRMSD -1
REMARK  0 active torsions:
REMARK  status: ('A' for Active; 'I' for Inactive)
ROOT
ATOM      1  C1  DEN d   1      -0.440  -0.059  -0.838  0.00  0.00     0.130 A 
ATOM      2  C2  DEN d   1      -0.148  -1.013   0.229  0.00  0.00    -0.031 A 
ATOM      3  C3  DEN d   1       0.597  -0.301   1.286  0.00  0.00     0.027 A 
ATOM      4  C4  DEN d   1       1.319   2.173   1.377  0.00  0.00     0.027 A 
ATOM      5  C5  DEN d   1       1.309   3.372   0.698  0.00  0.00    -0.003 A 
ATOM      6  C6  DEN d   1       0.749   3.501  -0.546  0.00  0.00     0.001 A 
ATOM      7  C7  DEN d   1       0.136   2.424  -1.130  0.00  0.00     0.017 A 
ATOM      8  C8  DEN d   1       0.150   1.211  -0.454  0.00  0.00    -0.094 A 
ATOM      9  C9  DEN d   1       0.710   1.103   0.808  0.00  0.00    -0.072 A 
ENDROOT
TORSDOF 0
ENDMDL
