MODEL 1
REMARK minimizedAffinity -4.71064949
REMARK minimizedRMSD -1
REMARK  0 active torsions:
REMARK  status: ('A' for Active; 'I' for Inactive)
ROOT
ATOM      1  C1  DEN d   1      -0.654   0.815  -0.205  0.00  0.00     0.130 A 
ATOM      2  C2  DEN d   1      -0.075   1.226  -1.481  0.00  0.00    -0.031 A 
ATOM      3  C3  DEN d   1       0.732   0.102  -1.999  0.00  0.00     0.027 A 
ATOM      4  C4  DEN d   1       1.135  -2.222  -0.955  0.00  0.00     0.027 A 
ATOM      5  C5  DEN d   1       0.862  -3.029   0.127  0.00  0.00    -0.003 A 
ATOM      6  C6  DEN d   1       0.099  -2.603   1.182  0.00  0.00     0.001 A 
ATOM      7  C7  DEN d   1      -0.456  -1.351   1.156  0.00  0.00     0.017 A 
ATOM      8  C8  DEN d   1      -0.179  -0.528   0.072  0.00  0.00    -0.094 A 
ATOM      9  C9  DEN d   1       0.585  -0.982  -0.990  0.00  0.00    -0.072 A 
ENDROOT
TORSDOF 0
ENDMDL
