MODEL 1
REMARK minimizedAffinity 0.814316213
REMARK minimizedRMSD -1
REMARK  0 active torsions:
REMARK  status: ('A' for Active; 'I' for Inactive)
ROOT
ATOM      1  C1  DEN d   1       1.859   1.705   1.103  0.00  0.00     0.130 A 
ATOM      2  C2  DEN d   1       1.439   3.067   0.786  0.00  0.00    -0.031 A 
ATOM      3  C3  DEN d   1       0.571   3.010  -0.408  0.00  0.00     0.027 A 
ATOM      4  C4  DEN d   1      -0.164   0.956  -1.784  0.00  0.00     0.027 A 
ATOM      5  C5  DEN d   1      -0.052  -0.412  -1.906  0.00  0.00    -0.003 A 
ATOM      6  C6  DEN d   1       0.725  -1.159  -1.061  0.00  0.00     0.001 A 
ATOM      7  C7  DEN d   1       1.386  -0.549  -0.028  0.00  0.00     0.017 A 
ATOM      8  C8  DEN d   1       1.284   0.830   0.097  0.00  0.00    -0.094 A 
ATOM      9  C9  DEN d   1       0.484   1.567  -0.759  0.00  0.00    -0.072 A 
ENDROOT
TORSDOF 0
ENDMDL
