MODEL 1
REMARK minimizedAffinity 0.782589257
REMARK minimizedRMSD -1
REMARK  0 active torsions:
REMARK  status: ('A' for Active; 'I' for Inactive)
ROOT
ATOM      1  C1  DEN d   1       0.441   0.078  -0.141  0.00  0.00     0.130 A 
ATOM      2  C2  DEN d   1      -0.523   1.166  -0.001  0.00  0.00    -0.031 A 
ATOM      3  C3  DEN d   1      -1.736   0.622   0.643  0.00  0.00     0.027 A 
ATOM      4  C4  DEN d   1      -2.210  -1.786   1.437  0.00  0.00     0.027 A 
ATOM      5  C5  DEN d   1      -1.698  -3.061   1.521  0.00  0.00    -0.003 A 
ATOM      6  C6  DEN d   1      -0.461  -3.385   1.030  0.00  0.00     0.001 A 
ATOM      7  C7  DEN d   1       0.325  -2.411   0.474  0.00  0.00     0.017 A 
ATOM      8  C8  DEN d   1      -0.187  -1.124   0.379  0.00  0.00    -0.094 A 
ATOM      9  C9  DEN d   1      -1.436  -0.814   0.892  0.00  0.00    -0.072 A 
ENDROOT
TORSDOF 0
ENDMDL
