MODEL 1
REMARK minimizedAffinity -0.496900529
REMARK minimizedRMSD -1
REMARK  0 active torsions:
REMARK  status: ('A' for Active; 'I' for Inactive)
ROOT
ATOM      1  C1  DEN d   1      -0.730   0.033   1.032  0.00  0.00     0.130 A 
ATOM      2  C2  DEN d   1      -0.809  -0.362  -0.372  0.00  0.00    -0.031 A 
ATOM      3  C3  DEN d   1      -0.137   0.677  -1.177  0.00  0.00     0.027 A 
ATOM      4  C4  DEN d   1       1.018   2.845  -0.390  0.00  0.00     0.027 A 
ATOM      5  C5  DEN d   1       1.330   3.616   0.707  0.00  0.00    -0.003 A 
ATOM      6  C6  DEN d   1       0.950   3.267   1.976  0.00  0.00     0.001 A 
ATOM      7  C7  DEN d   1       0.275   2.093   2.184  0.00  0.00     0.017 A 
ATOM      8  C8  DEN d   1      -0.049   1.314   1.081  0.00  0.00    -0.094 A 
ATOM      9  C9  DEN d   1       0.355   1.678  -0.192  0.00  0.00    -0.072 A 
ENDROOT
TORSDOF 0
ENDMDL
