MODEL 1
REMARK minimizedAffinity -4.46663284
REMARK minimizedRMSD -1
REMARK  0 active torsions:
REMARK  status: ('A' for Active; 'I' for Inactive)
ROOT
ATOM      1  C1  DEN d   1       0.567   0.328  -0.222  0.00  0.00     0.130 A 
ATOM      2  C2  DEN d   1      -0.700   0.962   0.129  0.00  0.00    -0.031 A 
ATOM      3  C3  DEN d   1      -1.622  -0.090   0.603  0.00  0.00     0.027 A 
ATOM      4  C4  DEN d   1      -1.208  -2.625   0.832  0.00  0.00     0.027 A 
ATOM      5  C5  DEN d   1      -0.289  -3.634   0.646  0.00  0.00    -0.003 A 
ATOM      6  C6  DEN d   1       0.958  -3.400   0.130  0.00  0.00     0.001 A 
ATOM      7  C7  DEN d   1       1.336  -2.119  -0.176  0.00  0.00     0.017 A 
ATOM      8  C8  DEN d   1       0.412  -1.098   0.002  0.00  0.00    -0.094 A 
ATOM      9  C9  DEN d   1      -0.839  -1.353   0.536  0.00  0.00    -0.072 A 
ENDROOT
TORSDOF 0
ENDMDL
