MODEL 1
REMARK minimizedAffinity -3.62687683
REMARK minimizedRMSD -1
REMARK  0 active torsions:
REMARK  status: ('A' for Active; 'I' for Inactive)
ROOT
ATOM      1  C1  DEN d   1       0.805   0.500   0.243  0.00  0.00     0.130 A 
ATOM      2  C2  DEN d   1      -0.370   1.224   0.720  0.00  0.00    -0.031 A 
ATOM      3  C3  DEN d   1      -1.380   0.231   1.137  0.00  0.00     0.027 A 
ATOM      4  C4  DEN d   1      -1.237  -2.344   1.095  0.00  0.00     0.027 A 
ATOM      5  C5  DEN d   1      -0.442  -3.419   0.763  0.00  0.00    -0.003 A 
ATOM      6  C6  DEN d   1       0.800  -3.264   0.208  0.00  0.00     0.001 A 
ATOM      7  C7  DEN d   1       1.303  -2.006   0.009  0.00  0.00     0.017 A 
ATOM      8  C8  DEN d   1       0.505  -0.917   0.334  0.00  0.00    -0.094 A 
ATOM      9  C9  DEN d   1      -0.744  -1.094   0.906  0.00  0.00    -0.072 A 
ENDROOT
TORSDOF 0
ENDMDL
