MODEL 1
REMARK minimizedAffinity -6.68436432
REMARK minimizedRMSD -1
REMARK  0 active torsions:
REMARK  status: ('A' for Active; 'I' for Inactive)
ROOT
ATOM      1  C1  DEN d   1       0.114  -3.004  -2.053  0.00  0.00     0.130 A 
ATOM      2  C2  DEN d   1       0.331  -1.852  -2.924  0.00  0.00    -0.031 A 
ATOM      3  C3  DEN d   1       0.163  -0.629  -2.115  0.00  0.00     0.027 A 
ATOM      4  C4  DEN d   1      -0.405  -0.407   0.391  0.00  0.00     0.027 A 
ATOM      5  C5  DEN d   1      -0.692  -1.106   1.544  0.00  0.00    -0.003 A 
ATOM      6  C6  DEN d   1      -0.763  -2.473   1.570  0.00  0.00     0.001 A 
ATOM      7  C7  DEN d   1      -0.500  -3.189   0.431  0.00  0.00     0.017 A 
ATOM      8  C8  DEN d   1      -0.217  -2.491  -0.736  0.00  0.00    -0.094 A 
ATOM      9  C9  DEN d   1      -0.138  -1.109  -0.739  0.00  0.00    -0.072 A 
ENDROOT
TORSDOF 0
ENDMDL
