MODEL 1
REMARK minimizedAffinity -6.62191629
REMARK minimizedRMSD -1
REMARK  0 active torsions:
REMARK  status: ('A' for Active; 'I' for Inactive)
ROOT
ATOM      1  C1  DEN d   1       0.129   0.427  -1.344  0.00  0.00     0.130 A 
ATOM      2  C2  DEN d   1      -0.285   0.971  -0.053  0.00  0.00    -0.031 A 
ATOM      3  C3  DEN d   1      -0.519  -0.161   0.865  0.00  0.00     0.027 A 
ATOM      4  C4  DEN d   1      -0.278  -2.690   0.419  0.00  0.00     0.027 A 
ATOM      5  C5  DEN d   1       0.037  -3.637  -0.530  0.00  0.00    -0.003 A 
ATOM      6  C6  DEN d   1       0.369  -3.300  -1.816  0.00  0.00     0.001 A 
ATOM      7  C7  DEN d   1       0.437  -1.980  -2.176  0.00  0.00     0.017 A 
ATOM      8  C8  DEN d   1       0.114  -1.020  -1.226  0.00  0.00    -0.094 A 
ATOM      9  C9  DEN d   1      -0.207  -1.380   0.072  0.00  0.00    -0.072 A 
ENDROOT
TORSDOF 0
ENDMDL
