MODEL 1
REMARK minimizedAffinity -4.16344261
REMARK minimizedRMSD -1
REMARK  1 active torsions:
REMARK  status: ('A' for Active; 'I' for Inactive)
REMARK    1  A    between atoms: C1_2  and  C2_3 
ROOT
ATOM      1  C2  UNL d   1      -3.958  -3.812  -5.045  0.00  0.00    -0.076 A 
ATOM      2  C3  UNL d   1      -2.625  -3.500  -4.723  0.00  0.00     0.004 A 
ATOM      3  C4  UNL d   1      -1.602  -4.424  -4.930  0.00  0.00    -0.003 A 
ATOM      4  C5  UNL d   1      -1.895  -5.674  -5.464  0.00  0.00     0.000 A 
ATOM      5  C6  UNL d   1      -3.208  -5.994  -5.806  0.00  0.00     0.000 A 
ATOM      6  C7  UNL d   1      -4.249  -5.068  -5.618  0.00  0.00    -0.073 A 
ATOM      7  C8  UNL d   1      -5.648  -5.469  -5.999  0.00  0.00     0.078 C 
ENDROOT
BRANCH   1   8
ATOM      8  C1  UNL d   1      -5.029  -2.781  -4.772  0.00  0.00     0.053 C 
ATOM      9  C   UNL d   1      -4.500  -1.357  -4.848  0.00  0.00     0.018 C 
ENDBRANCH   1   8
TORSDOF 1
ENDMDL
