MODEL 1
REMARK minimizedAffinity -1.35308063
REMARK minimizedRMSD -1
REMARK  1 active torsions:
REMARK  status: ('A' for Active; 'I' for Inactive)
REMARK    1  A    between atoms: C1_2  and  C2_3 
ROOT
ATOM      1  C2  UNL d   1      -4.614  -4.139  -4.081  0.00  0.00    -0.076 A 
ATOM      2  C3  UNL d   1      -4.599  -2.775  -3.741  0.00  0.00     0.004 A 
ATOM      3  C4  UNL d   1      -5.266  -1.834  -4.523  0.00  0.00    -0.003 A 
ATOM      4  C5  UNL d   1      -5.960  -2.241  -5.658  0.00  0.00     0.000 A 
ATOM      5  C6  UNL d   1      -6.000  -3.593  -6.000  0.00  0.00     0.000 A 
ATOM      6  C7  UNL d   1      -5.346  -4.556  -5.213  0.00  0.00    -0.073 A 
ATOM      7  C8  UNL d   1      -5.417  -5.999  -5.632  0.00  0.00     0.078 C 
ENDROOT
BRANCH   1   8
ATOM      8  C1  UNL d   1      -3.850  -5.110  -3.210  0.00  0.00     0.053 C 
ATOM      9  C   UNL d   1      -2.434  -5.353  -3.711  0.00  0.00     0.018 C 
ENDBRANCH   1   8
TORSDOF 1
ENDMDL
