MODEL 1
REMARK minimizedAffinity -2.21851349
REMARK minimizedRMSD -1
REMARK  1 active torsions:
REMARK  status: ('A' for Active; 'I' for Inactive)
REMARK    1  A    between atoms: C1_2  and  C2_3 
ROOT
ATOM      1  C2  UNL d   1      -5.076  -3.708  -5.222  0.00  0.00    -0.076 A 
ATOM      2  C3  UNL d   1      -4.195  -4.479  -6.000  0.00  0.00     0.004 A 
ATOM      3  C4  UNL d   1      -3.308  -5.374  -5.405  0.00  0.00    -0.003 A 
ATOM      4  C5  UNL d   1      -3.287  -5.513  -4.021  0.00  0.00     0.000 A 
ATOM      5  C6  UNL d   1      -4.166  -4.769  -3.235  0.00  0.00     0.000 A 
ATOM      6  C7  UNL d   1      -5.079  -3.874  -3.820  0.00  0.00    -0.073 A 
ATOM      7  C8  UNL d   1      -6.000  -3.093  -2.924  0.00  0.00     0.078 C 
ENDROOT
BRANCH   1   8
ATOM      8  C1  UNL d   1      -5.998  -2.735  -5.921  0.00  0.00     0.053 C 
ATOM      9  C   UNL d   1      -5.623  -1.285  -5.656  0.00  0.00     0.018 C 
ENDBRANCH   1   8
TORSDOF 1
ENDMDL
