MODEL 1
REMARK minimizedAffinity -1.6123544
REMARK minimizedRMSD -1
REMARK  1 active torsions:
REMARK  status: ('A' for Active; 'I' for Inactive)
REMARK    1  A    between atoms: C1_2  and  C2_3 
ROOT
ATOM      1  C2  UNL d   1      -4.042  -4.004  -4.994  0.00  0.00    -0.076 A 
ATOM      2  C3  UNL d   1      -2.737  -3.545  -4.741  0.00  0.00     0.004 A 
ATOM      3  C4  UNL d   1      -1.627  -4.305  -5.102  0.00  0.00    -0.003 A 
ATOM      4  C5  UNL d   1      -1.802  -5.536  -5.724  0.00  0.00     0.000 A 
ATOM      5  C6  UNL d   1      -3.088  -5.999  -6.000  0.00  0.00     0.000 A 
ATOM      6  C7  UNL d   1      -4.219  -5.237  -5.656  0.00  0.00    -0.073 A 
ATOM      7  C8  UNL d   1      -5.583  -5.788  -5.972  0.00  0.00     0.078 C 
ENDROOT
BRANCH   1   8
ATOM      8  C1  UNL d   1      -5.209  -3.148  -4.555  0.00  0.00     0.053 C 
ATOM      9  C   UNL d   1      -5.266  -2.972  -3.046  0.00  0.00     0.018 C 
ENDBRANCH   1   8
TORSDOF 1
ENDMDL
