MODEL 1
REMARK minimizedAffinity 0.0123847174
REMARK minimizedRMSD -1
REMARK  1 active torsions:
REMARK  status: ('A' for Active; 'I' for Inactive)
REMARK    1  A    between atoms: C1_2  and  C2_3 
ROOT
ATOM      1  C2  UNL d   1      -4.645  -4.111  -4.851  0.00  0.00    -0.076 A 
ATOM      2  C3  UNL d   1      -3.393  -3.557  -4.534  0.00  0.00     0.004 A 
ATOM      3  C4  UNL d   1      -2.211  -4.180  -4.932  0.00  0.00    -0.003 A 
ATOM      4  C5  UNL d   1      -2.263  -5.367  -5.654  0.00  0.00     0.000 A 
ATOM      5  C6  UNL d   1      -3.497  -5.922  -5.992  0.00  0.00     0.000 A 
ATOM      6  C7  UNL d   1      -4.697  -5.298  -5.612  0.00  0.00    -0.073 A 
ATOM      7  C8  UNL d   1      -6.000  -5.944  -5.998  0.00  0.00     0.078 C 
ENDROOT
BRANCH   1   8
ATOM      8  C1  UNL d   1      -5.892  -3.405  -4.369  0.00  0.00     0.053 C 
ATOM      9  C   UNL d   1      -5.794  -1.893  -4.502  0.00  0.00     0.018 C 
ENDBRANCH   1   8
TORSDOF 1
ENDMDL
