MODEL 1
REMARK minimizedAffinity 0.690781176
REMARK minimizedRMSD -1
REMARK  1 active torsions:
REMARK  status: ('A' for Active; 'I' for Inactive)
REMARK    1  A    between atoms: C1_2  and  C2_3 
ROOT
ATOM      1  C2  UNL d   1      -4.134  -4.816  -4.693  0.00  0.00    -0.076 A 
ATOM      2  C3  UNL d   1      -3.060  -5.697  -4.474  0.00  0.00     0.004 A 
ATOM      3  C4  UNL d   1      -2.315  -5.641  -3.298  0.00  0.00    -0.003 A 
ATOM      4  C5  UNL d   1      -2.632  -4.705  -2.320  0.00  0.00     0.000 A 
ATOM      5  C6  UNL d   1      -3.705  -3.835  -2.512  0.00  0.00     0.000 A 
ATOM      6  C7  UNL d   1      -4.477  -3.889  -3.686  0.00  0.00    -0.073 A 
ATOM      7  C8  UNL d   1      -5.619  -2.923  -3.844  0.00  0.00     0.078 C 
ENDROOT
BRANCH   1   8
ATOM      8  C1  UNL d   1      -4.889  -4.905  -6.000  0.00  0.00     0.053 C 
ATOM      9  C   UNL d   1      -5.945  -6.000  -5.989  0.00  0.00     0.018 C 
ENDBRANCH   1   8
TORSDOF 1
ENDMDL
