MODEL 1
REMARK minimizedAffinity -3.26197696
REMARK minimizedRMSD -1
REMARK  1 active torsions:
REMARK  status: ('A' for Active; 'I' for Inactive)
REMARK    1  A    between atoms: C1_2  and  C2_3 
ROOT
ATOM      1  C2  UNL d   1      -3.697  -4.314  -5.749  0.00  0.00    -0.076 A 
ATOM      2  C3  UNL d   1      -3.278  -2.988  -5.545  0.00  0.00     0.004 A 
ATOM      3  C4  UNL d   1      -4.205  -1.959  -5.389  0.00  0.00    -0.003 A 
ATOM      4  C5  UNL d   1      -5.566  -2.239  -5.434  0.00  0.00     0.000 A 
ATOM      5  C6  UNL d   1      -6.000  -3.551  -5.618  0.00  0.00     0.000 A 
ATOM      6  C7  UNL d   1      -5.079  -4.603  -5.760  0.00  0.00    -0.073 A 
ATOM      7  C8  UNL d   1      -5.602  -5.999  -5.962  0.00  0.00     0.078 C 
ENDROOT
BRANCH   1   8
ATOM      8  C1  UNL d   1      -2.647  -5.385  -5.939  0.00  0.00     0.053 C 
ATOM      9  C   UNL d   1      -1.451  -5.198  -5.018  0.00  0.00     0.018 C 
ENDBRANCH   1   8
TORSDOF 1
ENDMDL
