MODEL 1
REMARK minimizedAffinity 2.47824478
REMARK minimizedRMSD -1
REMARK  1 active torsions:
REMARK  status: ('A' for Active; 'I' for Inactive)
REMARK    1  A    between atoms: C1_2  and  C2_3 
ROOT
ATOM      1  C2  UNL d   1      -3.375  -3.877  -4.036  0.00  0.00    -0.076 A 
ATOM      2  C3  UNL d   1      -4.129  -2.842  -3.455  0.00  0.00     0.004 A 
ATOM      3  C4  UNL d   1      -5.196  -2.261  -4.139  0.00  0.00    -0.003 A 
ATOM      4  C5  UNL d   1      -5.526  -2.705  -5.415  0.00  0.00     0.000 A 
ATOM      5  C6  UNL d   1      -4.799  -3.742  -6.000  0.00  0.00     0.000 A 
ATOM      6  C7  UNL d   1      -3.732  -4.350  -5.317  0.00  0.00    -0.073 A 
ATOM      7  C8  UNL d   1      -2.979  -5.460  -5.998  0.00  0.00     0.078 C 
ENDROOT
BRANCH   1   8
ATOM      8  C1  UNL d   1      -2.213  -4.450  -3.258  0.00  0.00     0.053 C 
ATOM      9  C   UNL d   1      -1.254  -5.238  -4.138  0.00  0.00     0.018 C 
ENDBRANCH   1   8
TORSDOF 1
ENDMDL
