MODEL 1
REMARK minimizedAffinity 7.76803541
REMARK minimizedRMSD -1
REMARK  1 active torsions:
REMARK  status: ('A' for Active; 'I' for Inactive)
REMARK    1  A    between atoms: C1_2  and  C2_3 
ROOT
ATOM      1  C2  UNL d   1      -3.943  -4.586  -4.106  0.00  0.00    -0.076 A 
ATOM      2  C3  UNL d   1      -4.318  -5.856  -4.579  0.00  0.00     0.004 A 
ATOM      3  C4  UNL d   1      -5.338  -5.999  -5.518  0.00  0.00    -0.003 A 
ATOM      4  C5  UNL d   1      -6.000  -4.875  -6.000  0.00  0.00     0.000 A 
ATOM      5  C6  UNL d   1      -5.630  -3.607  -5.555  0.00  0.00     0.000 A 
ATOM      6  C7  UNL d   1      -4.592  -3.443  -4.621  0.00  0.00    -0.073 A 
ATOM      7  C8  UNL d   1      -4.239  -2.052  -4.171  0.00  0.00     0.078 C 
ENDROOT
BRANCH   1   8
ATOM      8  C1  UNL d   1      -2.848  -4.494  -3.068  0.00  0.00     0.053 C 
ATOM      9  C   UNL d   1      -1.458  -4.548  -3.681  0.00  0.00     0.018 C 
ENDBRANCH   1   8
TORSDOF 1
ENDMDL
