MODEL 1
REMARK minimizedAffinity -2.35960126
REMARK minimizedRMSD -1
REMARK  1 active torsions:
REMARK  status: ('A' for Active; 'I' for Inactive)
REMARK    1  A    between atoms: C1_2  and  C2_3 
ROOT
ATOM      1  C2  UNL d   1      -3.199  -4.409  -5.113  0.00  0.00    -0.076 A 
ATOM      2  C3  UNL d   1      -3.844  -3.530  -6.000  0.00  0.00     0.004 A 
ATOM      3  C4  UNL d   1      -5.209  -3.271  -5.887  0.00  0.00    -0.003 A 
ATOM      4  C5  UNL d   1      -5.951  -3.886  -4.885  0.00  0.00     0.000 A 
ATOM      5  C6  UNL d   1      -5.324  -4.748  -3.985  0.00  0.00     0.000 A 
ATOM      6  C7  UNL d   1      -3.945  -5.007  -4.075  0.00  0.00    -0.073 A 
ATOM      7  C8  UNL d   1      -3.322  -5.949  -3.082  0.00  0.00     0.078 C 
ENDROOT
BRANCH   1   8
ATOM      8  C1  UNL d   1      -1.722  -4.673  -5.301  0.00  0.00     0.053 C 
ATOM      9  C   UNL d   1      -1.451  -5.998  -5.997  0.00  0.00     0.018 C 
ENDBRANCH   1   8
TORSDOF 1
ENDMDL
