MODEL 1
REMARK minimizedAffinity -1.5097549
REMARK minimizedRMSD -1
REMARK  1 active torsions:
REMARK  status: ('A' for Active; 'I' for Inactive)
REMARK    1  A    between atoms: C1_2  and  C2_3 
ROOT
ATOM      1  C2  UNL d   1      -2.968  -4.715  -4.949  0.00  0.00    -0.076 A 
ATOM      2  C3  UNL d   1      -3.688  -4.068  -5.968  0.00  0.00     0.004 A 
ATOM      3  C4  UNL d   1      -5.075  -3.945  -5.900  0.00  0.00    -0.003 A 
ATOM      4  C5  UNL d   1      -5.764  -4.468  -4.811  0.00  0.00     0.000 A 
ATOM      5  C6  UNL d   1      -5.064  -5.098  -3.783  0.00  0.00     0.000 A 
ATOM      6  C7  UNL d   1      -3.665  -5.215  -3.828  0.00  0.00    -0.073 A 
ATOM      7  C8  UNL d   1      -2.961  -5.910  -2.694  0.00  0.00     0.078 C 
ENDROOT
BRANCH   1   8
ATOM      8  C1  UNL d   1      -1.468  -4.842  -5.090  0.00  0.00     0.053 C 
ATOM      9  C   UNL d   1      -1.063  -5.992  -5.999  0.00  0.00     0.018 C 
ENDBRANCH   1   8
TORSDOF 1
ENDMDL
