MODEL 1
REMARK minimizedAffinity 0.418110251
REMARK minimizedRMSD -1
REMARK  1 active torsions:
REMARK  status: ('A' for Active; 'I' for Inactive)
REMARK    1  A    between atoms: C3_4  and  O_7 
ROOT
ATOM      1  C   UNL d   1       3.687   1.750  -0.248  0.00  0.00    -0.033 A 
ATOM      2  C1  UNL d   1       3.666   0.505  -0.879  0.00  0.00     0.039 A 
ATOM      3  C2  UNL d   1       2.535  -0.307  -0.787  0.00  0.00    -0.080 A 
ATOM      4  C3  UNL d   1       1.432   0.136  -0.063  0.00  0.00     0.150 A 
ATOM      5  C4  UNL d   1       1.444   1.377   0.565  0.00  0.00    -0.007 A 
ATOM      6  C5  UNL d   1       2.575   2.187   0.473  0.00  0.00     0.039 A 
ENDROOT
BRANCH   4   7
ATOM      7  O   UNL d   1       0.307  -0.624   0.059  0.00  0.00    -0.526 OA
ATOM      8  H5  UNL d   1       0.453  -1.466  -0.403  0.00  0.00     0.418 HD
ENDBRANCH   4   7
TORSDOF 1
ENDMDL
