MODEL 1
REMARK minimizedAffinity 3.13827014
REMARK minimizedRMSD -1
REMARK  1 active torsions:
REMARK  status: ('A' for Active; 'I' for Inactive)
REMARK    1  A    between atoms: C3_4  and  O_7 
ROOT
ATOM      1  C   UNL d   1       3.807   1.063   1.570  0.00  0.00    -0.033 A 
ATOM      2  C1  UNL d   1       4.164  -0.204   2.036  0.00  0.00     0.039 A 
ATOM      3  C2  UNL d   1       3.579  -1.344   1.482  0.00  0.00    -0.080 A 
ATOM      4  C3  UNL d   1       2.640  -1.204   0.464  0.00  0.00     0.150 A 
ATOM      5  C4  UNL d   1       2.282   0.054  -0.007  0.00  0.00    -0.007 A 
ATOM      6  C5  UNL d   1       2.867   1.192   0.548  0.00  0.00     0.039 A 
ENDROOT
BRANCH   4   7
ATOM      7  O   UNL d   1       2.038  -2.288  -0.104  0.00  0.00    -0.526 OA
ATOM      8  H5  UNL d   1       2.362  -3.088   0.341  0.00  0.00     0.418 HD
ENDBRANCH   4   7
TORSDOF 1
ENDMDL
