MODEL 1
REMARK minimizedAffinity 1.74477816
REMARK minimizedRMSD -1
REMARK  1 active torsions:
REMARK  status: ('A' for Active; 'I' for Inactive)
REMARK    1  A    between atoms: C3_4  and  O_7 
ROOT
ATOM      1  C   UNL d   1       1.531   2.753   0.527  0.00  0.00    -0.033 A 
ATOM      2  C1  UNL d   1       2.908   2.529   0.584  0.00  0.00     0.039 A 
ATOM      3  C2  UNL d   1       3.420   1.249   0.362  0.00  0.00    -0.080 A 
ATOM      4  C3  UNL d   1       2.545   0.203   0.083  0.00  0.00     0.150 A 
ATOM      5  C4  UNL d   1       1.172   0.419   0.020  0.00  0.00    -0.007 A 
ATOM      6  C5  UNL d   1       0.663   1.698   0.243  0.00  0.00     0.039 A 
ENDROOT
BRANCH   4   7
ATOM      7  O   UNL d   1       2.996  -1.065  -0.136  0.00  0.00    -0.526 OA
ATOM      8  H5  UNL d   1       3.963  -1.069  -0.032  0.00  0.00     0.418 HD
ENDBRANCH   4   7
TORSDOF 1
ENDMDL
