MODEL 1
REMARK minimizedAffinity 2.63052249
REMARK minimizedRMSD -1
REMARK  1 active torsions:
REMARK  status: ('A' for Active; 'I' for Inactive)
REMARK    1  A    between atoms: C3_4  and  O_7 
ROOT
ATOM      1  C   UNL d   1       3.648   2.169   0.172  0.00  0.00    -0.033 A 
ATOM      2  C1  UNL d   1       4.638   1.341  -0.363  0.00  0.00     0.039 A 
ATOM      3  C2  UNL d   1       4.406  -0.030  -0.497  0.00  0.00    -0.080 A 
ATOM      4  C3  UNL d   1       3.182  -0.558  -0.096  0.00  0.00     0.150 A 
ATOM      5  C4  UNL d   1       2.191   0.261   0.434  0.00  0.00    -0.007 A 
ATOM      6  C5  UNL d   1       2.425   1.629   0.569  0.00  0.00     0.039 A 
ENDROOT
BRANCH   4   7
ATOM      7  O   UNL d   1       2.911  -1.890  -0.203  0.00  0.00    -0.526 OA
ATOM      8  H5  UNL d   1       3.698  -2.336  -0.558  0.00  0.00     0.418 HD
ENDBRANCH   4   7
TORSDOF 1
ENDMDL
