MODEL 1
REMARK minimizedAffinity -2.00288367
REMARK minimizedRMSD -1
REMARK  1 active torsions:
REMARK  status: ('A' for Active; 'I' for Inactive)
REMARK    1  A    between atoms: C3_4  and  O_7 
ROOT
ATOM      1  C   UNL d   1       1.673   0.152   0.024  0.00  0.00    -0.033 A 
ATOM      2  C1  UNL d   1       1.938  -1.219  -0.015  0.00  0.00     0.039 A 
ATOM      3  C2  UNL d   1       3.109  -1.722   0.555  0.00  0.00    -0.080 A 
ATOM      4  C3  UNL d   1       4.005  -0.845   1.161  0.00  0.00     0.150 A 
ATOM      5  C4  UNL d   1       3.746   0.521   1.207  0.00  0.00    -0.007 A 
ATOM      6  C5  UNL d   1       2.576   1.021   0.637  0.00  0.00     0.039 A 
ENDROOT
BRANCH   4   7
ATOM      7  O   UNL d   1       5.164  -1.289   1.726  0.00  0.00    -0.526 OA
ATOM      8  H5  UNL d   1       5.223  -2.250   1.593  0.00  0.00     0.418 HD
ENDBRANCH   4   7
TORSDOF 1
ENDMDL
