MODEL 1
REMARK minimizedAffinity 1.33459496
REMARK minimizedRMSD -1
REMARK  1 active torsions:
REMARK  status: ('A' for Active; 'I' for Inactive)
REMARK    1  A    between atoms: C3_4  and  O_7 
ROOT
ATOM      1  C   UNL d   1       3.289   2.048   0.614  0.00  0.00    -0.033 A 
ATOM      2  C1  UNL d   1       1.984   1.557   0.533  0.00  0.00     0.039 A 
ATOM      3  C2  UNL d   1       1.756   0.181   0.477  0.00  0.00    -0.080 A 
ATOM      4  C3  UNL d   1       2.839  -0.693   0.503  0.00  0.00     0.150 A 
ATOM      5  C4  UNL d   1       4.141  -0.211   0.587  0.00  0.00    -0.007 A 
ATOM      6  C5  UNL d   1       4.367   1.163   0.642  0.00  0.00     0.039 A 
ENDROOT
BRANCH   4   7
ATOM      7  O   UNL d   1       2.666  -2.044   0.445  0.00  0.00    -0.526 OA
ATOM      8  H5  UNL d   1       1.716  -2.229   0.360  0.00  0.00     0.418 HD
ENDBRANCH   4   7
TORSDOF 1
ENDMDL
