MODEL 1
REMARK minimizedAffinity -1.23967111
REMARK minimizedRMSD -1
REMARK  1 active torsions:
REMARK  status: ('A' for Active; 'I' for Inactive)
REMARK    1  A    between atoms: C3_4  and  O_7 
ROOT
ATOM      1  C   UNL d   1       2.871  -1.285  -0.290  0.00  0.00    -0.033 A 
ATOM      2  C1  UNL d   1       3.384  -0.233   0.471  0.00  0.00     0.039 A 
ATOM      3  C2  UNL d   1       2.699   0.982   0.538  0.00  0.00    -0.080 A 
ATOM      4  C3  UNL d   1       1.504   1.131  -0.159  0.00  0.00     0.150 A 
ATOM      5  C4  UNL d   1       0.984   0.086  -0.916  0.00  0.00    -0.007 A 
ATOM      6  C5  UNL d   1       1.670  -1.126  -0.982  0.00  0.00     0.039 A 
ENDROOT
BRANCH   4   7
ATOM      7  O   UNL d   1       0.802   2.300  -0.129  0.00  0.00    -0.526 OA
ATOM      8  H5  UNL d   1       1.295   2.941   0.410  0.00  0.00     0.418 HD
ENDBRANCH   4   7
TORSDOF 1
ENDMDL
