MODEL 1
REMARK minimizedAffinity -0.986975551
REMARK minimizedRMSD -1
REMARK  0 active torsions:
REMARK  status: ('A' for Active; 'I' for Inactive)
ROOT
ATOM      1  C   UNL d   1      -0.724   2.564   1.384  0.00  0.00     0.124 A 
ATOM      2  C1  UNL d   1      -0.097   2.680   0.151  0.00  0.00     0.062 A 
ATOM      3  C2  UNL d   1       0.346   1.542  -0.518  0.00  0.00     0.162 A 
ATOM      4  C3  UNL d   1       0.162   0.279   0.044  0.00  0.00    -0.034 A 
ATOM      5  C4  UNL d   1      -0.468   0.171   1.285  0.00  0.00     0.162 A 
ATOM      6  C5  UNL d   1      -0.909   1.310   1.950  0.00  0.00     0.062 A 
ATOM      7  F   UNL d   1      -1.514   1.197   3.141  0.00  0.00    -0.097 F 
ATOM      8  F1  UNL d   1      -0.660  -1.029   1.854  0.00  0.00    -0.096 F 
ATOM      9  I   UNL d   1       0.823  -1.424  -0.954  0.00  0.00    -0.060 I 
ATOM     10  F2  UNL d   1       0.948   1.684  -1.708  0.00  0.00    -0.096 F 
ATOM     11  F3  UNL d   1       0.083   3.890  -0.396  0.00  0.00    -0.097 F 
ATOM     12  F4  UNL d   1      -1.149   3.660   2.027  0.00  0.00    -0.092 F 
ENDROOT
TORSDOF 0
ENDMDL
