MODEL 1
REMARK minimizedAffinity -0.30250752
REMARK minimizedRMSD -1
REMARK  0 active torsions:
REMARK  status: ('A' for Active; 'I' for Inactive)
ROOT
ATOM      1  C   UNL d   1       0.866  -2.059  -1.813  0.00  0.00     0.124 A 
ATOM      2  C1  UNL d   1       1.522  -1.025  -1.159  0.00  0.00     0.062 A 
ATOM      3  C2  UNL d   1       0.925  -0.394  -0.072  0.00  0.00     0.162 A 
ATOM      4  C3  UNL d   1      -0.337  -0.795   0.369  0.00  0.00    -0.034 A 
ATOM      5  C4  UNL d   1      -0.991  -1.835  -0.295  0.00  0.00     0.162 A 
ATOM      6  C5  UNL d   1      -0.390  -2.462  -1.381  0.00  0.00     0.062 A 
ATOM      7  F   UNL d   1      -1.025  -3.461  -2.012  0.00  0.00    -0.097 F 
ATOM      8  F1  UNL d   1      -2.204  -2.245   0.103  0.00  0.00    -0.096 F 
ATOM      9  I   UNL d   1      -1.233   0.146   1.994  0.00  0.00    -0.060 I 
ATOM     10  F2  UNL d   1       1.582   0.601   0.541  0.00  0.00    -0.096 F 
ATOM     11  F3  UNL d   1       2.734  -0.633  -1.576  0.00  0.00    -0.097 F 
ATOM     12  F4  UNL d   1       1.442  -2.664  -2.860  0.00  0.00    -0.092 F 
ENDROOT
TORSDOF 0
ENDMDL
