MODEL 1
REMARK minimizedAffinity -2.56140852
REMARK minimizedRMSD -1
REMARK  0 active torsions:
REMARK  status: ('A' for Active; 'I' for Inactive)
ROOT
ATOM      1  C   UNL d   1       0.470  -2.764  -1.807  0.00  0.00     0.124 A 
ATOM      2  C1  UNL d   1       1.445  -1.805  -1.573  0.00  0.00     0.062 A 
ATOM      3  C2  UNL d   1       1.213  -0.776  -0.665  0.00  0.00     0.162 A 
ATOM      4  C3  UNL d   1      -0.002  -0.701   0.018  0.00  0.00    -0.034 A 
ATOM      5  C4  UNL d   1      -0.979  -1.669  -0.223  0.00  0.00     0.162 A 
ATOM      6  C5  UNL d   1      -0.741  -2.695  -1.132  0.00  0.00     0.062 A 
ATOM      7  F   UNL d   1      -1.685  -3.621  -1.356  0.00  0.00    -0.097 F 
ATOM      8  F1  UNL d   1      -2.157  -1.627   0.416  0.00  0.00    -0.096 F 
ATOM      9  I   UNL d   1      -0.354   0.835   1.376  0.00  0.00    -0.060 I 
ATOM     10  F2  UNL d   1       2.173   0.137  -0.459  0.00  0.00    -0.096 F 
ATOM     11  F3  UNL d   1       2.615  -1.868  -2.225  0.00  0.00    -0.097 F 
ATOM     12  F4  UNL d   1       0.696  -3.752  -2.682  0.00  0.00    -0.092 F 
ENDROOT
TORSDOF 0
ENDMDL
