MODEL 1
REMARK minimizedAffinity 0.786077619
REMARK minimizedRMSD -1
REMARK  0 active torsions:
REMARK  status: ('A' for Active; 'I' for Inactive)
ROOT
ATOM      1  C   UNL d   1      -0.356   1.812   1.134  0.00  0.00     0.124 A 
ATOM      2  C1  UNL d   1      -0.605   0.664   1.874  0.00  0.00     0.062 A 
ATOM      3  C2  UNL d   1      -0.333  -0.589   1.333  0.00  0.00     0.162 A 
ATOM      4  C3  UNL d   1       0.191  -0.702   0.045  0.00  0.00    -0.034 A 
ATOM      5  C4  UNL d   1       0.437   0.457  -0.693  0.00  0.00     0.162 A 
ATOM      6  C5  UNL d   1       0.164   1.708  -0.148  0.00  0.00     0.062 A 
ATOM      7  F   UNL d   1       0.405   2.816  -0.864  0.00  0.00    -0.097 F 
ATOM      8  F1  UNL d   1       0.941   0.385  -1.934  0.00  0.00    -0.096 F 
ATOM      9  I   UNL d   1       0.598  -2.574  -0.767  0.00  0.00    -0.060 I 
ATOM     10  F2  UNL d   1      -0.583  -1.682   2.070  0.00  0.00    -0.096 F 
ATOM     11  F3  UNL d   1      -1.109   0.762   3.112  0.00  0.00    -0.097 F 
ATOM     12  F4  UNL d   1      -0.619   3.017   1.656  0.00  0.00    -0.092 F 
ENDROOT
TORSDOF 0
ENDMDL
