MODEL 1
REMARK minimizedAffinity 3.15715766
REMARK minimizedRMSD -1
REMARK  0 active torsions:
REMARK  status: ('A' for Active; 'I' for Inactive)
ROOT
ATOM      1  C   UNL d   1      -0.321   2.289   1.092  0.00  0.00     0.124 A 
ATOM      2  C1  UNL d   1      -0.599   1.159   1.849  0.00  0.00     0.062 A 
ATOM      3  C2  UNL d   1      -0.338  -0.109   1.337  0.00  0.00     0.162 A 
ATOM      4  C3  UNL d   1       0.207  -0.254   0.061  0.00  0.00    -0.034 A 
ATOM      5  C4  UNL d   1       0.483   0.887  -0.695  0.00  0.00     0.162 A 
ATOM      6  C5  UNL d   1       0.219   2.152  -0.179  0.00  0.00     0.062 A 
ATOM      7  F   UNL d   1       0.488   3.242  -0.912  0.00  0.00    -0.097 F 
ATOM      8  F1  UNL d   1       1.006   0.783  -1.926  0.00  0.00    -0.096 F 
ATOM      9  I   UNL d   1       0.599  -2.148  -0.708  0.00  0.00    -0.060 I 
ATOM     10  F2  UNL d   1      -0.616  -1.183   2.091  0.00  0.00    -0.096 F 
ATOM     11  F3  UNL d   1      -1.122   1.289   3.077  0.00  0.00    -0.097 F 
ATOM     12  F4  UNL d   1      -0.575   3.507   1.586  0.00  0.00    -0.092 F 
ENDROOT
TORSDOF 0
ENDMDL
