MODEL 1
REMARK minimizedAffinity -1.28231871
REMARK minimizedRMSD -1
REMARK  0 active torsions:
REMARK  status: ('A' for Active; 'I' for Inactive)
ROOT
ATOM      1  C   UNL d   1      -0.960  -0.572   1.130  0.00  0.00     0.124 A 
ATOM      2  C1  UNL d   1      -1.506  -1.708   0.548  0.00  0.00     0.062 A 
ATOM      3  C2  UNL d   1      -0.908  -2.275  -0.574  0.00  0.00     0.162 A 
ATOM      4  C3  UNL d   1       0.243  -1.707  -1.121  0.00  0.00    -0.034 A 
ATOM      5  C4  UNL d   1       0.784  -0.564  -0.530  0.00  0.00     0.162 A 
ATOM      6  C5  UNL d   1       0.184  -0.001   0.591  0.00  0.00     0.062 A 
ATOM      7  F   UNL d   1       0.712   1.096   1.152  0.00  0.00    -0.097 F 
ATOM      8  F1  UNL d   1       1.890   0.007  -1.031  0.00  0.00    -0.096 F 
ATOM      9  I   UNL d   1       1.139  -2.552  -2.798  0.00  0.00    -0.060 I 
ATOM     10  F2  UNL d   1      -1.456  -3.373  -1.115  0.00  0.00    -0.096 F 
ATOM     11  F3  UNL d   1      -2.611  -2.261   1.067  0.00  0.00    -0.097 F 
ATOM     12  F4  UNL d   1      -1.538  -0.028   2.209  0.00  0.00    -0.092 F 
ENDROOT
TORSDOF 0
ENDMDL
