MODEL 1
REMARK minimizedAffinity -1.79586506
REMARK minimizedRMSD -1
REMARK  0 active torsions:
REMARK  status: ('A' for Active; 'I' for Inactive)
ROOT
ATOM      1  C   UNL d   1      -0.483   2.268   0.835  0.00  0.00     0.124 A 
ATOM      2  C1  UNL d   1       0.425   2.205  -0.212  0.00  0.00     0.062 A 
ATOM      3  C2  UNL d   1       0.887   0.973  -0.664  0.00  0.00     0.162 A 
ATOM      4  C3  UNL d   1       0.441  -0.208  -0.070  0.00  0.00    -0.034 A 
ATOM      5  C4  UNL d   1      -0.471  -0.136   0.984  0.00  0.00     0.162 A 
ATOM      6  C5  UNL d   1      -0.930   1.098   1.433  0.00  0.00     0.062 A 
ATOM      7  F   UNL d   1      -1.808   1.158   2.445  0.00  0.00    -0.097 F 
ATOM      8  F1  UNL d   1      -0.921  -1.251   1.579  0.00  0.00    -0.096 F 
ATOM      9  I   UNL d   1       1.130  -2.053  -0.743  0.00  0.00    -0.060 I 
ATOM     10  F2  UNL d   1       1.765   0.941  -1.679  0.00  0.00    -0.096 F 
ATOM     11  F3  UNL d   1       0.860   3.334  -0.790  0.00  0.00    -0.097 F 
ATOM     12  F4  UNL d   1      -0.925   3.456   1.269  0.00  0.00    -0.092 F 
ENDROOT
TORSDOF 0
ENDMDL
