MODEL 1
REMARK minimizedAffinity -2.45843315
REMARK minimizedRMSD -1
REMARK  0 active torsions:
REMARK  status: ('A' for Active; 'I' for Inactive)
ROOT
ATOM      1  C   UNL d   1      -0.705   2.310   0.787  0.00  0.00     0.124 A 
ATOM      2  C1  UNL d   1      -1.191   1.140   1.354  0.00  0.00     0.062 A 
ATOM      3  C2  UNL d   1      -0.720  -0.096   0.920  0.00  0.00     0.162 A 
ATOM      4  C3  UNL d   1       0.244  -0.168  -0.086  0.00  0.00    -0.034 A 
ATOM      5  C4  UNL d   1       0.726   1.013  -0.652  0.00  0.00     0.162 A 
ATOM      6  C5  UNL d   1       0.252   2.246  -0.215  0.00  0.00     0.062 A 
ATOM      7  F   UNL d   1       0.723   3.375  -0.764  0.00  0.00    -0.097 F 
ATOM      8  F1  UNL d   1       1.653   0.980  -1.622  0.00  0.00    -0.096 F 
ATOM      9  I   UNL d   1       0.950  -2.014  -0.737  0.00  0.00    -0.060 I 
ATOM     10  F2  UNL d   1      -1.207  -1.210   1.486  0.00  0.00    -0.096 F 
ATOM     11  F3  UNL d   1      -2.117   1.199   2.322  0.00  0.00    -0.097 F 
ATOM     12  F4  UNL d   1      -1.161   3.498   1.206  0.00  0.00    -0.092 F 
ENDROOT
TORSDOF 0
ENDMDL
