MODEL 1
REMARK minimizedAffinity 1.8349005
REMARK minimizedRMSD -1
REMARK  0 active torsions:
REMARK  status: ('A' for Active; 'I' for Inactive)
ROOT
ATOM      1  C   UNL d   1      -0.483   2.128   0.961  0.00  0.00     0.124 A 
ATOM      2  C1  UNL d   1      -0.906   0.931   1.523  0.00  0.00     0.062 A 
ATOM      3  C2  UNL d   1      -0.591  -0.279   0.910  0.00  0.00     0.162 A 
ATOM      4  C3  UNL d   1       0.151  -0.298  -0.271  0.00  0.00    -0.034 A 
ATOM      5  C4  UNL d   1       0.571   0.910  -0.830  0.00  0.00     0.162 A 
ATOM      6  C5  UNL d   1       0.255   2.116  -0.214  0.00  0.00     0.062 A 
ATOM      7  F   UNL d   1       0.664   3.272  -0.758  0.00  0.00    -0.097 F 
ATOM      8  F1  UNL d   1       1.286   0.927  -1.965  0.00  0.00    -0.096 F 
ATOM      9  I   UNL d   1       0.623  -2.105  -1.189  0.00  0.00    -0.060 I 
ATOM     10  F2  UNL d   1      -1.013  -1.420   1.475  0.00  0.00    -0.096 F 
ATOM     11  F3  UNL d   1      -1.619   0.940   2.658  0.00  0.00    -0.097 F 
ATOM     12  F4  UNL d   1      -0.788   3.291   1.552  0.00  0.00    -0.092 F 
ENDROOT
TORSDOF 0
ENDMDL
