MODEL 1
REMARK minimizedAffinity -0.97864908
REMARK minimizedRMSD -1
REMARK  0 active torsions:
REMARK  status: ('A' for Active; 'I' for Inactive)
ROOT
ATOM      1  C   UNL d   1      -0.515   2.540   1.147  0.00  0.00     0.124 A 
ATOM      2  C1  UNL d   1       0.053   2.517  -0.119  0.00  0.00     0.062 A 
ATOM      3  C2  UNL d   1       0.509   1.318  -0.660  0.00  0.00     0.162 A 
ATOM      4  C3  UNL d   1       0.398   0.132   0.066  0.00  0.00    -0.034 A 
ATOM      5  C4  UNL d   1      -0.174   0.164   1.339  0.00  0.00     0.162 A 
ATOM      6  C5  UNL d   1      -0.628   1.364   1.875  0.00  0.00     0.062 A 
ATOM      7  F   UNL d   1      -1.176   1.385   3.098  0.00  0.00    -0.097 F 
ATOM      8  F1  UNL d   1      -0.296  -0.958   2.064  0.00  0.00    -0.096 F 
ATOM      9  I   UNL d   1       1.078  -1.663  -0.738  0.00  0.00    -0.060 I 
ATOM     10  F2  UNL d   1       1.053   1.324  -1.885  0.00  0.00    -0.096 F 
ATOM     11  F3  UNL d   1       0.163   3.652  -0.824  0.00  0.00    -0.097 F 
ATOM     12  F4  UNL d   1      -0.952   3.696   1.665  0.00  0.00    -0.092 F 
ENDROOT
TORSDOF 0
ENDMDL
