MODEL 1
REMARK minimizedAffinity -1.29939592
REMARK minimizedRMSD -1
REMARK  0 active torsions:
REMARK  status: ('A' for Active; 'I' for Inactive)
ROOT
ATOM      1  C   UNL d   1      -0.295   2.216   1.033  0.00  0.00     0.124 A 
ATOM      2  C1  UNL d   1      -0.596   0.964   1.549  0.00  0.00     0.062 A 
ATOM      3  C2  UNL d   1      -0.122  -0.184   0.921  0.00  0.00     0.162 A 
ATOM      4  C3  UNL d   1       0.658  -0.085  -0.231  0.00  0.00    -0.034 A 
ATOM      5  C4  UNL d   1       0.956   1.178  -0.745  0.00  0.00     0.162 A 
ATOM      6  C5  UNL d   1       0.480   2.323  -0.113  0.00  0.00     0.062 A 
ATOM      7  F   UNL d   1       0.771   3.532  -0.614  0.00  0.00    -0.097 F 
ATOM      8  F1  UNL d   1       1.704   1.310  -1.851  0.00  0.00    -0.096 F 
ATOM      9  I   UNL d   1       1.369  -1.800  -1.174  0.00  0.00    -0.060 I 
ATOM     10  F2  UNL d   1      -0.428  -1.382   1.441  0.00  0.00    -0.096 F 
ATOM     11  F3  UNL d   1      -1.345   0.858   2.656  0.00  0.00    -0.097 F 
ATOM     12  F4  UNL d   1      -0.753   3.319   1.639  0.00  0.00    -0.092 F 
ENDROOT
TORSDOF 0
ENDMDL
