MODEL 1
REMARK minimizedAffinity -3.11885047
REMARK minimizedRMSD -1
REMARK  0 active torsions:
REMARK  status: ('A' for Active; 'I' for Inactive)
ROOT
ATOM      1  C   UNL d   1      -0.742   3.090   1.011  0.00  0.00     0.124 A 
ATOM      2  C1  UNL d   1      -1.137   1.874   1.551  0.00  0.00     0.062 A 
ATOM      3  C2  UNL d   1      -0.630   0.683   1.040  0.00  0.00     0.162 A 
ATOM      4  C3  UNL d   1       0.279   0.702  -0.018  0.00  0.00    -0.034 A 
ATOM      5  C4  UNL d   1       0.671   1.928  -0.557  0.00  0.00     0.162 A 
ATOM      6  C5  UNL d   1       0.162   3.116  -0.042  0.00  0.00     0.062 A 
ATOM      7  F   UNL d   1       0.545   4.290  -0.566  0.00  0.00    -0.097 F 
ATOM      8  F1  UNL d   1       1.544   1.982  -1.574  0.00  0.00    -0.096 F 
ATOM      9  I   UNL d   1       1.040  -1.077  -0.785  0.00  0.00    -0.060 I 
ATOM     10  F2  UNL d   1      -1.029  -0.477   1.582  0.00  0.00    -0.096 F 
ATOM     11  F3  UNL d   1      -2.010   1.847   2.568  0.00  0.00    -0.097 F 
ATOM     12  F4  UNL d   1      -1.232   4.235   1.504  0.00  0.00    -0.092 F 
ENDROOT
TORSDOF 0
ENDMDL
