MODEL 1
REMARK minimizedAffinity -1.69026971
REMARK minimizedRMSD -1
REMARK  0 active torsions:
REMARK  status: ('A' for Active; 'I' for Inactive)
ROOT
ATOM      1  C   UNL d   1      -0.359  -0.334   1.094  0.00  0.00     0.124 A 
ATOM      2  C1  UNL d   1       0.587  -0.124   0.100  0.00  0.00     0.062 A 
ATOM      3  C2  UNL d   1       0.843   1.164  -0.362  0.00  0.00     0.162 A 
ATOM      4  C3  UNL d   1       0.152   2.253   0.171  0.00  0.00    -0.034 A 
ATOM      5  C4  UNL d   1      -0.799   2.033   1.169  0.00  0.00     0.162 A 
ATOM      6  C5  UNL d   1      -1.050   0.744   1.627  0.00  0.00     0.062 A 
ATOM      7  F   UNL d   1      -1.965   0.543   2.588  0.00  0.00    -0.097 F 
ATOM      8  F1  UNL d   1      -1.481   3.058   1.703  0.00  0.00    -0.096 F 
ATOM      9  I   UNL d   1       0.531   4.180  -0.518  0.00  0.00    -0.060 I 
ATOM     10  F2  UNL d   1       1.762   1.338  -1.323  0.00  0.00    -0.096 F 
ATOM     11  F3  UNL d   1       1.256  -1.164  -0.417  0.00  0.00    -0.097 F 
ATOM     12  F4  UNL d   1      -0.603  -1.574   1.536  0.00  0.00    -0.092 F 
ENDROOT
TORSDOF 0
ENDMDL
