MODEL 1
REMARK minimizedAffinity 3.22694635
REMARK minimizedRMSD -1
REMARK  2 active torsions:
REMARK  status: ('A' for Active; 'I' for Inactive)
REMARK    1  A    between atoms: C2'_3  and  C1'_4 
REMARK    2  A    between atoms: C1'_4  and  C1_5 
ROOT
ATOM      1  C1  I4B d   1      -1.236   3.196  -5.956  0.00  0.00    -0.075 A 
ATOM      2  C2  I4B d   1      -0.543   4.381  -5.976  0.00  0.00     0.003 A 
ATOM      3  C3  I4B d   1      -1.240   5.614  -5.972  0.00  0.00     0.002 A 
ATOM      4  C4  I4B d   1      -2.619   5.616  -5.998  0.00  0.00    -0.004 A 
ATOM      5  C5  I4B d   1      -3.320   4.414  -5.954  0.00  0.00     0.002 A 
ATOM      6  C6  I4B d   1      -2.625   3.197  -5.920  0.00  0.00     0.003 A 
ENDROOT
BRANCH   1   7
ATOM      7  C1' I4B d   1      -0.470   1.912  -5.994  0.00  0.00     0.060 C 
BRANCH   7   8
ATOM      8  C2' I4B d   1       0.818   2.115  -5.223  0.00  0.00    -0.013 C 
ATOM      9  C4' I4B d   1       1.766   3.016  -5.970  0.00  0.00     0.013 C 
ATOM     10  C3' I4B d   1       0.470   2.688  -3.881  0.00  0.00     0.013 C 
ENDBRANCH   7   8
ENDBRANCH   1   7
TORSDOF 2
ENDMDL
