MODEL 1
REMARK minimizedAffinity -2.10876751
REMARK minimizedRMSD -1
REMARK  2 active torsions:
REMARK  status: ('A' for Active; 'I' for Inactive)
REMARK    1  A    between atoms: C2'_3  and  C1'_4 
REMARK    2  A    between atoms: C1'_4  and  C1_5 
ROOT
ATOM      1  C1  I4B d   1      -0.371   3.405  -5.992  0.00  0.00    -0.075 A 
ATOM      2  C2  I4B d   1      -0.129   4.756  -5.998  0.00  0.00     0.003 A 
ATOM      3  C3  I4B d   1       1.201   5.242  -6.000  0.00  0.00     0.002 A 
ATOM      4  C4  I4B d   1       2.251   4.348  -5.945  0.00  0.00    -0.004 A 
ATOM      5  C5  I4B d   1       2.005   2.979  -5.962  0.00  0.00     0.002 A 
ATOM      6  C6  I4B d   1       0.686   2.503  -5.999  0.00  0.00     0.003 A 
ENDROOT
BRANCH   1   7
ATOM      7  C1' I4B d   1      -1.787   2.926  -5.957  0.00  0.00     0.060 C 
BRANCH   7   8
ATOM      8  C2' I4B d   1      -2.657   4.077  -5.495  0.00  0.00    -0.013 C 
ATOM      9  C4' I4B d   1      -2.121   5.397  -5.983  0.00  0.00     0.013 C 
ATOM     10  C3' I4B d   1      -4.049   3.838  -6.000  0.00  0.00     0.013 C 
ENDBRANCH   7   8
ENDBRANCH   1   7
TORSDOF 2
ENDMDL
