MODEL 1
REMARK minimizedAffinity 2.15626526
REMARK minimizedRMSD -1
REMARK  2 active torsions:
REMARK  status: ('A' for Active; 'I' for Inactive)
REMARK    1  A    between atoms: C2'_3  and  C1'_4 
REMARK    2  A    between atoms: C1'_4  and  C1_5 
ROOT
ATOM      1  C1  I4B d   1      -1.969   5.079  -5.827  0.00  0.00    -0.075 A 
ATOM      2  C2  I4B d   1      -3.048   5.881  -5.549  0.00  0.00     0.003 A 
ATOM      3  C3  I4B d   1      -4.344   5.320  -5.444  0.00  0.00     0.002 A 
ATOM      4  C4  I4B d   1      -4.521   3.971  -5.673  0.00  0.00    -0.004 A 
ATOM      5  C5  I4B d   1      -3.423   3.156  -5.933  0.00  0.00     0.002 A 
ATOM      6  C6  I4B d   1      -2.137   3.711  -5.999  0.00  0.00     0.003 A 
ENDROOT
BRANCH   1   7
ATOM      7  C1' I4B d   1      -0.619   5.710  -5.964  0.00  0.00     0.060 C 
BRANCH   7   8
ATOM      8  C2' I4B d   1       0.415   4.704  -5.499  0.00  0.00    -0.013 C 
ATOM      9  C4' I4B d   1       0.088   3.319  -5.992  0.00  0.00     0.013 C 
ATOM     10  C3' I4B d   1       1.755   5.154  -5.999  0.00  0.00     0.013 C 
ENDBRANCH   7   8
ENDBRANCH   1   7
TORSDOF 2
ENDMDL
