MODEL 1
REMARK minimizedAffinity 11.0486641
REMARK minimizedRMSD -1
REMARK  2 active torsions:
REMARK  status: ('A' for Active; 'I' for Inactive)
REMARK    1  A    between atoms: C2'_3  and  C1'_4 
REMARK    2  A    between atoms: C1'_4  and  C1_5 
ROOT
ATOM      1  C1  I4B d   1      -0.768   3.567  -4.870  0.00  0.00    -0.075 A 
ATOM      2  C2  I4B d   1      -0.749   4.939  -4.844  0.00  0.00     0.003 A 
ATOM      3  C3  I4B d   1       0.344   5.648  -5.398  0.00  0.00     0.002 A 
ATOM      4  C4  I4B d   1       1.414   4.949  -5.919  0.00  0.00    -0.004 A 
ATOM      5  C5  I4B d   1       1.383   3.558  -5.966  0.00  0.00     0.002 A 
ATOM      6  C6  I4B d   1       0.280   2.863  -5.449  0.00  0.00     0.003 A 
ENDROOT
BRANCH   1   7
ATOM      7  C1' I4B d   1      -1.923   2.850  -4.247  0.00  0.00     0.060 C 
BRANCH   7   8
ATOM      8  C2' I4B d   1      -3.087   3.817  -4.171  0.00  0.00    -0.013 C 
ATOM      9  C4' I4B d   1      -3.622   4.135  -5.542  0.00  0.00     0.013 C 
ATOM     10  C3' I4B d   1      -4.145   3.200  -3.306  0.00  0.00     0.013 C 
ENDBRANCH   7   8
ENDBRANCH   1   7
TORSDOF 2
ENDMDL
