MODEL 1
REMARK minimizedAffinity 0.186887547
REMARK minimizedRMSD -1
REMARK  2 active torsions:
REMARK  status: ('A' for Active; 'I' for Inactive)
REMARK    1  A    between atoms: C2'_3  and  C1'_4 
REMARK    2  A    between atoms: C1'_4  and  C1_5 
ROOT
ATOM      1  C1  I4B d   1      -1.662   3.609  -5.925  0.00  0.00    -0.075 A 
ATOM      2  C2  I4B d   1      -1.284   4.929  -5.920  0.00  0.00     0.003 A 
ATOM      3  C3  I4B d   1      -2.265   5.951  -5.932  0.00  0.00     0.002 A 
ATOM      4  C4  I4B d   1      -3.600   5.610  -5.999  0.00  0.00    -0.004 A 
ATOM      5  C5  I4B d   1      -3.982   4.272  -5.981  0.00  0.00     0.002 A 
ATOM      6  C6  I4B d   1      -3.007   3.264  -5.931  0.00  0.00     0.003 A 
ENDROOT
BRANCH   1   7
ATOM      7  C1' I4B d   1      -0.600   2.556  -5.945  0.00  0.00     0.060 C 
BRANCH   7   8
ATOM      8  C2' I4B d   1       0.552   3.037  -5.086  0.00  0.00    -0.013 C 
ATOM      9  C4' I4B d   1       1.047   1.945  -4.176  0.00  0.00     0.013 C 
ATOM     10  C3' I4B d   1       1.641   3.517  -5.999  0.00  0.00     0.013 C 
ENDBRANCH   7   8
ENDBRANCH   1   7
TORSDOF 2
ENDMDL
