MODEL 1
REMARK minimizedAffinity 11.7768421
REMARK minimizedRMSD -1
REMARK  2 active torsions:
REMARK  status: ('A' for Active; 'I' for Inactive)
REMARK    1  A    between atoms: C2'_3  and  C1'_4 
REMARK    2  A    between atoms: C1'_4  and  C1_5 
ROOT
ATOM      1  C1  I4B d   1      -1.084  -1.996  -1.157  0.00  0.00    -0.075 A 
ATOM      2  C2  I4B d   1      -2.089  -2.600  -0.444  0.00  0.00     0.003 A 
ATOM      3  C3  I4B d   1      -2.552  -3.886  -0.814  0.00  0.00     0.002 A 
ATOM      4  C4  I4B d   1      -2.020  -4.506  -1.926  0.00  0.00    -0.004 A 
ATOM      5  C5  I4B d   1      -0.985  -3.902  -2.634  0.00  0.00     0.002 A 
ATOM      6  C6  I4B d   1      -0.505  -2.645  -2.240  0.00  0.00     0.003 A 
ENDROOT
BRANCH   1   7
ATOM      7  C1' I4B d   1      -0.642  -0.624  -0.759  0.00  0.00     0.060 C 
BRANCH   7   8
ATOM      8  C2' I4B d   1      -0.794  -0.502   0.744  0.00  0.00    -0.013 C 
ATOM      9  C4' I4B d   1       0.236  -1.331   1.465  0.00  0.00     0.013 C 
ATOM     10  C3' I4B d   1      -0.672   0.948   1.105  0.00  0.00     0.013 C 
ENDBRANCH   7   8
ENDBRANCH   1   7
TORSDOF 2
ENDMDL
