MODEL 1
REMARK minimizedAffinity -0.0598694459
REMARK minimizedRMSD -1
REMARK  2 active torsions:
REMARK  status: ('A' for Active; 'I' for Inactive)
REMARK    1  A    between atoms: C2'_3  and  C1'_4 
REMARK    2  A    between atoms: C1'_4  and  C1_5 
ROOT
ATOM      1  C1  I4B d   1      -2.275   3.569  -5.096  0.00  0.00    -0.075 A 
ATOM      2  C2  I4B d   1      -1.954   4.740  -4.457  0.00  0.00     0.003 A 
ATOM      3  C3  I4B d   1      -0.658   5.295  -4.593  0.00  0.00     0.002 A 
ATOM      4  C4  I4B d   1       0.294   4.624  -5.333  0.00  0.00    -0.004 A 
ATOM      5  C5  I4B d   1      -0.040   3.448  -5.999  0.00  0.00     0.002 A 
ATOM      6  C6  I4B d   1      -1.336   2.923  -5.891  0.00  0.00     0.003 A 
ENDROOT
BRANCH   1   7
ATOM      7  C1' I4B d   1      -3.642   2.994  -4.904  0.00  0.00     0.060 C 
BRANCH   7   8
ATOM      8  C2' I4B d   1      -4.537   3.539  -5.999  0.00  0.00    -0.013 C 
ATOM      9  C4' I4B d   1      -5.967   3.114  -5.797  0.00  0.00     0.013 C 
ATOM     10  C3' I4B d   1      -4.410   5.033  -5.998  0.00  0.00     0.013 C 
ENDBRANCH   7   8
ENDBRANCH   1   7
TORSDOF 2
ENDMDL
