MODEL 1
REMARK minimizedAffinity 0.814021409
REMARK minimizedRMSD -1
REMARK  2 active torsions:
REMARK  status: ('A' for Active; 'I' for Inactive)
REMARK    1  A    between atoms: C2'_3  and  C1'_4 
REMARK    2  A    between atoms: C1'_4  and  C1_5 
ROOT
ATOM      1  C1  I4B d   1      -1.814   4.042  -5.960  0.00  0.00    -0.075 A 
ATOM      2  C2  I4B d   1      -1.996   5.402  -5.992  0.00  0.00     0.003 A 
ATOM      3  C3  I4B d   1      -3.304   5.946  -5.987  0.00  0.00     0.002 A 
ATOM      4  C4  I4B d   1      -4.393   5.099  -6.000  0.00  0.00    -0.004 A 
ATOM      5  C5  I4B d   1      -4.206   3.721  -5.944  0.00  0.00     0.002 A 
ATOM      6  C6  I4B d   1      -2.908   3.189  -5.911  0.00  0.00     0.003 A 
ENDROOT
BRANCH   1   7
ATOM      7  C1' I4B d   1      -0.420   3.501  -5.999  0.00  0.00     0.060 C 
BRANCH   7   8
ATOM      8  C2' I4B d   1       0.464   4.429  -5.192  0.00  0.00    -0.013 C 
ATOM      9  C4' I4B d   1       0.813   3.825  -3.857  0.00  0.00     0.013 C 
ATOM     10  C3' I4B d   1       1.697   4.711  -5.998  0.00  0.00     0.013 C 
ENDBRANCH   7   8
ENDBRANCH   1   7
TORSDOF 2
ENDMDL
