MODEL 1
REMARK minimizedAffinity 2.35033965
REMARK minimizedRMSD -1
REMARK  2 active torsions:
REMARK  status: ('A' for Active; 'I' for Inactive)
REMARK    1  A    between atoms: C2'_3  and  C1'_4 
REMARK    2  A    between atoms: C1'_4  and  C1_5 
ROOT
ATOM      1  C1  I4B d   1      -0.453   4.272  -5.937  0.00  0.00    -0.075 A 
ATOM      2  C2  I4B d   1       0.124   3.026  -5.940  0.00  0.00     0.003 A 
ATOM      3  C3  I4B d   1       1.533   2.893  -5.947  0.00  0.00     0.002 A 
ATOM      4  C4  I4B d   1       2.322   4.024  -6.000  0.00  0.00    -0.004 A 
ATOM      5  C5  I4B d   1       1.736   5.286  -5.973  0.00  0.00     0.002 A 
ATOM      6  C6  I4B d   1       0.340   5.412  -5.929  0.00  0.00     0.003 A 
ENDROOT
BRANCH   1   7
ATOM      7  C1' I4B d   1      -1.945   4.375  -5.963  0.00  0.00     0.060 C 
BRANCH   7   8
ATOM      8  C2' I4B d   1      -2.511   2.970  -5.955  0.00  0.00    -0.013 C 
ATOM      9  C4' I4B d   1      -1.941   2.160  -4.820  0.00  0.00     0.013 C 
ATOM     10  C3' I4B d   1      -4.003   3.072  -5.850  0.00  0.00     0.013 C 
ENDBRANCH   7   8
ENDBRANCH   1   7
TORSDOF 2
ENDMDL
