MODEL 1
REMARK minimizedAffinity 5.09522152
REMARK minimizedRMSD -1
REMARK  2 active torsions:
REMARK  status: ('A' for Active; 'I' for Inactive)
REMARK    1  A    between atoms: C2'_3  and  C1'_4 
REMARK    2  A    between atoms: C1'_4  and  C1_5 
ROOT
ATOM      1  C1  I4B d   1      -0.024   1.959  -0.571  0.00  0.00    -0.075 A 
ATOM      2  C2  I4B d   1       0.334   1.386   0.623  0.00  0.00     0.003 A 
ATOM      3  C3  I4B d   1      -0.556   0.504   1.285  0.00  0.00     0.002 A 
ATOM      4  C4  I4B d   1      -1.803   0.266   0.746  0.00  0.00    -0.004 A 
ATOM      5  C5  I4B d   1      -2.155   0.831  -0.477  0.00  0.00     0.002 A 
ATOM      6  C6  I4B d   1      -1.255   1.673  -1.146  0.00  0.00     0.003 A 
ENDROOT
BRANCH   1   7
ATOM      7  C1' I4B d   1       0.927   2.911  -1.227  0.00  0.00     0.060 C 
BRANCH   7   8
ATOM      8  C2' I4B d   1       1.599   2.183  -2.373  0.00  0.00    -0.013 C 
ATOM      9  C4' I4B d   1       1.080   2.664  -3.703  0.00  0.00     0.013 C 
ATOM     10  C3' I4B d   1       3.078   2.404  -2.257  0.00  0.00     0.013 C 
ENDBRANCH   7   8
ENDBRANCH   1   7
TORSDOF 2
ENDMDL
