MODEL 1
REMARK minimizedAffinity -2.52326202
REMARK minimizedRMSD -1
REMARK  2 active torsions:
REMARK  status: ('A' for Active; 'I' for Inactive)
REMARK    1  A    between atoms: C2'_3  and  C1'_4 
REMARK    2  A    between atoms: C1'_4  and  C1_5 
ROOT
ATOM      1  C1  I4B d   1      -1.589   4.242  -5.803  0.00  0.00    -0.075 A 
ATOM      2  C2  I4B d   1      -2.571   3.303  -5.610  0.00  0.00     0.003 A 
ATOM      3  C3  I4B d   1      -3.920   3.705  -5.457  0.00  0.00     0.002 A 
ATOM      4  C4  I4B d   1      -4.233   5.049  -5.454  0.00  0.00    -0.004 A 
ATOM      5  C5  I4B d   1      -3.239   5.998  -5.673  0.00  0.00     0.002 A 
ATOM      6  C6  I4B d   1      -1.910   5.592  -5.861  0.00  0.00     0.003 A 
ENDROOT
BRANCH   1   7
ATOM      7  C1' I4B d   1      -0.170   3.785  -5.928  0.00  0.00     0.060 C 
BRANCH   7   8
ATOM      8  C2' I4B d   1      -0.034   2.475  -5.179  0.00  0.00    -0.013 C 
ATOM      9  C4' I4B d   1       0.723   1.458  -5.992  0.00  0.00     0.013 C 
ATOM     10  C3' I4B d   1       0.661   2.754  -3.879  0.00  0.00     0.013 C 
ENDBRANCH   7   8
ENDBRANCH   1   7
TORSDOF 2
ENDMDL
