MODEL 1
REMARK minimizedAffinity 3.62386131
REMARK minimizedRMSD -1
REMARK  0 active torsions:
REMARK  status: ('A' for Active; 'I' for Inactive)
ROOT
ATOM      1  N1  IND d   1       0.938  -2.388   2.198  0.00  0.00    -0.196 N 
ATOM      2  C2  IND d   1       1.173  -1.065   2.449  0.00  0.00     0.054 A 
ATOM      3  C3  IND d   1       2.112  -0.929   3.413  0.00  0.00    -0.031 A 
ATOM      4  C4  IND d   1       3.467  -2.738   4.643  0.00  0.00     0.051 A 
ATOM      5  C5  IND d   1       3.579  -4.094   4.781  0.00  0.00    -0.031 A 
ATOM      6  C6  IND d   1       2.803  -4.967   4.047  0.00  0.00     0.015 A 
ATOM      7  C7  IND d   1       1.889  -4.516   3.137  0.00  0.00    -0.016 A 
ATOM      8  C8  IND d   1       1.768  -3.141   3.000  0.00  0.00    -0.047 A 
ATOM      9  C9  IND d   1       2.523  -2.249   3.772  0.00  0.00    -0.096 A 
ATOM     10  HN1 IND d   1       0.367  -2.698   1.635  0.00  0.00     0.298 HD
ENDROOT
TORSDOF 0
ENDMDL
