MODEL 1
REMARK minimizedAffinity 1.70662892
REMARK minimizedRMSD -1
REMARK  0 active torsions:
REMARK  status: ('A' for Active; 'I' for Inactive)
ROOT
ATOM      1  N1  IND d   1       0.727  -2.544   2.586  0.00  0.00    -0.196 N 
ATOM      2  C2  IND d   1       1.514  -1.466   2.290  0.00  0.00     0.054 A 
ATOM      3  C3  IND d   1       2.470  -1.308   3.233  0.00  0.00    -0.031 A 
ATOM      4  C4  IND d   1       2.991  -2.762   5.293  0.00  0.00     0.051 A 
ATOM      5  C5  IND d   1       2.525  -3.835   6.000  0.00  0.00    -0.031 A 
ATOM      6  C6  IND d   1       1.414  -4.548   5.596  0.00  0.00     0.015 A 
ATOM      7  C7  IND d   1       0.733  -4.220   4.458  0.00  0.00    -0.016 A 
ATOM      8  C8  IND d   1       1.199  -3.127   3.741  0.00  0.00    -0.047 A 
ATOM      9  C9  IND d   1       2.300  -2.374   4.169  0.00  0.00    -0.096 A 
ATOM     10  HN1 IND d   1       0.051  -2.812   2.128  0.00  0.00     0.298 HD
ENDROOT
TORSDOF 0
ENDMDL
