MODEL 1
REMARK minimizedAffinity -3.57205367
REMARK minimizedRMSD -1
REMARK  0 active torsions:
REMARK  status: ('A' for Active; 'I' for Inactive)
ROOT
ATOM      1  N1  IND d   1       3.263  -5.970  -5.359  0.00  0.00    -0.196 N 
ATOM      2  C2  IND d   1       2.020  -5.973  -5.929  0.00  0.00     0.054 A 
ATOM      3  C3  IND d   1       1.065  -6.000  -4.972  0.00  0.00    -0.031 A 
ATOM      4  C4  IND d   1       1.313  -5.940  -2.411  0.00  0.00     0.051 A 
ATOM      5  C5  IND d   1       2.252  -5.970  -1.418  0.00  0.00    -0.031 A 
ATOM      6  C6  IND d   1       3.604  -6.000  -1.695  0.00  0.00     0.015 A 
ATOM      7  C7  IND d   1       4.069  -5.989  -2.979  0.00  0.00    -0.016 A 
ATOM      8  C8  IND d   1       3.117  -5.965  -3.989  0.00  0.00    -0.047 A 
ATOM      9  C9  IND d   1       1.744  -5.978  -3.716  0.00  0.00    -0.096 A 
ATOM     10  HN1 IND d   1       4.010  -5.972  -5.785  0.00  0.00     0.298 HD
ENDROOT
TORSDOF 0
ENDMDL
