MODEL 1
REMARK minimizedAffinity 11.4557934
REMARK minimizedRMSD -1
REMARK  0 active torsions:
REMARK  status: ('A' for Active; 'I' for Inactive)
ROOT
ATOM      1  N1  IND d   1       4.705  -2.356   4.135  0.00  0.00    -0.196 N 
ATOM      2  C2  IND d   1       4.604  -3.392   5.020  0.00  0.00     0.054 A 
ATOM      3  C3  IND d   1       3.352  -3.901   5.010  0.00  0.00    -0.031 A 
ATOM      4  C4  IND d   1       1.336  -3.252   3.546  0.00  0.00     0.051 A 
ATOM      5  C5  IND d   1       0.931  -2.338   2.614  0.00  0.00    -0.031 A 
ATOM      6  C6  IND d   1       1.782  -1.365   2.130  0.00  0.00     0.015 A 
ATOM      7  C7  IND d   1       3.078  -1.277   2.553  0.00  0.00    -0.016 A 
ATOM      8  C8  IND d   1       3.490  -2.199   3.504  0.00  0.00    -0.047 A 
ATOM      9  C9  IND d   1       2.619  -3.162   4.031  0.00  0.00    -0.096 A 
ATOM     10  HN1 IND d   1       5.408  -1.881   3.996  0.00  0.00     0.298 HD
ENDROOT
TORSDOF 0
ENDMDL
