MODEL 1
REMARK minimizedAffinity 10.6499929
REMARK minimizedRMSD -1
REMARK  0 active torsions:
REMARK  status: ('A' for Active; 'I' for Inactive)
ROOT
ATOM      1  N1  IND d   1       1.194  -2.074   2.227  0.00  0.00    -0.196 N 
ATOM      2  C2  IND d   1       1.596  -0.770   2.305  0.00  0.00     0.054 A 
ATOM      3  C3  IND d   1       2.656  -0.653   3.135  0.00  0.00    -0.031 A 
ATOM      4  C4  IND d   1       3.958  -2.485   4.392  0.00  0.00     0.051 A 
ATOM      5  C5  IND d   1       3.943  -3.824   4.661  0.00  0.00    -0.031 A 
ATOM      6  C6  IND d   1       2.994  -4.667   4.119  0.00  0.00     0.015 A 
ATOM      7  C7  IND d   1       2.026  -4.200   3.275  0.00  0.00    -0.016 A 
ATOM      8  C8  IND d   1       2.034  -2.839   3.006  0.00  0.00    -0.047 A 
ATOM      9  C9  IND d   1       2.968  -1.972   3.586  0.00  0.00    -0.096 A 
ATOM     10  HN1 IND d   1       0.528  -2.367   1.768  0.00  0.00     0.298 HD
ENDROOT
TORSDOF 0
ENDMDL
