MODEL 1
REMARK minimizedAffinity 0.830073416
REMARK minimizedRMSD -1
REMARK  0 active torsions:
REMARK  status: ('A' for Active; 'I' for Inactive)
ROOT
ATOM      1  N1  IND d   1       5.254  -5.982  -2.465  0.00  0.00    -0.196 N 
ATOM      2  C2  IND d   1       4.306  -5.959  -1.480  0.00  0.00     0.054 A 
ATOM      3  C3  IND d   1       3.067  -5.923  -2.020  0.00  0.00    -0.031 A 
ATOM      4  C4  IND d   1       2.359  -5.998  -4.494  0.00  0.00     0.051 A 
ATOM      5  C5  IND d   1       2.870  -5.986  -5.762  0.00  0.00    -0.031 A 
ATOM      6  C6  IND d   1       4.229  -5.975  -6.000  0.00  0.00     0.015 A 
ATOM      7  C7  IND d   1       5.132  -5.987  -4.975  0.00  0.00    -0.016 A 
ATOM      8  C8  IND d   1       4.617  -5.992  -3.686  0.00  0.00    -0.047 A 
ATOM      9  C9  IND d   1       3.239  -5.960  -3.438  0.00  0.00    -0.096 A 
ATOM     10  HN1 IND d   1       6.105  -5.990  -2.342  0.00  0.00     0.298 HD
ENDROOT
TORSDOF 0
ENDMDL
