MODEL 1
REMARK minimizedAffinity -4.36564779
REMARK minimizedRMSD -1
REMARK  0 active torsions:
REMARK  status: ('A' for Active; 'I' for Inactive)
ROOT
ATOM      1  C   UNL d   1       0.857   0.450   3.476  0.00  0.00    -0.002 A 
ATOM      2  C1  UNL d   1      -0.483   0.722   3.715  0.00  0.00     0.010 A 
ATOM      3  C2  UNL d   1      -1.431   0.563   2.702  0.00  0.00     0.041 A 
ATOM      4  C3  UNL d   1      -1.006   0.120   1.434  0.00  0.00    -0.075 A 
ATOM      5  S   UNL d   1      -1.989  -0.148   0.043  0.00  0.00     0.015 SA
ATOM      6  C4  UNL d   1      -0.654  -0.630  -0.900  0.00  0.00     0.022 A 
ATOM      7  C5  UNL d   1       0.521  -0.593  -0.187  0.00  0.00     0.026 A 
ATOM      8  C6  UNL d   1       0.337  -0.161   1.170  0.00  0.00    -0.082 A 
ATOM      9  C7  UNL d   1       1.274   0.011   2.217  0.00  0.00     0.045 A 
ENDROOT
TORSDOF 0
ENDMDL
