MODEL 1
REMARK minimizedAffinity 6.18771553
REMARK minimizedRMSD -1
REMARK  0 active torsions:
REMARK  status: ('A' for Active; 'I' for Inactive)
ROOT
ATOM      1  C   UNL d   1       0.354   0.513  -5.001  0.00  0.00    -0.002 A 
ATOM      2  C1  UNL d   1      -0.286  -0.692  -5.252  0.00  0.00     0.010 A 
ATOM      3  C2  UNL d   1      -0.447  -1.636  -4.236  0.00  0.00     0.041 A 
ATOM      4  C3  UNL d   1       0.048  -1.345  -2.950  0.00  0.00    -0.075 A 
ATOM      5  S   UNL d   1      -0.036  -2.349  -1.551  0.00  0.00     0.015 SA
ATOM      6  C4  UNL d   1       0.774  -1.201  -0.587  0.00  0.00     0.022 A 
ATOM      7  C5  UNL d   1       1.108  -0.073  -1.298  0.00  0.00     0.026 A 
ATOM      8  C6  UNL d   1       0.695  -0.137  -2.672  0.00  0.00    -0.082 A 
ATOM      9  C7  UNL d   1       0.844   0.799  -3.724  0.00  0.00     0.045 A 
ENDROOT
TORSDOF 0
ENDMDL
