MODEL 1
REMARK minimizedAffinity -4.41612005
REMARK minimizedRMSD -1
REMARK  0 active torsions:
REMARK  status: ('A' for Active; 'I' for Inactive)
ROOT
ATOM      1  C   UNL d   1       0.303   1.530   2.375  0.00  0.00    -0.002 A 
ATOM      2  C1  UNL d   1       1.374   0.805   1.872  0.00  0.00     0.010 A 
ATOM      3  C2  UNL d   1       1.169  -0.201   0.925  0.00  0.00     0.041 A 
ATOM      4  C3  UNL d   1      -0.144  -0.467   0.487  0.00  0.00    -0.075 A 
ATOM      5  S   UNL d   1      -0.634  -1.651  -0.666  0.00  0.00     0.015 SA
ATOM      6  C4  UNL d   1      -2.277  -1.222  -0.519  0.00  0.00     0.022 A 
ATOM      7  C5  UNL d   1      -2.465  -0.202   0.384  0.00  0.00     0.026 A 
ATOM      8  C6  UNL d   1      -1.238   0.250   0.978  0.00  0.00    -0.082 A 
ATOM      9  C7  UNL d   1      -0.997   1.263   1.938  0.00  0.00     0.045 A 
ENDROOT
TORSDOF 0
ENDMDL
