MODEL 1
REMARK minimizedAffinity -4.74530411
REMARK minimizedRMSD -1
REMARK  0 active torsions:
REMARK  status: ('A' for Active; 'I' for Inactive)
ROOT
ATOM      1  C   UNL d   1      -3.731  -3.286  -1.411  0.00  0.00    -0.002 A 
ATOM      2  C1  UNL d   1      -2.503  -3.879  -1.668  0.00  0.00     0.010 A 
ATOM      3  C2  UNL d   1      -1.315  -3.183  -1.435  0.00  0.00     0.041 A 
ATOM      4  C3  UNL d   1      -1.383  -1.869  -0.931  0.00  0.00    -0.075 A 
ATOM      5  S   UNL d   1      -0.059  -0.826  -0.568  0.00  0.00     0.015 SA
ATOM      6  C4  UNL d   1      -1.093   0.431  -0.062  0.00  0.00     0.022 A 
ATOM      7  C5  UNL d   1      -2.418   0.081  -0.161  0.00  0.00     0.026 A 
ATOM      8  C6  UNL d   1      -2.608  -1.251  -0.663  0.00  0.00    -0.082 A 
ATOM      9  C7  UNL d   1      -3.794  -1.983  -0.912  0.00  0.00     0.045 A 
ENDROOT
TORSDOF 0
ENDMDL
