MODEL 1
REMARK minimizedAffinity -1.05495441
REMARK minimizedRMSD -1
REMARK  0 active torsions:
REMARK  status: ('A' for Active; 'I' for Inactive)
ROOT
ATOM      1  C   UNL d   1      -1.019   1.597   3.348  0.00  0.00    -0.002 A 
ATOM      2  C1  UNL d   1      -1.923   1.173   2.384  0.00  0.00     0.010 A 
ATOM      3  C2  UNL d   1      -1.480   0.508   1.239  0.00  0.00     0.041 A 
ATOM      4  C3  UNL d   1      -0.100   0.272   1.078  0.00  0.00    -0.075 A 
ATOM      5  S   UNL d   1       0.672  -0.524  -0.242  0.00  0.00     0.015 SA
ATOM      6  C4  UNL d   1       2.219  -0.320   0.443  0.00  0.00     0.022 A 
ATOM      7  C5  UNL d   1       2.167   0.337   1.649  0.00  0.00     0.026 A 
ATOM      8  C6  UNL d   1       0.829   0.689   2.036  0.00  0.00    -0.082 A 
ATOM      9  C7  UNL d   1       0.348   1.361   3.185  0.00  0.00     0.045 A 
ENDROOT
TORSDOF 0
ENDMDL
