MODEL 1
REMARK minimizedAffinity 1.38871741
REMARK minimizedRMSD -1
REMARK  0 active torsions:
REMARK  status: ('A' for Active; 'I' for Inactive)
ROOT
ATOM      1  C   UNL d   1       0.536   0.389   1.484  0.00  0.00    -0.002 A 
ATOM      2  C1  UNL d   1       1.226  -0.727   1.032  0.00  0.00     0.010 A 
ATOM      3  C2  UNL d   1       1.377  -0.963  -0.335  0.00  0.00     0.041 A 
ATOM      4  C3  UNL d   1       0.819  -0.049  -1.250  0.00  0.00    -0.075 A 
ATOM      5  S   UNL d   1       0.879  -0.133  -2.971  0.00  0.00     0.015 SA
ATOM      6  C4  UNL d   1      -0.009   1.311  -3.147  0.00  0.00     0.022 A 
ATOM      7  C5  UNL d   1      -0.351   1.857  -1.933  0.00  0.00     0.026 A 
ATOM      8  C6  UNL d   1       0.121   1.083  -0.820  0.00  0.00    -0.082 A 
ATOM      9  C7  UNL d   1      -0.016   1.294   0.574  0.00  0.00     0.045 A 
ENDROOT
TORSDOF 0
ENDMDL
