MODEL 1
REMARK minimizedAffinity -2.16292572
REMARK minimizedRMSD -1
REMARK  0 active torsions:
REMARK  status: ('A' for Active; 'I' for Inactive)
ROOT
ATOM      1  C   UNL d   1       2.209   1.605  -4.343  0.00  0.00    -0.002 A 
ATOM      2  C1  UNL d   1       2.260   0.730  -3.267  0.00  0.00     0.010 A 
ATOM      3  C2  UNL d   1       1.257  -0.222  -3.078  0.00  0.00     0.041 A 
ATOM      4  C3  UNL d   1       0.192  -0.282  -3.998  0.00  0.00    -0.075 A 
ATOM      5  S   UNL d   1      -1.148  -1.367  -3.968  0.00  0.00     0.015 SA
ATOM      6  C4  UNL d   1      -1.819  -0.695  -5.384  0.00  0.00     0.022 A 
ATOM      7  C5  UNL d   1      -1.053   0.333  -5.880  0.00  0.00     0.026 A 
ATOM      8  C6  UNL d   1       0.119   0.588  -5.090  0.00  0.00    -0.082 A 
ATOM      9  C7  UNL d   1       1.151   1.543  -5.254  0.00  0.00     0.045 A 
ENDROOT
TORSDOF 0
ENDMDL
