MODEL 1
REMARK minimizedAffinity 18.6919022
REMARK minimizedRMSD -1
REMARK  1 active torsions:
REMARK  status: ('A' for Active; 'I' for Inactive)
REMARK    1  A    between atoms: C1_2  and  C2_3 
ROOT
ATOM      1  C2  UNL d   1       3.028  -2.091   4.898  0.00  0.00    -0.073 A 
ATOM      2  C3  UNL d   1       3.747  -0.935   5.222  0.00  0.00    -0.002 A 
ATOM      3  C4  UNL d   1       5.028  -1.031   5.767  0.00  0.00     0.004 A 
ATOM      4  C5  UNL d   1       5.606  -2.281   5.986  0.00  0.00    -0.004 A 
ATOM      5  C6  UNL d   1       4.909  -3.448   5.657  0.00  0.00    -0.075 A 
ATOM      6  C7  UNL d   1       5.515  -4.801   5.889  0.00  0.00     0.076 C 
ATOM      7  C8  UNL d   1       3.621  -3.343   5.113  0.00  0.00     0.001 A 
ENDROOT
BRANCH   1   8
ATOM      8  C1  UNL d   1       1.647  -1.992   4.303  0.00  0.00     0.053 C 
ATOM      9  C   UNL d   1       0.719  -1.141   5.155  0.00  0.00     0.018 C 
ENDBRANCH   1   8
TORSDOF 1
ENDMDL
