MODEL 1
REMARK minimizedAffinity 4.65009212
REMARK minimizedRMSD -1
REMARK  1 active torsions:
REMARK  status: ('A' for Active; 'I' for Inactive)
REMARK    1  A    between atoms: C1_2  and  C2_3 
ROOT
ATOM      1  C2  UNL d   1      -1.239   2.349  -0.950  0.00  0.00    -0.073 A 
ATOM      2  C3  UNL d   1      -1.012   3.167  -2.062  0.00  0.00    -0.002 A 
ATOM      3  C4  UNL d   1      -1.839   3.079  -3.183  0.00  0.00     0.004 A 
ATOM      4  C5  UNL d   1      -2.904   2.179  -3.200  0.00  0.00    -0.004 A 
ATOM      5  C6  UNL d   1      -3.155   1.362  -2.093  0.00  0.00    -0.075 A 
ATOM      6  C7  UNL d   1      -4.296   0.387  -2.097  0.00  0.00     0.076 C 
ATOM      7  C8  UNL d   1      -2.319   1.454  -0.973  0.00  0.00     0.001 A 
ENDROOT
BRANCH   1   8
ATOM      8  C1  UNL d   1      -0.353   2.445   0.265  0.00  0.00     0.053 C 
ATOM      9  C   UNL d   1      -1.006   3.238   1.386  0.00  0.00     0.018 C 
ENDBRANCH   1   8
TORSDOF 1
ENDMDL
