MODEL 1
REMARK minimizedAffinity 20.0503922
REMARK minimizedRMSD -1
REMARK  1 active torsions:
REMARK  status: ('A' for Active; 'I' for Inactive)
REMARK    1  A    between atoms: C1_2  and  C2_3 
ROOT
ATOM      1  C2  UNL d   1       0.269   2.656   0.433  0.00  0.00    -0.073 A 
ATOM      2  C3  UNL d   1       1.048   3.347  -0.502  0.00  0.00    -0.002 A 
ATOM      3  C4  UNL d   1       0.646   3.421  -1.836  0.00  0.00     0.004 A 
ATOM      4  C5  UNL d   1      -0.538   2.811  -2.248  0.00  0.00    -0.004 A 
ATOM      5  C6  UNL d   1      -1.336   2.125  -1.326  0.00  0.00    -0.075 A 
ATOM      6  C7  UNL d   1      -2.612   1.462  -1.753  0.00  0.00     0.076 C 
ATOM      7  C8  UNL d   1      -0.925   2.054   0.012  0.00  0.00     0.001 A 
ENDROOT
BRANCH   1   8
ATOM      8  C1  UNL d   1       0.695   2.579   1.877  0.00  0.00     0.053 C 
ATOM      9  C   UNL d   1       2.182   2.297   2.018  0.00  0.00     0.018 C 
ENDBRANCH   1   8
TORSDOF 1
ENDMDL
