MODEL 1
REMARK minimizedAffinity -3.45548391
REMARK minimizedRMSD -1
REMARK  1 active torsions:
REMARK  status: ('A' for Active; 'I' for Inactive)
REMARK    1  A    between atoms: C1_2  and  C2_3 
ROOT
ATOM      1  C2  UNL d   1       0.088   3.019   0.181  0.00  0.00    -0.073 A 
ATOM      2  C3  UNL d   1       0.216   2.218  -0.959  0.00  0.00    -0.002 A 
ATOM      3  C4  UNL d   1       0.333   0.833  -0.838  0.00  0.00     0.004 A 
ATOM      4  C5  UNL d   1       0.318   0.234   0.422  0.00  0.00    -0.004 A 
ATOM      5  C6  UNL d   1       0.179   1.017   1.573  0.00  0.00    -0.075 A 
ATOM      6  C7  UNL d   1       0.163   0.389   2.935  0.00  0.00     0.076 C 
ATOM      7  C8  UNL d   1       0.064   2.407   1.443  0.00  0.00     0.001 A 
ENDROOT
BRANCH   1   8
ATOM      8  C1  UNL d   1      -0.046   4.515   0.055  0.00  0.00     0.053 C 
ATOM      9  C   UNL d   1       0.619   5.042  -1.206  0.00  0.00     0.018 C 
ENDBRANCH   1   8
TORSDOF 1
ENDMDL
