MODEL 1
REMARK minimizedAffinity 9.02310467
REMARK minimizedRMSD -1
REMARK  1 active torsions:
REMARK  status: ('A' for Active; 'I' for Inactive)
REMARK    1  A    between atoms: C1_2  and  C2_3 
ROOT
ATOM      1  C2  UNL d   1       1.432  -2.329  -0.858  0.00  0.00    -0.073 A 
ATOM      2  C3  UNL d   1       1.724  -3.566  -0.273  0.00  0.00    -0.002 A 
ATOM      3  C4  UNL d   1       1.145  -4.735  -0.768  0.00  0.00     0.004 A 
ATOM      4  C5  UNL d   1       0.275  -4.680  -1.858  0.00  0.00    -0.004 A 
ATOM      5  C6  UNL d   1      -0.019  -3.455  -2.464  0.00  0.00    -0.075 A 
ATOM      6  C7  UNL d   1      -0.954  -3.378  -3.635  0.00  0.00     0.076 C 
ATOM      7  C8  UNL d   1       0.564  -2.285  -1.959  0.00  0.00     0.001 A 
ENDROOT
BRANCH   1   8
ATOM      8  C1  UNL d   1       2.060  -1.065  -0.331  0.00  0.00     0.053 C 
ATOM      9  C   UNL d   1       3.511  -1.274   0.072  0.00  0.00     0.018 C 
ENDBRANCH   1   8
TORSDOF 1
ENDMDL
