MODEL 1
REMARK minimizedAffinity 5.58179665
REMARK minimizedRMSD -1
REMARK  1 active torsions:
REMARK  status: ('A' for Active; 'I' for Inactive)
REMARK    1  A    between atoms: C1_2  and  C2_3 
ROOT
ATOM      1  C2  UNL d   1       0.278   3.031   0.351  0.00  0.00    -0.073 A 
ATOM      2  C3  UNL d   1       1.205   3.803  -0.359  0.00  0.00    -0.002 A 
ATOM      3  C4  UNL d   1       0.929   4.214  -1.663  0.00  0.00     0.004 A 
ATOM      4  C5  UNL d   1      -0.279   3.865  -2.269  0.00  0.00    -0.004 A 
ATOM      5  C6  UNL d   1      -1.223   3.105  -1.572  0.00  0.00    -0.075 A 
ATOM      6  C7  UNL d   1      -2.525   2.719  -2.209  0.00  0.00     0.076 C 
ATOM      7  C8  UNL d   1      -0.937   2.693  -0.263  0.00  0.00     0.001 A 
ENDROOT
BRANCH   1   8
ATOM      8  C1  UNL d   1       0.569   2.590   1.762  0.00  0.00     0.053 C 
ATOM      9  C   UNL d   1       2.046   2.711   2.103  0.00  0.00     0.018 C 
ENDBRANCH   1   8
TORSDOF 1
ENDMDL
