MODEL 1
REMARK minimizedAffinity 11.0331459
REMARK minimizedRMSD -1
REMARK  1 active torsions:
REMARK  status: ('A' for Active; 'I' for Inactive)
REMARK    1  A    between atoms: C1_2  and  C2_3 
ROOT
ATOM      1  C2  UNL d   1       0.708   4.288  -1.318  0.00  0.00    -0.073 A 
ATOM      2  C3  UNL d   1       0.864   3.330  -0.310  0.00  0.00    -0.002 A 
ATOM      3  C4  UNL d   1      -0.242   2.631   0.176  0.00  0.00     0.004 A 
ATOM      4  C5  UNL d   1      -1.512   2.878  -0.345  0.00  0.00    -0.004 A 
ATOM      5  C6  UNL d   1      -1.687   3.824  -1.360  0.00  0.00    -0.075 A 
ATOM      6  C7  UNL d   1      -3.047   4.103  -1.929  0.00  0.00     0.076 C 
ATOM      7  C8  UNL d   1      -0.572   4.523  -1.841  0.00  0.00     0.001 A 
ENDROOT
BRANCH   1   8
ATOM      8  C1  UNL d   1       1.900   5.041  -1.850  0.00  0.00     0.053 C 
ATOM      9  C   UNL d   1       1.517   5.998  -2.967  0.00  0.00     0.018 C 
ENDBRANCH   1   8
TORSDOF 1
ENDMDL
