MODEL 1
REMARK minimizedAffinity 10.3003263
REMARK minimizedRMSD -1
REMARK  1 active torsions:
REMARK  status: ('A' for Active; 'I' for Inactive)
REMARK    1  A    between atoms: C1_2  and  C2_3 
ROOT
ATOM      1  C2  UNL d   1      -1.484   2.905  -2.236  0.00  0.00    -0.076 A 
ATOM      2  C3  UNL d   1      -1.500   2.507  -0.888  0.00  0.00     0.004 A 
ATOM      3  C4  UNL d   1      -0.392   2.713  -0.067  0.00  0.00    -0.003 A 
ATOM      4  C5  UNL d   1       0.748   3.321  -0.580  0.00  0.00     0.000 A 
ATOM      5  C6  UNL d   1       0.774   3.738  -1.911  0.00  0.00     0.000 A 
ATOM      6  C7  UNL d   1      -0.340   3.552  -2.748  0.00  0.00    -0.073 A 
ATOM      7  C8  UNL d   1      -0.254   4.016  -4.176  0.00  0.00     0.078 C 
ENDROOT
BRANCH   1   8
ATOM      8  C1  UNL d   1      -2.705   2.631  -3.086  0.00  0.00     0.053 C 
ATOM      9  C   UNL d   1      -3.313   1.265  -2.809  0.00  0.00     0.018 C 
ENDBRANCH   1   8
TORSDOF 1
ENDMDL
