MODEL 1
REMARK minimizedAffinity 12.1137743
REMARK minimizedRMSD -1
REMARK  1 active torsions:
REMARK  status: ('A' for Active; 'I' for Inactive)
REMARK    1  A    between atoms: C1_2  and  C2_3 
ROOT
ATOM      1  C2  UNL d   1       0.724   4.080  -3.189  0.00  0.00    -0.076 A 
ATOM      2  C3  UNL d   1       1.693   5.046  -3.514  0.00  0.00     0.004 A 
ATOM      3  C4  UNL d   1       1.457   5.993  -4.509  0.00  0.00    -0.003 A 
ATOM      4  C5  UNL d   1       0.249   5.989  -5.197  0.00  0.00     0.000 A 
ATOM      5  C6  UNL d   1      -0.730   5.049  -4.876  0.00  0.00     0.000 A 
ATOM      6  C7  UNL d   1      -0.515   4.098  -3.864  0.00  0.00    -0.073 A 
ATOM      7  C8  UNL d   1      -1.604   3.104  -3.564  0.00  0.00     0.078 C 
ENDROOT
BRANCH   1   8
ATOM      8  C1  UNL d   1       1.047   3.062  -2.119  0.00  0.00     0.053 C 
ATOM      9  C   UNL d   1       0.995   3.653  -0.719  0.00  0.00     0.018 C 
ENDBRANCH   1   8
TORSDOF 1
ENDMDL
