MODEL 1
REMARK minimizedAffinity 20.5930729
REMARK minimizedRMSD -1
REMARK  1 active torsions:
REMARK  status: ('A' for Active; 'I' for Inactive)
REMARK    1  A    between atoms: C1_2  and  C2_3 
ROOT
ATOM      1  C2  UNL d   1       0.470   3.808  -2.589  0.00  0.00    -0.076 A 
ATOM      2  C3  UNL d   1       1.472   4.793  -2.635  0.00  0.00     0.004 A 
ATOM      3  C4  UNL d   1       1.375   5.875  -3.508  0.00  0.00    -0.003 A 
ATOM      4  C5  UNL d   1       0.273   5.990  -4.349  0.00  0.00     0.000 A 
ATOM      5  C6  UNL d   1      -0.739   5.031  -4.304  0.00  0.00     0.000 A 
ATOM      6  C7  UNL d   1      -0.664   3.943  -3.418  0.00  0.00    -0.073 A 
ATOM      7  C8  UNL d   1      -1.781   2.936  -3.415  0.00  0.00     0.078 C 
ENDROOT
BRANCH   1   8
ATOM      8  C1  UNL d   1       0.644   2.643  -1.641  0.00  0.00     0.053 C 
ATOM      9  C   UNL d   1       0.397   3.029  -0.191  0.00  0.00     0.018 C 
ENDBRANCH   1   8
TORSDOF 1
ENDMDL
