MODEL 1
REMARK minimizedAffinity 14.309947
REMARK minimizedRMSD -1
REMARK  1 active torsions:
REMARK  status: ('A' for Active; 'I' for Inactive)
REMARK    1  A    between atoms: C1_2  and  C2_3 
ROOT
ATOM      1  C2  UNL d   1       1.306  -3.184  -2.190  0.00  0.00    -0.076 A 
ATOM      2  C3  UNL d   1       1.248  -1.902  -1.617  0.00  0.00     0.004 A 
ATOM      3  C4  UNL d   1       1.432  -1.719  -0.247  0.00  0.00    -0.003 A 
ATOM      4  C5  UNL d   1       1.679  -2.816   0.571  0.00  0.00     0.000 A 
ATOM      5  C6  UNL d   1       1.758  -4.093   0.017  0.00  0.00     0.000 A 
ATOM      6  C7  UNL d   1       1.591  -4.293  -1.364  0.00  0.00    -0.073 A 
ATOM      7  C8  UNL d   1       1.680  -5.693  -1.907  0.00  0.00     0.078 C 
ENDROOT
BRANCH   1   8
ATOM      8  C1  UNL d   1       1.071  -3.325  -3.677  0.00  0.00     0.053 C 
ATOM      9  C   UNL d   1       1.743  -2.221  -4.479  0.00  0.00     0.018 C 
ENDBRANCH   1   8
TORSDOF 1
ENDMDL
