MODEL 1
REMARK minimizedAffinity 16.873085
REMARK minimizedRMSD -1
REMARK  1 active torsions:
REMARK  status: ('A' for Active; 'I' for Inactive)
REMARK    1  A    between atoms: C1_2  and  C2_3 
ROOT
ATOM      1  C2  UNL d   1       0.167   4.146  -2.639  0.00  0.00    -0.076 A 
ATOM      2  C3  UNL d   1       1.216   5.078  -2.719  0.00  0.00     0.004 A 
ATOM      3  C4  UNL d   1       1.281   5.997  -3.765  0.00  0.00    -0.003 A 
ATOM      4  C5  UNL d   1       0.297   6.000  -4.747  0.00  0.00     0.000 A 
ATOM      5  C6  UNL d   1      -0.760   5.094  -4.675  0.00  0.00     0.000 A 
ATOM      6  C7  UNL d   1      -0.849   4.171  -3.618  0.00  0.00    -0.073 A 
ATOM      7  C8  UNL d   1      -2.009   3.213  -3.593  0.00  0.00     0.078 C 
ENDROOT
BRANCH   1   8
ATOM      8  C1  UNL d   1       0.163   3.155  -1.497  0.00  0.00     0.053 C 
ATOM      9  C   UNL d   1       1.224   3.467  -0.452  0.00  0.00     0.018 C 
ENDBRANCH   1   8
TORSDOF 1
ENDMDL
