MODEL 1
REMARK minimizedAffinity 17.5323143
REMARK minimizedRMSD -1
REMARK  1 active torsions:
REMARK  status: ('A' for Active; 'I' for Inactive)
REMARK    1  A    between atoms: C1_2  and  C2_3 
ROOT
ATOM      1  C2  UNL d   1       1.885  -3.424  -4.797  0.00  0.00    -0.076 A 
ATOM      2  C3  UNL d   1       1.022  -4.103  -3.921  0.00  0.00     0.004 A 
ATOM      3  C4  UNL d   1       1.518  -4.786  -2.811  0.00  0.00    -0.003 A 
ATOM      4  C5  UNL d   1       2.885  -4.799  -2.560  0.00  0.00     0.000 A 
ATOM      5  C6  UNL d   1       3.755  -4.115  -3.409  0.00  0.00     0.000 A 
ATOM      6  C7  UNL d   1       3.269  -3.409  -4.523  0.00  0.00    -0.073 A 
ATOM      7  C8  UNL d   1       4.253  -2.695  -5.409  0.00  0.00     0.078 C 
ENDROOT
BRANCH   1   8
ATOM      8  C1  UNL d   1       1.292  -2.724  -6.000  0.00  0.00     0.053 C 
ATOM      9  C   UNL d   1       1.571  -1.229  -6.000  0.00  0.00     0.018 C 
ENDBRANCH   1   8
TORSDOF 1
ENDMDL
