MODEL 1
REMARK minimizedAffinity 12.2530985
REMARK minimizedRMSD -1
REMARK  1 active torsions:
REMARK  status: ('A' for Active; 'I' for Inactive)
REMARK    1  A    between atoms: C1_2  and  C2_3 
ROOT
ATOM      1  C2  UNL d   1      -4.449   5.873   1.511  0.00  0.00    -0.076 A 
ATOM      2  C3  UNL d   1      -5.756   5.775   1.002  0.00  0.00     0.004 A 
ATOM      3  C4  UNL d   1      -5.987   5.694  -0.370  0.00  0.00    -0.003 A 
ATOM      4  C5  UNL d   1      -4.915   5.709  -1.256  0.00  0.00     0.000 A 
ATOM      5  C6  UNL d   1      -3.611   5.789  -0.767  0.00  0.00     0.000 A 
ATOM      6  C7  UNL d   1      -3.360   5.854   0.614  0.00  0.00    -0.073 A 
ATOM      7  C8  UNL d   1      -1.935   5.945   1.085  0.00  0.00     0.078 C 
ENDROOT
BRANCH   1   8
ATOM      8  C1  UNL d   1      -4.262   5.985   3.007  0.00  0.00     0.053 C 
ATOM      9  C   UNL d   1      -5.577   5.909   3.767  0.00  0.00     0.018 C 
ENDBRANCH   1   8
TORSDOF 1
ENDMDL
