MODEL 1
REMARK minimizedAffinity 27.0862827
REMARK minimizedRMSD -1
REMARK  1 active torsions:
REMARK  status: ('A' for Active; 'I' for Inactive)
REMARK    1  A    between atoms: C1_2  and  C2_3 
ROOT
ATOM      1  C2  UNL d   1      -0.875   2.723  -1.909  0.00  0.00    -0.076 A 
ATOM      2  C3  UNL d   1      -1.783   2.212  -0.966  0.00  0.00     0.004 A 
ATOM      3  C4  UNL d   1      -1.365   1.870   0.319  0.00  0.00    -0.003 A 
ATOM      4  C5  UNL d   1      -0.033   2.035   0.682  0.00  0.00     0.000 A 
ATOM      5  C6  UNL d   1       0.877   2.557  -0.236  0.00  0.00     0.000 A 
ATOM      6  C7  UNL d   1       0.470   2.922  -1.530  0.00  0.00    -0.073 A 
ATOM      7  C8  UNL d   1       1.495   3.475  -2.481  0.00  0.00     0.078 C 
ENDROOT
BRANCH   1   8
ATOM      8  C1  UNL d   1      -1.380   3.051  -3.296  0.00  0.00     0.053 C 
ATOM      9  C   UNL d   1      -1.791   4.508  -3.438  0.00  0.00     0.018 C 
ENDBRANCH   1   8
TORSDOF 1
ENDMDL
