MODEL 1
REMARK minimizedAffinity 14.8608742
REMARK minimizedRMSD -1
REMARK  1 active torsions:
REMARK  status: ('A' for Active; 'I' for Inactive)
REMARK    1  A    between atoms: C1_2  and  C2_3 
ROOT
ATOM      1  C2  UNL d   1      -0.036   2.980   0.569  0.00  0.00    -0.076 A 
ATOM      2  C3  UNL d   1      -1.337   2.620   0.175  0.00  0.00     0.004 A 
ATOM      3  C4  UNL d   1      -2.157   1.866   1.012  0.00  0.00    -0.003 A 
ATOM      4  C5  UNL d   1      -1.690   1.460   2.258  0.00  0.00     0.000 A 
ATOM      5  C6  UNL d   1      -0.409   1.823   2.672  0.00  0.00     0.000 A 
ATOM      6  C7  UNL d   1       0.425   2.597   1.846  0.00  0.00    -0.073 A 
ATOM      7  C8  UNL d   1       1.799   2.955   2.341  0.00  0.00     0.078 C 
ENDROOT
BRANCH   1   8
ATOM      8  C1  UNL d   1       0.818   3.775  -0.393  0.00  0.00     0.053 C 
ATOM      9  C   UNL d   1       0.859   3.158  -1.782  0.00  0.00     0.018 C 
ENDBRANCH   1   8
TORSDOF 1
ENDMDL
