MODEL 1
REMARK minimizedAffinity 12.8316841
REMARK minimizedRMSD -1
REMARK  1 active torsions:
REMARK  status: ('A' for Active; 'I' for Inactive)
REMARK    1  A    between atoms: C1_2  and  C2_3 
ROOT
ATOM      1  C2  UNL d   1       1.560  -2.644  -1.739  0.00  0.00    -0.076 A 
ATOM      2  C3  UNL d   1       1.456  -1.418  -1.060  0.00  0.00     0.004 A 
ATOM      3  C4  UNL d   1       1.724  -1.329   0.305  0.00  0.00    -0.003 A 
ATOM      4  C5  UNL d   1       2.102  -2.465   1.013  0.00  0.00     0.000 A 
ATOM      5  C6  UNL d   1       2.228  -3.686   0.351  0.00  0.00     0.000 A 
ATOM      6  C7  UNL d   1       1.977  -3.790  -1.028  0.00  0.00    -0.073 A 
ATOM      7  C8  UNL d   1       2.122  -5.133  -1.689  0.00  0.00     0.078 C 
ENDROOT
BRANCH   1   8
ATOM      8  C1  UNL d   1       1.231  -2.686  -3.214  0.00  0.00     0.053 C 
ATOM      9  C   UNL d   1       2.331  -2.083  -4.074  0.00  0.00     0.018 C 
ENDBRANCH   1   8
TORSDOF 1
ENDMDL
