MODEL 1
REMARK minimizedAffinity 9.27140999
REMARK minimizedRMSD -1
REMARK  1 active torsions:
REMARK  status: ('A' for Active; 'I' for Inactive)
REMARK    1  A    between atoms: C1_2  and  C2_3 
ROOT
ATOM      1  C2  UNL d   1      -0.911   3.335  -1.362  0.00  0.00    -0.076 A 
ATOM      2  C3  UNL d   1      -1.674   2.393  -0.650  0.00  0.00     0.004 A 
ATOM      3  C4  UNL d   1      -1.129   1.692   0.424  0.00  0.00    -0.003 A 
ATOM      4  C5  UNL d   1       0.189   1.922   0.804  0.00  0.00     0.000 A 
ATOM      5  C6  UNL d   1       0.955   2.866   0.121  0.00  0.00     0.000 A 
ATOM      6  C7  UNL d   1       0.415   3.592  -0.954  0.00  0.00    -0.073 A 
ATOM      7  C8  UNL d   1       1.289   4.593  -1.660  0.00  0.00     0.078 C 
ENDROOT
BRANCH   1   8
ATOM      8  C1  UNL d   1      -1.547   4.044  -2.536  0.00  0.00     0.053 C 
ATOM      9  C   UNL d   1      -1.251   3.360  -3.861  0.00  0.00     0.018 C 
ENDBRANCH   1   8
TORSDOF 1
ENDMDL
