MODEL 1
REMARK minimizedAffinity 16.3205376
REMARK minimizedRMSD -1
REMARK  1 active torsions:
REMARK  status: ('A' for Active; 'I' for Inactive)
REMARK    1  A    between atoms: C1_2  and  C2_3 
ROOT
ATOM      1  C2  UNL d   1       0.053   4.304  -1.505  0.00  0.00    -0.076 A 
ATOM      2  C3  UNL d   1      -1.157   3.590  -1.486  0.00  0.00     0.004 A 
ATOM      3  C4  UNL d   1      -1.822   3.273  -2.669  0.00  0.00    -0.003 A 
ATOM      4  C5  UNL d   1      -1.286   3.665  -3.891  0.00  0.00     0.000 A 
ATOM      5  C6  UNL d   1      -0.077   4.359  -3.930  0.00  0.00     0.000 A 
ATOM      6  C7  UNL d   1       0.614   4.672  -2.747  0.00  0.00    -0.073 A 
ATOM      7  C8  UNL d   1       1.911   5.427  -2.847  0.00  0.00     0.078 C 
ENDROOT
BRANCH   1   8
ATOM      8  C1  UNL d   1       0.715   4.643  -0.188  0.00  0.00     0.053 C 
ATOM      9  C   UNL d   1       0.284   6.000   0.348  0.00  0.00     0.018 C 
ENDBRANCH   1   8
TORSDOF 1
ENDMDL
