MODEL 1
REMARK minimizedAffinity 4.53143549
REMARK minimizedRMSD -1
REMARK  1 active torsions:
REMARK  status: ('A' for Active; 'I' for Inactive)
REMARK    1  A    between atoms: C1_2  and  C2_3 
ROOT
ATOM      1  C2  UNL d   1      -5.944  -3.530   2.625  0.00  0.00    -0.076 A 
ATOM      2  C3  UNL d   1      -5.902  -3.586   4.029  0.00  0.00     0.004 A 
ATOM      3  C4  UNL d   1      -5.913  -4.808   4.699  0.00  0.00    -0.003 A 
ATOM      4  C5  UNL d   1      -5.966  -5.995   3.976  0.00  0.00     0.000 A 
ATOM      5  C6  UNL d   1      -5.990  -5.958   2.582  0.00  0.00     0.000 A 
ATOM      6  C7  UNL d   1      -5.964  -4.735   1.891  0.00  0.00    -0.073 A 
ATOM      7  C8  UNL d   1      -5.998  -4.754   0.387  0.00  0.00     0.078 C 
ENDROOT
BRANCH   1   8
ATOM      8  C1  UNL d   1      -5.958  -2.175   1.955  0.00  0.00     0.053 C 
ATOM      9  C   UNL d   1      -5.150  -2.155   0.666  0.00  0.00     0.018 C 
ENDBRANCH   1   8
TORSDOF 1
ENDMDL
