MODEL 1
REMARK minimizedAffinity 20.9789181
REMARK minimizedRMSD -1
REMARK  0 active torsions:
REMARK  status: ('A' for Active; 'I' for Inactive)
ROOT
ATOM      1  C   UNL d   1       4.546  -0.832  -0.353  0.00  0.00     0.020 A 
ATOM      2  C1  UNL d   1       4.934   0.461  -0.006  0.00  0.00     0.020 A 
ATOM      3  C2  UNL d   1       4.197   1.557  -0.460  0.00  0.00     0.034 A 
ATOM      4  C3  UNL d   1       3.068   1.361  -1.264  0.00  0.00     0.017 A 
ATOM      5  C4  UNL d   1       2.680   0.062  -1.612  0.00  0.00     0.017 A 
ATOM      6  C5  UNL d   1       3.421  -1.031  -1.155  0.00  0.00     0.034 A 
ATOM      7 Cl   UNL d   1       1.299  -0.259  -2.601  0.00  0.00    -0.070 Cl
ATOM      8 Cl1  UNL d   1       2.203   2.762  -1.790  0.00  0.00    -0.070 Cl
ENDROOT
TORSDOF 0
ENDMDL
