MODEL 1
REMARK minimizedAffinity -0.974227011
REMARK minimizedRMSD -1
REMARK  0 active torsions:
REMARK  status: ('A' for Active; 'I' for Inactive)
ROOT
ATOM      1  C   UNL d   1       2.640  -4.875  -4.125  0.00  0.00     0.020 A 
ATOM      2  C1  UNL d   1       3.231  -5.625  -3.108  0.00  0.00     0.020 A 
ATOM      3  C2  UNL d   1       3.411  -5.064  -1.842  0.00  0.00     0.034 A 
ATOM      4  C3  UNL d   1       3.000  -3.750  -1.589  0.00  0.00     0.017 A 
ATOM      5  C4  UNL d   1       2.408  -2.999  -2.610  0.00  0.00     0.017 A 
ATOM      6  C5  UNL d   1       2.230  -3.565  -3.876  0.00  0.00     0.034 A 
ATOM      7 Cl   UNL d   1       1.875  -1.371  -2.374  0.00  0.00    -0.070 Cl
ATOM      8 Cl1  UNL d   1       3.253  -3.121  -0.000  0.00  0.00    -0.070 Cl
ENDROOT
TORSDOF 0
ENDMDL
