MODEL 1
REMARK minimizedAffinity 2.52238393
REMARK minimizedRMSD -1
REMARK  0 active torsions:
REMARK  status: ('A' for Active; 'I' for Inactive)
ROOT
ATOM      1  C   UNL d   1      -5.588  -1.871   3.548  0.00  0.00     0.020 A 
ATOM      2  C1  UNL d   1      -4.620  -2.211   4.492  0.00  0.00     0.020 A 
ATOM      3  C2  UNL d   1      -4.062  -3.491   4.489  0.00  0.00     0.034 A 
ATOM      4  C3  UNL d   1      -4.472  -4.436   3.541  0.00  0.00     0.017 A 
ATOM      5  C4  UNL d   1      -5.444  -4.093   2.594  0.00  0.00     0.017 A 
ATOM      6  C5  UNL d   1      -5.999  -2.810   2.602  0.00  0.00     0.034 A 
ATOM      7 Cl   UNL d   1      -6.000  -5.205   1.393  0.00  0.00    -0.070 Cl
ATOM      8 Cl1  UNL d   1      -3.739  -6.000   3.596  0.00  0.00    -0.070 Cl
ENDROOT
TORSDOF 0
ENDMDL
