MODEL 1
REMARK minimizedAffinity 2.08888769
REMARK minimizedRMSD -1
REMARK  0 active torsions:
REMARK  status: ('A' for Active; 'I' for Inactive)
ROOT
ATOM      1  C   UNL d   1       1.775  -3.298  -3.657  0.00  0.00     0.020 A 
ATOM      2  C1  UNL d   1       2.780  -4.262  -3.583  0.00  0.00     0.020 A 
ATOM      3  C2  UNL d   1       3.398  -4.532  -2.361  0.00  0.00     0.034 A 
ATOM      4  C3  UNL d   1       3.013  -3.838  -1.208  0.00  0.00     0.017 A 
ATOM      5  C4  UNL d   1       2.004  -2.872  -1.284  0.00  0.00     0.017 A 
ATOM      6  C5  UNL d   1       1.387  -2.605  -2.510  0.00  0.00     0.034 A 
ATOM      7 Cl   UNL d   1       1.474  -1.975   0.096  0.00  0.00    -0.070 Cl
ATOM      8 Cl1  UNL d   1       3.821  -4.224   0.270  0.00  0.00    -0.070 Cl
ENDROOT
TORSDOF 0
ENDMDL
