MODEL 1
REMARK minimizedAffinity 8.04264641
REMARK minimizedRMSD -1
REMARK  0 active torsions:
REMARK  status: ('A' for Active; 'I' for Inactive)
ROOT
ATOM      1  C   UNL d   1       3.030  -2.658  -0.389  0.00  0.00     0.020 A 
ATOM      2  C1  UNL d   1       2.412  -3.139  -1.543  0.00  0.00     0.020 A 
ATOM      3  C2  UNL d   1       1.917  -2.245  -2.495  0.00  0.00     0.034 A 
ATOM      4  C3  UNL d   1       2.039  -0.865  -2.295  0.00  0.00     0.017 A 
ATOM      5  C4  UNL d   1       2.659  -0.383  -1.137  0.00  0.00     0.017 A 
ATOM      6  C5  UNL d   1       3.153  -1.282  -0.187  0.00  0.00     0.034 A 
ATOM      7 Cl   UNL d   1       2.847   1.306  -0.821  0.00  0.00    -0.070 Cl
ATOM      8 Cl1  UNL d   1       1.404   0.182  -3.514  0.00  0.00    -0.070 Cl
ENDROOT
TORSDOF 0
ENDMDL
