MODEL 1
REMARK minimizedAffinity 2.44639492
REMARK minimizedRMSD -1
REMARK  0 active torsions:
REMARK  status: ('A' for Active; 'I' for Inactive)
ROOT
ATOM      1  C   UNL d   1       3.254  -5.272  -3.635  0.00  0.00     0.020 A 
ATOM      2  C1  UNL d   1       2.650  -4.221  -4.324  0.00  0.00     0.020 A 
ATOM      3  C2  UNL d   1       2.266  -3.066  -3.639  0.00  0.00     0.034 A 
ATOM      4  C3  UNL d   1       2.485  -2.960  -2.260  0.00  0.00     0.017 A 
ATOM      5  C4  UNL d   1       3.091  -4.016  -1.570  0.00  0.00     0.017 A 
ATOM      6  C5  UNL d   1       3.473  -5.170  -2.261  0.00  0.00     0.034 A 
ATOM      7 Cl   UNL d   1       3.394  -3.959   0.131  0.00  0.00    -0.070 Cl
ATOM      8 Cl1  UNL d   1       1.985  -1.504  -1.477  0.00  0.00    -0.070 Cl
ENDROOT
TORSDOF 0
ENDMDL
