MODEL 1
REMARK minimizedAffinity 1.39357495
REMARK minimizedRMSD -1
REMARK  0 active torsions:
REMARK  status: ('A' for Active; 'I' for Inactive)
ROOT
ATOM      1  C   UNL d   1       2.909  -3.878  -0.364  0.00  0.00     0.020 A 
ATOM      2  C1  UNL d   1       3.481  -4.775  -1.266  0.00  0.00     0.020 A 
ATOM      3  C2  UNL d   1       3.418  -4.522  -2.638  0.00  0.00     0.034 A 
ATOM      4  C3  UNL d   1       2.782  -3.368  -3.112  0.00  0.00     0.017 A 
ATOM      5  C4  UNL d   1       2.209  -2.469  -2.206  0.00  0.00     0.017 A 
ATOM      6  C5  UNL d   1       2.275  -2.727  -0.833  0.00  0.00     0.034 A 
ATOM      7 Cl   UNL d   1       1.407  -1.024  -2.715  0.00  0.00    -0.070 Cl
ATOM      8 Cl1  UNL d   1       2.741  -3.118  -4.821  0.00  0.00    -0.070 Cl
ENDROOT
TORSDOF 0
ENDMDL
