MODEL 1
REMARK minimizedAffinity 1.95025325
REMARK minimizedRMSD -1
REMARK  0 active torsions:
REMARK  status: ('A' for Active; 'I' for Inactive)
ROOT
ATOM      1  C   UNL d   1      -4.123   2.296   5.028  0.00  0.00     0.020 A 
ATOM      2  C1  UNL d   1      -3.241   2.767   6.000  0.00  0.00     0.020 A 
ATOM      3  C2  UNL d   1      -1.863   2.650   5.808  0.00  0.00     0.034 A 
ATOM      4  C3  UNL d   1      -1.363   2.060   4.641  0.00  0.00     0.017 A 
ATOM      5  C4  UNL d   1      -2.249   1.588   3.666  0.00  0.00     0.017 A 
ATOM      6  C5  UNL d   1      -3.628   1.708   3.864  0.00  0.00     0.034 A 
ATOM      7 Cl   UNL d   1      -1.707   0.848   2.201  0.00  0.00    -0.070 Cl
ATOM      8 Cl1  UNL d   1       0.353   1.948   4.470  0.00  0.00    -0.070 Cl
ENDROOT
TORSDOF 0
ENDMDL
