MODEL 1
REMARK minimizedAffinity 7.07779408
REMARK minimizedRMSD -1
REMARK  0 active torsions:
REMARK  status: ('A' for Active; 'I' for Inactive)
ROOT
ATOM      1  C   UNL d   1       0.709   1.385   5.705  0.00  0.00     0.020 A 
ATOM      2  C1  UNL d   1       0.989   0.814   4.464  0.00  0.00     0.020 A 
ATOM      3  C2  UNL d   1      -0.027   0.668   3.517  0.00  0.00     0.034 A 
ATOM      4  C3  UNL d   1      -1.328   1.094   3.810  0.00  0.00     0.017 A 
ATOM      5  C4  UNL d   1      -1.608   1.667   5.055  0.00  0.00     0.017 A 
ATOM      6  C5  UNL d   1      -0.587   1.810   6.000  0.00  0.00     0.034 A 
ATOM      7 Cl   UNL d   1      -3.189   2.216   5.489  0.00  0.00    -0.070 Cl
ATOM      8 Cl1  UNL d   1      -2.535   0.883   2.591  0.00  0.00    -0.070 Cl
ENDROOT
TORSDOF 0
ENDMDL
