MODEL 1
REMARK minimizedAffinity 12.1068077
REMARK minimizedRMSD -1
REMARK  0 active torsions:
REMARK  status: ('A' for Active; 'I' for Inactive)
ROOT
ATOM      1  C   UNL d   1      -0.011   0.631   1.990  0.00  0.00     0.020 A 
ATOM      2  C1  UNL d   1       0.980   0.724   2.967  0.00  0.00     0.020 A 
ATOM      3  C2  UNL d   1       0.694   1.319   4.198  0.00  0.00     0.034 A 
ATOM      4  C3  UNL d   1      -0.586   1.824   4.455  0.00  0.00     0.017 A 
ATOM      5  C4  UNL d   1      -1.580   1.730   3.474  0.00  0.00     0.017 A 
ATOM      6  C5  UNL d   1      -1.288   1.134   2.243  0.00  0.00     0.034 A 
ATOM      7 Cl   UNL d   1      -3.182   2.331   3.717  0.00  0.00    -0.070 Cl
ATOM      8 Cl1  UNL d   1      -0.870   2.546   5.998  0.00  0.00    -0.070 Cl
ENDROOT
TORSDOF 0
ENDMDL
