MODEL 1
REMARK minimizedAffinity 8.9756813
REMARK minimizedRMSD -1
REMARK  0 active torsions:
REMARK  status: ('A' for Active; 'I' for Inactive)
ROOT
ATOM      1  C   UNL d   1       2.402  -4.075  -3.994  0.00  0.00     0.020 A 
ATOM      2  C1  UNL d   1       3.444  -4.993  -4.122  0.00  0.00     0.020 A 
ATOM      3  C2  UNL d   1       4.259  -5.282  -3.025  0.00  0.00     0.034 A 
ATOM      4  C3  UNL d   1       4.032  -4.653  -1.795  0.00  0.00     0.017 A 
ATOM      5  C4  UNL d   1       2.985  -3.733  -1.668  0.00  0.00     0.017 A 
ATOM      6  C5  UNL d   1       2.173  -3.447  -2.770  0.00  0.00     0.034 A 
ATOM      7 Cl   UNL d   1       2.644  -2.917  -0.183  0.00  0.00    -0.070 Cl
ATOM      8 Cl1  UNL d   1       5.077  -5.059  -0.481  0.00  0.00    -0.070 Cl
ENDROOT
TORSDOF 0
ENDMDL
