MODEL 1
REMARK minimizedAffinity 14.2606506
REMARK minimizedRMSD -1
REMARK  0 active torsions:
REMARK  status: ('A' for Active; 'I' for Inactive)
ROOT
ATOM      1  C   UNL d   1      -4.099  -2.544   5.248  0.00  0.00     0.020 A 
ATOM      2  C1  UNL d   1      -4.115  -2.606   3.855  0.00  0.00     0.020 A 
ATOM      3  C2  UNL d   1      -3.802  -1.472   3.102  0.00  0.00     0.034 A 
ATOM      4  C3  UNL d   1      -3.473  -0.272   3.742  0.00  0.00     0.017 A 
ATOM      5  C4  UNL d   1      -3.457  -0.210   5.140  0.00  0.00     0.017 A 
ATOM      6  C5  UNL d   1      -3.771  -1.349   5.889  0.00  0.00     0.034 A 
ATOM      7 Cl   UNL d   1      -3.061   1.235   6.000  0.00  0.00    -0.070 Cl
ATOM      8 Cl1  UNL d   1      -3.097   1.091   2.748  0.00  0.00    -0.070 Cl
ENDROOT
TORSDOF 0
ENDMDL
