MODEL 1
REMARK minimizedAffinity 17.6192226
REMARK minimizedRMSD -1
REMARK  0 active torsions:
REMARK  status: ('A' for Active; 'I' for Inactive)
ROOT
ATOM      1  C   UNL d   1      -4.868   2.879  -5.994  0.00  0.00     0.020 A 
ATOM      2  C1  UNL d   1      -5.132   4.248  -5.979  0.00  0.00     0.020 A 
ATOM      3  C2  UNL d   1      -4.147   5.145  -5.561  0.00  0.00     0.034 A 
ATOM      4  C3  UNL d   1      -2.893   4.674  -5.155  0.00  0.00     0.017 A 
ATOM      5  C4  UNL d   1      -2.628   3.299  -5.170  0.00  0.00     0.017 A 
ATOM      6  C5  UNL d   1      -3.619   2.406  -5.590  0.00  0.00     0.034 A 
ATOM      7 Cl   UNL d   1      -1.105   2.643  -4.684  0.00  0.00    -0.070 Cl
ATOM      8 Cl1  UNL d   1      -1.721   5.839  -4.650  0.00  0.00    -0.070 Cl
ENDROOT
TORSDOF 0
ENDMDL
