MODEL 1
REMARK minimizedAffinity 17.9163513
REMARK minimizedRMSD -1
REMARK  0 active torsions:
REMARK  status: ('A' for Active; 'I' for Inactive)
ROOT
ATOM      1  C   UNL d   1      -5.998   3.957  -5.994  0.00  0.00     0.020 A 
ATOM      2  C1  UNL d   1      -5.801   5.337  -5.984  0.00  0.00     0.020 A 
ATOM      3  C2  UNL d   1      -4.505   5.857  -5.975  0.00  0.00     0.034 A 
ATOM      4  C3  UNL d   1      -3.401   4.996  -5.977  0.00  0.00     0.017 A 
ATOM      5  C4  UNL d   1      -3.600   3.611  -5.987  0.00  0.00     0.017 A 
ATOM      6  C5  UNL d   1      -4.900   3.096  -5.996  0.00  0.00     0.034 A 
ATOM      7 Cl   UNL d   1      -2.288   2.486  -5.990  0.00  0.00    -0.070 Cl
ATOM      8 Cl1  UNL d   1      -1.827   5.708  -5.966  0.00  0.00    -0.070 Cl
ENDROOT
TORSDOF 0
ENDMDL
