MODEL 1
REMARK minimizedAffinity 16.1867695
REMARK minimizedRMSD -1
REMARK  0 active torsions:
REMARK  status: ('A' for Active; 'I' for Inactive)
ROOT
ATOM      1  C   UNL d   1       0.555   2.258   5.995  0.00  0.00     0.020 A 
ATOM      2  C1  UNL d   1       1.754   1.708   5.542  0.00  0.00     0.020 A 
ATOM      3  C2  UNL d   1       1.878   1.303   4.212  0.00  0.00     0.034 A 
ATOM      4  C3  UNL d   1       0.801   1.445   3.329  0.00  0.00     0.017 A 
ATOM      5  C4  UNL d   1      -0.403   1.997   3.784  0.00  0.00     0.017 A 
ATOM      6  C5  UNL d   1      -0.521   2.401   5.118  0.00  0.00     0.034 A 
ATOM      7 Cl   UNL d   1      -1.775   2.204   2.755  0.00  0.00    -0.070 Cl
ATOM      8 Cl1  UNL d   1       1.024   0.923   1.697  0.00  0.00    -0.070 Cl
ENDROOT
TORSDOF 0
ENDMDL
