MODEL 1
REMARK minimizedAffinity 15.8217306
REMARK minimizedRMSD -1
REMARK  0 active torsions:
REMARK  status: ('A' for Active; 'I' for Inactive)
ROOT
ATOM      1  C   UNL d   1      -5.726   2.749   5.457  0.00  0.00     0.020 A 
ATOM      2  C1  UNL d   1      -5.953   2.265   4.169  0.00  0.00     0.020 A 
ATOM      3  C2  UNL d   1      -4.896   1.740   3.423  0.00  0.00     0.034 A 
ATOM      4  C3  UNL d   1      -3.606   1.697   3.965  0.00  0.00     0.017 A 
ATOM      5  C4  UNL d   1      -3.379   2.182   5.258  0.00  0.00     0.017 A 
ATOM      6  C5  UNL d   1      -4.441   2.707   6.000  0.00  0.00     0.034 A 
ATOM      7 Cl   UNL d   1      -1.815   2.162   5.994  0.00  0.00    -0.070 Cl
ATOM      8 Cl1  UNL d   1      -2.346   1.033   2.987  0.00  0.00    -0.070 Cl
ENDROOT
TORSDOF 0
ENDMDL
