MODEL 1
REMARK minimizedAffinity 19.8380184
REMARK minimizedRMSD -1
REMARK  0 active torsions:
REMARK  status: ('A' for Active; 'I' for Inactive)
ROOT
ATOM      1  C   UNL d   1       0.707  -1.395  -1.747  0.00  0.00     0.020 A 
ATOM      2  C1  UNL d   1       1.046  -2.746  -1.678  0.00  0.00     0.020 A 
ATOM      3  C2  UNL d   1       2.250  -3.134  -1.085  0.00  0.00     0.034 A 
ATOM      4  C3  UNL d   1       3.118  -2.171  -0.559  0.00  0.00     0.017 A 
ATOM      5  C4  UNL d   1       2.777  -0.815  -0.630  0.00  0.00     0.017 A 
ATOM      6  C5  UNL d   1       1.571  -0.432  -1.224  0.00  0.00     0.034 A 
ATOM      7 Cl   UNL d   1       3.798   0.431  -0.004  0.00  0.00    -0.070 Cl
ATOM      8 Cl1  UNL d   1       4.589  -2.722   0.160  0.00  0.00    -0.070 Cl
ENDROOT
TORSDOF 0
ENDMDL
