MODEL 1
REMARK minimizedAffinity 20.0689182
REMARK minimizedRMSD -1
REMARK  0 active torsions:
REMARK  status: ('A' for Active; 'I' for Inactive)
ROOT
ATOM      1  C   UNL d   1      -5.999   2.687   4.669  0.00  0.00     0.020 A 
ATOM      2  C1  UNL d   1      -5.230   3.380   5.603  0.00  0.00     0.020 A 
ATOM      3  C2  UNL d   1      -3.991   2.874   6.000  0.00  0.00     0.034 A 
ATOM      4  C3  UNL d   1      -3.517   1.671   5.463  0.00  0.00     0.017 A 
ATOM      5  C4  UNL d   1      -4.290   0.976   4.526  0.00  0.00     0.017 A 
ATOM      6  C5  UNL d   1      -5.530   1.488   4.132  0.00  0.00     0.034 A 
ATOM      7 Cl   UNL d   1      -3.772  -0.514   3.820  0.00  0.00    -0.070 Cl
ATOM      8 Cl1  UNL d   1      -1.976   1.104   6.000  0.00  0.00    -0.070 Cl
ENDROOT
TORSDOF 0
ENDMDL
