MODEL 1
REMARK minimizedAffinity 20.6939125
REMARK minimizedRMSD -1
REMARK  0 active torsions:
REMARK  status: ('A' for Active; 'I' for Inactive)
ROOT
ATOM      1  C   UNL d   1      -3.969   2.382   6.000  0.00  0.00     0.020 A 
ATOM      2  C1  UNL d   1      -4.515   3.011   4.882  0.00  0.00     0.020 A 
ATOM      3  C2  UNL d   1      -4.827   2.264   3.744  0.00  0.00     0.034 A 
ATOM      4  C3  UNL d   1      -4.593   0.884   3.721  0.00  0.00     0.017 A 
ATOM      5  C4  UNL d   1      -4.044   0.254   4.844  0.00  0.00     0.017 A 
ATOM      6  C5  UNL d   1      -3.734   1.007   5.981  0.00  0.00     0.034 A 
ATOM      7 Cl   UNL d   1      -3.727  -1.444   4.891  0.00  0.00    -0.070 Cl
ATOM      8 Cl1  UNL d   1      -5.003   0.023   2.280  0.00  0.00    -0.070 Cl
ENDROOT
TORSDOF 0
ENDMDL
