MODEL 1
REMARK minimizedAffinity -4.02101564
REMARK minimizedRMSD -1
REMARK  1 active torsions:
REMARK  status: ('A' for Active; 'I' for Inactive)
REMARK    1  A    between atoms: C1_2  and  C2_3 
ROOT
ATOM      1  C2  UNL d   1      -1.014   0.557  -0.413  0.00  0.00    -0.081 A 
ATOM      2  C3  UNL d   1      -0.727  -0.718  -0.917  0.00  0.00     0.006 A 
ATOM      3  C4  UNL d   1       0.515  -1.311  -0.679  0.00  0.00     0.002 A 
ATOM      4  C5  UNL d   1       1.488  -0.643   0.074  0.00  0.00    -0.080 A 
ATOM      5  C6  UNL d   1       2.814  -1.281   0.363  0.00  0.00     0.076 C 
ATOM      6  C7  UNL d   1       1.208   0.637   0.563  0.00  0.00     0.002 A 
ATOM      7  C8  UNL d   1      -0.034   1.231   0.324  0.00  0.00     0.006 A 
ENDROOT
BRANCH   1   8
ATOM      8  C1  UNL d   1      -2.375   1.172  -0.613  0.00  0.00     0.054 C 
ATOM      9  C   UNL d   1      -3.133   1.279   0.702  0.00  0.00     0.018 C 
ENDBRANCH   1   8
TORSDOF 1
ENDMDL
