MODEL 1
REMARK minimizedAffinity -4.67303371
REMARK minimizedRMSD -1
REMARK  1 active torsions:
REMARK  status: ('A' for Active; 'I' for Inactive)
REMARK    1  A    between atoms: C1_2  and  C2_3 
ROOT
ATOM      1  C2  UNL d   1      -0.884   0.038  -0.515  0.00  0.00    -0.081 A 
ATOM      2  C3  UNL d   1      -0.402  -1.228  -0.869  0.00  0.00     0.006 A 
ATOM      3  C4  UNL d   1       0.814  -1.690  -0.360  0.00  0.00     0.002 A 
ATOM      4  C5  UNL d   1       1.564  -0.899   0.517  0.00  0.00    -0.080 A 
ATOM      5  C6  UNL d   1       2.856  -1.396   1.094  0.00  0.00     0.076 C 
ATOM      6  C7  UNL d   1       1.090   0.373   0.857  0.00  0.00     0.002 A 
ATOM      7  C8  UNL d   1      -0.125   0.836   0.348  0.00  0.00     0.006 A 
ENDROOT
BRANCH   1   8
ATOM      8  C1  UNL d   1      -2.226   0.514  -1.010  0.00  0.00     0.054 C 
ATOM      9  C   UNL d   1      -3.283   0.424   0.081  0.00  0.00     0.018 C 
ENDBRANCH   1   8
TORSDOF 1
ENDMDL
