MODEL 1
REMARK minimizedAffinity -2.71442509
REMARK minimizedRMSD -1
REMARK  1 active torsions:
REMARK  status: ('A' for Active; 'I' for Inactive)
REMARK    1  A    between atoms: C1_2  and  C2_3 
ROOT
ATOM      1  C2  UNL d   1       2.628   0.349   0.383  0.00  0.00    -0.081 A 
ATOM      2  C3  UNL d   1       2.843  -0.942  -0.117  0.00  0.00     0.006 A 
ATOM      3  C4  UNL d   1       1.768  -1.718  -0.557  0.00  0.00     0.002 A 
ATOM      4  C5  UNL d   1       0.464  -1.216  -0.513  0.00  0.00    -0.080 A 
ATOM      5  C6  UNL d   1      -0.695  -2.028  -1.010  0.00  0.00     0.076 C 
ATOM      6  C7  UNL d   1       0.247   0.067   0.002  0.00  0.00     0.002 A 
ATOM      7  C8  UNL d   1       1.321   0.844   0.443  0.00  0.00     0.006 A 
ENDROOT
BRANCH   1   8
ATOM      8  C1  UNL d   1       3.791   1.213   0.798  0.00  0.00     0.054 C 
ATOM      9  C   UNL d   1       3.469   2.691   0.631  0.00  0.00     0.018 C 
ENDBRANCH   1   8
TORSDOF 1
ENDMDL
