MODEL 1
REMARK minimizedAffinity -2.2653265
REMARK minimizedRMSD -1
REMARK  1 active torsions:
REMARK  status: ('A' for Active; 'I' for Inactive)
REMARK    1  A    between atoms: C1_2  and  C2_3 
ROOT
ATOM      1  C2  UNL d   1       1.484  -0.485  -0.347  0.00  0.00    -0.081 A 
ATOM      2  C3  UNL d   1       1.190   0.866  -0.125  0.00  0.00     0.006 A 
ATOM      3  C4  UNL d   1      -0.136   1.305  -0.085  0.00  0.00     0.002 A 
ATOM      4  C5  UNL d   1      -1.188   0.401  -0.258  0.00  0.00    -0.080 A 
ATOM      5  C6  UNL d   1      -2.616   0.854  -0.187  0.00  0.00     0.076 C 
ATOM      6  C7  UNL d   1      -0.895  -0.946  -0.498  0.00  0.00     0.002 A 
ATOM      7  C8  UNL d   1       0.431  -1.385  -0.539  0.00  0.00     0.006 A 
ENDROOT
BRANCH   1   8
ATOM      8  C1  UNL d   1       2.910  -0.972  -0.327  0.00  0.00     0.054 C 
ATOM      9  C   UNL d   1       3.891   0.190  -0.261  0.00  0.00     0.018 C 
ENDBRANCH   1   8
TORSDOF 1
ENDMDL
