MODEL 1
REMARK minimizedAffinity -2.68060946
REMARK minimizedRMSD -1
REMARK  1 active torsions:
REMARK  status: ('A' for Active; 'I' for Inactive)
REMARK    1  A    between atoms: C1_2  and  C2_3 
ROOT
ATOM      1  C2  UNL d   1       1.432   0.798   0.586  0.00  0.00    -0.081 A 
ATOM      2  C3  UNL d   1       2.306  -0.277   0.787  0.00  0.00     0.006 A 
ATOM      3  C4  UNL d   1       1.952  -1.564   0.373  0.00  0.00     0.002 A 
ATOM      4  C5  UNL d   1       0.723  -1.795  -0.254  0.00  0.00    -0.080 A 
ATOM      5  C6  UNL d   1       0.344  -3.166  -0.730  0.00  0.00     0.076 C 
ATOM      6  C7  UNL d   1      -0.157  -0.724  -0.439  0.00  0.00     0.002 A 
ATOM      7  C8  UNL d   1       0.196   0.562  -0.025  0.00  0.00     0.006 A 
ENDROOT
BRANCH   1   8
ATOM      8  C1  UNL d   1       1.838   2.198   0.972  0.00  0.00     0.054 C 
ATOM      9  C   UNL d   1       1.043   3.238   0.196  0.00  0.00     0.018 C 
ENDBRANCH   1   8
TORSDOF 1
ENDMDL
