MODEL 1
REMARK minimizedAffinity 0.346441358
REMARK minimizedRMSD -1
REMARK  0 active torsions:
REMARK  status: ('A' for Active; 'I' for Inactive)
ROOT
ATOM      1  C   UNL d   1       5.056   5.026  -0.773  0.00  0.00    -0.002 A 
ATOM      2  C1  UNL d   1       4.093   4.026  -0.778  0.00  0.00     0.010 A 
ATOM      3  C2  UNL d   1       3.737   3.378   0.406  0.00  0.00     0.041 A 
ATOM      4  C3  UNL d   1       4.369   3.755   1.607  0.00  0.00    -0.075 A 
ATOM      5  S   UNL d   1       4.093   3.101   3.178  0.00  0.00     0.015 SA
ATOM      6  C4  UNL d   1       5.246   4.133   3.892  0.00  0.00     0.022 A 
ATOM      7  C5  UNL d   1       5.837   4.963   2.970  0.00  0.00     0.026 A 
ATOM      8  C6  UNL d   1       5.341   4.759   1.637  0.00  0.00    -0.082 A 
ATOM      9  C7  UNL d   1       5.682   5.397   0.420  0.00  0.00     0.045 A 
ENDROOT
TORSDOF 0
ENDMDL
