MODEL 1
REMARK minimizedAffinity 12.8601589
REMARK minimizedRMSD -1
REMARK  0 active torsions:
REMARK  status: ('A' for Active; 'I' for Inactive)
ROOT
ATOM      1  C   UNL d   1      -2.155  -1.505  -0.657  0.00  0.00    -0.002 A 
ATOM      2  C1  UNL d   1      -3.436  -0.981  -0.553  0.00  0.00     0.010 A 
ATOM      3  C2  UNL d   1      -3.778   0.197  -1.220  0.00  0.00     0.041 A 
ATOM      4  C3  UNL d   1      -2.801   0.846  -2.002  0.00  0.00    -0.075 A 
ATOM      5  S   UNL d   1      -2.993   2.300  -2.908  0.00  0.00     0.015 SA
ATOM      6  C4  UNL d   1      -1.379   2.260  -3.454  0.00  0.00     0.022 A 
ATOM      7  C5  UNL d   1      -0.696   1.171  -2.967  0.00  0.00     0.026 A 
ATOM      8  C6  UNL d   1      -1.505   0.337  -2.122  0.00  0.00    -0.082 A 
ATOM      9  C7  UNL d   1      -1.189  -0.858  -1.433  0.00  0.00     0.045 A 
ENDROOT
TORSDOF 0
ENDMDL
