MODEL 1
REMARK minimizedAffinity 7.10219288
REMARK minimizedRMSD -1
REMARK  0 active torsions:
REMARK  status: ('A' for Active; 'I' for Inactive)
ROOT
ATOM      1  C   UNL d   1      -0.874  -0.468  -2.412  0.00  0.00    -0.002 A 
ATOM      2  C1  UNL d   1      -2.103  -0.848  -1.892  0.00  0.00     0.010 A 
ATOM      3  C2  UNL d   1      -2.212  -1.283  -0.570  0.00  0.00     0.041 A 
ATOM      4  C3  UNL d   1      -1.053  -1.327   0.231  0.00  0.00    -0.075 A 
ATOM      5  S   UNL d   1      -0.946  -1.823   1.878  0.00  0.00     0.015 SA
ATOM      6  C4  UNL d   1       0.734  -1.541   1.932  0.00  0.00     0.022 A 
ATOM      7  C5  UNL d   1       1.218  -1.080   0.731  0.00  0.00     0.026 A 
ATOM      8  C6  UNL d   1       0.196  -0.948  -0.269  0.00  0.00    -0.082 A 
ATOM      9  C7  UNL d   1       0.273  -0.513  -1.615  0.00  0.00     0.045 A 
ENDROOT
TORSDOF 0
ENDMDL
