MODEL 1
REMARK minimizedAffinity -0.856670737
REMARK minimizedRMSD -1
REMARK  0 active torsions:
REMARK  status: ('A' for Active; 'I' for Inactive)
ROOT
ATOM      1  C   UNL d   1      -1.612   1.780  -3.088  0.00  0.00    -0.002 A 
ATOM      2  C1  UNL d   1      -0.480   0.996  -2.916  0.00  0.00     0.010 A 
ATOM      3  C2  UNL d   1      -0.444   0.007  -1.931  0.00  0.00     0.041 A 
ATOM      4  C3  UNL d   1      -1.577  -0.184  -1.116  0.00  0.00    -0.075 A 
ATOM      5  S   UNL d   1      -1.762  -1.336   0.154  0.00  0.00     0.015 SA
ATOM      6  C4  UNL d   1      -3.348  -0.815   0.497  0.00  0.00     0.022 A 
ATOM      7  C5  UNL d   1      -3.743   0.212  -0.327  0.00  0.00     0.026 A 
ATOM      8  C6  UNL d   1      -2.729   0.592  -1.271  0.00  0.00    -0.082 A 
ATOM      9  C7  UNL d   1      -2.733   1.588  -2.277  0.00  0.00     0.045 A 
ENDROOT
TORSDOF 0
ENDMDL
