MODEL 1
REMARK minimizedAffinity 10.2645473
REMARK minimizedRMSD -1
REMARK  0 active torsions:
REMARK  status: ('A' for Active; 'I' for Inactive)
ROOT
ATOM      1  C   UNL d   1      -2.995  -1.388  -1.142  0.00  0.00    -0.002 A 
ATOM      2  C1  UNL d   1      -2.020  -0.591  -1.725  0.00  0.00     0.010 A 
ATOM      3  C2  UNL d   1      -0.751  -0.488  -1.152  0.00  0.00     0.041 A 
ATOM      4  C3  UNL d   1      -0.475  -1.208   0.026  0.00  0.00    -0.075 A 
ATOM      5  S   UNL d   1       1.009  -1.235   0.904  0.00  0.00     0.015 SA
ATOM      6  C4  UNL d   1       0.384  -2.307   2.073  0.00  0.00     0.022 A 
ATOM      7  C5  UNL d   1      -0.923  -2.646   1.816  0.00  0.00     0.026 A 
ATOM      8  C6  UNL d   1      -1.440  -2.018   0.632  0.00  0.00    -0.082 A 
ATOM      9  C7  UNL d   1      -2.717  -2.101   0.027  0.00  0.00     0.045 A 
ENDROOT
TORSDOF 0
ENDMDL
