MODEL 1
REMARK minimizedAffinity -5.72047424
REMARK minimizedRMSD -1
REMARK  0 active torsions:
REMARK  status: ('A' for Active; 'I' for Inactive)
ROOT
ATOM      1  C   UNL d   1      -2.419  -0.551  -1.167  0.00  0.00    -0.002 A 
ATOM      2  C1  UNL d   1      -2.574  -1.033   0.125  0.00  0.00     0.010 A 
ATOM      3  C2  UNL d   1      -1.561  -0.866   1.072  0.00  0.00     0.041 A 
ATOM      4  C3  UNL d   1      -0.379  -0.199   0.695  0.00  0.00    -0.075 A 
ATOM      5  S   UNL d   1       0.995   0.121   1.686  0.00  0.00     0.015 SA
ATOM      6  C4  UNL d   1       1.820   0.906   0.418  0.00  0.00     0.022 A 
ATOM      7  C5  UNL d   1       1.080   0.931  -0.741  0.00  0.00     0.026 A 
ATOM      8  C6  UNL d   1      -0.200   0.295  -0.600  0.00  0.00    -0.082 A 
ATOM      9  C7  UNL d   1      -1.244   0.110  -1.537  0.00  0.00     0.045 A 
ENDROOT
TORSDOF 0
ENDMDL
