MODEL 1
REMARK minimizedAffinity 2.10160232
REMARK minimizedRMSD -1
REMARK  0 active torsions:
REMARK  status: ('A' for Active; 'I' for Inactive)
ROOT
ATOM      1  C   UNL d   1      -1.258  -1.767   2.370  0.00  0.00    -0.002 A 
ATOM      2  C1  UNL d   1      -1.486  -0.593   3.073  0.00  0.00     0.010 A 
ATOM      3  C2  UNL d   1      -0.613   0.490   2.949  0.00  0.00     0.041 A 
ATOM      4  C3  UNL d   1       0.503   0.371   2.097  0.00  0.00    -0.075 A 
ATOM      5  S   UNL d   1       1.706   1.567   1.788  0.00  0.00     0.015 SA
ATOM      6  C4  UNL d   1       2.550   0.546   0.714  0.00  0.00     0.022 A 
ATOM      7  C5  UNL d   1       1.943  -0.680   0.584  0.00  0.00     0.026 A 
ATOM      8  C6  UNL d   1       0.752  -0.801   1.378  0.00  0.00    -0.082 A 
ATOM      9  C7  UNL d   1      -0.151  -1.881   1.526  0.00  0.00     0.045 A 
ENDROOT
TORSDOF 0
ENDMDL
