MODEL 1
REMARK minimizedAffinity 5.75007486
REMARK minimizedRMSD -1
REMARK  0 active torsions:
REMARK  status: ('A' for Active; 'I' for Inactive)
ROOT
ATOM      1  C   UNL d   1       1.777  -5.145  -0.602  0.00  0.00     0.023 A 
ATOM      2  C1  UNL d   1       1.884  -6.000  -1.699  0.00  0.00     0.003 A 
ATOM      3  C2  UNL d   1       0.953  -5.926  -2.737  0.00  0.00     0.048 A 
ATOM      4  C3  UNL d   1      -0.082  -4.994  -2.672  0.00  0.00     0.023 A 
ATOM      5  C4  UNL d   1      -0.192  -4.136  -1.577  0.00  0.00     0.048 A 
ATOM      6  C5  UNL d   1       0.740  -4.214  -0.541  0.00  0.00     0.003 A 
ATOM      7  I   UNL d   1      -1.468  -4.882  -4.216  0.00  0.00    -0.146 I 
ENDROOT
TORSDOF 0
ENDMDL
