MODEL 1
REMARK minimizedAffinity -0.0930749103
REMARK minimizedRMSD -1
REMARK  0 active torsions:
REMARK  status: ('A' for Active; 'I' for Inactive)
ROOT
ATOM      1  C   UNL d   1      -0.877   4.787  -1.819  0.00  0.00     0.023 A 
ATOM      2  C1  UNL d   1      -1.794   4.877  -0.771  0.00  0.00     0.003 A 
ATOM      3  C2  UNL d   1      -1.575   4.170   0.413  0.00  0.00     0.048 A 
ATOM      4  C3  UNL d   1      -0.437   3.375   0.543  0.00  0.00     0.023 A 
ATOM      5  C4  UNL d   1       0.483   3.282  -0.502  0.00  0.00     0.048 A 
ATOM      6  C5  UNL d   1       0.260   3.990  -1.684  0.00  0.00     0.003 A 
ATOM      7  I   UNL d   1      -0.110   2.322   2.305  0.00  0.00    -0.146 I 
ENDROOT
TORSDOF 0
ENDMDL
