MODEL 1
REMARK minimizedAffinity 8.32535648
REMARK minimizedRMSD -1
REMARK  0 active torsions:
REMARK  status: ('A' for Active; 'I' for Inactive)
ROOT
ATOM      1  C   UNL d   1      -5.290   3.496  -1.618  0.00  0.00     0.023 A 
ATOM      2  C1  UNL d   1      -5.967   4.707  -1.768  0.00  0.00     0.003 A 
ATOM      3  C2  UNL d   1      -5.977   5.354  -3.005  0.00  0.00     0.048 A 
ATOM      4  C3  UNL d   1      -5.310   4.784  -4.089  0.00  0.00     0.023 A 
ATOM      5  C4  UNL d   1      -4.633   3.572  -3.944  0.00  0.00     0.048 A 
ATOM      6  C5  UNL d   1      -4.624   2.929  -2.704  0.00  0.00     0.003 A 
ATOM      7  I   UNL d   1      -5.325   5.744  -5.932  0.00  0.00    -0.146 I 
ENDROOT
TORSDOF 0
ENDMDL
