MODEL 1
REMARK minimizedAffinity 13.486887
REMARK minimizedRMSD -1
REMARK  0 active torsions:
REMARK  status: ('A' for Active; 'I' for Inactive)
ROOT
ATOM      1  C   UNL d   1      -5.978   3.832  -1.031  0.00  0.00     0.023 A 
ATOM      2  C1  UNL d   1      -5.991   4.085  -2.403  0.00  0.00     0.003 A 
ATOM      3  C2  UNL d   1      -5.995   3.023  -3.310  0.00  0.00     0.048 A 
ATOM      4  C3  UNL d   1      -5.987   1.711  -2.839  0.00  0.00     0.023 A 
ATOM      5  C4  UNL d   1      -5.975   1.453  -1.467  0.00  0.00     0.048 A 
ATOM      6  C5  UNL d   1      -5.970   2.518  -0.564  0.00  0.00     0.003 A 
ATOM      7  I   UNL d   1      -5.993   0.129  -4.187  0.00  0.00    -0.146 I 
ENDROOT
TORSDOF 0
ENDMDL
