MODEL 1
REMARK minimizedAffinity 1.21426523
REMARK minimizedRMSD -1
REMARK  0 active torsions:
REMARK  status: ('A' for Active; 'I' for Inactive)
ROOT
ATOM      1  C   UNL d   1       0.054   2.634   0.973  0.00  0.00     0.023 A 
ATOM      2  C1  UNL d   1      -1.088   3.376   1.278  0.00  0.00     0.003 A 
ATOM      3  C2  UNL d   1      -1.554   4.342   0.385  0.00  0.00     0.048 A 
ATOM      4  C3  UNL d   1      -0.875   4.562  -0.813  0.00  0.00     0.023 A 
ATOM      5  C4  UNL d   1       0.268   3.822  -1.123  0.00  0.00     0.048 A 
ATOM      6  C5  UNL d   1       0.731   2.857  -0.227  0.00  0.00     0.003 A 
ATOM      7  I   UNL d   1      -1.567   6.000  -2.144  0.00  0.00    -0.146 I 
ENDROOT
TORSDOF 0
ENDMDL
