MODEL 1
REMARK minimizedAffinity 6.78574991
REMARK minimizedRMSD -1
REMARK  0 active torsions:
REMARK  status: ('A' for Active; 'I' for Inactive)
ROOT
ATOM      1  C   UNL d   1       0.579   0.430   4.064  0.00  0.00     0.020 A 
ATOM      2  C1  UNL d   1       1.568  -0.251   3.356  0.00  0.00     0.020 A 
ATOM      3  C2  UNL d   1       1.241  -0.942   2.188  0.00  0.00     0.034 A 
ATOM      4  C3  UNL d   1      -0.080  -0.954   1.724  0.00  0.00     0.017 A 
ATOM      5  C4  UNL d   1      -1.072  -0.270   2.435  0.00  0.00     0.017 A 
ATOM      6  C5  UNL d   1      -0.739   0.421   3.604  0.00  0.00     0.034 A 
ATOM      7 Cl   UNL d   1      -2.724  -0.239   1.925  0.00  0.00    -0.070 Cl
ATOM      8 Cl1  UNL d   1      -0.414  -1.829   0.272  0.00  0.00    -0.070 Cl
ENDROOT
TORSDOF 0
ENDMDL
