MODEL 1
REMARK minimizedAffinity 7.57288122
REMARK minimizedRMSD -1
REMARK  0 active torsions:
REMARK  status: ('A' for Active; 'I' for Inactive)
ROOT
ATOM      1  C   UNL d   1      -0.480  -1.949   3.016  0.00  0.00     0.020 A 
ATOM      2  C1  UNL d   1      -0.169  -0.644   2.635  0.00  0.00     0.020 A 
ATOM      3  C2  UNL d   1       0.960  -0.014   3.160  0.00  0.00     0.034 A 
ATOM      4  C3  UNL d   1       1.784  -0.688   4.070  0.00  0.00     0.017 A 
ATOM      5  C4  UNL d   1       1.471  -1.997   4.452  0.00  0.00     0.017 A 
ATOM      6  C5  UNL d   1       0.339  -2.624   3.923  0.00  0.00     0.034 A 
ATOM      7 Cl   UNL d   1       2.440  -2.893   5.569  0.00  0.00    -0.070 Cl
ATOM      8 Cl1  UNL d   1       3.165   0.153   4.679  0.00  0.00    -0.070 Cl
ENDROOT
TORSDOF 0
ENDMDL
