MODEL 1
REMARK minimizedAffinity 11.160717
REMARK minimizedRMSD -1
REMARK  0 active torsions:
REMARK  status: ('A' for Active; 'I' for Inactive)
ROOT
ATOM      1  C   UNL d   1       0.039   0.413   2.164  0.00  0.00     0.020 A 
ATOM      2  C1  UNL d   1      -0.698  -0.770   2.119  0.00  0.00     0.020 A 
ATOM      3  C2  UNL d   1      -0.284  -1.879   2.860  0.00  0.00     0.034 A 
ATOM      4  C3  UNL d   1       0.870  -1.808   3.648  0.00  0.00     0.017 A 
ATOM      5  C4  UNL d   1       1.610  -0.621   3.692  0.00  0.00     0.017 A 
ATOM      6  C5  UNL d   1       1.191   0.487   2.948  0.00  0.00     0.034 A 
ATOM      7 Cl   UNL d   1       3.045  -0.457   4.641  0.00  0.00    -0.070 Cl
ATOM      8 Cl1  UNL d   1       1.323  -3.218   4.538  0.00  0.00    -0.070 Cl
ENDROOT
TORSDOF 0
ENDMDL
