MODEL 1
REMARK minimizedAffinity 11.1187544
REMARK minimizedRMSD -1
REMARK  0 active torsions:
REMARK  status: ('A' for Active; 'I' for Inactive)
ROOT
ATOM      1  C   UNL d   1      -1.126  -4.424  -5.998  0.00  0.00     0.020 A 
ATOM      2  C1  UNL d   1      -2.246  -4.246  -5.187  0.00  0.00     0.020 A 
ATOM      3  C2  UNL d   1      -2.237  -3.271  -4.187  0.00  0.00     0.034 A 
ATOM      4  C3  UNL d   1      -1.105  -2.470  -3.996  0.00  0.00     0.017 A 
ATOM      5  C4  UNL d   1       0.019  -2.649  -4.811  0.00  0.00     0.017 A 
ATOM      6  C5  UNL d   1       0.004  -3.627  -5.811  0.00  0.00     0.034 A 
ATOM      7 Cl   UNL d   1       1.452  -1.699  -4.635  0.00  0.00    -0.070 Cl
ATOM      8 Cl1  UNL d   1      -1.163  -1.284  -2.741  0.00  0.00    -0.070 Cl
ENDROOT
TORSDOF 0
ENDMDL
