MODEL 1
REMARK minimizedAffinity 12.8272753
REMARK minimizedRMSD -1
REMARK  0 active torsions:
REMARK  status: ('A' for Active; 'I' for Inactive)
ROOT
ATOM      1  C   UNL d   1       0.108   1.949   4.127  0.00  0.00     0.020 A 
ATOM      2  C1  UNL d   1      -1.038   2.126   3.353  0.00  0.00     0.020 A 
ATOM      3  C2  UNL d   1      -1.538   1.067   2.593  0.00  0.00     0.034 A 
ATOM      4  C3  UNL d   1      -0.892  -0.175   2.606  0.00  0.00     0.017 A 
ATOM      5  C4  UNL d   1       0.258  -0.352   3.384  0.00  0.00     0.017 A 
ATOM      6  C5  UNL d   1       0.754   0.712   4.142  0.00  0.00     0.034 A 
ATOM      7 Cl   UNL d   1       1.109  -1.855   3.450  0.00  0.00    -0.070 Cl
ATOM      8 Cl1  UNL d   1      -1.566  -1.441   1.642  0.00  0.00    -0.070 Cl
ENDROOT
TORSDOF 0
ENDMDL
