MODEL 1
REMARK minimizedAffinity 15.5234127
REMARK minimizedRMSD -1
REMARK  0 active torsions:
REMARK  status: ('A' for Active; 'I' for Inactive)
ROOT
ATOM      1  C   UNL d   1      -1.140  -4.514  -5.999  0.00  0.00     0.020 A 
ATOM      2  C1  UNL d   1      -2.107  -4.957  -5.098  0.00  0.00     0.020 A 
ATOM      3  C2  UNL d   1      -2.292  -4.288  -3.887  0.00  0.00     0.034 A 
ATOM      4  C3  UNL d   1      -1.508  -3.171  -3.573  0.00  0.00     0.017 A 
ATOM      5  C4  UNL d   1      -0.538  -2.727  -4.478  0.00  0.00     0.017 A 
ATOM      6  C5  UNL d   1      -0.357  -3.401  -5.690  0.00  0.00     0.034 A 
ATOM      7 Cl   UNL d   1       0.468  -1.357  -4.161  0.00  0.00    -0.070 Cl
ATOM      8 Cl1  UNL d   1      -1.791  -2.392  -2.057  0.00  0.00    -0.070 Cl
ENDROOT
TORSDOF 0
ENDMDL
