MODEL 1
REMARK minimizedAffinity 13.2482023
REMARK minimizedRMSD -1
REMARK  0 active torsions:
REMARK  status: ('A' for Active; 'I' for Inactive)
ROOT
ATOM      1  C   UNL d   1       0.738   0.289  -4.307  0.00  0.00     0.020 A 
ATOM      2  C1  UNL d   1       0.508  -1.066  -4.069  0.00  0.00     0.020 A 
ATOM      3  C2  UNL d   1       1.577  -1.964  -4.058  0.00  0.00     0.034 A 
ATOM      4  C3  UNL d   1       2.881  -1.509  -4.286  0.00  0.00     0.017 A 
ATOM      5  C4  UNL d   1       3.111  -0.149  -4.525  0.00  0.00     0.017 A 
ATOM      6  C5  UNL d   1       2.037   0.746  -4.534  0.00  0.00     0.034 A 
ATOM      7 Cl   UNL d   1       4.692   0.487  -4.814  0.00  0.00    -0.070 Cl
ATOM      8 Cl1  UNL d   1       4.155  -2.676  -4.257  0.00  0.00    -0.070 Cl
ENDROOT
TORSDOF 0
ENDMDL
