MODEL 1
REMARK minimizedAffinity 6.12762499
REMARK minimizedRMSD -1
REMARK  0 active torsions:
REMARK  status: ('A' for Active; 'I' for Inactive)
ROOT
ATOM      1  C   UNL d   1       1.106  -1.749   2.964  0.00  0.00     0.020 A 
ATOM      2  C1  UNL d   1       0.361  -1.326   1.864  0.00  0.00     0.020 A 
ATOM      3  C2  UNL d   1      -0.288  -0.089   1.894  0.00  0.00     0.034 A 
ATOM      4  C3  UNL d   1      -0.193   0.728   3.026  0.00  0.00     0.017 A 
ATOM      5  C4  UNL d   1       0.556   0.302   4.130  0.00  0.00     0.017 A 
ATOM      6  C5  UNL d   1       1.203  -0.937   4.094  0.00  0.00     0.034 A 
ATOM      7 Cl   UNL d   1       0.719   1.255   5.562  0.00  0.00    -0.070 Cl
ATOM      8 Cl1  UNL d   1      -1.020   2.244   2.994  0.00  0.00    -0.070 Cl
ENDROOT
TORSDOF 0
ENDMDL
