MODEL 1
REMARK minimizedAffinity 14.5774899
REMARK minimizedRMSD -1
REMARK  0 active torsions:
REMARK  status: ('A' for Active; 'I' for Inactive)
ROOT
ATOM      1  C   UNL d   1       1.108   0.020   3.004  0.00  0.00     0.020 A 
ATOM      2  C1  UNL d   1       1.080  -1.370   2.902  0.00  0.00     0.020 A 
ATOM      3  C2  UNL d   1      -0.094  -2.018   2.512  0.00  0.00     0.034 A 
ATOM      4  C3  UNL d   1      -1.245  -1.276   2.223  0.00  0.00     0.017 A 
ATOM      5  C4  UNL d   1      -1.216   0.120   2.326  0.00  0.00     0.017 A 
ATOM      6  C5  UNL d   1      -0.038   0.764   2.717  0.00  0.00     0.034 A 
ATOM      7 Cl   UNL d   1      -2.596   1.103   1.986  0.00  0.00    -0.070 Cl
ATOM      8 Cl1  UNL d   1      -2.662  -2.143   1.747  0.00  0.00    -0.070 Cl
ENDROOT
TORSDOF 0
ENDMDL
