MODEL 1
REMARK minimizedAffinity -0.53250289
REMARK minimizedRMSD -1
REMARK  0 active torsions:
REMARK  status: ('A' for Active; 'I' for Inactive)
ROOT
ATOM      1  C   UNL d   1       2.859  -2.394  -0.878  0.00  0.00     0.020 A 
ATOM      2  C1  UNL d   1       3.932  -1.704  -1.442  0.00  0.00     0.020 A 
ATOM      3  C2  UNL d   1       4.146  -0.363  -1.119  0.00  0.00     0.034 A 
ATOM      4  C3  UNL d   1       3.287   0.293  -0.230  0.00  0.00     0.017 A 
ATOM      5  C4  UNL d   1       2.211  -0.400   0.336  0.00  0.00     0.017 A 
ATOM      6  C5  UNL d   1       2.001  -1.743   0.009  0.00  0.00     0.034 A 
ATOM      7 Cl   UNL d   1       1.108   0.342   1.441  0.00  0.00    -0.070 Cl
ATOM      8 Cl1  UNL d   1       3.612   1.953   0.125  0.00  0.00    -0.070 Cl
ENDROOT
TORSDOF 0
ENDMDL
