MODEL 1
REMARK minimizedAffinity 5.8443346
REMARK minimizedRMSD -1
REMARK  0 active torsions:
REMARK  status: ('A' for Active; 'I' for Inactive)
ROOT
ATOM      1  C   UNL d   1       1.502  -2.688   1.093  0.00  0.00     0.020 A 
ATOM      2  C1  UNL d   1       1.071  -3.494   0.040  0.00  0.00     0.020 A 
ATOM      3  C2  UNL d   1       1.509  -3.234  -1.261  0.00  0.00     0.034 A 
ATOM      4  C3  UNL d   1       2.379  -2.168  -1.511  0.00  0.00     0.017 A 
ATOM      5  C4  UNL d   1       2.811  -1.360  -0.453  0.00  0.00     0.017 A 
ATOM      6  C5  UNL d   1       2.370  -1.624   0.848  0.00  0.00     0.034 A 
ATOM      7 Cl   UNL d   1       3.885  -0.026  -0.683  0.00  0.00    -0.070 Cl
ATOM      8 Cl1  UNL d   1       2.880  -1.905  -3.144  0.00  0.00    -0.070 Cl
ENDROOT
TORSDOF 0
ENDMDL
