MODEL 1
REMARK minimizedAffinity 1.7894274
REMARK minimizedRMSD -1
REMARK  0 active torsions:
REMARK  status: ('A' for Active; 'I' for Inactive)
ROOT
ATOM      1  C   UNL d   1      -0.774   0.535   3.580  0.00  0.00     0.020 A 
ATOM      2  C1  UNL d   1       0.411  -0.175   3.768  0.00  0.00     0.020 A 
ATOM      3  C2  UNL d   1       1.308  -0.329   2.709  0.00  0.00     0.034 A 
ATOM      4  C3  UNL d   1       1.023   0.229   1.457  0.00  0.00     0.017 A 
ATOM      5  C4  UNL d   1      -0.167   0.942   1.270  0.00  0.00     0.017 A 
ATOM      6  C5  UNL d   1      -1.062   1.093   2.333  0.00  0.00     0.034 A 
ATOM      7 Cl   UNL d   1      -0.588   1.659  -0.245  0.00  0.00    -0.070 Cl
ATOM      8 Cl1  UNL d   1       2.178  -0.000   0.193  0.00  0.00    -0.070 Cl
ENDROOT
TORSDOF 0
ENDMDL
