MODEL 1
REMARK minimizedAffinity 1.67600977
REMARK minimizedRMSD -1
REMARK  0 active torsions:
REMARK  status: ('A' for Active; 'I' for Inactive)
ROOT
ATOM      1  C   UNL d   1      -1.845   1.599   1.176  0.00  0.00     0.020 A 
ATOM      2  C1  UNL d   1      -1.333   1.551  -0.119  0.00  0.00     0.020 A 
ATOM      3  C2  UNL d   1      -0.020   1.128  -0.335  0.00  0.00     0.034 A 
ATOM      4  C3  UNL d   1       0.786   0.751   0.746  0.00  0.00     0.017 A 
ATOM      5  C4  UNL d   1       0.270   0.801   2.046  0.00  0.00     0.017 A 
ATOM      6  C5  UNL d   1      -1.046   1.225   2.257  0.00  0.00     0.034 A 
ATOM      7 Cl   UNL d   1       1.203   0.352   3.431  0.00  0.00    -0.070 Cl
ATOM      8 Cl1  UNL d   1       2.400   0.238   0.406  0.00  0.00    -0.070 Cl
ENDROOT
TORSDOF 0
ENDMDL
