MODEL 1
REMARK minimizedAffinity 8.06374741
REMARK minimizedRMSD -1
REMARK  0 active torsions:
REMARK  status: ('A' for Active; 'I' for Inactive)
ROOT
ATOM      1  C   UNL d   1       4.102   0.051  -1.130  0.00  0.00     0.020 A 
ATOM      2  C1  UNL d   1       3.912   1.121  -0.256  0.00  0.00     0.020 A 
ATOM      3  C2  UNL d   1       2.964   1.028   0.765  0.00  0.00     0.034 A 
ATOM      4  C3  UNL d   1       2.202  -0.136   0.915  0.00  0.00     0.017 A 
ATOM      5  C4  UNL d   1       2.394  -1.210   0.038  0.00  0.00     0.017 A 
ATOM      6  C5  UNL d   1       3.345  -1.112  -0.983  0.00  0.00     0.034 A 
ATOM      7 Cl   UNL d   1       1.492  -2.679   0.160  0.00  0.00    -0.070 Cl
ATOM      8 Cl1  UNL d   1       1.048  -0.182   2.200  0.00  0.00    -0.070 Cl
ENDROOT
TORSDOF 0
ENDMDL
