MODEL 1
REMARK minimizedAffinity 9.97437
REMARK minimizedRMSD -1
REMARK  0 active torsions:
REMARK  status: ('A' for Active; 'I' for Inactive)
ROOT
ATOM      1  C   UNL d   1       1.305  -3.216   0.337  0.00  0.00     0.020 A 
ATOM      2  C1  UNL d   1       1.630  -2.295   1.332  0.00  0.00     0.020 A 
ATOM      3  C2  UNL d   1       2.346  -1.141   1.008  0.00  0.00     0.034 A 
ATOM      4  C3  UNL d   1       2.740  -0.905  -0.314  0.00  0.00     0.017 A 
ATOM      5  C4  UNL d   1       2.413  -1.830  -1.312  0.00  0.00     0.017 A 
ATOM      6  C5  UNL d   1       1.696  -2.984  -0.982  0.00  0.00     0.034 A 
ATOM      7 Cl   UNL d   1       2.864  -1.607  -2.966  0.00  0.00    -0.070 Cl
ATOM      8 Cl1  UNL d   1       3.622   0.544  -0.643  0.00  0.00    -0.070 Cl
ENDROOT
TORSDOF 0
ENDMDL
