MODEL 1
REMARK minimizedAffinity 0.965067208
REMARK minimizedRMSD -1
REMARK  0 active torsions:
REMARK  status: ('A' for Active; 'I' for Inactive)
ROOT
ATOM      1  C   UNL d   1       0.664   0.113   1.571  0.00  0.00     0.124 A 
ATOM      2  C1  UNL d   1       1.013  -0.035   0.236  0.00  0.00     0.062 A 
ATOM      3  C2  UNL d   1       0.750   0.985  -0.673  0.00  0.00     0.162 A 
ATOM      4  C3  UNL d   1       0.135   2.164  -0.251  0.00  0.00    -0.034 A 
ATOM      5  C4  UNL d   1      -0.214   2.305   1.093  0.00  0.00     0.162 A 
ATOM      6  C5  UNL d   1       0.051   1.283   1.999  0.00  0.00     0.062 A 
ATOM      7  F   UNL d   1      -0.287   1.428   3.288  0.00  0.00    -0.097 F 
ATOM      8  F1  UNL d   1      -0.806   3.425   1.534  0.00  0.00    -0.096 F 
ATOM      9  I   UNL d   1      -0.260   3.692  -1.608  0.00  0.00    -0.060 I 
ATOM     10  F2  UNL d   1       1.098   0.815  -1.957  0.00  0.00    -0.096 F 
ATOM     11  F3  UNL d   1       1.604  -1.164  -0.179  0.00  0.00    -0.097 F 
ATOM     12  F4  UNL d   1       0.917  -0.870   2.444  0.00  0.00    -0.092 F 
ENDROOT
TORSDOF 0
ENDMDL
