MODEL 1
REMARK minimizedAffinity 5.79573631
REMARK minimizedRMSD -1
REMARK  0 active torsions:
REMARK  status: ('A' for Active; 'I' for Inactive)
ROOT
ATOM      1  C   UNL d   1       0.044   1.968   0.840  0.00  0.00     0.124 A 
ATOM      2  C1  UNL d   1       0.400   1.038   1.807  0.00  0.00     0.062 A 
ATOM      3  C2  UNL d   1       0.587  -0.297   1.460  0.00  0.00     0.162 A 
ATOM      4  C3  UNL d   1       0.418  -0.711   0.138  0.00  0.00    -0.034 A 
ATOM      5  C4  UNL d   1       0.059   0.230  -0.829  0.00  0.00     0.162 A 
ATOM      6  C5  UNL d   1      -0.126   1.563  -0.477  0.00  0.00     0.062 A 
ATOM      7  F   UNL d   1      -0.470   2.460  -1.413  0.00  0.00    -0.097 F 
ATOM      8  F1  UNL d   1      -0.111  -0.133  -2.109  0.00  0.00    -0.096 F 
ATOM      9  I   UNL d   1       0.697  -2.706  -0.385  0.00  0.00    -0.060 I 
ATOM     10  F2  UNL d   1       0.930  -1.174   2.415  0.00  0.00    -0.096 F 
ATOM     11  F3  UNL d   1       0.564   1.426   3.080  0.00  0.00    -0.097 F 
ATOM     12  F4  UNL d   1      -0.136   3.251   1.177  0.00  0.00    -0.092 F 
ENDROOT
TORSDOF 0
ENDMDL
