MODEL 1
REMARK minimizedAffinity 0.0166438259
REMARK minimizedRMSD -1
REMARK  0 active torsions:
REMARK  status: ('A' for Active; 'I' for Inactive)
ROOT
ATOM      1  C   UNL d   1      -0.132   2.313   0.558  0.00  0.00     0.124 A 
ATOM      2  C1  UNL d   1      -0.180   1.980  -0.789  0.00  0.00     0.062 A 
ATOM      3  C2  UNL d   1      -0.027   0.656  -1.188  0.00  0.00     0.162 A 
ATOM      4  C3  UNL d   1       0.175  -0.347  -0.240  0.00  0.00    -0.034 A 
ATOM      5  C4  UNL d   1       0.223  -0.005   1.113  0.00  0.00     0.162 A 
ATOM      6  C5  UNL d   1       0.069   1.320   1.507  0.00  0.00     0.062 A 
ATOM      7  F   UNL d   1       0.116   1.640   2.809  0.00  0.00    -0.097 F 
ATOM      8  F1  UNL d   1       0.416  -0.944   2.051  0.00  0.00    -0.096 F 
ATOM      9  I   UNL d   1       0.405  -2.328  -0.834  0.00  0.00    -0.060 I 
ATOM     10  F2  UNL d   1      -0.078   0.364  -2.497  0.00  0.00    -0.096 F 
ATOM     11  F3  UNL d   1      -0.374   2.937  -1.707  0.00  0.00    -0.097 F 
ATOM     12  F4  UNL d   1      -0.279   3.588   0.940  0.00  0.00    -0.092 F 
ENDROOT
TORSDOF 0
ENDMDL
