MODEL 1
REMARK minimizedAffinity 3.09828997
REMARK minimizedRMSD -1
REMARK  0 active torsions:
REMARK  status: ('A' for Active; 'I' for Inactive)
ROOT
ATOM      1  C   UNL d   1       0.935   0.917   1.814  0.00  0.00     0.124 A 
ATOM      2  C1  UNL d   1       1.771   0.202   0.968  0.00  0.00     0.062 A 
ATOM      3  C2  UNL d   1       1.242  -0.748   0.099  0.00  0.00     0.162 A 
ATOM      4  C3  UNL d   1      -0.131  -0.989   0.071  0.00  0.00    -0.034 A 
ATOM      5  C4  UNL d   1      -0.966  -0.267   0.927  0.00  0.00     0.162 A 
ATOM      6  C5  UNL d   1      -0.432   0.681   1.793  0.00  0.00     0.062 A 
ATOM      7  F   UNL d   1      -1.242   1.370   2.610  0.00  0.00    -0.097 F 
ATOM      8  F1  UNL d   1      -2.291  -0.474   0.926  0.00  0.00    -0.096 F 
ATOM      9  I   UNL d   1      -0.926  -2.408  -1.226  0.00  0.00    -0.060 I 
ATOM     10  F2  UNL d   1       2.074  -1.423  -0.708  0.00  0.00    -0.096 F 
ATOM     11  F3  UNL d   1       3.093   0.427   0.987  0.00  0.00    -0.097 F 
ATOM     12  F4  UNL d   1       1.447   1.829   2.650  0.00  0.00    -0.092 F 
ENDROOT
TORSDOF 0
ENDMDL
