MODEL 1
REMARK minimizedAffinity -1.09813356
REMARK minimizedRMSD -1
REMARK  0 active torsions:
REMARK  status: ('A' for Active; 'I' for Inactive)
ROOT
ATOM      1  C   UNL d   1      -0.168   1.411   0.736  0.00  0.00     0.124 A 
ATOM      2  C1  UNL d   1      -0.212   0.441   1.728  0.00  0.00     0.062 A 
ATOM      3  C2  UNL d   1      -0.265  -0.907   1.386  0.00  0.00     0.162 A 
ATOM      4  C3  UNL d   1      -0.275  -1.294   0.046  0.00  0.00    -0.034 A 
ATOM      5  C4  UNL d   1      -0.232  -0.313  -0.946  0.00  0.00     0.162 A 
ATOM      6  C5  UNL d   1      -0.179   1.034  -0.599  0.00  0.00     0.062 A 
ATOM      7  F   UNL d   1      -0.137   1.969  -1.559  0.00  0.00    -0.097 F 
ATOM      8  F1  UNL d   1      -0.240  -0.649  -2.244  0.00  0.00    -0.096 F 
ATOM      9  I   UNL d   1      -0.355  -3.309  -0.469  0.00  0.00    -0.060 I 
ATOM     10  F2  UNL d   1      -0.306  -1.823   2.365  0.00  0.00    -0.096 F 
ATOM     11  F3  UNL d   1      -0.203   0.803   3.019  0.00  0.00    -0.097 F 
ATOM     12  F4  UNL d   1      -0.118   2.708   1.068  0.00  0.00    -0.092 F 
ENDROOT
TORSDOF 0
ENDMDL
