MODEL 1
REMARK minimizedAffinity 2.11922169
REMARK minimizedRMSD -1
REMARK  0 active torsions:
REMARK  status: ('A' for Active; 'I' for Inactive)
ROOT
ATOM      1  C   UNL d   1       0.086   2.510  -0.059  0.00  0.00     0.124 A 
ATOM      2  C1  UNL d   1       0.089   1.762   1.110  0.00  0.00     0.062 A 
ATOM      3  C2  UNL d   1       0.308   0.389   1.062  0.00  0.00     0.162 A 
ATOM      4  C3  UNL d   1       0.526  -0.247  -0.160  0.00  0.00    -0.034 A 
ATOM      5  C4  UNL d   1       0.521   0.511  -1.332  0.00  0.00     0.162 A 
ATOM      6  C5  UNL d   1       0.302   1.884  -1.279  0.00  0.00     0.062 A 
ATOM      7  F   UNL d   1       0.299   2.605  -2.410  0.00  0.00    -0.097 F 
ATOM      8  F1  UNL d   1       0.727  -0.068  -2.524  0.00  0.00    -0.096 F 
ATOM      9  I   UNL d   1       0.854  -2.301  -0.236  0.00  0.00    -0.060 I 
ATOM     10  F2  UNL d   1       0.306  -0.309   2.208  0.00  0.00    -0.096 F 
ATOM     11  F3  UNL d   1      -0.120   2.365   2.290  0.00  0.00    -0.097 F 
ATOM     12  F4  UNL d   1      -0.126   3.831  -0.010  0.00  0.00    -0.092 F 
ENDROOT
TORSDOF 0
ENDMDL
