MODEL 1
REMARK minimizedAffinity -2.77798176
REMARK minimizedRMSD -1
REMARK  0 active torsions:
REMARK  status: ('A' for Active; 'I' for Inactive)
ROOT
ATOM      1  C   UNL d   1      -0.011   2.476   0.692  0.00  0.00     0.124 A 
ATOM      2  C1  UNL d   1       0.242   1.411   1.545  0.00  0.00     0.062 A 
ATOM      3  C2  UNL d   1       0.472   0.139   1.028  0.00  0.00     0.162 A 
ATOM      4  C3  UNL d   1       0.452  -0.074  -0.351  0.00  0.00    -0.034 A 
ATOM      5  C4  UNL d   1       0.196   1.002  -1.202  0.00  0.00     0.162 A 
ATOM      6  C5  UNL d   1      -0.034   2.271  -0.680  0.00  0.00     0.062 A 
ATOM      7  F   UNL d   1      -0.278   3.299  -1.506  0.00  0.00    -0.097 F 
ATOM      8  F1  UNL d   1       0.169   0.832  -2.532  0.00  0.00    -0.096 F 
ATOM      9  I   UNL d   1       0.796  -1.974  -1.128  0.00  0.00    -0.060 I 
ATOM     10  F2  UNL d   1       0.714  -0.872   1.875  0.00  0.00    -0.096 F 
ATOM     11  F3  UNL d   1       0.264   1.606   2.871  0.00  0.00    -0.097 F 
ATOM     12  F4  UNL d   1      -0.233   3.698   1.192  0.00  0.00    -0.092 F 
ENDROOT
TORSDOF 0
ENDMDL
