MODEL 1
REMARK minimizedAffinity -1.90139127
REMARK minimizedRMSD -1
REMARK  0 active torsions:
REMARK  status: ('A' for Active; 'I' for Inactive)
ROOT
ATOM      1  C   UNL d   1      -0.285   2.643   0.444  0.00  0.00     0.124 A 
ATOM      2  C1  UNL d   1      -0.117   1.597   1.341  0.00  0.00     0.062 A 
ATOM      3  C2  UNL d   1       0.117   0.307   0.875  0.00  0.00     0.162 A 
ATOM      4  C3  UNL d   1       0.184   0.054  -0.495  0.00  0.00    -0.034 A 
ATOM      5  C4  UNL d   1       0.012   1.111  -1.391  0.00  0.00     0.162 A 
ATOM      6  C5  UNL d   1      -0.221   2.399  -0.920  0.00  0.00     0.062 A 
ATOM      7  F   UNL d   1      -0.383   3.408  -1.788  0.00  0.00    -0.097 F 
ATOM      8  F1  UNL d   1       0.071   0.904  -2.715  0.00  0.00    -0.096 F 
ATOM      9  I   UNL d   1       0.532  -1.874  -1.196  0.00  0.00    -0.060 I 
ATOM     10  F2  UNL d   1       0.276  -0.685   1.764  0.00  0.00    -0.096 F 
ATOM     11  F3  UNL d   1      -0.179   1.830   2.660  0.00  0.00    -0.097 F 
ATOM     12  F4  UNL d   1      -0.510   3.884   0.895  0.00  0.00    -0.092 F 
ENDROOT
TORSDOF 0
ENDMDL
