MODEL 1
REMARK minimizedAffinity 0.791944206
REMARK minimizedRMSD -1
REMARK  0 active torsions:
REMARK  status: ('A' for Active; 'I' for Inactive)
ROOT
ATOM      1  C   UNL d   1      -0.178   2.788   1.017  0.00  0.00     0.124 A 
ATOM      2  C1  UNL d   1      -0.098   1.692   1.864  0.00  0.00     0.062 A 
ATOM      3  C2  UNL d   1       0.031   0.409   1.339  0.00  0.00     0.162 A 
ATOM      4  C3  UNL d   1       0.082   0.216  -0.042  0.00  0.00    -0.034 A 
ATOM      5  C4  UNL d   1      -0.001   1.324  -0.887  0.00  0.00     0.162 A 
ATOM      6  C5  UNL d   1      -0.129   2.604  -0.357  0.00  0.00     0.062 A 
ATOM      7  F   UNL d   1      -0.207   3.662  -1.177  0.00  0.00    -0.097 F 
ATOM      8  F1  UNL d   1       0.045   1.174  -2.220  0.00  0.00    -0.096 F 
ATOM      9  I   UNL d   1       0.274  -1.700  -0.832  0.00  0.00    -0.060 I 
ATOM     10  F2  UNL d   1       0.106  -0.632   2.181  0.00  0.00    -0.096 F 
ATOM     11  F3  UNL d   1      -0.146   1.867   3.193  0.00  0.00    -0.097 F 
ATOM     12  F4  UNL d   1      -0.303   4.021   1.525  0.00  0.00    -0.092 F 
ENDROOT
TORSDOF 0
ENDMDL
