MODEL 1
REMARK minimizedAffinity 1.22486877
REMARK minimizedRMSD -1
REMARK  0 active torsions:
REMARK  status: ('A' for Active; 'I' for Inactive)
ROOT
ATOM      1  C1  BNZ d   1       1.229  -3.082  -0.376  0.00  0.00     0.000 A 
ATOM      2  C2  BNZ d   1      -0.099  -2.967  -0.064  0.00  0.00     0.000 A 
ATOM      3  C3  BNZ d   1      -0.539  -1.978   0.770  0.00  0.00     0.000 A 
ATOM      4  C4  BNZ d   1       0.353  -1.130   1.322  0.00  0.00     0.000 A 
ATOM      5  C5  BNZ d   1       1.697  -1.239   1.025  0.00  0.00     0.000 A 
ATOM      6  C6  BNZ d   1       2.132  -2.212   0.154  0.00  0.00     0.000 A 
ENDROOT
TORSDOF 0
ENDMDL
