MODEL 1
REMARK minimizedAffinity 5.97897577
REMARK minimizedRMSD -1
REMARK  0 active torsions:
REMARK  status: ('A' for Active; 'I' for Inactive)
ROOT
ATOM      1  C1  BNZ d   1       2.538   5.978   1.832  0.00  0.00     0.000 A 
ATOM      2  C2  BNZ d   1       3.163   5.996   0.613  0.00  0.00     0.000 A 
ATOM      3  C3  BNZ d   1       4.527   5.986   0.526  0.00  0.00     0.000 A 
ATOM      4  C4  BNZ d   1       5.264   5.999   1.656  0.00  0.00     0.000 A 
ATOM      5  C5  BNZ d   1       4.648   5.991   2.892  0.00  0.00     0.000 A 
ATOM      6  C6  BNZ d   1       3.275   5.961   2.975  0.00  0.00     0.000 A 
ENDROOT
TORSDOF 0
ENDMDL
