MODEL 1
REMARK minimizedAffinity -0.682644963
REMARK minimizedRMSD -1
REMARK  0 active torsions:
REMARK  status: ('A' for Active; 'I' for Inactive)
ROOT
ATOM      1  C1  BNZ d   1       1.674  -2.112   0.334  0.00  0.00     0.000 A 
ATOM      2  C2  BNZ d   1       0.918  -1.317   1.153  0.00  0.00     0.000 A 
ATOM      3  C3  BNZ d   1      -0.438  -1.476   1.225  0.00  0.00     0.000 A 
ATOM      4  C4  BNZ d   1      -1.039  -2.400   0.449  0.00  0.00     0.000 A 
ATOM      5  C5  BNZ d   1      -0.292  -3.204  -0.388  0.00  0.00     0.000 A 
ATOM      6  C6  BNZ d   1       1.077  -3.068  -0.429  0.00  0.00     0.000 A 
ENDROOT
TORSDOF 0
ENDMDL
