MODEL 1
REMARK minimizedAffinity -2.80821252
REMARK minimizedRMSD -1
REMARK  0 active torsions:
REMARK  status: ('A' for Active; 'I' for Inactive)
ROOT
ATOM      1  C1  BNZ d   1       1.838  -2.282  -0.237  0.00  0.00     0.000 A 
ATOM      2  C2  BNZ d   1       0.928  -3.173  -0.739  0.00  0.00     0.000 A 
ATOM      3  C3  BNZ d   1      -0.400  -3.066  -0.431  0.00  0.00     0.000 A 
ATOM      4  C4  BNZ d   1      -0.810  -2.093   0.408  0.00  0.00     0.000 A 
ATOM      5  C5  BNZ d   1       0.097  -1.192   0.929  0.00  0.00     0.000 A 
ATOM      6  C6  BNZ d   1       1.427  -1.279   0.587  0.00  0.00     0.000 A 
ENDROOT
TORSDOF 0
ENDMDL
