MODEL 1
REMARK minimizedAffinity -4.52636528
REMARK minimizedRMSD -1
REMARK  0 active torsions:
REMARK  status: ('A' for Active; 'I' for Inactive)
ROOT
ATOM      1  C1  BNZ d   1      -0.732  -0.339   0.822  0.00  0.00     0.000 A 
ATOM      2  C2  BNZ d   1       0.599  -0.378   1.143  0.00  0.00     0.000 A 
ATOM      3  C3  BNZ d   1       1.372  -1.449   0.792  0.00  0.00     0.000 A 
ATOM      4  C4  BNZ d   1       0.806  -2.495   0.156  0.00  0.00     0.000 A 
ATOM      5  C5  BNZ d   1      -0.536  -2.474  -0.166  0.00  0.00     0.000 A 
ATOM      6  C6  BNZ d   1      -1.303  -1.378   0.155  0.00  0.00     0.000 A 
ENDROOT
TORSDOF 0
ENDMDL
