MODEL 1
REMARK minimizedAffinity 1.97285557
REMARK minimizedRMSD -1
REMARK  0 active torsions:
REMARK  status: ('A' for Active; 'I' for Inactive)
ROOT
ATOM      1  C1  BNZ d   1      -0.155  -3.871  -0.221  0.00  0.00     0.000 A 
ATOM      2  C2  BNZ d   1       1.126  -4.179  -0.592  0.00  0.00     0.000 A 
ATOM      3  C3  BNZ d   1       2.157  -3.321  -0.327  0.00  0.00     0.000 A 
ATOM      4  C4  BNZ d   1       1.900  -2.141   0.273  0.00  0.00     0.000 A 
ATOM      5  C5  BNZ d   1       0.612  -1.812   0.645  0.00  0.00     0.000 A 
ATOM      6  C6  BNZ d   1      -0.418  -2.695   0.411  0.00  0.00     0.000 A 
ENDROOT
TORSDOF 0
ENDMDL
