MODEL 1
REMARK minimizedAffinity -2.6264286
REMARK minimizedRMSD -1
REMARK  0 active torsions:
REMARK  status: ('A' for Active; 'I' for Inactive)
ROOT
ATOM      1  C1  BNZ d   1      -4.805  -2.761   2.304  0.00  0.00     0.000 A 
ATOM      2  C2  BNZ d   1      -5.421  -3.668   1.484  0.00  0.00     0.000 A 
ATOM      3  C3  BNZ d   1      -5.976  -4.809   1.994  0.00  0.00     0.000 A 
ATOM      4  C4  BNZ d   1      -5.880  -5.059   3.316  0.00  0.00     0.000 A 
ATOM      5  C5  BNZ d   1      -5.255  -4.158   4.154  0.00  0.00     0.000 A 
ATOM      6  C6  BNZ d   1      -4.731  -2.993   3.643  0.00  0.00     0.000 A 
ENDROOT
TORSDOF 0
ENDMDL
