MODEL 1
REMARK minimizedAffinity -2.11355186
REMARK minimizedRMSD -1
REMARK  0 active torsions:
REMARK  status: ('A' for Active; 'I' for Inactive)
ROOT
ATOM      1  C1  BNZ d   1       0.033  -0.002   1.302  0.00  0.00     0.000 A 
ATOM      2  C2  BNZ d   1      -0.672  -1.055   0.783  0.00  0.00     0.000 A 
ATOM      3  C3  BNZ d   1      -0.038  -2.047   0.088  0.00  0.00     0.000 A 
ATOM      4  C4  BNZ d   1       1.292  -1.964  -0.122  0.00  0.00     0.000 A 
ATOM      5  C5  BNZ d   1       2.015  -0.903   0.386  0.00  0.00     0.000 A 
ATOM      6  C6  BNZ d   1       1.379   0.073   1.119  0.00  0.00     0.000 A 
ENDROOT
TORSDOF 0
ENDMDL
