MODEL 1
REMARK minimizedAffinity -5.38139343
REMARK minimizedRMSD -1
REMARK  0 active torsions:
REMARK  status: ('A' for Active; 'I' for Inactive)
ROOT
ATOM      1  C1  BNZ d   1      -0.322  -0.513   0.829  0.00  0.00     0.000 A 
ATOM      2  C2  BNZ d   1       0.989  -0.272   0.518  0.00  0.00     0.000 A 
ATOM      3  C3  BNZ d   1       1.774  -1.256  -0.017  0.00  0.00     0.000 A 
ATOM      4  C4  BNZ d   1       1.258  -2.488  -0.202  0.00  0.00     0.000 A 
ATOM      5  C5  BNZ d   1      -0.060  -2.749   0.115  0.00  0.00     0.000 A 
ATOM      6  C6  BNZ d   1      -0.858  -1.746   0.617  0.00  0.00     0.000 A 
ENDROOT
TORSDOF 0
ENDMDL
