MODEL 1
REMARK minimizedAffinity 1.75171459
REMARK minimizedRMSD -1
REMARK  0 active torsions:
REMARK  status: ('A' for Active; 'I' for Inactive)
ROOT
ATOM      1  C1  BNZ d   1       1.770  -2.461   0.401  0.00  0.00     0.000 A 
ATOM      2  C2  BNZ d   1       0.918  -3.047  -0.497  0.00  0.00     0.000 A 
ATOM      3  C3  BNZ d   1      -0.383  -2.640  -0.594  0.00  0.00     0.000 A 
ATOM      4  C4  BNZ d   1      -0.841  -1.678   0.233  0.00  0.00     0.000 A 
ATOM      5  C5  BNZ d   1       0.004  -1.085   1.150  0.00  0.00     0.000 A 
ATOM      6  C6  BNZ d   1       1.323  -1.470   1.219  0.00  0.00     0.000 A 
ENDROOT
TORSDOF 0
ENDMDL
