MODEL 1
REMARK minimizedAffinity -2.01285768
REMARK minimizedRMSD -1
REMARK  0 active torsions:
REMARK  status: ('A' for Active; 'I' for Inactive)
ROOT
ATOM      1  C1  BNZ d   1      -0.410  -2.169   0.742  0.00  0.00     0.000 A 
ATOM      2  C2  BNZ d   1       0.012  -3.343   0.178  0.00  0.00     0.000 A 
ATOM      3  C3  BNZ d   1       1.172  -3.396  -0.543  0.00  0.00     0.000 A 
ATOM      4  C4  BNZ d   1       1.887  -2.268  -0.733  0.00  0.00     0.000 A 
ATOM      5  C5  BNZ d   1       1.469  -1.074  -0.179  0.00  0.00     0.000 A 
ATOM      6  C6  BNZ d   1       0.322  -1.033   0.580  0.00  0.00     0.000 A 
ENDROOT
TORSDOF 0
ENDMDL
