MODEL 1
REMARK minimizedAffinity -1.87210917
REMARK minimizedRMSD -1
REMARK  0 active torsions:
REMARK  status: ('A' for Active; 'I' for Inactive)
ROOT
ATOM      1  C1  BNZ d   1      -1.536  -0.849   1.984  0.00  0.00     0.000 A 
ATOM      2  C2  BNZ d   1      -1.841   0.264   1.247  0.00  0.00     0.000 A 
ATOM      3  C3  BNZ d   1      -1.995   1.482   1.848  0.00  0.00     0.000 A 
ATOM      4  C4  BNZ d   1      -1.884   1.578   3.189  0.00  0.00     0.000 A 
ATOM      5  C5  BNZ d   1      -1.586   0.464   3.947  0.00  0.00     0.000 A 
ATOM      6  C6  BNZ d   1      -1.394  -0.753   3.334  0.00  0.00     0.000 A 
ENDROOT
TORSDOF 0
ENDMDL
