MODEL 1
REMARK minimizedAffinity -1.07319665
REMARK minimizedRMSD -1
REMARK  0 active torsions:
REMARK  status: ('A' for Active; 'I' for Inactive)
ROOT
ATOM      1  C1  BNZ d   1       2.216  -0.956   0.315  0.00  0.00     0.000 A 
ATOM      2  C2  BNZ d   1       1.302  -1.597  -0.478  0.00  0.00     0.000 A 
ATOM      3  C3  BNZ d   1      -0.026  -1.605  -0.151  0.00  0.00     0.000 A 
ATOM      4  C4  BNZ d   1      -0.431  -1.007   0.988  0.00  0.00     0.000 A 
ATOM      5  C5  BNZ d   1       0.479  -0.365   1.803  0.00  0.00     0.000 A 
ATOM      6  C6  BNZ d   1       1.809  -0.325   1.450  0.00  0.00     0.000 A 
ENDROOT
TORSDOF 0
ENDMDL
