MODEL 1
REMARK minimizedAffinity -0.802802324
REMARK minimizedRMSD -1
REMARK  0 active torsions:
REMARK  status: ('A' for Active; 'I' for Inactive)
ROOT
ATOM      1  C1  BNZ d   1      -0.390  -0.015   1.213  0.00  0.00     0.000 A 
ATOM      2  C2  BNZ d   1       0.979   0.007   1.159  0.00  0.00     0.000 A 
ATOM      3  C3  BNZ d   1       1.673  -1.025   0.591  0.00  0.00     0.000 A 
ATOM      4  C4  BNZ d   1       1.001  -2.094   0.116  0.00  0.00     0.000 A 
ATOM      5  C5  BNZ d   1      -0.378  -2.134   0.172  0.00  0.00     0.000 A 
ATOM      6  C6  BNZ d   1      -1.075  -1.077   0.708  0.00  0.00     0.000 A 
ENDROOT
TORSDOF 0
ENDMDL
