MODEL 1
REMARK minimizedAffinity 0.475818694
REMARK minimizedRMSD -1
REMARK  0 active torsions:
REMARK  status: ('A' for Active; 'I' for Inactive)
ROOT
ATOM      1  C1  BNZ d   1       2.080  -2.063   0.754  0.00  0.00     0.000 A 
ATOM      2  C2  BNZ d   1       1.348  -1.135   1.446  0.00  0.00     0.000 A 
ATOM      3  C3  BNZ d   1      -0.019  -1.163   1.422  0.00  0.00     0.000 A 
ATOM      4  C4  BNZ d   1      -0.650  -2.092   0.677  0.00  0.00     0.000 A 
ATOM      5  C5  BNZ d   1       0.074  -3.029  -0.034  0.00  0.00     0.000 A 
ATOM      6  C6  BNZ d   1       1.449  -3.022   0.023  0.00  0.00     0.000 A 
ENDROOT
TORSDOF 0
ENDMDL
