MODEL 1
REMARK minimizedAffinity 4.52105236
REMARK minimizedRMSD -1
REMARK  0 active torsions:
REMARK  status: ('A' for Active; 'I' for Inactive)
ROOT
ATOM      1  C1  BNZ d   1       3.894   1.394  -2.454  0.00  0.00     0.000 A 
ATOM      2  C2  BNZ d   1       4.453   2.321  -1.616  0.00  0.00     0.000 A 
ATOM      3  C3  BNZ d   1       3.878   3.549  -1.446  0.00  0.00     0.000 A 
ATOM      4  C4  BNZ d   1       2.768   3.863  -2.145  0.00  0.00     0.000 A 
ATOM      5  C5  BNZ d   1       2.197   2.943  -3.001  0.00  0.00     0.000 A 
ATOM      6  C6  BNZ d   1       2.757   1.693  -3.139  0.00  0.00     0.000 A 
ENDROOT
TORSDOF 0
ENDMDL
