MODEL 1
REMARK minimizedAffinity -2.48566484
REMARK minimizedRMSD -1
REMARK  0 active torsions:
REMARK  status: ('A' for Active; 'I' for Inactive)
ROOT
ATOM      1  C1  BNZ d   1       2.418   1.826  -0.016  0.00  0.00     0.000 A 
ATOM      2  C2  BNZ d   1       2.298   0.798   0.881  0.00  0.00     0.000 A 
ATOM      3  C3  BNZ d   1       1.072   0.277   1.188  0.00  0.00     0.000 A 
ATOM      4  C4  BNZ d   1      -0.034   0.809   0.629  0.00  0.00     0.000 A 
ATOM      5  C5  BNZ d   1       0.070   1.851  -0.271  0.00  0.00     0.000 A 
ATOM      6  C6  BNZ d   1       1.309   2.348  -0.607  0.00  0.00     0.000 A 
ENDROOT
TORSDOF 0
ENDMDL
