MODEL 1
REMARK minimizedAffinity 1.12766647
REMARK minimizedRMSD -1
REMARK  0 active torsions:
REMARK  status: ('A' for Active; 'I' for Inactive)
ROOT
ATOM      1  C1  BNZ d   1      -3.506   2.996  -0.016  0.00  0.00     0.000 A 
ATOM      2  C2  BNZ d   1      -3.741   2.605   1.275  0.00  0.00     0.000 A 
ATOM      3  C3  BNZ d   1      -4.836   1.848   1.589  0.00  0.00     0.000 A 
ATOM      4  C4  BNZ d   1      -5.713   1.518   0.620  0.00  0.00     0.000 A 
ATOM      5  C5  BNZ d   1      -5.495   1.912  -0.685  0.00  0.00     0.000 A 
ATOM      6  C6  BNZ d   1      -4.372   2.641  -1.004  0.00  0.00     0.000 A 
ENDROOT
TORSDOF 0
ENDMDL
