MODEL 1
REMARK minimizedAffinity 2.89398241
REMARK minimizedRMSD -1
REMARK  0 active torsions:
REMARK  status: ('A' for Active; 'I' for Inactive)
ROOT
ATOM      1  C1  BNZ d   1      -4.900  -5.985  -5.981  0.00  0.00     0.000 A 
ATOM      2  C2  BNZ d   1      -3.651  -5.424  -5.996  0.00  0.00     0.000 A 
ATOM      3  C3  BNZ d   1      -3.488  -4.074  -5.858  0.00  0.00     0.000 A 
ATOM      4  C4  BNZ d   1      -4.575  -3.283  -5.745  0.00  0.00     0.000 A 
ATOM      5  C5  BNZ d   1      -5.842  -3.832  -5.738  0.00  0.00     0.000 A 
ATOM      6  C6  BNZ d   1      -6.000  -5.195  -5.838  0.00  0.00     0.000 A 
ENDROOT
TORSDOF 0
ENDMDL
