MODEL 1
REMARK minimizedAffinity -3.54240012
REMARK minimizedRMSD -1
REMARK  0 active torsions:
REMARK  status: ('A' for Active; 'I' for Inactive)
ROOT
ATOM      1  C1  BNZ d   1      -5.041   2.756  -1.515  0.00  0.00     0.000 A 
ATOM      2  C2  BNZ d   1      -4.073   3.138  -0.625  0.00  0.00     0.000 A 
ATOM      3  C3  BNZ d   1      -4.048   2.628   0.643  0.00  0.00     0.000 A 
ATOM      4  C4  BNZ d   1      -5.012   1.769   1.031  0.00  0.00     0.000 A 
ATOM      5  C5  BNZ d   1      -6.000   1.381   0.148  0.00  0.00     0.000 A 
ATOM      6  C6  BNZ d   1      -6.000   1.867  -1.139  0.00  0.00     0.000 A 
ENDROOT
TORSDOF 0
ENDMDL
