MODEL 1
REMARK minimizedAffinity -2.0814023
REMARK minimizedRMSD -1
REMARK  0 active torsions:
REMARK  status: ('A' for Active; 'I' for Inactive)
ROOT
ATOM      1  C1  BNZ d   1      -6.000   3.967   0.045  0.00  0.00     0.000 A 
ATOM      2  C2  BNZ d   1      -6.000   2.967  -0.890  0.00  0.00     0.000 A 
ATOM      3  C3  BNZ d   1      -5.112   1.931  -0.807  0.00  0.00     0.000 A 
ATOM      4  C4  BNZ d   1      -4.200   1.918   0.186  0.00  0.00     0.000 A 
ATOM      5  C5  BNZ d   1      -4.181   2.924   1.131  0.00  0.00     0.000 A 
ATOM      6  C6  BNZ d   1      -5.102   3.945   1.067  0.00  0.00     0.000 A 
ENDROOT
TORSDOF 0
ENDMDL
