MODEL 1
REMARK minimizedAffinity -5.09493589
REMARK minimizedRMSD -1
REMARK  1 active torsions:
REMARK  status: ('A' for Active; 'I' for Inactive)
REMARK    1  A    between atoms: C1_2  and  C2_3 
ROOT
ATOM      1  C2  UNL d   1       0.189   0.548   0.655  0.00  0.00    -0.073 A 
ATOM      2  C3  UNL d   1      -1.029   1.061   0.195  0.00  0.00    -0.002 A 
ATOM      3  C4  UNL d   1      -1.487   2.300   0.643  0.00  0.00     0.004 A 
ATOM      4  C5  UNL d   1      -0.729   3.042   1.550  0.00  0.00    -0.004 A 
ATOM      5  C6  UNL d   1       0.496   2.553   2.012  0.00  0.00    -0.075 A 
ATOM      6  C7  UNL d   1       1.322   3.338   2.989  0.00  0.00     0.076 C 
ATOM      7  C8  UNL d   1       0.948   1.306   1.559  0.00  0.00     0.001 A 
ENDROOT
BRANCH   1   8
ATOM      8  C1  UNL d   1       0.691  -0.787   0.169  0.00  0.00     0.053 C 
ATOM      9  C   UNL d   1       0.734  -0.861  -1.349  0.00  0.00     0.018 C 
ENDBRANCH   1   8
TORSDOF 1
ENDMDL
