MODEL 1
REMARK minimizedAffinity -3.74693084
REMARK minimizedRMSD -1
REMARK  1 active torsions:
REMARK  status: ('A' for Active; 'I' for Inactive)
REMARK    1  A    between atoms: C1_2  and  C2_3 
ROOT
ATOM      1  C2  UNL d   1      -0.070   0.260   0.561  0.00  0.00    -0.073 A 
ATOM      2  C3  UNL d   1       0.212   1.237  -0.401  0.00  0.00    -0.002 A 
ATOM      3  C4  UNL d   1       0.641   0.867  -1.677  0.00  0.00     0.004 A 
ATOM      4  C5  UNL d   1       0.784  -0.481  -2.005  0.00  0.00    -0.004 A 
ATOM      5  C6  UNL d   1       0.496  -1.472  -1.061  0.00  0.00    -0.075 A 
ATOM      6  C7  UNL d   1       0.647  -2.926  -1.398  0.00  0.00     0.076 C 
ATOM      7  C8  UNL d   1       0.069  -1.092   0.218  0.00  0.00     0.001 A 
ENDROOT
BRANCH   1   8
ATOM      8  C1  UNL d   1      -0.539   0.655   1.937  0.00  0.00     0.053 C 
ATOM      9  C   UNL d   1      -1.448   1.873   1.902  0.00  0.00     0.018 C 
ENDBRANCH   1   8
TORSDOF 1
ENDMDL
