MODEL 1
REMARK minimizedAffinity -3.823632
REMARK minimizedRMSD -1
REMARK  1 active torsions:
REMARK  status: ('A' for Active; 'I' for Inactive)
REMARK    1  A    between atoms: C1_2  and  C2_3 
ROOT
ATOM      1  C2  UNL d   1      -0.485  -0.698  -0.788  0.00  0.00    -0.073 A 
ATOM      2  C3  UNL d   1       0.798  -0.964  -0.293  0.00  0.00    -0.002 A 
ATOM      3  C4  UNL d   1       1.315  -0.213   0.764  0.00  0.00     0.004 A 
ATOM      4  C5  UNL d   1       0.554   0.803   1.341  0.00  0.00    -0.004 A 
ATOM      5  C6  UNL d   1      -0.734   1.075   0.869  0.00  0.00    -0.075 A 
ATOM      6  C7  UNL d   1      -1.564   2.167   1.478  0.00  0.00     0.076 C 
ATOM      7  C8  UNL d   1      -1.245   0.319  -0.194  0.00  0.00     0.001 A 
ENDROOT
BRANCH   1   8
ATOM      8  C1  UNL d   1      -1.050  -1.510  -1.925  0.00  0.00     0.053 C 
ATOM      9  C   UNL d   1      -0.818  -3.000  -1.731  0.00  0.00     0.018 C 
ENDBRANCH   1   8
TORSDOF 1
ENDMDL
