MODEL 1
REMARK minimizedAffinity -5.47129107
REMARK minimizedRMSD -1
REMARK  1 active torsions:
REMARK  status: ('A' for Active; 'I' for Inactive)
REMARK    1  A    between atoms: C1_2  and  C2_3 
ROOT
ATOM      1  C2  UNL d   1      -0.750   1.153   0.475  0.00  0.00    -0.073 A 
ATOM      2  C3  UNL d   1       0.016   0.036   0.826  0.00  0.00    -0.002 A 
ATOM      3  C4  UNL d   1       0.851  -0.570  -0.114  0.00  0.00     0.004 A 
ATOM      4  C5  UNL d   1       0.934  -0.061  -1.410  0.00  0.00    -0.004 A 
ATOM      5  C6  UNL d   1       0.185   1.062  -1.777  0.00  0.00    -0.075 A 
ATOM      6  C7  UNL d   1       0.262   1.620  -3.168  0.00  0.00     0.076 C 
ATOM      7  C8  UNL d   1      -0.653   1.663  -0.828  0.00  0.00     0.001 A 
ENDROOT
BRANCH   1   8
ATOM      8  C1  UNL d   1      -1.649   1.814   1.488  0.00  0.00     0.053 C 
ATOM      9  C   UNL d   1      -0.919   2.884   2.285  0.00  0.00     0.018 C 
ENDBRANCH   1   8
TORSDOF 1
ENDMDL
