MODEL 1
REMARK minimizedAffinity 6.23507357
REMARK minimizedRMSD -1
REMARK  1 active torsions:
REMARK  status: ('A' for Active; 'I' for Inactive)
REMARK    1  A    between atoms: C1_2  and  C2_3 
ROOT
ATOM      1  C2  UNL d   1       2.062   2.488   1.726  0.00  0.00    -0.076 A 
ATOM      2  C3  UNL d   1       3.282   3.117   1.424  0.00  0.00     0.004 A 
ATOM      3  C4  UNL d   1       4.342   3.100   2.329  0.00  0.00    -0.003 A 
ATOM      4  C5  UNL d   1       4.199   2.452   3.551  0.00  0.00     0.000 A 
ATOM      5  C6  UNL d   1       3.002   1.807   3.860  0.00  0.00     0.000 A 
ATOM      6  C7  UNL d   1       1.929   1.802   2.952  0.00  0.00    -0.073 A 
ATOM      7  C8  UNL d   1       0.658   1.096   3.340  0.00  0.00     0.078 C 
ENDROOT
BRANCH   1   8
ATOM      8  C1  UNL d   1       0.938   2.563   0.717  0.00  0.00     0.053 C 
ATOM      9  C   UNL d   1       0.245   3.917   0.716  0.00  0.00     0.018 C 
ENDBRANCH   1   8
TORSDOF 1
ENDMDL
