MODEL 1
REMARK minimizedAffinity -2.38951278
REMARK minimizedRMSD -1
REMARK  1 active torsions:
REMARK  status: ('A' for Active; 'I' for Inactive)
REMARK    1  A    between atoms: C1_2  and  C2_3 
ROOT
ATOM      1  C2  UNL d   1      -2.349   1.515   0.505  0.00  0.00    -0.076 A 
ATOM      2  C3  UNL d   1      -2.115   2.061   1.779  0.00  0.00     0.004 A 
ATOM      3  C4  UNL d   1      -0.838   2.464   2.164  0.00  0.00    -0.003 A 
ATOM      4  C5  UNL d   1       0.227   2.328   1.281  0.00  0.00     0.000 A 
ATOM      5  C6  UNL d   1       0.011   1.805   0.007  0.00  0.00     0.000 A 
ATOM      6  C7  UNL d   1      -1.274   1.409  -0.403  0.00  0.00    -0.073 A 
ATOM      7  C8  UNL d   1      -1.448   0.846  -1.787  0.00  0.00     0.078 C 
ENDROOT
BRANCH   1   8
ATOM      8  C1  UNL d   1      -3.750   1.070   0.153  0.00  0.00     0.053 C 
ATOM      9  C   UNL d   1      -4.816   1.852   0.906  0.00  0.00     0.018 C 
ENDBRANCH   1   8
TORSDOF 1
ENDMDL
