MODEL 1
REMARK minimizedAffinity 7.17583609
REMARK minimizedRMSD -1
REMARK  1 active torsions:
REMARK  status: ('A' for Active; 'I' for Inactive)
REMARK    1  A    between atoms: C1_2  and  C2_3 
ROOT
ATOM      1  C2  UNL d   1       0.010   2.682   1.625  0.00  0.00    -0.076 A 
ATOM      2  C3  UNL d   1      -0.753   3.515   0.788  0.00  0.00     0.004 A 
ATOM      3  C4  UNL d   1      -2.089   3.789   1.073  0.00  0.00    -0.003 A 
ATOM      4  C5  UNL d   1      -2.685   3.234   2.200  0.00  0.00     0.000 A 
ATOM      5  C6  UNL d   1      -1.939   2.419   3.051  0.00  0.00     0.000 A 
ATOM      6  C7  UNL d   1      -0.586   2.146   2.787  0.00  0.00    -0.073 A 
ATOM      7  C8  UNL d   1       0.170   1.256   3.735  0.00  0.00     0.078 C 
ENDROOT
BRANCH   1   8
ATOM      8  C1  UNL d   1       1.447   2.399   1.250  0.00  0.00     0.053 C 
ATOM      9  C   UNL d   1       1.576   1.257   0.254  0.00  0.00     0.018 C 
ENDBRANCH   1   8
TORSDOF 1
ENDMDL
