MODEL 1
REMARK minimizedAffinity 3.28940511
REMARK minimizedRMSD -1
REMARK  1 active torsions:
REMARK  status: ('A' for Active; 'I' for Inactive)
REMARK    1  A    between atoms: C1_2  and  C2_3 
ROOT
ATOM      1  C2  UNL d   1       1.512  -0.547  -0.197  0.00  0.00    -0.076 A 
ATOM      2  C3  UNL d   1       0.303  -0.872  -0.837  0.00  0.00     0.004 A 
ATOM      3  C4  UNL d   1      -0.057  -2.200  -1.059  0.00  0.00    -0.003 A 
ATOM      4  C5  UNL d   1       0.785  -3.225  -0.642  0.00  0.00     0.000 A 
ATOM      5  C6  UNL d   1       1.979  -2.922   0.010  0.00  0.00     0.000 A 
ATOM      6  C7  UNL d   1       2.350  -1.588   0.256  0.00  0.00    -0.073 A 
ATOM      7  C8  UNL d   1       3.652  -1.319   0.958  0.00  0.00     0.078 C 
ENDROOT
BRANCH   1   8
ATOM      8  C1  UNL d   1       1.862   0.912  -0.009  0.00  0.00     0.053 C 
ATOM      9  C   UNL d   1       0.634   1.808   0.009  0.00  0.00     0.018 C 
ENDBRANCH   1   8
TORSDOF 1
ENDMDL
