MODEL 1
REMARK minimizedAffinity 5.0952239
REMARK minimizedRMSD -1
REMARK  1 active torsions:
REMARK  status: ('A' for Active; 'I' for Inactive)
REMARK    1  A    between atoms: C1_2  and  C2_3 
ROOT
ATOM      1  C2  UNL d   1      -1.530   2.676   1.837  0.00  0.00    -0.076 A 
ATOM      2  C3  UNL d   1      -1.223   3.559   0.787  0.00  0.00     0.004 A 
ATOM      3  C4  UNL d   1       0.070   3.642   0.274  0.00  0.00    -0.003 A 
ATOM      4  C5  UNL d   1       1.078   2.843   0.803  0.00  0.00     0.000 A 
ATOM      5  C6  UNL d   1       0.788   1.949   1.832  0.00  0.00     0.000 A 
ATOM      6  C7  UNL d   1      -0.514   1.841   2.350  0.00  0.00    -0.073 A 
ATOM      7  C8  UNL d   1      -0.770   0.864   3.465  0.00  0.00     0.078 C 
ENDROOT
BRANCH   1   8
ATOM      8  C1  UNL d   1      -2.944   2.649   2.371  0.00  0.00     0.053 C 
ATOM      9  C   UNL d   1      -3.880   1.824   1.501  0.00  0.00     0.018 C 
ENDBRANCH   1   8
TORSDOF 1
ENDMDL
