MODEL 1
REMARK minimizedAffinity 4.15619183
REMARK minimizedRMSD -1
REMARK  1 active torsions:
REMARK  status: ('A' for Active; 'I' for Inactive)
REMARK    1  A    between atoms: C1_2  and  C2_3 
ROOT
ATOM      1  C2  UNL d   1      -1.859   2.230   1.522  0.00  0.00    -0.076 A 
ATOM      2  C3  UNL d   1      -1.607   2.721   0.229  0.00  0.00     0.004 A 
ATOM      3  C4  UNL d   1      -0.311   3.027  -0.182  0.00  0.00    -0.003 A 
ATOM      4  C5  UNL d   1       0.755   2.845   0.693  0.00  0.00     0.000 A 
ATOM      5  C6  UNL d   1       0.525   2.342   1.973  0.00  0.00     0.000 A 
ATOM      6  C7  UNL d   1      -0.774   2.014   2.398  0.00  0.00    -0.073 A 
ATOM      7  C8  UNL d   1      -0.964   1.480   3.791  0.00  0.00     0.078 C 
ENDROOT
BRANCH   1   8
ATOM      8  C1  UNL d   1      -3.289   1.941   1.921  0.00  0.00     0.053 C 
ATOM      9  C   UNL d   1      -4.194   1.711   0.721  0.00  0.00     0.018 C 
ENDBRANCH   1   8
TORSDOF 1
ENDMDL
