MODEL 1
REMARK minimizedAffinity 5.7740407
REMARK minimizedRMSD -1
REMARK  1 active torsions:
REMARK  status: ('A' for Active; 'I' for Inactive)
REMARK    1  A    between atoms: C1_2  and  C2_3 
ROOT
ATOM      1  C2  UNL d   1      -1.944   2.489   1.094  0.00  0.00    -0.076 A 
ATOM      2  C3  UNL d   1      -1.579   2.035  -0.185  0.00  0.00     0.004 A 
ATOM      3  C4  UNL d   1      -0.250   1.746  -0.491  0.00  0.00    -0.003 A 
ATOM      4  C5  UNL d   1       0.735   1.904   0.477  0.00  0.00     0.000 A 
ATOM      5  C6  UNL d   1       0.388   2.337   1.757  0.00  0.00     0.000 A 
ATOM      6  C7  UNL d   1      -0.948   2.618   2.087  0.00  0.00    -0.073 A 
ATOM      7  C8  UNL d   1      -1.265   3.087   3.481  0.00  0.00     0.078 C 
ENDROOT
BRANCH   1   8
ATOM      8  C1  UNL d   1      -3.396   2.814   1.361  0.00  0.00     0.053 C 
ATOM      9  C   UNL d   1      -4.345   1.830   0.693  0.00  0.00     0.018 C 
ENDBRANCH   1   8
TORSDOF 1
ENDMDL
