MODEL 1
REMARK minimizedAffinity 2.8646853
REMARK minimizedRMSD -1
REMARK  0 active torsions:
REMARK  status: ('A' for Active; 'I' for Inactive)
ROOT
ATOM      1  C   UNL d   1      -1.275   1.399  -1.761  0.00  0.00     0.172 C 
ATOM      2  N   UNL d   1      -0.624   2.507  -1.103  0.00  0.00    -0.070 N 
ATOM      3  C1  UNL d   1      -0.331   2.583   0.232  0.00  0.00    -0.004 A 
ATOM      4  C2  UNL d   1       0.285   3.794   0.462  0.00  0.00    -0.047 A 
ATOM      5  C3  UNL d   1       0.365   4.470  -0.779  0.00  0.00    -0.047 A 
ATOM      6  C4  UNL d   1      -0.206   3.651  -1.730  0.00  0.00    -0.004 A 
ENDROOT
TORSDOF 0
ENDMDL
