MODEL 1
REMARK minimizedAffinity -3.38512802
REMARK minimizedRMSD -1
REMARK  0 active torsions:
REMARK  status: ('A' for Active; 'I' for Inactive)
ROOT
ATOM      1  C   UNL d   1       1.516  -1.405  -3.275  0.00  0.00     0.172 C 
ATOM      2  N   UNL d   1       1.581  -2.245  -2.102  0.00  0.00    -0.070 N 
ATOM      3  C1  UNL d   1       2.574  -2.225  -1.159  0.00  0.00    -0.004 A 
ATOM      4  C2  UNL d   1       2.270  -3.171  -0.205  0.00  0.00    -0.047 A 
ATOM      5  C3  UNL d   1       1.052  -3.783  -0.588  0.00  0.00    -0.047 A 
ATOM      6  C4  UNL d   1       0.648  -3.191  -1.766  0.00  0.00    -0.004 A 
ENDROOT
TORSDOF 0
ENDMDL
