MODEL 1
REMARK minimizedAffinity -1.28412843
REMARK minimizedRMSD -1
REMARK  0 active torsions:
REMARK  status: ('A' for Active; 'I' for Inactive)
ROOT
ATOM      1  C   UNL d   1       3.395  -1.786  -2.078  0.00  0.00     0.172 C 
ATOM      2  N   UNL d   1       3.788  -3.164  -2.258  0.00  0.00    -0.070 N 
ATOM      3  C1  UNL d   1       2.968  -4.182  -2.663  0.00  0.00    -0.004 A 
ATOM      4  C2  UNL d   1       3.719  -5.336  -2.712  0.00  0.00    -0.047 A 
ATOM      5  C3  UNL d   1       5.037  -5.000  -2.321  0.00  0.00    -0.047 A 
ATOM      6  C4  UNL d   1       5.052  -3.649  -2.046  0.00  0.00    -0.004 A 
ENDROOT
TORSDOF 0
ENDMDL
