MODEL 1
REMARK minimizedAffinity -1.28547192
REMARK minimizedRMSD -1
REMARK  0 active torsions:
REMARK  status: ('A' for Active; 'I' for Inactive)
ROOT
ATOM      1  C   UNL d   1       4.082  -2.523  -3.208  0.00  0.00     0.172 C 
ATOM      2  N   UNL d   1       4.261  -3.822  -2.604  0.00  0.00    -0.070 N 
ATOM      3  C1  UNL d   1       3.267  -4.599  -2.072  0.00  0.00    -0.004 A 
ATOM      4  C2  UNL d   1       3.844  -5.758  -1.599  0.00  0.00    -0.047 A 
ATOM      5  C3  UNL d   1       5.233  -5.674  -1.856  0.00  0.00    -0.047 A 
ATOM      6  C4  UNL d   1       5.464  -4.466  -2.478  0.00  0.00    -0.004 A 
ENDROOT
TORSDOF 0
ENDMDL
