MODEL 1
REMARK minimizedAffinity 3.27996373
REMARK minimizedRMSD -1
REMARK  0 active torsions:
REMARK  status: ('A' for Active; 'I' for Inactive)
ROOT
ATOM      1  C   UNL d   1       0.002   3.185   0.261  0.00  0.00     0.172 C 
ATOM      2  N   UNL d   1       0.418   2.845   1.601  0.00  0.00    -0.070 N 
ATOM      3  C1  UNL d   1       1.700   2.913   2.080  0.00  0.00    -0.004 A 
ATOM      4  C2  UNL d   1       1.680   2.508   3.397  0.00  0.00    -0.047 A 
ATOM      5  C3  UNL d   1       0.340   2.185   3.721  0.00  0.00    -0.047 A 
ATOM      6  C4  UNL d   1      -0.419   2.403   2.591  0.00  0.00    -0.004 A 
ENDROOT
TORSDOF 0
ENDMDL
