MODEL 1
REMARK minimizedAffinity 4.33615255
REMARK minimizedRMSD -1
REMARK  0 active torsions:
REMARK  status: ('A' for Active; 'I' for Inactive)
ROOT
ATOM      1  C   UNL d   1       2.081  -5.093  -1.103  0.00  0.00     0.172 C 
ATOM      2  N   UNL d   1       2.992  -4.034  -1.466  0.00  0.00    -0.070 N 
ATOM      3  C1  UNL d   1       3.594  -3.881  -2.687  0.00  0.00    -0.004 A 
ATOM      4  C2  UNL d   1       4.384  -2.754  -2.630  0.00  0.00    -0.047 A 
ATOM      5  C3  UNL d   1       4.254  -2.211  -1.330  0.00  0.00    -0.047 A 
ATOM      6  C4  UNL d   1       3.386  -3.023  -0.630  0.00  0.00    -0.004 A 
ENDROOT
TORSDOF 0
ENDMDL
