MODEL 1
REMARK minimizedAffinity -0.371435851
REMARK minimizedRMSD -1
REMARK  0 active torsions:
REMARK  status: ('A' for Active; 'I' for Inactive)
ROOT
ATOM      1  C   UNL d   1      -1.745  -5.846  -5.212  0.00  0.00     0.172 C 
ATOM      2  N   UNL d   1      -3.085  -5.345  -5.410  0.00  0.00    -0.070 N 
ATOM      3  C1  UNL d   1      -3.413  -4.153  -5.999  0.00  0.00    -0.004 A 
ATOM      4  C2  UNL d   1      -4.787  -4.046  -5.997  0.00  0.00    -0.047 A 
ATOM      5  C3  UNL d   1      -5.303  -5.213  -5.385  0.00  0.00    -0.047 A 
ATOM      6  C4  UNL d   1      -4.227  -6.000  -5.031  0.00  0.00    -0.004 A 
ENDROOT
TORSDOF 0
ENDMDL
