MODEL 1
REMARK minimizedAffinity 2.01098061
REMARK minimizedRMSD -1
REMARK  0 active torsions:
REMARK  status: ('A' for Active; 'I' for Inactive)
ROOT
ATOM      1  C   UNL d   1       2.258  -5.606  -1.859  0.00  0.00     0.172 C 
ATOM      2  N   UNL d   1       3.150  -4.502  -1.595  0.00  0.00    -0.070 N 
ATOM      3  C1  UNL d   1       3.818  -4.279  -0.420  0.00  0.00    -0.004 A 
ATOM      4  C2  UNL d   1       4.563  -3.129  -0.570  0.00  0.00    -0.047 A 
ATOM      5  C3  UNL d   1       4.334  -2.644  -1.880  0.00  0.00    -0.047 A 
ATOM      6  C4  UNL d   1       3.455  -3.513  -2.492  0.00  0.00    -0.004 A 
ENDROOT
TORSDOF 0
ENDMDL
