MODEL 1
REMARK minimizedAffinity -0.596875668
REMARK minimizedRMSD -1
REMARK  1 active torsions:
REMARK  status: ('A' for Active; 'I' for Inactive)
REMARK    1  A    between atoms: C1_2  and  C2_3 
ROOT
ATOM      1  C2  UNL d   1       1.176   2.834  -0.194  0.00  0.00    -0.077 A 
ATOM      2  C3  UNL d   1       1.008   1.647   0.533  0.00  0.00     0.002 A 
ATOM      3  C4  UNL d   1       0.924   0.420  -0.128  0.00  0.00     0.002 A 
ATOM      4  C5  UNL d   1       1.011   0.368  -1.517  0.00  0.00    -0.004 A 
ATOM      5  C6  UNL d   1       1.177   1.543  -2.249  0.00  0.00     0.002 A 
ATOM      6  C7  UNL d   1       1.260   2.770  -1.591  0.00  0.00     0.002 A 
ENDROOT
BRANCH   1   7
ATOM      7  C1  UNL d   1       1.316   4.153   0.520  0.00  0.00     0.055 C 
ATOM      8  C   UNL d   1       1.772   5.251  -0.430  0.00  0.00     0.019 C 
ENDBRANCH   1   7
TORSDOF 1
ENDMDL
