MODEL 1
REMARK minimizedAffinity -5.95216322
REMARK minimizedRMSD -1
REMARK  1 active torsions:
REMARK  status: ('A' for Active; 'I' for Inactive)
REMARK    1  A    between atoms: C1_2  and  C2_3 
ROOT
ATOM      1  C2  UNL d   1       1.711   2.800  -0.950  0.00  0.00    -0.077 A 
ATOM      2  C3  UNL d   1       1.660   2.419   0.398  0.00  0.00     0.002 A 
ATOM      3  C4  UNL d   1       1.122   1.183   0.762  0.00  0.00     0.002 A 
ATOM      4  C5  UNL d   1       0.636   0.317  -0.216  0.00  0.00    -0.004 A 
ATOM      5  C6  UNL d   1       0.681   0.689  -1.559  0.00  0.00     0.002 A 
ATOM      6  C7  UNL d   1       1.217   1.924  -1.925  0.00  0.00     0.002 A 
ENDROOT
BRANCH   1   7
ATOM      7  C1  UNL d   1       2.336   4.112  -1.349  0.00  0.00     0.055 C 
ATOM      8  C   UNL d   1       1.819   5.256  -0.488  0.00  0.00     0.019 C 
ENDBRANCH   1   7
TORSDOF 1
ENDMDL
