MODEL 1
REMARK minimizedAffinity 0.933065593
REMARK minimizedRMSD -1
REMARK  1 active torsions:
REMARK  status: ('A' for Active; 'I' for Inactive)
REMARK    1  A    between atoms: C1_2  and  C2_3 
ROOT
ATOM      1  C2  UNL d   1       1.647   2.469  -1.245  0.00  0.00    -0.077 A 
ATOM      2  C3  UNL d   1       1.945   1.278  -1.922  0.00  0.00     0.002 A 
ATOM      3  C4  UNL d   1       1.713   0.043  -1.314  0.00  0.00     0.002 A 
ATOM      4  C5  UNL d   1       1.179  -0.013  -0.028  0.00  0.00    -0.004 A 
ATOM      5  C6  UNL d   1       0.881   1.165   0.654  0.00  0.00     0.002 A 
ATOM      6  C7  UNL d   1       1.113   2.401   0.048  0.00  0.00     0.002 A 
ENDROOT
BRANCH   1   7
ATOM      7  C1  UNL d   1       1.850   3.801  -1.919  0.00  0.00     0.055 C 
ATOM      8  C   UNL d   1       1.819   4.941  -0.911  0.00  0.00     0.019 C 
ENDBRANCH   1   7
TORSDOF 1
ENDMDL
