MODEL 1
REMARK minimizedAffinity -0.568775296
REMARK minimizedRMSD -1
REMARK  1 active torsions:
REMARK  status: ('A' for Active; 'I' for Inactive)
REMARK    1  A    between atoms: C1_2  and  C2_3 
ROOT
ATOM      1  C2  UNL d   1       1.458   4.044  -1.121  0.00  0.00    -0.077 A 
ATOM      2  C3  UNL d   1       0.712   3.875  -2.296  0.00  0.00     0.002 A 
ATOM      3  C4  UNL d   1       0.315   2.599  -2.702  0.00  0.00     0.002 A 
ATOM      4  C5  UNL d   1       0.655   1.485  -1.938  0.00  0.00    -0.004 A 
ATOM      5  C6  UNL d   1       1.398   1.643  -0.769  0.00  0.00     0.002 A 
ATOM      6  C7  UNL d   1       1.797   2.917  -0.362  0.00  0.00     0.002 A 
ENDROOT
BRANCH   1   7
ATOM      7  C1  UNL d   1       1.845   5.424  -0.655  0.00  0.00     0.055 C 
ATOM      8  C   UNL d   1       3.001   5.980  -1.474  0.00  0.00     0.019 C 
ENDBRANCH   1   7
TORSDOF 1
ENDMDL
