MODEL 1
REMARK minimizedAffinity -2.81614661
REMARK minimizedRMSD -1
REMARK  1 active torsions:
REMARK  status: ('A' for Active; 'I' for Inactive)
REMARK    1  A    between atoms: C1_2  and  C2_3 
ROOT
ATOM      1  C2  UNL d   1       1.210   0.579  -0.817  0.00  0.00    -0.077 A 
ATOM      2  C3  UNL d   1       1.665   1.585  -1.680  0.00  0.00     0.002 A 
ATOM      3  C4  UNL d   1       1.748   2.908  -1.242  0.00  0.00     0.002 A 
ATOM      4  C5  UNL d   1       1.380   3.236   0.061  0.00  0.00    -0.004 A 
ATOM      5  C6  UNL d   1       0.924   2.244   0.927  0.00  0.00     0.002 A 
ATOM      6  C7  UNL d   1       0.839   0.921   0.491  0.00  0.00     0.002 A 
ENDROOT
BRANCH   1   7
ATOM      7  C1  UNL d   1       1.167  -0.856  -1.272  0.00  0.00     0.055 C 
ATOM      8  C   UNL d   1       1.969  -1.756  -0.343  0.00  0.00     0.019 C 
ENDBRANCH   1   7
TORSDOF 1
ENDMDL
