MODEL 1
REMARK minimizedAffinity 0.173765138
REMARK minimizedRMSD -1
REMARK  1 active torsions:
REMARK  status: ('A' for Active; 'I' for Inactive)
REMARK    1  A    between atoms: C1_2  and  C2_3 
ROOT
ATOM      1  C2  UNL d   1       1.391   3.064  -0.899  0.00  0.00    -0.077 A 
ATOM      2  C3  UNL d   1       1.204   2.801   0.465  0.00  0.00     0.002 A 
ATOM      3  C4  UNL d   1       0.956   1.500   0.906  0.00  0.00     0.002 A 
ATOM      4  C5  UNL d   1       0.897   0.452  -0.010  0.00  0.00    -0.004 A 
ATOM      5  C6  UNL d   1       1.080   0.703  -1.369  0.00  0.00     0.002 A 
ATOM      6  C7  UNL d   1       1.327   2.003  -1.812  0.00  0.00     0.002 A 
ENDROOT
BRANCH   1   7
ATOM      7  C1  UNL d   1       1.708   4.459  -1.372  0.00  0.00     0.055 C 
ATOM      8  C   UNL d   1       1.805   5.430  -0.204  0.00  0.00     0.019 C 
ENDBRANCH   1   7
TORSDOF 1
ENDMDL
