MODEL 1
REMARK minimizedAffinity -4.6313777
REMARK minimizedRMSD -1
REMARK  1 active torsions:
REMARK  status: ('A' for Active; 'I' for Inactive)
REMARK    1  A    between atoms: C1_2  and  C2_3 
ROOT
ATOM      1  C2  UNL d   1       1.276   1.521  -0.132  0.00  0.00    -0.077 A 
ATOM      2  C3  UNL d   1       1.529   2.031  -1.413  0.00  0.00     0.002 A 
ATOM      3  C4  UNL d   1       1.636   3.408  -1.616  0.00  0.00     0.002 A 
ATOM      4  C5  UNL d   1       1.497   4.286  -0.543  0.00  0.00    -0.004 A 
ATOM      5  C6  UNL d   1       1.244   3.788   0.735  0.00  0.00     0.002 A 
ATOM      6  C7  UNL d   1       1.135   2.412   0.939  0.00  0.00     0.002 A 
ENDROOT
BRANCH   1   7
ATOM      7  C1  UNL d   1       1.209   0.034   0.098  0.00  0.00     0.055 C 
ATOM      8  C   UNL d   1       1.246  -0.732  -1.217  0.00  0.00     0.019 C 
ENDBRANCH   1   7
TORSDOF 1
ENDMDL
