MODEL 1
REMARK minimizedAffinity 3.76471281
REMARK minimizedRMSD -1
REMARK  1 active torsions:
REMARK  status: ('A' for Active; 'I' for Inactive)
REMARK    1  A    between atoms: C1_2  and  C2_3 
ROOT
ATOM      1  C2  UNL d   1       1.333   3.737  -0.493  0.00  0.00    -0.077 A 
ATOM      2  C3  UNL d   1       1.441   3.008   0.699  0.00  0.00     0.002 A 
ATOM      3  C4  UNL d   1       1.740   1.645   0.669  0.00  0.00     0.002 A 
ATOM      4  C5  UNL d   1       1.937   1.000  -0.550  0.00  0.00    -0.004 A 
ATOM      5  C6  UNL d   1       1.830   1.715  -1.742  0.00  0.00     0.002 A 
ATOM      6  C7  UNL d   1       1.530   3.078  -1.714  0.00  0.00     0.002 A 
ENDROOT
BRANCH   1   7
ATOM      7  C1  UNL d   1       1.059   5.218  -0.461  0.00  0.00     0.055 C 
ATOM      8  C   UNL d   1       2.157   6.000  -1.167  0.00  0.00     0.019 C 
ENDBRANCH   1   7
TORSDOF 1
ENDMDL
