MODEL 1
REMARK minimizedAffinity -4.7543335
REMARK minimizedRMSD -1
REMARK  1 active torsions:
REMARK  status: ('A' for Active; 'I' for Inactive)
REMARK    1  A    between atoms: C1_2  and  C2_3 
ROOT
ATOM      1  C2  UNL d   1       1.207   1.233  -0.256  0.00  0.00    -0.077 A 
ATOM      2  C3  UNL d   1       1.368   2.040  -1.391  0.00  0.00     0.002 A 
ATOM      3  C4  UNL d   1       1.359   3.431  -1.276  0.00  0.00     0.002 A 
ATOM      4  C5  UNL d   1       1.195   4.028  -0.027  0.00  0.00    -0.004 A 
ATOM      5  C6  UNL d   1       1.033   3.234   1.108  0.00  0.00     0.002 A 
ATOM      6  C7  UNL d   1       1.040   1.843   0.994  0.00  0.00     0.002 A 
ENDROOT
BRANCH   1   7
ATOM      7  C1  UNL d   1       1.265  -0.267  -0.371  0.00  0.00     0.055 C 
ATOM      8  C   UNL d   1       0.680  -0.744  -1.693  0.00  0.00     0.019 C 
ENDBRANCH   1   7
TORSDOF 1
ENDMDL
