MODEL 1
REMARK minimizedAffinity -5.87344265
REMARK minimizedRMSD -1
REMARK  0 active torsions:
REMARK  status: ('A' for Active; 'I' for Inactive)
ROOT
ATOM      1  C   UNL d   1       1.043   0.500   0.726  0.00  0.00     0.078 C 
ATOM      2  C1  UNL d   1      -0.253  -0.249   0.641  0.00  0.00    -0.077 A 
ATOM      3  C2  UNL d   1      -0.476  -1.395   1.414  0.00  0.00    -0.001 A 
ATOM      4  C3  UNL d   1      -1.684  -2.087   1.318  0.00  0.00     0.003 A 
ATOM      5  C4  UNL d   1      -2.679  -1.642   0.449  0.00  0.00    -0.005 A 
ATOM      6  C5  UNL d   1      -2.465  -0.504  -0.326  0.00  0.00     0.003 A 
ATOM      7  C6  UNL d   1      -1.258   0.190  -0.231  0.00  0.00    -0.001 A 
ENDROOT
TORSDOF 0
ENDMDL
