MODEL 1
REMARK minimizedAffinity -2.4903121
REMARK minimizedRMSD -1
REMARK  0 active torsions:
REMARK  status: ('A' for Active; 'I' for Inactive)
ROOT
ATOM      1  C   UNL d   1      -1.115  -0.138   0.206  0.00  0.00     0.078 C 
ATOM      2  C1  UNL d   1       0.116   0.718   0.207  0.00  0.00    -0.077 A 
ATOM      3  C2  UNL d   1       1.391   0.148   0.106  0.00  0.00    -0.001 A 
ATOM      4  C3  UNL d   1       2.528   0.956   0.118  0.00  0.00     0.003 A 
ATOM      5  C4  UNL d   1       2.403   2.340   0.232  0.00  0.00    -0.005 A 
ATOM      6  C5  UNL d   1       1.138   2.916   0.335  0.00  0.00     0.003 A 
ATOM      7  C6  UNL d   1      -0.001   2.109   0.323  0.00  0.00    -0.001 A 
ENDROOT
TORSDOF 0
ENDMDL
