MODEL 1
REMARK minimizedAffinity -4.6103344
REMARK minimizedRMSD -1
REMARK  0 active torsions:
REMARK  status: ('A' for Active; 'I' for Inactive)
ROOT
ATOM      1  C   UNL d   1      -1.935  -1.386   1.765  0.00  0.00     0.078 C 
ATOM      2  C1  UNL d   1      -1.619  -0.949   0.366  0.00  0.00    -0.077 A 
ATOM      3  C2  UNL d   1      -2.406  -1.367  -0.715  0.00  0.00    -0.001 A 
ATOM      4  C3  UNL d   1      -2.095  -0.961  -2.013  0.00  0.00     0.003 A 
ATOM      5  C4  UNL d   1      -0.996  -0.136  -2.244  0.00  0.00    -0.005 A 
ATOM      6  C5  UNL d   1      -0.206   0.284  -1.175  0.00  0.00     0.003 A 
ATOM      7  C6  UNL d   1      -0.516  -0.122   0.124  0.00  0.00    -0.001 A 
ENDROOT
TORSDOF 0
ENDMDL
