MODEL 1
REMARK minimizedAffinity -5.36742306
REMARK minimizedRMSD -1
REMARK  0 active torsions:
REMARK  status: ('A' for Active; 'I' for Inactive)
ROOT
ATOM      1  C   UNL d   1       1.280   0.211  -0.393  0.00  0.00     0.078 C 
ATOM      2  C1  UNL d   1      -0.176  -0.142  -0.444  0.00  0.00    -0.077 A 
ATOM      3  C2  UNL d   1      -0.931   0.077  -1.603  0.00  0.00    -0.001 A 
ATOM      4  C3  UNL d   1      -2.288  -0.248  -1.634  0.00  0.00     0.003 A 
ATOM      5  C4  UNL d   1      -2.902  -0.792  -0.508  0.00  0.00    -0.005 A 
ATOM      6  C5  UNL d   1      -2.160  -1.011   0.651  0.00  0.00     0.003 A 
ATOM      7  C6  UNL d   1      -0.803  -0.687   0.683  0.00  0.00    -0.001 A 
ENDROOT
TORSDOF 0
ENDMDL
