MODEL 1
REMARK minimizedAffinity -4.73038673
REMARK minimizedRMSD -1
REMARK  0 active torsions:
REMARK  status: ('A' for Active; 'I' for Inactive)
ROOT
ATOM      1  C   UNL d   1      -2.927  -0.989  -0.747  0.00  0.00     0.078 C 
ATOM      2  C1  UNL d   1      -1.509  -0.564  -0.506  0.00  0.00    -0.077 A 
ATOM      3  C2  UNL d   1      -0.861  -0.866   0.697  0.00  0.00    -0.001 A 
ATOM      4  C3  UNL d   1       0.456  -0.456   0.912  0.00  0.00     0.003 A 
ATOM      5  C4  UNL d   1       1.135   0.260  -0.072  0.00  0.00    -0.005 A 
ATOM      6  C5  UNL d   1       0.497   0.568  -1.272  0.00  0.00     0.003 A 
ATOM      7  C6  UNL d   1      -0.820   0.158  -1.488  0.00  0.00    -0.001 A 
ENDROOT
TORSDOF 0
ENDMDL
