MODEL 1
REMARK minimizedAffinity -4.65816116
REMARK minimizedRMSD -1
REMARK  0 active torsions:
REMARK  status: ('A' for Active; 'I' for Inactive)
ROOT
ATOM      1  C   UNL d   1       2.291   1.517  -0.293  0.00  0.00     0.078 C 
ATOM      2  C1  UNL d   1       0.991   0.853   0.050  0.00  0.00    -0.077 A 
ATOM      3  C2  UNL d   1      -0.232   1.424  -0.323  0.00  0.00    -0.001 A 
ATOM      4  C3  UNL d   1      -1.434   0.800   0.011  0.00  0.00     0.003 A 
ATOM      5  C4  UNL d   1      -1.427  -0.398   0.723  0.00  0.00    -0.005 A 
ATOM      6  C5  UNL d   1      -0.215  -0.973   1.101  0.00  0.00     0.003 A 
ATOM      7  C6  UNL d   1       0.988  -0.350   0.767  0.00  0.00    -0.001 A 
ENDROOT
TORSDOF 0
ENDMDL
