MODEL 1
REMARK minimizedAffinity -0.64949131
REMARK minimizedRMSD -1
REMARK  0 active torsions:
REMARK  status: ('A' for Active; 'I' for Inactive)
ROOT
ATOM      1  C   UNL d   1       1.349   0.053   0.269  0.00  0.00     0.078 C 
ATOM      2  C1  UNL d   1       1.938   1.388   0.614  0.00  0.00    -0.077 A 
ATOM      3  C2  UNL d   1       2.460   2.224  -0.381  0.00  0.00    -0.001 A 
ATOM      4  C3  UNL d   1       3.014   3.460  -0.045  0.00  0.00     0.003 A 
ATOM      5  C4  UNL d   1       3.054   3.871   1.286  0.00  0.00    -0.005 A 
ATOM      6  C5  UNL d   1       2.539   3.044   2.283  0.00  0.00     0.003 A 
ATOM      7  C6  UNL d   1       1.984   1.808   1.949  0.00  0.00    -0.001 A 
ENDROOT
TORSDOF 0
ENDMDL
