MODEL 1
REMARK minimizedAffinity -4.7322216
REMARK minimizedRMSD -1
REMARK  0 active torsions:
REMARK  status: ('A' for Active; 'I' for Inactive)
ROOT
ATOM      1  C   UNL d   1       1.300   0.858   0.578  0.00  0.00     0.078 C 
ATOM      2  C1  UNL d   1       0.000   0.312   0.065  0.00  0.00    -0.077 A 
ATOM      3  C2  UNL d   1      -0.381   0.491  -1.270  0.00  0.00    -0.001 A 
ATOM      4  C3  UNL d   1      -1.598  -0.014  -1.731  0.00  0.00     0.003 A 
ATOM      5  C4  UNL d   1      -2.444  -0.700  -0.862  0.00  0.00    -0.005 A 
ATOM      6  C5  UNL d   1      -2.074  -0.882   0.469  0.00  0.00     0.003 A 
ATOM      7  C6  UNL d   1      -0.858  -0.378   0.931  0.00  0.00    -0.001 A 
ENDROOT
TORSDOF 0
ENDMDL
