MODEL 1
REMARK minimizedAffinity -5.5446682
REMARK minimizedRMSD -1
REMARK  0 active torsions:
REMARK  status: ('A' for Active; 'I' for Inactive)
ROOT
ATOM      1  C   UNL d   1      -1.799  -2.575   1.473  0.00  0.00     0.078 C 
ATOM      2  C1  UNL d   1      -1.779  -1.424   0.512  0.00  0.00    -0.077 A 
ATOM      3  C2  UNL d   1      -2.945  -1.014  -0.147  0.00  0.00    -0.001 A 
ATOM      4  C3  UNL d   1      -2.909   0.053  -1.047  0.00  0.00     0.003 A 
ATOM      5  C4  UNL d   1      -1.711   0.718  -1.297  0.00  0.00    -0.005 A 
ATOM      6  C5  UNL d   1      -0.545   0.316  -0.648  0.00  0.00     0.003 A 
ATOM      7  C6  UNL d   1      -0.578  -0.751   0.252  0.00  0.00    -0.001 A 
ENDROOT
TORSDOF 0
ENDMDL
