MODEL 1
REMARK minimizedAffinity -3.40251184
REMARK minimizedRMSD -1
REMARK  0 active torsions:
REMARK  status: ('A' for Active; 'I' for Inactive)
ROOT
ATOM      1  C   UNL d   1      -3.001  -0.582   0.306  0.00  0.00     0.078 C 
ATOM      2  C1  UNL d   1      -1.542  -0.403   0.010  0.00  0.00    -0.077 A 
ATOM      3  C2  UNL d   1      -0.567  -0.744   0.956  0.00  0.00    -0.001 A 
ATOM      4  C3  UNL d   1       0.787  -0.563   0.670  0.00  0.00     0.003 A 
ATOM      5  C4  UNL d   1       1.179  -0.040  -0.560  0.00  0.00    -0.005 A 
ATOM      6  C5  UNL d   1       0.216   0.305  -1.507  0.00  0.00     0.003 A 
ATOM      7  C6  UNL d   1      -1.138   0.124  -1.223  0.00  0.00    -0.001 A 
ENDROOT
TORSDOF 0
ENDMDL
