MODEL 1
REMARK minimizedAffinity -4.53893614
REMARK minimizedRMSD -1
REMARK  0 active torsions:
REMARK  status: ('A' for Active; 'I' for Inactive)
ROOT
ATOM      1  C   UNL d   1       1.212   0.426   0.371  0.00  0.00     0.078 C 
ATOM      2  C1  UNL d   1      -0.066   0.158  -0.368  0.00  0.00    -0.077 A 
ATOM      3  C2  UNL d   1      -0.178   0.431  -1.737  0.00  0.00    -0.001 A 
ATOM      4  C3  UNL d   1      -1.376   0.186  -2.410  0.00  0.00     0.003 A 
ATOM      5  C4  UNL d   1      -2.472  -0.331  -1.722  0.00  0.00    -0.005 A 
ATOM      6  C5  UNL d   1      -2.370  -0.604  -0.359  0.00  0.00     0.003 A 
ATOM      7  C6  UNL d   1      -1.173  -0.360   0.315  0.00  0.00    -0.001 A 
ENDROOT
TORSDOF 0
ENDMDL
