MODEL 1
REMARK minimizedAffinity -4.79593563
REMARK minimizedRMSD -1
REMARK  0 active torsions:
REMARK  status: ('A' for Active; 'I' for Inactive)
ROOT
ATOM      1  C   UNL d   1       1.317   0.108   0.032  0.00  0.00     0.078 C 
ATOM      2  C1  UNL d   1      -0.158  -0.043  -0.190  0.00  0.00    -0.077 A 
ATOM      3  C2  UNL d   1      -0.740   0.288  -1.420  0.00  0.00    -0.001 A 
ATOM      4  C3  UNL d   1      -2.116   0.151  -1.609  0.00  0.00     0.003 A 
ATOM      5  C4  UNL d   1      -2.922  -0.316  -0.573  0.00  0.00    -0.005 A 
ATOM      6  C5  UNL d   1      -2.353  -0.646   0.655  0.00  0.00     0.003 A 
ATOM      7  C6  UNL d   1      -0.977  -0.510   0.846  0.00  0.00    -0.001 A 
ENDROOT
TORSDOF 0
ENDMDL
