MODEL 1
REMARK minimizedAffinity 1.02955627
REMARK minimizedRMSD -1
REMARK  0 active torsions:
REMARK  status: ('A' for Active; 'I' for Inactive)
ROOT
ATOM      1  C2' OXE d   1       2.883  -1.483  -1.347  0.00  0.00     0.078 C 
ATOM      2  C1' OXE d   1       4.777   0.312  -2.383  0.00  0.00     0.078 C 
ATOM      3  C1  OXE d   1       3.378   0.823  -2.147  0.00  0.00    -0.078 A 
ATOM      4  C2  OXE d   1       2.446  -0.074  -1.684  0.00  0.00    -0.078 A 
ATOM      5  C3  OXE d   1       1.154   0.359  -1.398  0.00  0.00     0.003 A 
ATOM      6  C4  OXE d   1       0.755   1.661  -1.723  0.00  0.00    -0.002 A 
ATOM      7  C5  OXE d   1       1.678   2.580  -2.233  0.00  0.00    -0.002 A 
ATOM      8  C6  OXE d   1       3.001   2.190  -2.411  0.00  0.00     0.003 A 
ENDROOT
TORSDOF 0
ENDMDL
