MODEL 1
REMARK minimizedAffinity 10.5494986
REMARK minimizedRMSD -1
REMARK  0 active torsions:
REMARK  status: ('A' for Active; 'I' for Inactive)
ROOT
ATOM      1  C2' OXE d   1       0.491  -3.465   0.970  0.00  0.00     0.078 C 
ATOM      2  C1' OXE d   1      -1.047  -1.998  -0.864  0.00  0.00     0.078 C 
ATOM      3  C1  OXE d   1       0.454  -1.872  -0.945  0.00  0.00    -0.078 A 
ATOM      4  C2  OXE d   1       1.197  -2.557  -0.014  0.00  0.00    -0.078 A 
ATOM      5  C3  OXE d   1       2.587  -2.519  -0.078  0.00  0.00     0.003 A 
ATOM      6  C4  OXE d   1       3.232  -1.669  -0.984  0.00  0.00    -0.002 A 
ATOM      7  C5  OXE d   1       2.493  -0.932  -1.915  0.00  0.00    -0.002 A 
ATOM      8  C6  OXE d   1       1.108  -1.055  -1.937  0.00  0.00     0.003 A 
ENDROOT
TORSDOF 0
ENDMDL
