MODEL 1
REMARK minimizedAffinity 6.00544691
REMARK minimizedRMSD -1
REMARK  0 active torsions:
REMARK  status: ('A' for Active; 'I' for Inactive)
ROOT
ATOM      1  C2' OXE d   1       4.310   0.316  -3.054  0.00  0.00     0.078 C 
ATOM      2  C1' OXE d   1       2.870  -1.543  -1.522  0.00  0.00     0.078 C 
ATOM      3  C1  OXE d   1       2.255  -0.183  -1.739  0.00  0.00    -0.078 A 
ATOM      4  C2  OXE d   1       2.987   0.736  -2.451  0.00  0.00    -0.078 A 
ATOM      5  C3  OXE d   1       2.443   1.987  -2.727  0.00  0.00     0.003 A 
ATOM      6  C4  OXE d   1       1.223   2.371  -2.156  0.00  0.00    -0.002 A 
ATOM      7  C5  OXE d   1       0.479   1.463  -1.395  0.00  0.00    -0.002 A 
ATOM      8  C6  OXE d   1       0.960   0.171  -1.213  0.00  0.00     0.003 A 
ENDROOT
TORSDOF 0
ENDMDL
