MODEL 1
REMARK minimizedAffinity 11.6005507
REMARK minimizedRMSD -1
REMARK  0 active torsions:
REMARK  status: ('A' for Active; 'I' for Inactive)
ROOT
ATOM      1  C2' OXE d   1       3.333   0.026  -1.536  0.00  0.00     0.078 C 
ATOM      2  C1' OXE d   1       1.140   1.766  -1.747  0.00  0.00     0.078 C 
ATOM      3  C1  OXE d   1       0.859   0.310  -1.468  0.00  0.00    -0.078 A 
ATOM      4  C2  OXE d   1       1.936  -0.542  -1.413  0.00  0.00    -0.078 A 
ATOM      5  C3  OXE d   1       1.737  -1.885  -1.104  0.00  0.00     0.003 A 
ATOM      6  C4  OXE d   1       0.441  -2.404  -1.001  0.00  0.00    -0.002 A 
ATOM      7  C5  OXE d   1      -0.671  -1.560  -1.094  0.00  0.00    -0.002 A 
ATOM      8  C6  OXE d   1      -0.478  -0.197  -1.284  0.00  0.00     0.003 A 
ENDROOT
TORSDOF 0
ENDMDL
