MODEL 1
REMARK minimizedAffinity 2.19809794
REMARK minimizedRMSD -1
REMARK  0 active torsions:
REMARK  status: ('A' for Active; 'I' for Inactive)
ROOT
ATOM      1  C2' OXE d   1      -6.000   0.650   6.000  0.00  0.00     0.078 C 
ATOM      2  C1' OXE d   1      -5.973   1.813   3.445  0.00  0.00     0.078 C 
ATOM      3  C1  OXE d   1      -4.960   0.735   3.738  0.00  0.00    -0.078 A 
ATOM      4  C2  OXE d   1      -4.950   0.204   5.005  0.00  0.00    -0.078 A 
ATOM      5  C3  OXE d   1      -4.072  -0.832   5.311  0.00  0.00     0.003 A 
ATOM      6  C4  OXE d   1      -3.098  -1.232   4.389  0.00  0.00    -0.002 A 
ATOM      7  C5  OXE d   1      -3.065  -0.676   3.105  0.00  0.00    -0.002 A 
ATOM      8  C6  OXE d   1      -4.014   0.276   2.751  0.00  0.00     0.003 A 
ENDROOT
TORSDOF 0
ENDMDL
