MODEL 1
REMARK minimizedAffinity 6.58702993
REMARK minimizedRMSD -1
REMARK  0 active torsions:
REMARK  status: ('A' for Active; 'I' for Inactive)
ROOT
ATOM      1  C2' OXE d   1       0.180   1.093  -0.127  0.00  0.00     0.078 C 
ATOM      2  C1' OXE d   1       1.933  -0.836  -1.171  0.00  0.00     0.078 C 
ATOM      3  C1  OXE d   1       1.768   0.453  -1.936  0.00  0.00    -0.078 A 
ATOM      4  C2  OXE d   1       0.873   1.372  -1.443  0.00  0.00    -0.078 A 
ATOM      5  C3  OXE d   1       0.724   2.600  -2.081  0.00  0.00     0.003 A 
ATOM      6  C4  OXE d   1       1.361   2.846  -3.303  0.00  0.00    -0.002 A 
ATOM      7  C5  OXE d   1       2.246   1.907  -3.844  0.00  0.00    -0.002 A 
ATOM      8  C6  OXE d   1       2.493   0.726  -3.153  0.00  0.00     0.003 A 
ENDROOT
TORSDOF 0
ENDMDL
