MODEL 1
REMARK minimizedAffinity 1.99401462
REMARK minimizedRMSD -1
REMARK  0 active torsions:
REMARK  status: ('A' for Active; 'I' for Inactive)
ROOT
ATOM      1  C2' OXE d   1      -5.418  -0.562   3.344  0.00  0.00     0.078 C 
ATOM      2  C1' OXE d   1      -4.133   1.185   5.127  0.00  0.00     0.078 C 
ATOM      3  C1  OXE d   1      -3.270   0.276   4.289  0.00  0.00    -0.078 A 
ATOM      4  C2  OXE d   1      -3.909  -0.609   3.453  0.00  0.00    -0.078 A 
ATOM      5  C3  OXE d   1      -3.159  -1.432   2.618  0.00  0.00     0.003 A 
ATOM      6  C4  OXE d   1      -1.764  -1.476   2.732  0.00  0.00    -0.002 A 
ATOM      7  C5  OXE d   1      -1.096  -0.612   3.605  0.00  0.00    -0.002 A 
ATOM      8  C6  OXE d   1      -1.830   0.298   4.358  0.00  0.00     0.003 A 
ENDROOT
TORSDOF 0
ENDMDL
