MODEL 1
REMARK minimizedAffinity 3.43667984
REMARK minimizedRMSD -1
REMARK  0 active torsions:
REMARK  status: ('A' for Active; 'I' for Inactive)
ROOT
ATOM      1  C2' OXE d   1       1.486   0.340  -0.977  0.00  0.00     0.078 C 
ATOM      2  C1' OXE d   1       1.278   1.181  -3.647  0.00  0.00     0.078 C 
ATOM      3  C1  OXE d   1       1.082  -0.285  -3.354  0.00  0.00    -0.078 A 
ATOM      4  C2  OXE d   1       1.231  -0.695  -2.051  0.00  0.00    -0.078 A 
ATOM      5  C3  OXE d   1       1.007  -2.028  -1.718  0.00  0.00     0.003 A 
ATOM      6  C4  OXE d   1       0.781  -2.981  -2.719  0.00  0.00    -0.002 A 
ATOM      7  C5  OXE d   1       0.665  -2.590  -4.057  0.00  0.00    -0.002 A 
ATOM      8  C6  OXE d   1       0.770  -1.243  -4.386  0.00  0.00     0.003 A 
ENDROOT
TORSDOF 0
ENDMDL
