MODEL 1
REMARK minimizedAffinity 2.60526776
REMARK minimizedRMSD -1
REMARK  0 active torsions:
REMARK  status: ('A' for Active; 'I' for Inactive)
ROOT
ATOM      1  C2' OXE d   1       1.479   4.506  -6.000  0.00  0.00     0.078 C 
ATOM      2  C1' OXE d   1       2.108   5.283  -3.376  0.00  0.00     0.078 C 
ATOM      3  C1  OXE d   1       1.845   3.820  -3.633  0.00  0.00    -0.078 A 
ATOM      4  C2  OXE d   1       1.493   3.455  -4.910  0.00  0.00    -0.078 A 
ATOM      5  C3  OXE d   1       1.294   2.112  -5.214  0.00  0.00     0.003 A 
ATOM      6  C4  OXE d   1       1.298   1.147  -4.198  0.00  0.00    -0.002 A 
ATOM      7  C5  OXE d   1       1.616   1.503  -2.883  0.00  0.00    -0.002 A 
ATOM      8  C6  OXE d   1       1.933   2.825  -2.593  0.00  0.00     0.003 A 
ENDROOT
TORSDOF 0
ENDMDL
