MODEL 1
REMARK minimizedAffinity 4.84729767
REMARK minimizedRMSD -1
REMARK  0 active torsions:
REMARK  status: ('A' for Active; 'I' for Inactive)
ROOT
ATOM      1  C2' OXE d   1       0.512  -2.095  -3.247  0.00  0.00     0.078 C 
ATOM      2  C1' OXE d   1       2.177   0.122  -2.809  0.00  0.00     0.078 C 
ATOM      3  C1  OXE d   1       2.267  -1.028  -1.837  0.00  0.00    -0.078 A 
ATOM      4  C2  OXE d   1       1.416  -2.089  -2.033  0.00  0.00    -0.078 A 
ATOM      5  C3  OXE d   1       1.496  -3.199  -1.198  0.00  0.00     0.003 A 
ATOM      6  C4  OXE d   1       2.327  -3.181  -0.071  0.00  0.00    -0.002 A 
ATOM      7  C5  OXE d   1       3.173  -2.093   0.169  0.00  0.00    -0.002 A 
ATOM      8  C6  OXE d   1       3.186  -1.029  -0.726  0.00  0.00     0.003 A 
ENDROOT
TORSDOF 0
ENDMDL
