MODEL 1
REMARK minimizedAffinity -2.26295304
REMARK minimizedRMSD -1
REMARK  0 active torsions:
REMARK  status: ('A' for Active; 'I' for Inactive)
ROOT
ATOM      1  C2' OXE d   1      -0.475   0.538  -0.472  0.00  0.00     0.078 C 
ATOM      2  C1' OXE d   1       0.847  -1.935  -0.346  0.00  0.00     0.078 C 
ATOM      3  C1  OXE d   1       1.490  -0.834  -1.152  0.00  0.00    -0.078 A 
ATOM      4  C2  OXE d   1       0.813   0.358  -1.246  0.00  0.00    -0.078 A 
ATOM      5  C3  OXE d   1       1.388   1.425  -1.932  0.00  0.00     0.003 A 
ATOM      6  C4  OXE d   1       2.574   1.247  -2.653  0.00  0.00    -0.002 A 
ATOM      7  C5  OXE d   1       3.260   0.028  -2.603  0.00  0.00    -0.002 A 
ATOM      8  C6  OXE d   1       2.754  -1.007  -1.824  0.00  0.00     0.003 A 
ENDROOT
TORSDOF 0
ENDMDL
