MODEL 1
REMARK minimizedAffinity 6.3256402
REMARK minimizedRMSD -1
REMARK  0 active torsions:
REMARK  status: ('A' for Active; 'I' for Inactive)
ROOT
ATOM      1  C2' OXE d   1       2.020  -2.523  -1.105  0.00  0.00     0.078 C 
ATOM      2  C1' OXE d   1       0.328  -2.380  -3.340  0.00  0.00     0.078 C 
ATOM      3  C1  OXE d   1       1.133  -1.154  -2.987  0.00  0.00    -0.078 A 
ATOM      4  C2  OXE d   1       1.923  -1.218  -1.864  0.00  0.00    -0.078 A 
ATOM      5  C3  OXE d   1       2.727  -0.134  -1.525  0.00  0.00     0.003 A 
ATOM      6  C4  OXE d   1       2.623   1.074  -2.226  0.00  0.00    -0.002 A 
ATOM      7  C5  OXE d   1       1.794   1.173  -3.349  0.00  0.00    -0.002 A 
ATOM      8  C6  OXE d   1       1.076   0.058  -3.767  0.00  0.00     0.003 A 
ENDROOT
TORSDOF 0
ENDMDL
