MODEL 1
REMARK minimizedAffinity -1.23137558
REMARK minimizedRMSD -1
REMARK  0 active torsions:
REMARK  status: ('A' for Active; 'I' for Inactive)
ROOT
ATOM      1  C2' OXE d   1       3.391   1.465  -2.344  0.00  0.00     0.078 C 
ATOM      2  C1' OXE d   1       1.042   2.102  -3.742  0.00  0.00     0.078 C 
ATOM      3  C1  OXE d   1       0.985   2.102  -2.235  0.00  0.00    -0.078 A 
ATOM      4  C2  OXE d   1       2.127   1.744  -1.559  0.00  0.00    -0.078 A 
ATOM      5  C3  OXE d   1       2.144   1.780  -0.168  0.00  0.00     0.003 A 
ATOM      6  C4  OXE d   1       0.968   2.029   0.550  0.00  0.00    -0.002 A 
ATOM      7  C5  OXE d   1      -0.216   2.358  -0.119  0.00  0.00    -0.002 A 
ATOM      8  C6  OXE d   1      -0.213   2.440  -1.507  0.00  0.00     0.003 A 
ENDROOT
TORSDOF 0
ENDMDL
