MODEL 1
REMARK minimizedAffinity 7.40692711
REMARK minimizedRMSD -1
REMARK  0 active torsions:
REMARK  status: ('A' for Active; 'I' for Inactive)
ROOT
ATOM      1  C2' OXE d   1       1.135   0.942  -3.973  0.00  0.00     0.078 C 
ATOM      2  C1' OXE d   1       3.331   1.559  -2.336  0.00  0.00     0.078 C 
ATOM      3  C1  OXE d   1       2.660   0.223  -2.139  0.00  0.00    -0.078 A 
ATOM      4  C2  OXE d   1       1.557  -0.051  -2.912  0.00  0.00    -0.078 A 
ATOM      5  C3  OXE d   1       0.934  -1.292  -2.809  0.00  0.00     0.003 A 
ATOM      6  C4  OXE d   1       1.324  -2.201  -1.819  0.00  0.00    -0.002 A 
ATOM      7  C5  OXE d   1       2.420  -1.925  -0.994  0.00  0.00    -0.002 A 
ATOM      8  C6  OXE d   1       3.123  -0.739  -1.169  0.00  0.00     0.003 A 
ENDROOT
TORSDOF 0
ENDMDL
