MODEL 1
REMARK minimizedAffinity 6.6914959
REMARK minimizedRMSD -1
REMARK  0 active torsions:
REMARK  status: ('A' for Active; 'I' for Inactive)
ROOT
ATOM      1  C2' OXE d   1      -1.200   2.694   0.989  0.00  0.00     0.078 C 
ATOM      2  C1' OXE d   1       1.480   2.368   1.757  0.00  0.00     0.078 C 
ATOM      3  C1  OXE d   1       1.099   1.977   0.351  0.00  0.00    -0.078 A 
ATOM      4  C2  OXE d   1      -0.224   2.096  -0.002  0.00  0.00    -0.078 A 
ATOM      5  C3  OXE d   1      -0.620   1.801  -1.303  0.00  0.00     0.003 A 
ATOM      6  C4  OXE d   1       0.287   1.239  -2.209  0.00  0.00    -0.002 A 
ATOM      7  C5  OXE d   1       1.630   1.072  -1.858  0.00  0.00    -0.002 A 
ATOM      8  C6  OXE d   1       2.061   1.475  -0.599  0.00  0.00     0.003 A 
ENDROOT
TORSDOF 0
ENDMDL
