MODEL 1
REMARK minimizedAffinity 6.28126717
REMARK minimizedRMSD -1
REMARK  0 active torsions:
REMARK  status: ('A' for Active; 'I' for Inactive)
ROOT
ATOM      1  C2' OXE d   1      -0.658   1.639  -1.637  0.00  0.00     0.078 C 
ATOM      2  C1' OXE d   1       1.981   2.120  -2.466  0.00  0.00     0.078 C 
ATOM      3  C1  OXE d   1       1.637   0.733  -1.981  0.00  0.00    -0.078 A 
ATOM      4  C2  OXE d   1       0.356   0.520  -1.534  0.00  0.00    -0.078 A 
ATOM      5  C3  OXE d   1      -0.029  -0.755  -1.127  0.00  0.00     0.003 A 
ATOM      6  C4  OXE d   1       0.917  -1.782  -1.025  0.00  0.00    -0.002 A 
ATOM      7  C5  OXE d   1       2.238  -1.575  -1.438  0.00  0.00    -0.002 A 
ATOM      8  C6  OXE d   1       2.603  -0.338  -1.957  0.00  0.00     0.003 A 
ENDROOT
TORSDOF 0
ENDMDL
