MODEL 1
REMARK minimizedAffinity 2.79196239
REMARK minimizedRMSD -1
REMARK  0 active torsions:
REMARK  status: ('A' for Active; 'I' for Inactive)
ROOT
ATOM      1  C2' OXE d   1      -0.776   2.464   0.659  0.00  0.00     0.078 C 
ATOM      2  C1' OXE d   1       1.927   2.284   1.392  0.00  0.00     0.078 C 
ATOM      3  C1  OXE d   1       1.537   1.799   0.018  0.00  0.00    -0.078 A 
ATOM      4  C2  OXE d   1       0.205   1.848  -0.315  0.00  0.00    -0.078 A 
ATOM      5  C3  OXE d   1      -0.202   1.465  -1.590  0.00  0.00     0.003 A 
ATOM      6  C4  OXE d   1       0.710   0.887  -2.481  0.00  0.00    -0.002 A 
ATOM      7  C5  OXE d   1       2.066   0.791  -2.147  0.00  0.00    -0.002 A 
ATOM      8  C6  OXE d   1       2.501   1.281  -0.921  0.00  0.00     0.003 A 
ENDROOT
TORSDOF 0
ENDMDL
