MODEL 1
REMARK minimizedAffinity 2.53253603
REMARK minimizedRMSD -1
REMARK  0 active torsions:
REMARK  status: ('A' for Active; 'I' for Inactive)
ROOT
ATOM      1  C2' OXE d   1       2.522  -1.156  -1.583  0.00  0.00     0.078 C 
ATOM      2  C1' OXE d   1       4.167   0.414  -3.229  0.00  0.00     0.078 C 
ATOM      3  C1  OXE d   1       2.890   1.032  -2.717  0.00  0.00    -0.078 A 
ATOM      4  C2  OXE d   1       2.068   0.241  -1.951  0.00  0.00    -0.078 A 
ATOM      5  C3  OXE d   1       0.904   0.778  -1.408  0.00  0.00     0.003 A 
ATOM      6  C4  OXE d   1       0.487   2.067  -1.761  0.00  0.00    -0.002 A 
ATOM      7  C5  OXE d   1       1.290   2.876  -2.573  0.00  0.00    -0.002 A 
ATOM      8  C6  OXE d   1       2.512   2.389  -3.024  0.00  0.00     0.003 A 
ENDROOT
TORSDOF 0
ENDMDL
