MODEL 1
REMARK minimizedAffinity 6.82903099
REMARK minimizedRMSD -1
REMARK  0 active torsions:
REMARK  status: ('A' for Active; 'I' for Inactive)
ROOT
ATOM      1  C2' OXE d   1       0.935  -3.671   0.438  0.00  0.00     0.078 C 
ATOM      2  C1' OXE d   1      -0.850  -2.464  -1.362  0.00  0.00     0.078 C 
ATOM      3  C1  OXE d   1       0.487  -1.801  -1.146  0.00  0.00    -0.078 A 
ATOM      4  C2  OXE d   1       1.336  -2.372  -0.228  0.00  0.00    -0.078 A 
ATOM      5  C3  OXE d   1       2.603  -1.832  -0.031  0.00  0.00     0.003 A 
ATOM      6  C4  OXE d   1       2.962  -0.625  -0.644  0.00  0.00    -0.002 A 
ATOM      7  C5  OXE d   1       2.097  -0.005  -1.551  0.00  0.00    -0.002 A 
ATOM      8  C6  OXE d   1       0.876  -0.601  -1.845  0.00  0.00     0.003 A 
ENDROOT
TORSDOF 0
ENDMDL
