MODEL 1
REMARK minimizedAffinity 4.08373117
REMARK minimizedRMSD -1
REMARK  0 active torsions:
REMARK  status: ('A' for Active; 'I' for Inactive)
ROOT
ATOM      1  C2' OXE d   1       0.907   2.604  -3.707  0.00  0.00     0.078 C 
ATOM      2  C1' OXE d   1       2.164   0.448  -2.421  0.00  0.00     0.078 C 
ATOM      3  C1  OXE d   1       1.210   1.291  -1.611  0.00  0.00    -0.078 A 
ATOM      4  C2  OXE d   1       0.636   2.372  -2.236  0.00  0.00    -0.078 A 
ATOM      5  C3  OXE d   1      -0.292   3.151  -1.551  0.00  0.00     0.003 A 
ATOM      6  C4  OXE d   1      -0.530   2.936  -0.188  0.00  0.00    -0.002 A 
ATOM      7  C5  OXE d   1       0.075   1.864   0.478  0.00  0.00    -0.002 A 
ATOM      8  C6  OXE d   1       0.913   1.009  -0.229  0.00  0.00     0.003 A 
ENDROOT
TORSDOF 0
ENDMDL
