MODEL 1
REMARK minimizedAffinity -6.00794363
REMARK minimizedRMSD -1
REMARK  2 active torsions:
REMARK  status: ('A' for Active; 'I' for Inactive)
REMARK    1  A    between atoms: C2'_3  and  C1'_4 
REMARK    2  A    between atoms: C1'_4  and  C1_5 
ROOT
ATOM      1  C1  I4B d   1      -1.142  -0.792   1.065  0.00  0.00    -0.075 A 
ATOM      2  C2  I4B d   1      -0.824  -1.195   2.337  0.00  0.00     0.003 A 
ATOM      3  C3  I4B d   1      -1.647  -0.825   3.429  0.00  0.00     0.002 A 
ATOM      4  C4  I4B d   1      -2.742  -0.014   3.210  0.00  0.00    -0.004 A 
ATOM      5  C5  I4B d   1      -3.076   0.375   1.916  0.00  0.00     0.002 A 
ATOM      6  C6  I4B d   1      -2.278  -0.027   0.834  0.00  0.00     0.003 A 
ENDROOT
BRANCH   1   7
ATOM      7  C1' I4B d   1      -0.233  -1.173  -0.061  0.00  0.00     0.060 C 
BRANCH   7   8
ATOM      8  C2' I4B d   1       0.393   0.094  -0.605  0.00  0.00    -0.013 C 
ATOM      9  C4' I4B d   1       1.496   0.587   0.295  0.00  0.00     0.013 C 
ATOM     10  C3' I4B d   1       0.909  -0.199  -1.982  0.00  0.00     0.013 C 
ENDBRANCH   7   8
ENDBRANCH   1   7
TORSDOF 2
ENDMDL
