MODEL 1
REMARK minimizedAffinity -3.65548444
REMARK minimizedRMSD -1
REMARK  2 active torsions:
REMARK  status: ('A' for Active; 'I' for Inactive)
REMARK    1  A    between atoms: C2'_3  and  C1'_4 
REMARK    2  A    between atoms: C1'_4  and  C1_5 
ROOT
ATOM      1  C1  I4B d   1       0.429   0.093  -0.326  0.00  0.00    -0.075 A 
ATOM      2  C2  I4B d   1       0.973   0.992   0.557  0.00  0.00     0.003 A 
ATOM      3  C3  I4B d   1       1.127   0.647   1.922  0.00  0.00     0.002 A 
ATOM      4  C4  I4B d   1       0.680  -0.580   2.367  0.00  0.00    -0.004 A 
ATOM      5  C5  I4B d   1       0.150  -1.499   1.466  0.00  0.00     0.002 A 
ATOM      6  C6  I4B d   1       0.034  -1.165   0.109  0.00  0.00     0.003 A 
ENDROOT
BRANCH   1   7
ATOM      7  C1' I4B d   1       0.251   0.503  -1.754  0.00  0.00     0.060 C 
BRANCH   7   8
ATOM      8  C2' I4B d   1       0.950  -0.521  -2.624  0.00  0.00    -0.013 C 
ATOM      9  C4' I4B d   1       0.029  -1.051  -3.690  0.00  0.00     0.013 C 
ATOM     10  C3' I4B d   1       2.158   0.132  -3.227  0.00  0.00     0.013 C 
ENDBRANCH   7   8
ENDBRANCH   1   7
TORSDOF 2
ENDMDL
