MODEL 1
REMARK minimizedAffinity -5.97023678
REMARK minimizedRMSD -1
REMARK  2 active torsions:
REMARK  status: ('A' for Active; 'I' for Inactive)
REMARK    1  A    between atoms: C2'_3  and  C1'_4 
REMARK    2  A    between atoms: C1'_4  and  C1_5 
ROOT
ATOM      1  C1  I4B d   1      -0.046  -0.839  -0.431  0.00  0.00    -0.075 A 
ATOM      2  C2  I4B d   1       0.149   0.177  -1.334  0.00  0.00     0.003 A 
ATOM      3  C3  I4B d   1       0.715  -0.097  -2.603  0.00  0.00     0.002 A 
ATOM      4  C4  I4B d   1       1.115  -1.382  -2.906  0.00  0.00    -0.004 A 
ATOM      5  C5  I4B d   1       0.895  -2.414  -1.998  0.00  0.00     0.002 A 
ATOM      6  C6  I4B d   1       0.300  -2.144  -0.757  0.00  0.00     0.003 A 
ENDROOT
BRANCH   1   7
ATOM      7  C1' I4B d   1      -0.616  -0.509   0.912  0.00  0.00     0.060 C 
BRANCH   7   8
ATOM      8  C2' I4B d   1       0.313  -1.079   1.965  0.00  0.00    -0.013 C 
ATOM      9  C4' I4B d   1       1.595  -0.293   2.044  0.00  0.00     0.013 C 
ATOM     10  C3' I4B d   1      -0.412  -1.065   3.278  0.00  0.00     0.013 C 
ENDBRANCH   7   8
ENDBRANCH   1   7
TORSDOF 2
ENDMDL
