MODEL 1
REMARK minimizedAffinity -1.96582389
REMARK minimizedRMSD -1
REMARK  2 active torsions:
REMARK  status: ('A' for Active; 'I' for Inactive)
REMARK    1  A    between atoms: C2'_3  and  C1'_4 
REMARK    2  A    between atoms: C1'_4  and  C1_5 
ROOT
ATOM      1  C1  I4B d   1       0.489  -0.290   0.659  0.00  0.00    -0.075 A 
ATOM      2  C2  I4B d   1       1.317   0.790   0.841  0.00  0.00     0.003 A 
ATOM      3  C3  I4B d   1       1.476   1.357   2.129  0.00  0.00     0.002 A 
ATOM      4  C4  I4B d   1       0.754   0.848   3.189  0.00  0.00    -0.004 A 
ATOM      5  C5  I4B d   1      -0.068  -0.260   3.007  0.00  0.00     0.002 A 
ATOM      6  C6  I4B d   1      -0.192  -0.841   1.737  0.00  0.00     0.003 A 
ENDROOT
BRANCH   1   7
ATOM      7  C1' I4B d   1       0.319  -0.843  -0.720  0.00  0.00     0.060 C 
BRANCH   7   8
ATOM      8  C2' I4B d   1       0.478   0.298  -1.704  0.00  0.00    -0.013 C 
ATOM      9  C4' I4B d   1       0.991  -0.193  -3.032  0.00  0.00     0.013 C 
ATOM     10  C3' I4B d   1      -0.855   0.969  -1.854  0.00  0.00     0.013 C 
ENDBRANCH   7   8
ENDBRANCH   1   7
TORSDOF 2
ENDMDL
