MODEL 1
REMARK minimizedAffinity -4.53657055
REMARK minimizedRMSD -1
REMARK  2 active torsions:
REMARK  status: ('A' for Active; 'I' for Inactive)
REMARK    1  A    between atoms: C2'_3  and  C1'_4 
REMARK    2  A    between atoms: C1'_4  and  C1_5 
ROOT
ATOM      1  C1  I4B d   1      -0.002  -0.406  -1.183  0.00  0.00    -0.075 A 
ATOM      2  C2  I4B d   1       0.416   0.772  -1.750  0.00  0.00     0.003 A 
ATOM      3  C3  I4B d   1       0.890   0.791  -3.085  0.00  0.00     0.002 A 
ATOM      4  C4  I4B d   1       0.975  -0.390  -3.793  0.00  0.00    -0.004 A 
ATOM      5  C5  I4B d   1       0.529  -1.579  -3.224  0.00  0.00     0.002 A 
ATOM      6  C6  I4B d   1       0.026  -1.586  -1.915  0.00  0.00     0.003 A 
ENDROOT
BRANCH   1   7
ATOM      7  C1' I4B d   1      -0.465  -0.396   0.239  0.00  0.00     0.060 C 
BRANCH   7   8
ATOM      8  C2' I4B d   1       0.749  -0.201   1.125  0.00  0.00    -0.013 C 
ATOM      9  C4' I4B d   1       0.355  -0.098   2.575  0.00  0.00     0.013 C 
ATOM     10  C3' I4B d   1       1.678  -1.356   0.896  0.00  0.00     0.013 C 
ENDBRANCH   7   8
ENDBRANCH   1   7
TORSDOF 2
ENDMDL
