MODEL 1
REMARK minimizedAffinity -1.72819126
REMARK minimizedRMSD -1
REMARK  2 active torsions:
REMARK  status: ('A' for Active; 'I' for Inactive)
REMARK    1  A    between atoms: C2'_3  and  C1'_4 
REMARK    2  A    between atoms: C1'_4  and  C1_5 
ROOT
ATOM      1  C1  I4B d   1       0.419  -0.407  -2.514  0.00  0.00    -0.075 A 
ATOM      2  C2  I4B d   1       1.596  -0.167  -3.178  0.00  0.00     0.003 A 
ATOM      3  C3  I4B d   1       2.105  -1.122  -4.091  0.00  0.00     0.002 A 
ATOM      4  C4  I4B d   1       1.437  -2.316  -4.270  0.00  0.00    -0.004 A 
ATOM      5  C5  I4B d   1       0.232  -2.547  -3.613  0.00  0.00     0.002 A 
ATOM      6  C6  I4B d   1      -0.287  -1.582  -2.738  0.00  0.00     0.003 A 
ENDROOT
BRANCH   1   7
ATOM      7  C1' I4B d   1      -0.074   0.608  -1.532  0.00  0.00     0.060 C 
BRANCH   7   8
ATOM      8  C2' I4B d   1      -0.530  -0.128  -0.288  0.00  0.00    -0.013 C 
ATOM      9  C4' I4B d   1       0.266   0.295   0.918  0.00  0.00     0.013 C 
ATOM     10  C3' I4B d   1      -1.991   0.148  -0.097  0.00  0.00     0.013 C 
ENDBRANCH   7   8
ENDBRANCH   1   7
TORSDOF 2
ENDMDL
