MODEL 1
REMARK minimizedAffinity -3.65409565
REMARK minimizedRMSD -1
REMARK  2 active torsions:
REMARK  status: ('A' for Active; 'I' for Inactive)
REMARK    1  A    between atoms: C2'_3  and  C1'_4 
REMARK    2  A    between atoms: C1'_4  and  C1_5 
ROOT
ATOM      1  C1  I4B d   1       0.440   0.017   0.955  0.00  0.00    -0.075 A 
ATOM      2  C2  I4B d   1       0.481   0.867   2.032  0.00  0.00     0.003 A 
ATOM      3  C3  I4B d   1      -0.059   0.465   3.278  0.00  0.00     0.002 A 
ATOM      4  C4  I4B d   1      -0.672  -0.766   3.388  0.00  0.00    -0.004 A 
ATOM      5  C5  I4B d   1      -0.692  -1.636   2.301  0.00  0.00     0.002 A 
ATOM      6  C6  I4B d   1      -0.122  -1.247   1.080  0.00  0.00     0.003 A 
ENDROOT
BRANCH   1   7
ATOM      7  C1' I4B d   1       0.990   0.486  -0.355  0.00  0.00     0.060 C 
BRANCH   7   8
ATOM      8  C2' I4B d   1      -0.019   0.147  -1.433  0.00  0.00    -0.013 C 
ATOM      9  C4' I4B d   1      -1.185   1.099  -1.409  0.00  0.00     0.013 C 
ATOM     10  C3' I4B d   1       0.686   0.188  -2.756  0.00  0.00     0.013 C 
ENDBRANCH   7   8
ENDBRANCH   1   7
TORSDOF 2
ENDMDL
