MODEL 1
REMARK minimizedAffinity -3.2323885
REMARK minimizedRMSD -1
REMARK  2 active torsions:
REMARK  status: ('A' for Active; 'I' for Inactive)
REMARK    1  A    between atoms: C2'_3  and  C1'_4 
REMARK    2  A    between atoms: C1'_4  and  C1_5 
ROOT
ATOM      1  C1  I4B d   1       3.290  -0.294  -4.049  0.00  0.00    -0.075 A 
ATOM      2  C2  I4B d   1       2.924  -1.590  -4.316  0.00  0.00     0.003 A 
ATOM      3  C3  I4B d   1       1.657  -2.071  -3.906  0.00  0.00     0.002 A 
ATOM      4  C4  I4B d   1       0.814  -1.244  -3.192  0.00  0.00    -0.004 A 
ATOM      5  C5  I4B d   1       1.178   0.076  -2.942  0.00  0.00     0.002 A 
ATOM      6  C6  I4B d   1       2.418   0.558  -3.384  0.00  0.00     0.003 A 
ENDROOT
BRANCH   1   7
ATOM      7  C1' I4B d   1       4.649   0.171  -4.467  0.00  0.00     0.060 C 
BRANCH   7   8
ATOM      8  C2' I4B d   1       4.708   1.673  -4.273  0.00  0.00    -0.013 C 
ATOM      9  C4' I4B d   1       5.998   2.087  -3.616  0.00  0.00     0.013 C 
ATOM     10  C3' I4B d   1       4.553   2.320  -5.617  0.00  0.00     0.013 C 
ENDBRANCH   7   8
ENDBRANCH   1   7
TORSDOF 2
ENDMDL
