MODEL 1
REMARK minimizedAffinity -6.06166077
REMARK minimizedRMSD -1
REMARK  2 active torsions:
REMARK  status: ('A' for Active; 'I' for Inactive)
REMARK    1  A    between atoms: C2'_3  and  C1'_4 
REMARK    2  A    between atoms: C1'_4  and  C1_5 
ROOT
ATOM      1  C1  I4B d   1       0.444  -0.679   0.958  0.00  0.00    -0.075 A 
ATOM      2  C2  I4B d   1       0.542   0.369   1.839  0.00  0.00     0.003 A 
ATOM      3  C3  I4B d   1      -0.197   0.357   3.047  0.00  0.00     0.002 A 
ATOM      4  C4  I4B d   1      -1.054  -0.693   3.309  0.00  0.00    -0.004 A 
ATOM      5  C5  I4B d   1      -1.135  -1.765   2.425  0.00  0.00     0.002 A 
ATOM      6  C6  I4B d   1      -0.372  -1.765   1.249  0.00  0.00     0.003 A 
ENDROOT
BRANCH   1   7
ATOM      7  C1' I4B d   1       1.213  -0.618  -0.323  0.00  0.00     0.060 C 
BRANCH   7   8
ATOM      8  C2' I4B d   1       0.225  -0.394  -1.450  0.00  0.00    -0.013 C 
ATOM      9  C4' I4B d   1      -0.482   0.927  -1.301  0.00  0.00     0.013 C 
ATOM     10  C3' I4B d   1       0.977  -0.462  -2.746  0.00  0.00     0.013 C 
ENDBRANCH   7   8
ENDBRANCH   1   7
TORSDOF 2
ENDMDL
