MODEL 1
REMARK minimizedAffinity 0.431206405
REMARK minimizedRMSD -1
REMARK  2 active torsions:
REMARK  status: ('A' for Active; 'I' for Inactive)
REMARK    1  A    between atoms: C2'_3  and  C1'_4 
REMARK    2  A    between atoms: C1'_4  and  C1_5 
ROOT
ATOM      1  C1  I4B d   1       0.290   0.189   1.187  0.00  0.00    -0.075 A 
ATOM      2  C2  I4B d   1       0.724  -0.990   1.741  0.00  0.00     0.003 A 
ATOM      3  C3  I4B d   1       0.263  -1.389   3.019  0.00  0.00     0.002 A 
ATOM      4  C4  I4B d   1      -0.585  -0.561   3.725  0.00  0.00    -0.004 A 
ATOM      5  C5  I4B d   1      -1.042   0.622   3.153  0.00  0.00     0.002 A 
ATOM      6  C6  I4B d   1      -0.612   0.994   1.871  0.00  0.00     0.003 A 
ENDROOT
BRANCH   1   7
ATOM      7  C1' I4B d   1       0.822   0.596  -0.150  0.00  0.00     0.060 C 
BRANCH   7   8
ATOM      8  C2' I4B d   1      -0.116   0.054  -1.210  0.00  0.00    -0.013 C 
ATOM      9  C4' I4B d   1      -1.325   0.938  -1.371  0.00  0.00     0.013 C 
ATOM     10  C3' I4B d   1       0.651  -0.054  -2.494  0.00  0.00     0.013 C 
ENDBRANCH   7   8
ENDBRANCH   1   7
TORSDOF 2
ENDMDL
