MODEL 1
REMARK minimizedAffinity -3.30180407
REMARK minimizedRMSD -1
REMARK  2 active torsions:
REMARK  status: ('A' for Active; 'I' for Inactive)
REMARK    1  A    between atoms: C2'_3  and  C1'_4 
REMARK    2  A    between atoms: C1'_4  and  C1_5 
ROOT
ATOM      1  C1  I4B d   1       0.430  -0.266  -0.105  0.00  0.00    -0.075 A 
ATOM      2  C2  I4B d   1       1.487  -0.955   0.436  0.00  0.00     0.003 A 
ATOM      3  C3  I4B d   1       1.540  -1.200   1.829  0.00  0.00     0.002 A 
ATOM      4  C4  I4B d   1       0.547  -0.699   2.646  0.00  0.00    -0.004 A 
ATOM      5  C5  I4B d   1      -0.535  -0.020   2.094  0.00  0.00     0.002 A 
ATOM      6  C6  I4B d   1      -0.601   0.187   0.708  0.00  0.00     0.003 A 
ENDROOT
BRANCH   1   7
ATOM      7  C1' I4B d   1       0.423   0.004  -1.576  0.00  0.00     0.060 C 
BRANCH   7   8
ATOM      8  C2' I4B d   1       1.046  -1.188  -2.273  0.00  0.00    -0.013 C 
ATOM      9  C4' I4B d   1      -0.004  -2.047  -2.927  0.00  0.00     0.013 C 
ATOM     10  C3' I4B d   1       2.030  -0.673  -3.280  0.00  0.00     0.013 C 
ENDBRANCH   7   8
ENDBRANCH   1   7
TORSDOF 2
ENDMDL
