MODEL 1
REMARK minimizedAffinity 4.99159575
REMARK minimizedRMSD -1
REMARK  0 active torsions:
REMARK  status: ('A' for Active; 'I' for Inactive)
ROOT
ATOM      1  C   UNL d   1      -1.067   4.814  -5.660  0.00  0.00     0.020 A 
ATOM      2  C1  UNL d   1       0.041   4.039  -6.000  0.00  0.00     0.020 A 
ATOM      3  C2  UNL d   1       0.195   2.763  -5.453  0.00  0.00     0.034 A 
ATOM      4  C3  UNL d   1      -0.760   2.259  -4.563  0.00  0.00     0.017 A 
ATOM      5  C4  UNL d   1      -1.872   3.037  -4.222  0.00  0.00     0.017 A 
ATOM      6  C5  UNL d   1      -2.022   4.314  -4.773  0.00  0.00     0.034 A 
ATOM      7 Cl   UNL d   1      -3.092   2.483  -3.131  0.00  0.00    -0.070 Cl
ATOM      8 Cl1  UNL d   1      -0.505   0.673  -3.925  0.00  0.00    -0.070 Cl
ENDROOT
TORSDOF 0
ENDMDL
