MODEL 1
REMARK minimizedAffinity 13.4835863
REMARK minimizedRMSD -1
REMARK  0 active torsions:
REMARK  status: ('A' for Active; 'I' for Inactive)
ROOT
ATOM      1  C   UNL d   1       2.301  -3.337  -1.001  0.00  0.00     0.020 A 
ATOM      2  C1  UNL d   1       1.591  -2.917   0.123  0.00  0.00     0.020 A 
ATOM      3  C2  UNL d   1       2.144  -3.073   1.396  0.00  0.00     0.034 A 
ATOM      4  C3  UNL d   1       3.410  -3.649   1.547  0.00  0.00     0.017 A 
ATOM      5  C4  UNL d   1       4.122  -4.070   0.418  0.00  0.00     0.017 A 
ATOM      6  C5  UNL d   1       3.564  -3.912  -0.854  0.00  0.00     0.034 A 
ATOM      7 Cl   UNL d   1       5.690  -4.790   0.525  0.00  0.00    -0.070 Cl
ATOM      8 Cl1  UNL d   1       4.033  -3.811   3.151  0.00  0.00    -0.070 Cl
ENDROOT
TORSDOF 0
ENDMDL
