MODEL 1
REMARK minimizedAffinity 3.27999353
REMARK minimizedRMSD -1
REMARK  0 active torsions:
REMARK  status: ('A' for Active; 'I' for Inactive)
ROOT
ATOM      1  C   UNL d   1      -1.043  -3.430   1.270  0.00  0.00     0.020 A 
ATOM      2  C1  UNL d   1      -1.292  -2.269   2.000  0.00  0.00     0.020 A 
ATOM      3  C2  UNL d   1      -0.312  -1.279   2.094  0.00  0.00     0.034 A 
ATOM      4  C3  UNL d   1       0.922  -1.448   1.456  0.00  0.00     0.017 A 
ATOM      5  C4  UNL d   1       1.172  -2.614   0.723  0.00  0.00     0.017 A 
ATOM      6  C5  UNL d   1       0.187  -3.602   0.632  0.00  0.00     0.034 A 
ATOM      7 Cl   UNL d   1       2.670  -2.894  -0.091  0.00  0.00    -0.070 Cl
ATOM      8 Cl1  UNL d   1       2.088  -0.183   1.615  0.00  0.00    -0.070 Cl
ENDROOT
TORSDOF 0
ENDMDL
