MODEL 1
REMARK minimizedAffinity 8.71292973
REMARK minimizedRMSD -1
REMARK  0 active torsions:
REMARK  status: ('A' for Active; 'I' for Inactive)
ROOT
ATOM      1  C   UNL d   1       0.388   4.714  -5.908  0.00  0.00     0.020 A 
ATOM      2  C1  UNL d   1       1.353   3.712  -6.000  0.00  0.00     0.020 A 
ATOM      3  C2  UNL d   1       1.166   2.499  -5.333  0.00  0.00     0.034 A 
ATOM      4  C3  UNL d   1       0.011   2.286  -4.571  0.00  0.00     0.017 A 
ATOM      5  C4  UNL d   1      -0.957   3.293  -4.480  0.00  0.00     0.017 A 
ATOM      6  C5  UNL d   1      -0.764   4.505  -5.150  0.00  0.00     0.034 A 
ATOM      7 Cl   UNL d   1      -2.408   3.103  -3.560  0.00  0.00    -0.070 Cl
ATOM      8 Cl1  UNL d   1      -0.155   0.762  -3.773  0.00  0.00    -0.070 Cl
ENDROOT
TORSDOF 0
ENDMDL
