MODEL 1
REMARK minimizedAffinity -0.788276017
REMARK minimizedRMSD -1
REMARK  0 active torsions:
REMARK  status: ('A' for Active; 'I' for Inactive)
ROOT
ATOM      1  C   UNL d   1      -0.758   3.941  -6.000  0.00  0.00     0.020 A 
ATOM      2  C1  UNL d   1      -1.870   4.667  -5.578  0.00  0.00     0.020 A 
ATOM      3  C2  UNL d   1      -2.679   4.173  -4.552  0.00  0.00     0.034 A 
ATOM      4  C3  UNL d   1      -2.375   2.949  -3.945  0.00  0.00     0.017 A 
ATOM      5  C4  UNL d   1      -1.258   2.221  -4.369  0.00  0.00     0.017 A 
ATOM      6  C5  UNL d   1      -0.452   2.721  -5.397  0.00  0.00     0.034 A 
ATOM      7 Cl   UNL d   1      -0.820   0.703  -3.668  0.00  0.00    -0.070 Cl
ATOM      8 Cl1  UNL d   1      -3.418   2.398  -2.682  0.00  0.00    -0.070 Cl
ENDROOT
TORSDOF 0
ENDMDL
