MODEL 1
REMARK minimizedAffinity -0.708491564
REMARK minimizedRMSD -1
REMARK  0 active torsions:
REMARK  status: ('A' for Active; 'I' for Inactive)
ROOT
ATOM      1  C   UNL d   1      -0.786   0.350   2.110  0.00  0.00     0.020 A 
ATOM      2  C1  UNL d   1       0.525   0.516   1.665  0.00  0.00     0.020 A 
ATOM      3  C2  UNL d   1       1.221  -0.566   1.124  0.00  0.00     0.034 A 
ATOM      4  C3  UNL d   1       0.606  -1.820   1.025  0.00  0.00     0.017 A 
ATOM      5  C4  UNL d   1      -0.710  -1.986   1.471  0.00  0.00     0.017 A 
ATOM      6  C5  UNL d   1      -1.402  -0.898   2.012  0.00  0.00     0.034 A 
ATOM      7 Cl   UNL d   1      -1.535  -3.502   1.381  0.00  0.00    -0.070 Cl
ATOM      8 Cl1  UNL d   1       1.527  -3.114   0.344  0.00  0.00    -0.070 Cl
ENDROOT
TORSDOF 0
ENDMDL
