MODEL 1
REMARK minimizedAffinity -3.74833488
REMARK minimizedRMSD -1
REMARK  2 active torsions:
REMARK  status: ('A' for Active; 'I' for Inactive)
REMARK    1  A    between atoms: C2'_3  and  C1'_4 
REMARK    2  A    between atoms: C1'_4  and  C1_5 
ROOT
ATOM      1  C1  I4B d   1       0.574  -0.391  -0.563  0.00  0.00    -0.075 A 
ATOM      2  C2  I4B d   1       1.391   0.033   0.455  0.00  0.00     0.003 A 
ATOM      3  C3  I4B d   1       0.858   0.780   1.533  0.00  0.00     0.002 A 
ATOM      4  C4  I4B d   1      -0.479   1.123   1.527  0.00  0.00    -0.004 A 
ATOM      5  C5  I4B d   1      -1.310   0.673   0.505  0.00  0.00     0.002 A 
ATOM      6  C6  I4B d   1      -0.784  -0.099  -0.540  0.00  0.00     0.003 A 
ENDROOT
BRANCH   1   7
ATOM      7  C1' I4B d   1       1.177  -1.150  -1.702  0.00  0.00     0.060 C 
BRANCH   7   8
ATOM      8  C2' I4B d   1       0.924  -0.364  -2.973  0.00  0.00    -0.013 C 
ATOM      9  C4' I4B d   1       2.216   0.101  -3.592  0.00  0.00     0.013 C 
ATOM     10  C3' I4B d   1       0.157  -1.242  -3.916  0.00  0.00     0.013 C 
ENDBRANCH   7   8
ENDBRANCH   1   7
TORSDOF 2
ENDMDL
