MODEL 1
REMARK minimizedAffinity -2.77877712
REMARK minimizedRMSD -1
REMARK  2 active torsions:
REMARK  status: ('A' for Active; 'I' for Inactive)
REMARK    1  A    between atoms: C2'_3  and  C1'_4 
REMARK    2  A    between atoms: C1'_4  and  C1_5 
ROOT
ATOM      1  C1  I4B d   1       0.362  -0.202  -0.705  0.00  0.00    -0.075 A 
ATOM      2  C2  I4B d   1       0.376   1.025  -1.319  0.00  0.00     0.003 A 
ATOM      3  C3  I4B d   1       0.868   1.156  -2.640  0.00  0.00     0.002 A 
ATOM      4  C4  I4B d   1       1.379   0.050  -3.288  0.00  0.00    -0.004 A 
ATOM      5  C5  I4B d   1       1.342  -1.198  -2.673  0.00  0.00     0.002 A 
ATOM      6  C6  I4B d   1       0.819  -1.328  -1.378  0.00  0.00     0.003 A 
ENDROOT
BRANCH   1   7
ATOM      7  C1' I4B d   1      -0.134  -0.299   0.703  0.00  0.00     0.060 C 
BRANCH   7   8
ATOM      8  C2' I4B d   1       0.871   0.394   1.600  0.00  0.00    -0.013 C 
ATOM      9  C4' I4B d   1       0.282   0.687   2.955  0.00  0.00     0.013 C 
ATOM     10  C3' I4B d   1       2.077  -0.490   1.714  0.00  0.00     0.013 C 
ENDBRANCH   7   8
ENDBRANCH   1   7
TORSDOF 2
ENDMDL
