MODEL 1
REMARK minimizedAffinity -5.11170769
REMARK minimizedRMSD -1
REMARK  2 active torsions:
REMARK  status: ('A' for Active; 'I' for Inactive)
REMARK    1  A    between atoms: C2'_3  and  C1'_4 
REMARK    2  A    between atoms: C1'_4  and  C1_5 
ROOT
ATOM      1  C1  I4B d   1       0.105  -0.217  -0.327  0.00  0.00    -0.075 A 
ATOM      2  C2  I4B d   1       0.858   0.353   0.669  0.00  0.00     0.003 A 
ATOM      3  C3  I4B d   1       0.229   0.891   1.818  0.00  0.00     0.002 A 
ATOM      4  C4  I4B d   1      -1.148   0.885   1.905  0.00  0.00    -0.004 A 
ATOM      5  C5  I4B d   1      -1.908   0.286   0.905  0.00  0.00     0.002 A 
ATOM      6  C6  I4B d   1      -1.277  -0.280  -0.213  0.00  0.00     0.003 A 
ENDROOT
BRANCH   1   7
ATOM      7  C1' I4B d   1       0.800  -0.747  -1.542  0.00  0.00     0.060 C 
BRANCH   7   8
ATOM      8  C2' I4B d   1       0.841   0.360  -2.576  0.00  0.00    -0.013 C 
ATOM      9  C4' I4B d   1       2.242   0.881  -2.761  0.00  0.00     0.013 C 
ATOM     10  C3' I4B d   1       0.292  -0.186  -3.860  0.00  0.00     0.013 C 
ENDBRANCH   7   8
ENDBRANCH   1   7
TORSDOF 2
ENDMDL
