MODEL 1
REMARK minimizedAffinity -4.30021715
REMARK minimizedRMSD -1
REMARK  1 active torsions:
REMARK  status: ('A' for Active; 'I' for Inactive)
REMARK    1  A    between atoms: C3_4  and  O_7 
ROOT
ATOM      1  C   UNL d   1       1.058   0.263  -1.441  0.00  0.00    -0.033 A 
ATOM      2  C1  UNL d   1       0.793   1.606  -1.719  0.00  0.00     0.039 A 
ATOM      3  C2  UNL d   1      -0.302   2.239  -1.127  0.00  0.00    -0.080 A 
ATOM      4  C3  UNL d   1      -1.122   1.521  -0.261  0.00  0.00     0.150 A 
ATOM      5  C4  UNL d   1      -0.861   0.184   0.022  0.00  0.00    -0.007 A 
ATOM      6  C5  UNL d   1       0.232  -0.447  -0.570  0.00  0.00     0.039 A 
ENDROOT
BRANCH   4   7
ATOM      7  O   UNL d   1      -2.204   2.095   0.336  0.00  0.00    -0.526 OA
ATOM      8  H5  UNL d   1      -2.277   3.013   0.024  0.00  0.00     0.418 HD
ENDBRANCH   4   7
TORSDOF 1
ENDMDL
