MODEL 1
REMARK minimizedAffinity -4.51804543
REMARK minimizedRMSD -1
REMARK  1 active torsions:
REMARK  status: ('A' for Active; 'I' for Inactive)
REMARK    1  A    between atoms: C3_4  and  O_7 
ROOT
ATOM      1  C   UNL d   1      -2.332   1.518   1.873  0.00  0.00    -0.033 A 
ATOM      2  C1  UNL d   1      -1.574   0.500   2.455  0.00  0.00     0.039 A 
ATOM      3  C2  UNL d   1      -0.590  -0.153   1.710  0.00  0.00    -0.080 A 
ATOM      4  C3  UNL d   1      -0.373   0.222   0.387  0.00  0.00     0.150 A 
ATOM      5  C4  UNL d   1      -1.122   1.238  -0.198  0.00  0.00    -0.007 A 
ATOM      6  C5  UNL d   1      -2.105   1.888   0.547  0.00  0.00     0.039 A 
ENDROOT
BRANCH   4   7
ATOM      7  O   UNL d   1       0.573  -0.389  -0.380  0.00  0.00    -0.526 OA
ATOM      8  H5  UNL d   1       0.992  -1.090   0.147  0.00  0.00     0.418 HD
ENDBRANCH   4   7
TORSDOF 1
ENDMDL
