MODEL 1
REMARK minimizedAffinity -1.39945674
REMARK minimizedRMSD -1
REMARK  1 active torsions:
REMARK  status: ('A' for Active; 'I' for Inactive)
REMARK    1  A    between atoms: C3_4  and  O_7 
ROOT
ATOM      1  C   UNL d   1       0.336  -0.886   0.608  0.00  0.00    -0.033 A 
ATOM      2  C1  UNL d   1      -0.292   0.123  -0.123  0.00  0.00     0.039 A 
ATOM      3  C2  UNL d   1      -0.916   1.182   0.539  0.00  0.00    -0.080 A 
ATOM      4  C3  UNL d   1      -0.904   1.220   1.930  0.00  0.00     0.150 A 
ATOM      5  C4  UNL d   1      -0.277   0.220   2.665  0.00  0.00    -0.007 A 
ATOM      6  C5  UNL d   1       0.345  -0.838   2.002  0.00  0.00     0.039 A 
ENDROOT
BRANCH   4   7
ATOM      7  O   UNL d   1      -1.504   2.231   2.621  0.00  0.00    -0.526 OA
ATOM      8  H5  UNL d   1      -1.921   2.834   1.983  0.00  0.00     0.418 HD
ENDBRANCH   4   7
TORSDOF 1
ENDMDL
