MODEL 1
REMARK minimizedAffinity -1.6926676
REMARK minimizedRMSD -1
REMARK  1 active torsions:
REMARK  status: ('A' for Active; 'I' for Inactive)
REMARK    1  A    between atoms: C3_4  and  O_7 
ROOT
ATOM      1  C   UNL d   1       0.108  -0.657  -0.915  0.00  0.00    -0.033 A 
ATOM      2  C1  UNL d   1      -0.618  -1.370   0.041  0.00  0.00     0.039 A 
ATOM      3  C2  UNL d   1      -1.033  -0.741   1.217  0.00  0.00    -0.080 A 
ATOM      4  C3  UNL d   1      -0.718   0.599   1.423  0.00  0.00     0.150 A 
ATOM      5  C4  UNL d   1       0.001   1.316   0.473  0.00  0.00    -0.007 A 
ATOM      6  C5  UNL d   1       0.416   0.687  -0.700  0.00  0.00     0.039 A 
ENDROOT
BRANCH   4   7
ATOM      7  O   UNL d   1      -1.098   1.254   2.557  0.00  0.00    -0.526 OA
ATOM      8  H5  UNL d   1      -1.562   0.625   3.135  0.00  0.00     0.418 HD
ENDBRANCH   4   7
TORSDOF 1
ENDMDL
