MODEL 1
REMARK minimizedAffinity -4.80268955
REMARK minimizedRMSD -1
REMARK  1 active torsions:
REMARK  status: ('A' for Active; 'I' for Inactive)
REMARK    1  A    between atoms: C3_4  and  O_7 
ROOT
ATOM      1  C   UNL d   1       0.754   0.186  -1.245  0.00  0.00    -0.033 A 
ATOM      2  C1  UNL d   1       0.037  -0.547  -0.297  0.00  0.00     0.039 A 
ATOM      3  C2  UNL d   1      -1.025   0.046   0.387  0.00  0.00    -0.080 A 
ATOM      4  C3  UNL d   1      -1.361   1.369   0.115  0.00  0.00     0.150 A 
ATOM      5  C4  UNL d   1      -0.654   2.104  -0.831  0.00  0.00    -0.007 A 
ATOM      6  C5  UNL d   1       0.408   1.511  -1.513  0.00  0.00     0.039 A 
ENDROOT
BRANCH   4   7
ATOM      7  O   UNL d   1      -2.388   1.991   0.761  0.00  0.00    -0.526 OA
ATOM      8  H5  UNL d   1      -2.766   1.371   1.406  0.00  0.00     0.418 HD
ENDBRANCH   4   7
TORSDOF 1
ENDMDL
