MODEL 1
REMARK minimizedAffinity -2.74449778
REMARK minimizedRMSD -1
REMARK  1 active torsions:
REMARK  status: ('A' for Active; 'I' for Inactive)
REMARK    1  A    between atoms: C3_4  and  O_7 
ROOT
ATOM      1  C   UNL d   1       0.459  -4.433  -2.640  0.00  0.00    -0.033 A 
ATOM      2  C1  UNL d   1      -0.322  -3.413  -3.188  0.00  0.00     0.039 A 
ATOM      3  C2  UNL d   1      -0.428  -2.184  -2.534  0.00  0.00    -0.080 A 
ATOM      4  C3  UNL d   1       0.253  -1.987  -1.335  0.00  0.00     0.150 A 
ATOM      5  C4  UNL d   1       1.036  -2.997  -0.786  0.00  0.00    -0.007 A 
ATOM      6  C5  UNL d   1       1.139  -4.224  -1.440  0.00  0.00     0.039 A 
ENDROOT
BRANCH   4   7
ATOM      7  O   UNL d   1       0.177  -0.806  -0.658  0.00  0.00    -0.526 OA
ATOM      8  H5  UNL d   1      -0.422  -0.213  -1.141  0.00  0.00     0.418 HD
ENDBRANCH   4   7
TORSDOF 1
ENDMDL
