MODEL 1
REMARK minimizedAffinity 0.0584622473
REMARK minimizedRMSD -1
REMARK  1 active torsions:
REMARK  status: ('A' for Active; 'I' for Inactive)
REMARK    1  A    between atoms: C3_4  and  O_7 
ROOT
ATOM      1  C   UNL d   1       0.156  -3.566  -2.762  0.00  0.00    -0.033 A 
ATOM      2  C1  UNL d   1       0.808  -3.850  -1.560  0.00  0.00     0.039 A 
ATOM      3  C2  UNL d   1       1.208  -2.811  -0.718  0.00  0.00    -0.080 A 
ATOM      4  C3  UNL d   1       0.949  -1.494  -1.088  0.00  0.00     0.150 A 
ATOM      5  C4  UNL d   1       0.298  -1.204  -2.282  0.00  0.00    -0.007 A 
ATOM      6  C5  UNL d   1      -0.100  -2.243  -3.122  0.00  0.00     0.039 A 
ENDROOT
BRANCH   4   7
ATOM      7  O   UNL d   1       1.325  -0.446  -0.301  0.00  0.00    -0.526 OA
ATOM      8  H5  UNL d   1       1.790  -0.796   0.477  0.00  0.00     0.418 HD
ENDBRANCH   4   7
TORSDOF 1
ENDMDL
