MODEL 1
REMARK minimizedAffinity -2.44780707
REMARK minimizedRMSD -1
REMARK  1 active torsions:
REMARK  status: ('A' for Active; 'I' for Inactive)
REMARK    1  A    between atoms: C3_4  and  O_7 
ROOT
ATOM      1  C   UNL d   1      -2.637  -2.327   5.999  0.00  0.00    -0.033 A 
ATOM      2  C1  UNL d   1      -4.031  -2.411   5.985  0.00  0.00     0.039 A 
ATOM      3  C2  UNL d   1      -4.714  -2.506   4.770  0.00  0.00    -0.080 A 
ATOM      4  C3  UNL d   1      -3.992  -2.517   3.580  0.00  0.00     0.150 A 
ATOM      5  C4  UNL d   1      -2.604  -2.437   3.587  0.00  0.00    -0.007 A 
ATOM      6  C5  UNL d   1      -1.924  -2.341   4.800  0.00  0.00     0.039 A 
ENDROOT
BRANCH   4   7
ATOM      7  O   UNL d   1      -4.615  -2.604   2.370  0.00  0.00    -0.526 OA
ATOM      8  H5  UNL d   1      -5.575  -2.623   2.519  0.00  0.00     0.418 HD
ENDBRANCH   4   7
TORSDOF 1
ENDMDL
