MODEL 1
REMARK minimizedAffinity -2.05215645
REMARK minimizedRMSD -1
REMARK  1 active torsions:
REMARK  status: ('A' for Active; 'I' for Inactive)
REMARK    1  A    between atoms: C3_4  and  O_7 
ROOT
ATOM      1  C   UNL d   1       0.186  -3.581  -1.496  0.00  0.00    -0.033 A 
ATOM      2  C1  UNL d   1       1.506  -3.146  -1.360  0.00  0.00     0.039 A 
ATOM      3  C2  UNL d   1       1.774  -1.837  -0.957  0.00  0.00    -0.080 A 
ATOM      4  C3  UNL d   1       0.714  -0.973  -0.691  0.00  0.00     0.150 A 
ATOM      5  C4  UNL d   1      -0.603  -1.401  -0.820  0.00  0.00    -0.007 A 
ATOM      6  C5  UNL d   1      -0.868  -2.709  -1.224  0.00  0.00     0.039 A 
ENDROOT
BRANCH   4   7
ATOM      7  O   UNL d   1       0.926   0.315  -0.299  0.00  0.00    -0.526 OA
ATOM      8  H5  UNL d   1       1.884   0.478  -0.281  0.00  0.00     0.418 HD
ENDBRANCH   4   7
TORSDOF 1
ENDMDL
