MODEL 1
REMARK minimizedAffinity -3.56071281
REMARK minimizedRMSD -1
REMARK  1 active torsions:
REMARK  status: ('A' for Active; 'I' for Inactive)
REMARK    1  A    between atoms: C3_4  and  O_7 
ROOT
ATOM      1  C   UNL d   1      -0.601   0.013   0.749  0.00  0.00    -0.033 A 
ATOM      2  C1  UNL d   1       0.521   0.361  -0.005  0.00  0.00     0.039 A 
ATOM      3  C2  UNL d   1       0.946  -0.463  -1.049  0.00  0.00    -0.080 A 
ATOM      4  C3  UNL d   1       0.241  -1.630  -1.329  0.00  0.00     0.150 A 
ATOM      5  C4  UNL d   1      -0.880  -1.981  -0.584  0.00  0.00    -0.007 A 
ATOM      6  C5  UNL d   1      -1.303  -1.158   0.458  0.00  0.00     0.039 A 
ENDROOT
BRANCH   4   7
ATOM      7  O   UNL d   1       0.621  -2.468  -2.335  0.00  0.00    -0.526 OA
ATOM      8  H5  UNL d   1       1.427  -2.112  -2.744  0.00  0.00     0.418 HD
ENDBRANCH   4   7
TORSDOF 1
ENDMDL
