MODEL 1
REMARK minimizedAffinity -4.19109869
REMARK minimizedRMSD -1
REMARK  1 active torsions:
REMARK  status: ('A' for Active; 'I' for Inactive)
REMARK    1  A    between atoms: C3_4  and  O_7 
ROOT
ATOM      1  C   UNL d   1       0.040  -0.381  -0.176  0.00  0.00    -0.033 A 
ATOM      2  C1  UNL d   1       0.153  -0.913   1.110  0.00  0.00     0.039 A 
ATOM      3  C2  UNL d   1      -0.306  -0.187   2.210  0.00  0.00    -0.080 A 
ATOM      4  C3  UNL d   1      -0.875   1.068   2.012  0.00  0.00     0.150 A 
ATOM      5  C4  UNL d   1      -0.994   1.602   0.733  0.00  0.00    -0.007 A 
ATOM      6  C5  UNL d   1      -0.534   0.876  -0.365  0.00  0.00     0.039 A 
ENDROOT
BRANCH   4   7
ATOM      7  O   UNL d   1      -1.332   1.816   3.055  0.00  0.00    -0.526 OA
ATOM      8  H5  UNL d   1      -1.158   1.333   3.880  0.00  0.00     0.418 HD
ENDBRANCH   4   7
TORSDOF 1
ENDMDL
