MODEL 1
REMARK minimizedAffinity -4.17157936
REMARK minimizedRMSD -1
REMARK  1 active torsions:
REMARK  status: ('A' for Active; 'I' for Inactive)
REMARK    1  A    between atoms: C3_4  and  O_7 
ROOT
ATOM      1  C   UNL d   1       0.341  -1.755  -1.447  0.00  0.00    -0.033 A 
ATOM      2  C1  UNL d   1      -0.764  -2.607  -1.493  0.00  0.00     0.039 A 
ATOM      3  C2  UNL d   1      -0.618  -3.960  -1.181  0.00  0.00    -0.080 A 
ATOM      4  C3  UNL d   1       0.636  -4.448  -0.825  0.00  0.00     0.150 A 
ATOM      5  C4  UNL d   1       1.741  -3.604  -0.773  0.00  0.00    -0.007 A 
ATOM      6  C5  UNL d   1       1.593  -2.253  -1.086  0.00  0.00     0.039 A 
ENDROOT
BRANCH   4   7
ATOM      7  O   UNL d   1       0.829  -5.762  -0.517  0.00  0.00    -0.526 OA
ATOM      8  H5  UNL d   1      -0.016  -6.230  -0.624  0.00  0.00     0.418 HD
ENDBRANCH   4   7
TORSDOF 1
ENDMDL
