MODEL 1
REMARK minimizedAffinity -3.09726834
REMARK minimizedRMSD -1
REMARK  1 active torsions:
REMARK  status: ('A' for Active; 'I' for Inactive)
REMARK    1  A    between atoms: C3_4  and  O_7 
ROOT
ATOM      1  C   UNL d   1      -1.042   1.188   1.330  0.00  0.00    -0.033 A 
ATOM      2  C1  UNL d   1      -1.463   1.310   0.004  0.00  0.00     0.039 A 
ATOM      3  C2  UNL d   1      -0.988   0.425  -0.965  0.00  0.00    -0.080 A 
ATOM      4  C3  UNL d   1      -0.095  -0.577  -0.597  0.00  0.00     0.150 A 
ATOM      5  C4  UNL d   1       0.326  -0.707   0.723  0.00  0.00    -0.007 A 
ATOM      6  C5  UNL d   1      -0.149   0.179   1.689  0.00  0.00     0.039 A 
ENDROOT
BRANCH   4   7
ATOM      7  O   UNL d   1       0.400  -1.462  -1.508  0.00  0.00    -0.526 OA
ATOM      8  H5  UNL d   1       0.044  -1.233  -2.383  0.00  0.00     0.418 HD
ENDBRANCH   4   7
TORSDOF 1
ENDMDL
