MODEL 1
REMARK minimizedAffinity -4.63119411
REMARK minimizedRMSD -1
REMARK  1 active torsions:
REMARK  status: ('A' for Active; 'I' for Inactive)
REMARK    1  A    between atoms: C3_4  and  O_7 
ROOT
ATOM      1  C   UNL d   1      -0.265  -0.873   0.089  0.00  0.00    -0.033 A 
ATOM      2  C1  UNL d   1      -0.851   0.369  -0.162  0.00  0.00     0.039 A 
ATOM      3  C2  UNL d   1      -1.076   1.262   0.888  0.00  0.00    -0.080 A 
ATOM      4  C3  UNL d   1      -0.710   0.901   2.182  0.00  0.00     0.150 A 
ATOM      5  C4  UNL d   1      -0.122  -0.333   2.439  0.00  0.00    -0.007 A 
ATOM      6  C5  UNL d   1       0.101  -1.224   1.389  0.00  0.00     0.039 A 
ENDROOT
BRANCH   4   7
ATOM      7  O   UNL d   1      -0.914   1.737   3.239  0.00  0.00    -0.526 OA
ATOM      8  H5  UNL d   1      -1.354   2.541   2.916  0.00  0.00     0.418 HD
ENDBRANCH   4   7
TORSDOF 1
ENDMDL
