MODEL 1
REMARK minimizedAffinity -3.67681766
REMARK minimizedRMSD -1
REMARK  1 active torsions:
REMARK  status: ('A' for Active; 'I' for Inactive)
REMARK    1  A    between atoms: C1_2  and  C2_3 
ROOT
ATOM      1  C2  UNL d   1       0.137  -1.156   0.565  0.00  0.00    -0.081 A 
ATOM      2  C3  UNL d   1      -0.706  -0.059   0.347  0.00  0.00     0.006 A 
ATOM      3  C4  UNL d   1      -0.271   1.029  -0.412  0.00  0.00     0.002 A 
ATOM      4  C5  UNL d   1       1.011   1.036  -0.973  0.00  0.00    -0.080 A 
ATOM      5  C6  UNL d   1       1.480   2.185  -1.816  0.00  0.00     0.076 C 
ATOM      6  C7  UNL d   1       1.860  -0.052  -0.741  0.00  0.00     0.002 A 
ATOM      7  C8  UNL d   1       1.425  -1.140   0.019  0.00  0.00     0.006 A 
ENDROOT
BRANCH   1   8
ATOM      8  C1  UNL d   1      -0.353  -2.359   1.329  0.00  0.00     0.054 C 
ATOM      9  C   UNL d   1      -1.606  -2.034   2.129  0.00  0.00     0.018 C 
ENDBRANCH   1   8
TORSDOF 1
ENDMDL
