MODEL 1
REMARK minimizedAffinity -5.06377554
REMARK minimizedRMSD -1
REMARK  1 active torsions:
REMARK  status: ('A' for Active; 'I' for Inactive)
REMARK    1  A    between atoms: C1_2  and  C2_3 
ROOT
ATOM      1  C2  UNL d   1      -0.684  -1.294   0.872  0.00  0.00    -0.081 A 
ATOM      2  C3  UNL d   1      -1.223  -0.007   0.758  0.00  0.00     0.006 A 
ATOM      3  C4  UNL d   1      -0.485   1.021   0.167  0.00  0.00     0.002 A 
ATOM      4  C5  UNL d   1       0.802   0.777  -0.327  0.00  0.00    -0.080 A 
ATOM      5  C6  UNL d   1       1.593   1.864  -0.991  0.00  0.00     0.076 C 
ATOM      6  C7  UNL d   1       1.348  -0.504  -0.197  0.00  0.00     0.002 A 
ATOM      7  C8  UNL d   1       0.610  -1.532   0.395  0.00  0.00     0.006 A 
ENDROOT
BRANCH   1   8
ATOM      8  C1  UNL d   1      -1.502  -2.420   1.451  0.00  0.00     0.054 C 
ATOM      9  C   UNL d   1      -2.715  -1.892   2.204  0.00  0.00     0.018 C 
ENDBRANCH   1   8
TORSDOF 1
ENDMDL
