MODEL 1
REMARK minimizedAffinity -2.97353554
REMARK minimizedRMSD -1
REMARK  1 active torsions:
REMARK  status: ('A' for Active; 'I' for Inactive)
REMARK    1  A    between atoms: C1_2  and  C2_3 
ROOT
ATOM      1  C2  UNL d   1       0.156   0.739  -0.066  0.00  0.00    -0.081 A 
ATOM      2  C3  UNL d   1       0.846  -0.329   0.521  0.00  0.00     0.006 A 
ATOM      3  C4  UNL d   1       0.150  -1.436   1.014  0.00  0.00     0.002 A 
ATOM      4  C5  UNL d   1      -1.244  -1.497   0.922  0.00  0.00    -0.080 A 
ATOM      5  C6  UNL d   1      -2.000  -2.693   1.420  0.00  0.00     0.076 C 
ATOM      6  C7  UNL d   1      -1.935  -0.422   0.351  0.00  0.00     0.002 A 
ATOM      7  C8  UNL d   1      -1.240   0.685  -0.142  0.00  0.00     0.006 A 
ENDROOT
BRANCH   1   8
ATOM      8  C1  UNL d   1       0.907   1.904  -0.657  0.00  0.00     0.054 C 
ATOM      9  C   UNL d   1       0.700   1.990  -2.162  0.00  0.00     0.018 C 
ENDBRANCH   1   8
TORSDOF 1
ENDMDL
