MODEL 1
REMARK minimizedAffinity -2.3124361
REMARK minimizedRMSD -1
REMARK  1 active torsions:
REMARK  status: ('A' for Active; 'I' for Inactive)
REMARK    1  A    between atoms: C1_2  and  C2_3 
ROOT
ATOM      1  C2  UNL d   1      -0.360  -1.345   0.833  0.00  0.00    -0.081 A 
ATOM      2  C3  UNL d   1      -1.047  -0.170   0.506  0.00  0.00     0.006 A 
ATOM      3  C4  UNL d   1      -0.381   0.890  -0.114  0.00  0.00     0.002 A 
ATOM      4  C5  UNL d   1       0.979   0.790  -0.425  0.00  0.00    -0.080 A 
ATOM      5  C6  UNL d   1       1.698   1.909  -1.119  0.00  0.00     0.076 C 
ATOM      6  C7  UNL d   1       1.669  -0.378  -0.083  0.00  0.00     0.002 A 
ATOM      7  C8  UNL d   1       1.005  -1.438   0.538  0.00  0.00     0.006 A 
ENDROOT
BRANCH   1   8
ATOM      8  C1  UNL d   1      -1.089  -2.515   1.443  0.00  0.00     0.054 C 
ATOM      9  C   UNL d   1      -2.369  -2.069   2.135  0.00  0.00     0.018 C 
ENDBRANCH   1   8
TORSDOF 1
ENDMDL
