MODEL 1
REMARK minimizedAffinity -5.5540967
REMARK minimizedRMSD -1
REMARK  1 active torsions:
REMARK  status: ('A' for Active; 'I' for Inactive)
REMARK    1  A    between atoms: C1_2  and  C2_3 
ROOT
ATOM      1  C2  UNL d   1       0.119  -1.139   0.020  0.00  0.00    -0.081 A 
ATOM      2  C3  UNL d   1       0.840  -0.015   0.443  0.00  0.00     0.006 A 
ATOM      3  C4  UNL d   1       1.001   1.083  -0.405  0.00  0.00     0.002 A 
ATOM      4  C5  UNL d   1       0.439   1.079  -1.686  0.00  0.00    -0.080 A 
ATOM      5  C6  UNL d   1       0.579   2.264  -2.595  0.00  0.00     0.076 C 
ATOM      6  C7  UNL d   1      -0.267  -0.050  -2.115  0.00  0.00     0.002 A 
ATOM      7  C8  UNL d   1      -0.428  -1.149  -1.267  0.00  0.00     0.006 A 
ENDROOT
BRANCH   1   8
ATOM      8  C1  UNL d   1      -0.112  -2.298   0.956  0.00  0.00     0.054 C 
ATOM      9  C   UNL d   1      -1.594  -2.622   1.080  0.00  0.00     0.018 C 
ENDBRANCH   1   8
TORSDOF 1
ENDMDL
