MODEL 1
REMARK minimizedAffinity -2.94683266
REMARK minimizedRMSD -1
REMARK  1 active torsions:
REMARK  status: ('A' for Active; 'I' for Inactive)
REMARK    1  A    between atoms: C1_2  and  C2_3 
ROOT
ATOM      1  C2  UNL d   1       0.585   1.482  -0.323  0.00  0.00    -0.081 A 
ATOM      2  C3  UNL d   1       0.315   0.121  -0.134  0.00  0.00     0.006 A 
ATOM      3  C4  UNL d   1      -0.748  -0.284   0.676  0.00  0.00     0.002 A 
ATOM      4  C5  UNL d   1      -1.563   0.663   1.304  0.00  0.00    -0.080 A 
ATOM      5  C6  UNL d   1      -2.726   0.242   2.152  0.00  0.00     0.076 C 
ATOM      6  C7  UNL d   1      -1.283   2.023   1.129  0.00  0.00     0.002 A 
ATOM      7  C8  UNL d   1      -0.220   2.429   0.320  0.00  0.00     0.006 A 
ENDROOT
BRANCH   1   8
ATOM      8  C1  UNL d   1       1.691   1.923  -1.248  0.00  0.00     0.054 C 
ATOM      9  C   UNL d   1       1.685   3.433  -1.437  0.00  0.00     0.018 C 
ENDBRANCH   1   8
TORSDOF 1
ENDMDL
