MODEL 1
REMARK minimizedAffinity -2.68286085
REMARK minimizedRMSD -1
REMARK  1 active torsions:
REMARK  status: ('A' for Active; 'I' for Inactive)
REMARK    1  A    between atoms: C1_2  and  C2_3 
ROOT
ATOM      1  C2  UNL d   1      -1.446  -0.037   0.645  0.00  0.00    -0.081 A 
ATOM      2  C3  UNL d   1      -1.622  -1.425   0.697  0.00  0.00     0.006 A 
ATOM      3  C4  UNL d   1      -0.527  -2.283   0.563  0.00  0.00     0.002 A 
ATOM      4  C5  UNL d   1       0.761  -1.768   0.384  0.00  0.00    -0.080 A 
ATOM      5  C6  UNL d   1       1.948  -2.677   0.270  0.00  0.00     0.076 C 
ATOM      6  C7  UNL d   1       0.935  -0.382   0.315  0.00  0.00     0.002 A 
ATOM      7  C8  UNL d   1      -0.159   0.477   0.448  0.00  0.00     0.006 A 
ENDROOT
BRANCH   1   8
ATOM      8  C1  UNL d   1      -2.614   0.892   0.854  0.00  0.00     0.054 C 
ATOM      9  C   UNL d   1      -2.149   2.286   1.252  0.00  0.00     0.018 C 
ENDBRANCH   1   8
TORSDOF 1
ENDMDL
