MODEL 1
REMARK minimizedAffinity -4.20649004
REMARK minimizedRMSD -1
REMARK  1 active torsions:
REMARK  status: ('A' for Active; 'I' for Inactive)
REMARK    1  A    between atoms: C1_2  and  C2_3 
ROOT
ATOM      1  C2  UNL d   1      -0.160  -0.770   0.371  0.00  0.00    -0.081 A 
ATOM      2  C3  UNL d   1      -1.062   0.298   0.444  0.00  0.00     0.006 A 
ATOM      3  C4  UNL d   1      -2.300   0.139   1.072  0.00  0.00     0.002 A 
ATOM      4  C5  UNL d   1      -2.653  -1.088   1.643  0.00  0.00    -0.080 A 
ATOM      5  C6  UNL d   1      -3.966  -1.264   2.347  0.00  0.00     0.076 C 
ATOM      6  C7  UNL d   1      -1.759  -2.161   1.555  0.00  0.00     0.002 A 
ATOM      7  C8  UNL d   1      -0.522  -2.002   0.927  0.00  0.00     0.006 A 
ENDROOT
BRANCH   1   8
ATOM      8  C1  UNL d   1       1.201  -0.583  -0.248  0.00  0.00     0.054 C 
ATOM      9  C   UNL d   1       2.236  -1.486   0.408  0.00  0.00     0.018 C 
ENDBRANCH   1   8
TORSDOF 1
ENDMDL
