MODEL 1
REMARK minimizedAffinity -4.8392396
REMARK minimizedRMSD -1
REMARK  1 active torsions:
REMARK  status: ('A' for Active; 'I' for Inactive)
REMARK    1  A    between atoms: C1_2  and  C2_3 
ROOT
ATOM      1  C2  UNL d   1       0.473   0.934  -0.492  0.00  0.00    -0.081 A 
ATOM      2  C3  UNL d   1       1.411  -0.070  -0.223  0.00  0.00     0.006 A 
ATOM      3  C4  UNL d   1       1.015  -1.266   0.382  0.00  0.00     0.002 A 
ATOM      4  C5  UNL d   1      -0.326  -1.480   0.719  0.00  0.00    -0.080 A 
ATOM      5  C6  UNL d   1      -0.769  -2.771   1.341  0.00  0.00     0.076 C 
ATOM      6  C7  UNL d   1      -1.260  -0.470   0.466  0.00  0.00     0.002 A 
ATOM      7  C8  UNL d   1      -0.865   0.726  -0.138  0.00  0.00     0.006 A 
ENDROOT
BRANCH   1   8
ATOM      8  C1  UNL d   1       0.886   2.197  -1.203  0.00  0.00     0.054 C 
ATOM      9  C   UNL d   1      -0.117   2.577  -2.284  0.00  0.00     0.018 C 
ENDBRANCH   1   8
TORSDOF 1
ENDMDL
