MODEL 1
REMARK minimizedAffinity 0.677908897
REMARK minimizedRMSD -1
REMARK  1 active torsions:
REMARK  status: ('A' for Active; 'I' for Inactive)
REMARK    1  A    between atoms: C1_2  and  C2_3 
ROOT
ATOM      1  C2  UNL d   1       0.111   0.927  -0.877  0.00  0.00    -0.081 A 
ATOM      2  C3  UNL d   1       1.123  -0.027  -0.712  0.00  0.00     0.006 A 
ATOM      3  C4  UNL d   1       0.938  -1.114   0.145  0.00  0.00     0.002 A 
ATOM      4  C5  UNL d   1      -0.262  -1.269   0.846  0.00  0.00    -0.080 A 
ATOM      5  C6  UNL d   1      -0.485  -2.448   1.747  0.00  0.00     0.076 C 
ATOM      6  C7  UNL d   1      -1.266  -0.307   0.696  0.00  0.00     0.002 A 
ATOM      7  C8  UNL d   1      -1.082   0.781  -0.161  0.00  0.00     0.006 A 
ENDROOT
BRANCH   1   8
ATOM      8  C1  UNL d   1       0.282   2.065  -1.850  0.00  0.00     0.054 C 
ATOM      9  C   UNL d   1       1.483   1.841  -2.758  0.00  0.00     0.018 C 
ENDBRANCH   1   8
TORSDOF 1
ENDMDL
