MODEL 1
REMARK minimizedAffinity -6.37382269
REMARK minimizedRMSD -1
REMARK  1 active torsions:
REMARK  status: ('A' for Active; 'I' for Inactive)
REMARK    1  A    between atoms: C1_2  and  C2_3 
ROOT
ATOM      1  C2  UNL d   1       0.417   0.300  -0.207  0.00  0.00    -0.081 A 
ATOM      2  C3  UNL d   1       0.990  -0.917   0.179  0.00  0.00     0.006 A 
ATOM      3  C4  UNL d   1       0.186  -1.969   0.624  0.00  0.00     0.002 A 
ATOM      4  C5  UNL d   1      -1.204  -1.824   0.683  0.00  0.00    -0.080 A 
ATOM      5  C6  UNL d   1      -2.081  -2.956   1.130  0.00  0.00     0.076 C 
ATOM      6  C7  UNL d   1      -1.776  -0.602   0.314  0.00  0.00     0.002 A 
ATOM      7  C8  UNL d   1      -0.972   0.450  -0.131  0.00  0.00     0.006 A 
ENDROOT
BRANCH   1   8
ATOM      8  C1  UNL d   1       1.275   1.415  -0.749  0.00  0.00     0.054 C 
ATOM      9  C   UNL d   1       0.814   1.845  -2.134  0.00  0.00     0.018 C 
ENDBRANCH   1   8
TORSDOF 1
ENDMDL
