MODEL 1
REMARK minimizedAffinity -3.63064098
REMARK minimizedRMSD -1
REMARK  1 active torsions:
REMARK  status: ('A' for Active; 'I' for Inactive)
REMARK    1  A    between atoms: C1_2  and  C2_3 
ROOT
ATOM      1  C2  UNL d   1       0.591   0.461  -0.290  0.00  0.00    -0.081 A 
ATOM      2  C3  UNL d   1       1.123  -0.811  -0.044  0.00  0.00     0.006 A 
ATOM      3  C4  UNL d   1       0.316  -1.830   0.465  0.00  0.00     0.002 A 
ATOM      4  C5  UNL d   1      -1.039  -1.598   0.729  0.00  0.00    -0.080 A 
ATOM      5  C6  UNL d   1      -1.924  -2.692   1.247  0.00  0.00     0.076 C 
ATOM      6  C7  UNL d   1      -1.566  -0.323   0.500  0.00  0.00     0.002 A 
ATOM      7  C8  UNL d   1      -0.759   0.697  -0.008  0.00  0.00     0.006 A 
ENDROOT
BRANCH   1   8
ATOM      8  C1  UNL d   1       1.443   1.544  -0.900  0.00  0.00     0.054 C 
ATOM      9  C   UNL d   1       0.925   1.950  -2.272  0.00  0.00     0.018 C 
ENDBRANCH   1   8
TORSDOF 1
ENDMDL
