MODEL 1
REMARK minimizedAffinity -2.98061824
REMARK minimizedRMSD -1
REMARK  1 active torsions:
REMARK  status: ('A' for Active; 'I' for Inactive)
REMARK    1  A    between atoms: C1_2  and  C2_3 
ROOT
ATOM      1  C2  UNL d   1       0.601  -1.092   0.334  0.00  0.00    -0.081 A 
ATOM      2  C3  UNL d   1      -0.575  -0.692  -0.313  0.00  0.00     0.006 A 
ATOM      3  C4  UNL d   1      -1.786  -1.332  -0.040  0.00  0.00     0.002 A 
ATOM      4  C5  UNL d   1      -1.844  -2.375   0.890  0.00  0.00    -0.080 A 
ATOM      5  C6  UNL d   1      -3.144  -3.049   1.214  0.00  0.00     0.076 C 
ATOM      6  C7  UNL d   1      -0.667  -2.786   1.524  0.00  0.00     0.002 A 
ATOM      7  C8  UNL d   1       0.545  -2.148   1.251  0.00  0.00     0.006 A 
ENDROOT
BRANCH   1   8
ATOM      8  C1  UNL d   1       1.897  -0.362   0.090  0.00  0.00     0.054 C 
ATOM      9  C   UNL d   1       3.074  -1.104   0.706  0.00  0.00     0.018 C 
ENDBRANCH   1   8
TORSDOF 1
ENDMDL
