MODEL 1
REMARK minimizedAffinity 4.84559011
REMARK minimizedRMSD -1
REMARK  0 active torsions:
REMARK  status: ('A' for Active; 'I' for Inactive)
ROOT
ATOM      1  C2' OXE d   1      -1.803  -0.102   0.693  0.00  0.00     0.078 C 
ATOM      2  C1' OXE d   1      -2.523  -2.037   2.596  0.00  0.00     0.078 C 
ATOM      3  C1  OXE d   1      -1.103  -1.527   2.613  0.00  0.00    -0.078 A 
ATOM      4  C2  OXE d   1      -0.747  -0.615   1.649  0.00  0.00    -0.078 A 
ATOM      5  C3  OXE d   1       0.534  -0.071   1.654  0.00  0.00     0.003 A 
ATOM      6  C4  OXE d   1       1.507  -0.558   2.535  0.00  0.00    -0.002 A 
ATOM      7  C5  OXE d   1       1.177  -1.516   3.499  0.00  0.00    -0.002 A 
ATOM      8  C6  OXE d   1      -0.132  -1.979   3.579  0.00  0.00     0.003 A 
ENDROOT
TORSDOF 0
ENDMDL
