MODEL 1
REMARK minimizedAffinity 12.0906925
REMARK minimizedRMSD -1
REMARK  0 active torsions:
REMARK  status: ('A' for Active; 'I' for Inactive)
ROOT
ATOM      1  C2' OXE d   1      -0.014   0.282   2.508  0.00  0.00     0.078 C 
ATOM      2  C1' OXE d   1       1.659  -1.891   1.909  0.00  0.00     0.078 C 
ATOM      3  C1  OXE d   1       1.509  -1.497   3.357  0.00  0.00    -0.078 A 
ATOM      4  C2  OXE d   1       0.726  -0.404   3.637  0.00  0.00    -0.078 A 
ATOM      5  C3  OXE d   1       0.510  -0.031   4.961  0.00  0.00     0.003 A 
ATOM      6  C4  OXE d   1       1.205  -0.665   5.998  0.00  0.00    -0.002 A 
ATOM      7  C5  OXE d   1       2.039  -1.756   5.731  0.00  0.00    -0.002 A 
ATOM      8  C6  OXE d   1       2.168  -2.210   4.423  0.00  0.00     0.003 A 
ENDROOT
TORSDOF 0
ENDMDL
