MODEL 1
REMARK minimizedAffinity 5.30180359
REMARK minimizedRMSD -1
REMARK  0 active torsions:
REMARK  status: ('A' for Active; 'I' for Inactive)
ROOT
ATOM      1  C2' OXE d   1       1.451  -1.909   3.899  0.00  0.00     0.078 C 
ATOM      2  C1' OXE d   1       2.543   0.037   2.196  0.00  0.00     0.078 C 
ATOM      3  C1  OXE d   1       1.050  -0.175   2.156  0.00  0.00    -0.078 A 
ATOM      4  C2  OXE d   1       0.530  -1.162   2.959  0.00  0.00    -0.078 A 
ATOM      5  C3  OXE d   1      -0.847  -1.362   3.002  0.00  0.00     0.003 A 
ATOM      6  C4  OXE d   1      -1.690  -0.673   2.122  0.00  0.00    -0.002 A 
ATOM      7  C5  OXE d   1      -1.177   0.308   1.267  0.00  0.00    -0.002 A 
ATOM      8  C6  OXE d   1       0.183   0.599   1.303  0.00  0.00     0.003 A 
ENDROOT
TORSDOF 0
ENDMDL
