MODEL 1
REMARK minimizedAffinity -0.237095729
REMARK minimizedRMSD -1
REMARK  0 active torsions:
REMARK  status: ('A' for Active; 'I' for Inactive)
ROOT
ATOM      1  C2' OXE d   1      -2.929  -1.096   3.169  0.00  0.00     0.078 C 
ATOM      2  C1' OXE d   1      -1.823  -0.254   0.730  0.00  0.00     0.078 C 
ATOM      3  C1  OXE d   1      -0.877  -0.555   1.865  0.00  0.00    -0.078 A 
ATOM      4  C2  OXE d   1      -1.429  -0.922   3.069  0.00  0.00    -0.078 A 
ATOM      5  C3  OXE d   1      -0.599  -1.263   4.133  0.00  0.00     0.003 A 
ATOM      6  C4  OXE d   1       0.787  -1.090   4.035  0.00  0.00    -0.002 A 
ATOM      7  C5  OXE d   1       1.367  -0.680   2.830  0.00  0.00    -0.002 A 
ATOM      8  C6  OXE d   1       0.555  -0.450   1.725  0.00  0.00     0.003 A 
ENDROOT
TORSDOF 0
ENDMDL
