MODEL 1
REMARK minimizedAffinity -0.626181901
REMARK minimizedRMSD -1
REMARK  0 active torsions:
REMARK  status: ('A' for Active; 'I' for Inactive)
ROOT
ATOM      1  C2' OXE d   1      -1.930   0.341   1.189  0.00  0.00     0.078 C 
ATOM      2  C1' OXE d   1       0.567   1.596   1.448  0.00  0.00     0.078 C 
ATOM      3  C1  OXE d   1       0.370   0.271   2.141  0.00  0.00    -0.078 A 
ATOM      4  C2  OXE d   1      -0.870  -0.314   2.048  0.00  0.00    -0.078 A 
ATOM      5  C3  OXE d   1      -1.088  -1.562   2.623  0.00  0.00     0.003 A 
ATOM      6  C4  OXE d   1      -0.105  -2.156   3.423  0.00  0.00    -0.002 A 
ATOM      7  C5  OXE d   1       1.152  -1.558   3.565  0.00  0.00    -0.002 A 
ATOM      8  C6  OXE d   1       1.419  -0.368   2.897  0.00  0.00     0.003 A 
ENDROOT
TORSDOF 0
ENDMDL
