MODEL 1
REMARK minimizedAffinity 2.18246889
REMARK minimizedRMSD -1
REMARK  0 active torsions:
REMARK  status: ('A' for Active; 'I' for Inactive)
ROOT
ATOM      1  C2' OXE d   1      -4.375   0.330  -4.872  0.00  0.00     0.078 C 
ATOM      2  C1' OXE d   1      -3.001   2.349  -3.487  0.00  0.00     0.078 C 
ATOM      3  C1  OXE d   1      -2.183   1.333  -4.245  0.00  0.00    -0.078 A 
ATOM      4  C2  OXE d   1      -2.861   0.322  -4.881  0.00  0.00    -0.078 A 
ATOM      5  C3  OXE d   1      -2.158  -0.610  -5.639  0.00  0.00     0.003 A 
ATOM      6  C4  OXE d   1      -0.758  -0.617  -5.634  0.00  0.00    -0.002 A 
ATOM      7  C5  OXE d   1      -0.046   0.381  -4.960  0.00  0.00    -0.002 A 
ATOM      8  C6  OXE d   1      -0.742   1.386  -4.297  0.00  0.00     0.003 A 
ENDROOT
TORSDOF 0
ENDMDL
