MODEL 1
REMARK minimizedAffinity 5.0609417
REMARK minimizedRMSD -1
REMARK  0 active torsions:
REMARK  status: ('A' for Active; 'I' for Inactive)
ROOT
ATOM      1  C   UNL d   1       3.402  -5.526  -0.251  0.00  0.00     0.078 C 
ATOM      2  C1  UNL d   1       2.790  -4.391   0.514  0.00  0.00    -0.077 A 
ATOM      3  C2  UNL d   1       1.424  -4.101   0.405  0.00  0.00    -0.001 A 
ATOM      4  C3  UNL d   1       0.870  -3.035   1.115  0.00  0.00     0.003 A 
ATOM      5  C4  UNL d   1       1.674  -2.250   1.939  0.00  0.00    -0.005 A 
ATOM      6  C5  UNL d   1       3.034  -2.529   2.052  0.00  0.00     0.003 A 
ATOM      7  C6  UNL d   1       3.590  -3.595   1.343  0.00  0.00    -0.001 A 
ENDROOT
TORSDOF 0
ENDMDL
