MODEL 1
REMARK minimizedAffinity 0.705175698
REMARK minimizedRMSD -1
REMARK  0 active torsions:
REMARK  status: ('A' for Active; 'I' for Inactive)
ROOT
ATOM      1  C   UNL d   1      -0.464  -0.353   3.016  0.00  0.00     0.078 C 
ATOM      2  C1  UNL d   1       0.444  -1.163   2.140  0.00  0.00    -0.077 A 
ATOM      3  C2  UNL d   1       0.473  -0.966   0.754  0.00  0.00    -0.001 A 
ATOM      4  C3  UNL d   1       1.316  -1.733  -0.051  0.00  0.00     0.003 A 
ATOM      5  C4  UNL d   1       2.137  -2.703   0.521  0.00  0.00    -0.005 A 
ATOM      6  C5  UNL d   1       2.114  -2.908   1.899  0.00  0.00     0.003 A 
ATOM      7  C6  UNL d   1       1.271  -2.142   2.705  0.00  0.00    -0.001 A 
ENDROOT
TORSDOF 0
ENDMDL
