MODEL 1
REMARK minimizedAffinity 7.42258692
REMARK minimizedRMSD -1
REMARK  0 active torsions:
REMARK  status: ('A' for Active; 'I' for Inactive)
ROOT
ATOM      1  C   UNL d   1      -0.026  -1.512   1.528  0.00  0.00     0.078 C 
ATOM      2  C1  UNL d   1       1.060  -2.485   1.178  0.00  0.00    -0.077 A 
ATOM      3  C2  UNL d   1       2.282  -2.044   0.655  0.00  0.00    -0.001 A 
ATOM      4  C3  UNL d   1       3.281  -2.961   0.324  0.00  0.00     0.003 A 
ATOM      5  C4  UNL d   1       3.068  -4.325   0.512  0.00  0.00    -0.005 A 
ATOM      6  C5  UNL d   1       1.854  -4.774   1.029  0.00  0.00     0.003 A 
ATOM      7  C6  UNL d   1       0.854  -3.858   1.361  0.00  0.00    -0.001 A 
ENDROOT
TORSDOF 0
ENDMDL
