MODEL 1
REMARK minimizedAffinity 5.51354027
REMARK minimizedRMSD -1
REMARK  0 active torsions:
REMARK  status: ('A' for Active; 'I' for Inactive)
ROOT
ATOM      1  C   UNL d   1       4.891  -1.141   0.153  0.00  0.00     0.078 C 
ATOM      2  C1  UNL d   1       3.586  -1.871   0.267  0.00  0.00    -0.077 A 
ATOM      3  C2  UNL d   1       3.358  -3.055  -0.444  0.00  0.00    -0.001 A 
ATOM      4  C3  UNL d   1       2.135  -3.719  -0.336  0.00  0.00     0.003 A 
ATOM      5  C4  UNL d   1       1.130  -3.206   0.483  0.00  0.00    -0.005 A 
ATOM      6  C5  UNL d   1       1.348  -2.027   1.193  0.00  0.00     0.003 A 
ATOM      7  C6  UNL d   1       2.570  -1.362   1.085  0.00  0.00    -0.001 A 
ENDROOT
TORSDOF 0
ENDMDL
