MODEL 1
REMARK minimizedAffinity -1.81662238
REMARK minimizedRMSD -1
REMARK  0 active torsions:
REMARK  status: ('A' for Active; 'I' for Inactive)
ROOT
ATOM      1  O1  BZF d   1       0.976   0.077   1.666  0.00  0.00    -0.204 OA
ATOM      2  C2  BZF d   1       0.375  -0.590   0.616  0.00  0.00     0.174 A 
ATOM      3  C3  BZF d   1      -0.154   0.283  -0.265  0.00  0.00    -0.012 A 
ATOM      4  C3A BZF d   1       0.215   1.578   0.220  0.00  0.00    -0.107 A 
ATOM      5  C4  BZF d   1      -0.003   2.848  -0.233  0.00  0.00     0.055 A 
ATOM      6  C5  BZF d   1       0.428   3.898   0.514  0.00  0.00    -0.016 A 
ATOM      7  C6  BZF d   1       1.075   3.716   1.718  0.00  0.00     0.022 A 
ATOM      8  C7  BZF d   1       1.319   2.475   2.206  0.00  0.00     0.029 A 
ATOM      9  C7A BZF d   1       0.914   1.411   1.438  0.00  0.00     0.058 A 
ENDROOT
TORSDOF 0
ENDMDL
