MODEL 1
REMARK minimizedAffinity 3.54922366
REMARK minimizedRMSD -1
REMARK  0 active torsions:
REMARK  status: ('A' for Active; 'I' for Inactive)
ROOT
ATOM      1  O1  BZF d   1      -0.025   3.155  -0.603  0.00  0.00    -0.204 OA
ATOM      2  C2  BZF d   1       0.268   4.266   0.164  0.00  0.00     0.174 A 
ATOM      3  C3  BZF d   1       0.338   3.941   1.471  0.00  0.00    -0.012 A 
ATOM      4  C3A BZF d   1       0.162   2.521   1.515  0.00  0.00    -0.107 A 
ATOM      5  C4  BZF d   1       0.147   1.608   2.531  0.00  0.00     0.055 A 
ATOM      6  C5  BZF d   1      -0.122   0.307   2.245  0.00  0.00    -0.016 A 
ATOM      7  C6  BZF d   1      -0.386  -0.114   0.959  0.00  0.00     0.022 A 
ATOM      8  C7  BZF d   1      -0.377   0.754  -0.082  0.00  0.00     0.029 A 
ATOM      9  C7A BZF d   1      -0.073   2.064   0.198  0.00  0.00     0.058 A 
ENDROOT
TORSDOF 0
ENDMDL
