MODEL 1
REMARK minimizedAffinity 8.78686905
REMARK minimizedRMSD -1
REMARK  0 active torsions:
REMARK  status: ('A' for Active; 'I' for Inactive)
ROOT
ATOM      1  O1  BZF d   1      -1.141   0.842   3.698  0.00  0.00    -0.204 OA
ATOM      2  C2  BZF d   1      -0.196  -0.068   4.131  0.00  0.00     0.174 A 
ATOM      3  C3  BZF d   1       0.848  -0.116   3.278  0.00  0.00    -0.012 A 
ATOM      4  C3A BZF d   1       0.579   0.890   2.297  0.00  0.00    -0.107 A 
ATOM      5  C4  BZF d   1       1.256   1.333   1.197  0.00  0.00     0.055 A 
ATOM      6  C5  BZF d   1       0.685   2.280   0.407  0.00  0.00    -0.016 A 
ATOM      7  C6  BZF d   1      -0.562   2.801   0.684  0.00  0.00     0.022 A 
ATOM      8  C7  BZF d   1      -1.270   2.396   1.767  0.00  0.00     0.029 A 
ATOM      9  C7A BZF d   1      -0.681   1.463   2.585  0.00  0.00     0.058 A 
ENDROOT
TORSDOF 0
ENDMDL
