MODEL 1
REMARK minimizedAffinity 5.16836166
REMARK minimizedRMSD -1
REMARK  0 active torsions:
REMARK  status: ('A' for Active; 'I' for Inactive)
ROOT
ATOM      1  O1  BZF d   1      -0.959   1.578   3.090  0.00  0.00    -0.204 OA
ATOM      2  C2  BZF d   1      -0.938   2.322   1.926  0.00  0.00     0.174 A 
ATOM      3  C3  BZF d   1      -0.041   1.819   1.053  0.00  0.00    -0.012 A 
ATOM      4  C3A BZF d   1       0.467   0.635   1.676  0.00  0.00    -0.107 A 
ATOM      5  C4  BZF d   1       1.377  -0.309   1.295  0.00  0.00     0.055 A 
ATOM      6  C5  BZF d   1       1.704  -1.300   2.165  0.00  0.00    -0.016 A 
ATOM      7  C6  BZF d   1       1.145  -1.374   3.424  0.00  0.00     0.022 A 
ATOM      8  C7  BZF d   1       0.234  -0.463   3.845  0.00  0.00     0.029 A 
ATOM      9  C7A BZF d   1      -0.123   0.521   2.956  0.00  0.00     0.058 A 
ENDROOT
TORSDOF 0
ENDMDL
