MODEL 1
REMARK minimizedAffinity 3.86693263
REMARK minimizedRMSD -1
REMARK  0 active torsions:
REMARK  status: ('A' for Active; 'I' for Inactive)
ROOT
ATOM      1  O1  BZF d   1      -0.223   0.295   3.110  0.00  0.00    -0.204 OA
ATOM      2  C2  BZF d   1       1.053  -0.094   2.754  0.00  0.00     0.174 A 
ATOM      3  C3  BZF d   1       1.638   0.838   1.975  0.00  0.00    -0.012 A 
ATOM      4  C3A BZF d   1       0.701   1.917   1.911  0.00  0.00    -0.107 A 
ATOM      5  C4  BZF d   1       0.715   3.138   1.299  0.00  0.00     0.055 A 
ATOM      6  C5  BZF d   1      -0.390   3.926   1.372  0.00  0.00    -0.016 A 
ATOM      7  C6  BZF d   1      -1.526   3.523   2.043  0.00  0.00     0.022 A 
ATOM      8  C7  BZF d   1      -1.586   2.323   2.669  0.00  0.00     0.029 A 
ATOM      9  C7A BZF d   1      -0.459   1.538   2.625  0.00  0.00     0.058 A 
ENDROOT
TORSDOF 0
ENDMDL
