MODEL 1
REMARK minimizedAffinity 1.67599869
REMARK minimizedRMSD -1
REMARK  0 active torsions:
REMARK  status: ('A' for Active; 'I' for Inactive)
ROOT
ATOM      1  O1  BZF d   1       0.496   1.148   3.576  0.00  0.00    -0.204 OA
ATOM      2  C2  BZF d   1       0.262  -0.195   3.801  0.00  0.00     0.174 A 
ATOM      3  C3  BZF d   1       0.159  -0.865   2.635  0.00  0.00    -0.012 A 
ATOM      4  C3A BZF d   1       0.432   0.105   1.619  0.00  0.00    -0.107 A 
ATOM      5  C4  BZF d   1       0.496   0.044   0.256  0.00  0.00     0.055 A 
ATOM      6  C5  BZF d   1       0.713   1.187  -0.447  0.00  0.00    -0.016 A 
ATOM      7  C6  BZF d   1       0.865   2.407   0.180  0.00  0.00     0.022 A 
ATOM      8  C7  BZF d   1       0.815   2.516   1.530  0.00  0.00     0.029 A 
ATOM      9  C7A BZF d   1       0.629   1.358   2.244  0.00  0.00     0.058 A 
ENDROOT
TORSDOF 0
ENDMDL
