MODEL 1
REMARK minimizedAffinity 2.94247556
REMARK minimizedRMSD -1
REMARK  0 active torsions:
REMARK  status: ('A' for Active; 'I' for Inactive)
ROOT
ATOM      1  O1  BZF d   1       0.849   3.495  -0.862  0.00  0.00    -0.204 OA
ATOM      2  C2  BZF d   1       1.207   4.695  -0.280  0.00  0.00     0.174 A 
ATOM      3  C3  BZF d   1       1.296   4.569   1.060  0.00  0.00    -0.012 A 
ATOM      4  C3A BZF d   1       1.063   3.183   1.324  0.00  0.00    -0.107 A 
ATOM      5  C4  BZF d   1       1.036   2.436   2.467  0.00  0.00     0.055 A 
ATOM      6  C5  BZF d   1       0.706   1.120   2.389  0.00  0.00    -0.016 A 
ATOM      7  C6  BZF d   1       0.393   0.520   1.187  0.00  0.00     0.022 A 
ATOM      8  C7  BZF d   1       0.411   1.219   0.025  0.00  0.00     0.029 A 
ATOM      9  C7A BZF d   1       0.776   2.541   0.097  0.00  0.00     0.058 A 
ENDROOT
TORSDOF 0
ENDMDL
