MODEL 1
REMARK minimizedAffinity 5.72158575
REMARK minimizedRMSD -1
REMARK  0 active torsions:
REMARK  status: ('A' for Active; 'I' for Inactive)
ROOT
ATOM      1  O1  BZF d   1       0.620   2.103   3.352  0.00  0.00    -0.204 OA
ATOM      2  C2  BZF d   1       0.526   3.354   2.773  0.00  0.00     0.174 A 
ATOM      3  C3  BZF d   1       0.442   3.254   1.431  0.00  0.00    -0.012 A 
ATOM      4  C3A BZF d   1       0.393   1.850   1.160  0.00  0.00    -0.107 A 
ATOM      5  C4  BZF d   1       0.291   1.119   0.012  0.00  0.00     0.055 A 
ATOM      6  C5  BZF d   1       0.343  -0.237   0.085  0.00  0.00    -0.016 A 
ATOM      7  C6  BZF d   1       0.502  -0.893   1.288  0.00  0.00     0.022 A 
ATOM      8  C7  BZF d   1       0.602  -0.211   2.455  0.00  0.00     0.029 A 
ATOM      9  C7A BZF d   1       0.517   1.159   2.387  0.00  0.00     0.058 A 
ENDROOT
TORSDOF 0
ENDMDL
