MODEL 1
REMARK minimizedAffinity 0.627176881
REMARK minimizedRMSD -1
REMARK  0 active torsions:
REMARK  status: ('A' for Active; 'I' for Inactive)
ROOT
ATOM      1  O1  BZF d   1       0.501   2.953   2.159  0.00  0.00    -0.204 OA
ATOM      2  C2  BZF d   1       0.249   3.578   0.953  0.00  0.00     0.174 A 
ATOM      3  C3  BZF d   1       0.390   2.714  -0.072  0.00  0.00    -0.012 A 
ATOM      4  C3A BZF d   1       0.663   1.448   0.537  0.00  0.00    -0.107 A 
ATOM      5  C4  BZF d   1       0.883   0.195   0.041  0.00  0.00     0.055 A 
ATOM      6  C5  BZF d   1       1.193  -0.811   0.900  0.00  0.00    -0.016 A 
ATOM      7  C6  BZF d   1       1.296  -0.599   2.259  0.00  0.00     0.022 A 
ATOM      8  C7  BZF d   1       1.081   0.626   2.799  0.00  0.00     0.029 A 
ATOM      9  C7A BZF d   1       0.735   1.637   1.936  0.00  0.00     0.058 A 
ENDROOT
TORSDOF 0
ENDMDL
