MODEL 1
REMARK minimizedAffinity -2.18437552
REMARK minimizedRMSD -1
REMARK  0 active torsions:
REMARK  status: ('A' for Active; 'I' for Inactive)
ROOT
ATOM      1  O1  BZF d   1       0.555   3.845  -0.614  0.00  0.00    -0.204 OA
ATOM      2  C2  BZF d   1       0.809   5.053   0.005  0.00  0.00     0.174 A 
ATOM      3  C3  BZF d   1       1.024   4.879   1.325  0.00  0.00    -0.012 A 
ATOM      4  C3A BZF d   1       0.987   3.463   1.528  0.00  0.00    -0.107 A 
ATOM      5  C4  BZF d   1       1.148   2.667   2.627  0.00  0.00     0.055 A 
ATOM      6  C5  BZF d   1       0.978   1.325   2.501  0.00  0.00    -0.016 A 
ATOM      7  C6  BZF d   1       0.642   0.746   1.294  0.00  0.00     0.022 A 
ATOM      8  C7  BZF d   1       0.477   1.493   0.176  0.00  0.00     0.029 A 
ATOM      9  C7A BZF d   1       0.681   2.847   0.293  0.00  0.00     0.058 A 
ENDROOT
TORSDOF 0
ENDMDL
