MODEL 1
REMARK minimizedAffinity 6.54298115
REMARK minimizedRMSD -1
REMARK  2 active torsions:
REMARK  status: ('A' for Active; 'I' for Inactive)
REMARK    1  A    between atoms: C1_2  and  C2_3 
REMARK    2  A    between atoms: C2_3  and  C3_4 
ROOT
ATOM      1  C3  UNL d   1       0.144   3.937   3.462  0.00  0.00    -0.075 A 
ATOM      2  C4  UNL d   1       0.369   2.716   4.114  0.00  0.00     0.002 A 
ATOM      3  C5  UNL d   1       0.109   1.508   3.466  0.00  0.00     0.002 A 
ATOM      4  C6  UNL d   1      -0.388   1.505   2.165  0.00  0.00    -0.004 A 
ATOM      5  C7  UNL d   1      -0.631   2.712   1.513  0.00  0.00     0.002 A 
ATOM      6  C8  UNL d   1      -0.368   3.922   2.157  0.00  0.00     0.002 A 
ENDROOT
BRANCH   1   7
ATOM      7  C2  UNL d   1       0.451   5.247   4.146  0.00  0.00     0.056 C 
BRANCH   7   8
ATOM      8  C1  UNL d   1       0.111   5.265   5.640  0.00  0.00     0.007 C 
ATOM      9  C   UNL d   1      -1.186   5.999   5.952  0.00  0.00     0.009 C 
ENDBRANCH   7   8
ENDBRANCH   1   7
TORSDOF 2
ENDMDL
