MODEL 1
REMARK minimizedAffinity 17.159996
REMARK minimizedRMSD -1
REMARK  2 active torsions:
REMARK  status: ('A' for Active; 'I' for Inactive)
REMARK    1  A    between atoms: C1_2  and  C2_3 
REMARK    2  A    between atoms: C2_3  and  C3_4 
ROOT
ATOM      1  C3  UNL d   1      -4.870  -0.012  -1.914  0.00  0.00    -0.075 A 
ATOM      2  C4  UNL d   1      -4.810   1.354  -2.225  0.00  0.00     0.002 A 
ATOM      3  C5  UNL d   1      -5.345   1.833  -3.421  0.00  0.00     0.002 A 
ATOM      4  C6  UNL d   1      -5.937   0.953  -4.324  0.00  0.00    -0.004 A 
ATOM      5  C7  UNL d   1      -5.988  -0.408  -4.034  0.00  0.00     0.002 A 
ATOM      6  C8  UNL d   1      -5.457  -0.890  -2.836  0.00  0.00     0.002 A 
ENDROOT
BRANCH   1   7
ATOM      7  C2  UNL d   1      -4.319  -0.532  -0.608  0.00  0.00     0.056 C 
BRANCH   7   8
ATOM      8  C1  UNL d   1      -5.252  -0.325   0.589  0.00  0.00     0.007 C 
ATOM      9  C   UNL d   1      -4.825   0.825   1.491  0.00  0.00     0.009 C 
ENDBRANCH   7   8
ENDBRANCH   1   7
TORSDOF 2
ENDMDL
