MODEL 1
REMARK minimizedAffinity 15.7991781
REMARK minimizedRMSD -1
REMARK  2 active torsions:
REMARK  status: ('A' for Active; 'I' for Inactive)
REMARK    1  A    between atoms: C1_2  and  C2_3 
REMARK    2  A    between atoms: C2_3  and  C3_4 
ROOT
ATOM      1  C3  UNL d   1       0.531  -3.885   4.233  0.00  0.00    -0.075 A 
ATOM      2  C4  UNL d   1       1.394  -4.775   4.889  0.00  0.00     0.002 A 
ATOM      3  C5  UNL d   1       0.888  -5.738   5.762  0.00  0.00     0.002 A 
ATOM      4  C6  UNL d   1      -0.483  -5.817   5.999  0.00  0.00    -0.004 A 
ATOM      5  C7  UNL d   1      -1.348  -4.928   5.365  0.00  0.00     0.002 A 
ATOM      6  C8  UNL d   1      -0.845  -3.966   4.487  0.00  0.00     0.002 A 
ENDROOT
BRANCH   1   7
ATOM      7  C2  UNL d   1       1.069  -2.860   3.264  0.00  0.00     0.056 C 
BRANCH   7   8
ATOM      8  C1  UNL d   1       1.697  -3.463   2.003  0.00  0.00     0.007 C 
ATOM      9  C   UNL d   1       0.988  -3.046   0.721  0.00  0.00     0.009 C 
ENDBRANCH   7   8
ENDBRANCH   1   7
TORSDOF 2
ENDMDL
