MODEL 1
REMARK minimizedAffinity 8.65670204
REMARK minimizedRMSD -1
REMARK  2 active torsions:
REMARK  status: ('A' for Active; 'I' for Inactive)
REMARK    1  A    between atoms: C1_2  and  C2_3 
REMARK    2  A    between atoms: C2_3  and  C3_4 
ROOT
ATOM      1  C3  UNL d   1      -0.776  -5.083   5.007  0.00  0.00    -0.075 A 
ATOM      2  C4  UNL d   1      -0.002  -5.999   5.735  0.00  0.00     0.002 A 
ATOM      3  C5  UNL d   1       1.342  -5.737   5.999  0.00  0.00     0.002 A 
ATOM      4  C6  UNL d   1       1.932  -4.564   5.532  0.00  0.00    -0.004 A 
ATOM      5  C7  UNL d   1       1.177  -3.656   4.794  0.00  0.00     0.002 A 
ATOM      6  C8  UNL d   1      -0.170  -3.913   4.532  0.00  0.00     0.002 A 
ENDROOT
BRANCH   1   7
ATOM      7  C2  UNL d   1      -2.240  -5.346   4.744  0.00  0.00     0.056 C 
BRANCH   7   8
ATOM      8  C1  UNL d   1      -3.049  -5.684   6.000  0.00  0.00     0.007 C 
ATOM      9  C   UNL d   1      -4.463  -5.120   5.973  0.00  0.00     0.009 C 
ENDBRANCH   7   8
ENDBRANCH   1   7
TORSDOF 2
ENDMDL
