MODEL 1
REMARK minimizedAffinity -2.14210248
REMARK minimizedRMSD -1
REMARK  0 active torsions:
REMARK  status: ('A' for Active; 'I' for Inactive)
ROOT
ATOM      1  O1  BZF d   1      -1.600  -0.854  -0.312  0.00  0.00    -0.204 OA
ATOM      2  C2  BZF d   1      -0.568  -0.874  -1.230  0.00  0.00     0.174 A 
ATOM      3  C3  BZF d   1       0.419  -0.034  -0.858  0.00  0.00    -0.012 A 
ATOM      4  C3A BZF d   1       0.018   0.478   0.416  0.00  0.00    -0.107 A 
ATOM      5  C4  BZF d   1       0.590   1.346   1.301  0.00  0.00     0.055 A 
ATOM      6  C5  BZF d   1      -0.095   1.694   2.422  0.00  0.00    -0.016 A 
ATOM      7  C6  BZF d   1      -1.355   1.197   2.686  0.00  0.00     0.022 A 
ATOM      8  C7  BZF d   1      -1.961   0.329   1.840  0.00  0.00     0.029 A 
ATOM      9  C7A BZF d   1      -1.258  -0.050   0.723  0.00  0.00     0.058 A 
ENDROOT
TORSDOF 0
ENDMDL
