MODEL 1
REMARK minimizedAffinity -0.891207993
REMARK minimizedRMSD -1
REMARK  0 active torsions:
REMARK  status: ('A' for Active; 'I' for Inactive)
ROOT
ATOM      1  O1  BZF d   1       2.330  -0.621  -1.210  0.00  0.00    -0.204 OA
ATOM      2  C2  BZF d   1       1.274  -1.292  -0.624  0.00  0.00     0.174 A 
ATOM      3  C3  BZF d   1       0.144  -1.125  -1.341  0.00  0.00    -0.012 A 
ATOM      4  C3A BZF d   1       0.538  -0.374  -2.493  0.00  0.00    -0.107 A 
ATOM      5  C4  BZF d   1      -0.137   0.092  -3.586  0.00  0.00     0.055 A 
ATOM      6  C5  BZF d   1       0.525   0.854  -4.495  0.00  0.00    -0.016 A 
ATOM      7  C6  BZF d   1       1.858   1.174  -4.341  0.00  0.00     0.022 A 
ATOM      8  C7  BZF d   1       2.570   0.731  -3.277  0.00  0.00     0.029 A 
ATOM      9  C7A BZF d   1       1.913  -0.067  -2.373  0.00  0.00     0.058 A 
ENDROOT
TORSDOF 0
ENDMDL
