MODEL 1
REMARK minimizedAffinity -4.45435095
REMARK minimizedRMSD -1
REMARK  0 active torsions:
REMARK  status: ('A' for Active; 'I' for Inactive)
ROOT
ATOM      1  O1  BZF d   1       1.600  -0.414   0.090  0.00  0.00    -0.204 OA
ATOM      2  C2  BZF d   1       1.139  -0.944  -1.100  0.00  0.00     0.174 A 
ATOM      3  C3  BZF d   1      -0.199  -0.809  -1.197  0.00  0.00    -0.012 A 
ATOM      4  C3A BZF d   1      -0.588  -0.071  -0.035  0.00  0.00    -0.107 A 
ATOM      5  C4  BZF d   1      -1.788   0.389   0.427  0.00  0.00     0.055 A 
ATOM      6  C5  BZF d   1      -1.837   1.011   1.634  0.00  0.00    -0.016 A 
ATOM      7  C6  BZF d   1      -0.708   1.185   2.407  0.00  0.00     0.022 A 
ATOM      8  C7  BZF d   1       0.506   0.750   1.989  0.00  0.00     0.029 A 
ATOM      9  C7A BZF d   1       0.564   0.151   0.755  0.00  0.00     0.058 A 
ENDROOT
TORSDOF 0
ENDMDL
