MODEL 1
REMARK minimizedAffinity -5.82608747
REMARK minimizedRMSD -1
REMARK  0 active torsions:
REMARK  status: ('A' for Active; 'I' for Inactive)
ROOT
ATOM      1  O1  BZF d   1       0.739  -0.334   0.037  0.00  0.00    -0.204 OA
ATOM      2  C2  BZF d   1      -0.454  -0.055  -0.602  0.00  0.00     0.174 A 
ATOM      3  C3  BZF d   1      -1.322   0.538   0.243  0.00  0.00    -0.012 A 
ATOM      4  C3A BZF d   1      -0.595   0.720   1.462  0.00  0.00    -0.107 A 
ATOM      5  C4  BZF d   1      -0.912   1.271   2.671  0.00  0.00     0.055 A 
ATOM      6  C5  BZF d   1       0.001   1.226   3.677  0.00  0.00    -0.016 A 
ATOM      7  C6  BZF d   1       1.236   0.635   3.511  0.00  0.00     0.022 A 
ATOM      8  C7  BZF d   1       1.598   0.080   2.328  0.00  0.00     0.029 A 
ATOM      9  C7A BZF d   1       0.690   0.153   1.300  0.00  0.00     0.058 A 
ENDROOT
TORSDOF 0
ENDMDL
