MODEL 1
REMARK minimizedAffinity -3.95535874
REMARK minimizedRMSD -1
REMARK  0 active torsions:
REMARK  status: ('A' for Active; 'I' for Inactive)
ROOT
ATOM      1  O1  BZF d   1       1.239  -0.867  -0.063  0.00  0.00    -0.204 OA
ATOM      2  C2  BZF d   1       0.257  -0.623  -1.003  0.00  0.00     0.174 A 
ATOM      3  C3  BZF d   1      -0.861  -0.151  -0.415  0.00  0.00    -0.012 A 
ATOM      4  C3A BZF d   1      -0.527  -0.009   0.969  0.00  0.00    -0.107 A 
ATOM      5  C4  BZF d   1      -1.218   0.431   2.061  0.00  0.00     0.055 A 
ATOM      6  C5  BZF d   1      -0.627   0.375   3.284  0.00  0.00    -0.016 A 
ATOM      7  C6  BZF d   1       0.650  -0.120   3.451  0.00  0.00     0.022 A 
ATOM      8  C7  BZF d   1       1.376  -0.563   2.396  0.00  0.00     0.029 A 
ATOM      9  C7A BZF d   1       0.794  -0.477   1.155  0.00  0.00     0.058 A 
ENDROOT
TORSDOF 0
ENDMDL
