MODEL 1
REMARK minimizedAffinity 1.30570281
REMARK minimizedRMSD -1
REMARK  0 active torsions:
REMARK  status: ('A' for Active; 'I' for Inactive)
ROOT
ATOM      1  O1  BZF d   1       0.966   0.231   0.068  0.00  0.00    -0.204 OA
ATOM      2  C2  BZF d   1       0.512   0.194  -1.236  0.00  0.00     0.174 A 
ATOM      3  C3  BZF d   1      -0.825   0.024  -1.273  0.00  0.00    -0.012 A 
ATOM      4  C3A BZF d   1      -1.245   0.044   0.095  0.00  0.00    -0.107 A 
ATOM      5  C4  BZF d   1      -2.462  -0.061   0.706  0.00  0.00     0.055 A 
ATOM      6  C5  BZF d   1      -2.521  -0.077   2.063  0.00  0.00    -0.016 A 
ATOM      7  C6  BZF d   1      -1.384   0.005   2.840  0.00  0.00     0.022 A 
ATOM      8  C7  BZF d   1      -0.154   0.116   2.280  0.00  0.00     0.029 A 
ATOM      9  C7A BZF d   1      -0.095   0.165   0.909  0.00  0.00     0.058 A 
ENDROOT
TORSDOF 0
ENDMDL
