MODEL 1
REMARK minimizedAffinity -3.04234791
REMARK minimizedRMSD -1
REMARK  0 active torsions:
REMARK  status: ('A' for Active; 'I' for Inactive)
ROOT
ATOM      1  O1  BZF d   1      -0.688   1.861  -2.266  0.00  0.00    -0.204 OA
ATOM      2  C2  BZF d   1       0.078   1.183  -3.195  0.00  0.00     0.174 A 
ATOM      3  C3  BZF d   1       0.874   0.278  -2.589  0.00  0.00    -0.012 A 
ATOM      4  C3A BZF d   1       0.522   0.335  -1.204  0.00  0.00    -0.107 A 
ATOM      5  C4  BZF d   1       0.955  -0.339  -0.097  0.00  0.00     0.055 A 
ATOM      6  C5  BZF d   1       0.459   0.005   1.121  0.00  0.00    -0.016 A 
ATOM      7  C6  BZF d   1      -0.464   1.019   1.269  0.00  0.00     0.022 A 
ATOM      8  C7  BZF d   1      -0.927   1.712   0.200  0.00  0.00     0.029 A 
ATOM      9  C7A BZF d   1      -0.453   1.345  -1.035  0.00  0.00     0.058 A 
ENDROOT
TORSDOF 0
ENDMDL
