MODEL 1
REMARK minimizedAffinity -5.51900721
REMARK minimizedRMSD -1
REMARK  0 active torsions:
REMARK  status: ('A' for Active; 'I' for Inactive)
ROOT
ATOM      1  O1  BZF d   1       1.019   1.008  -0.436  0.00  0.00    -0.204 OA
ATOM      2  C2  BZF d   1       0.591   0.442  -1.621  0.00  0.00     0.174 A 
ATOM      3  C3  BZF d   1      -0.594  -0.179  -1.454  0.00  0.00    -0.012 A 
ATOM      4  C3A BZF d   1      -0.972   0.089  -0.101  0.00  0.00    -0.107 A 
ATOM      5  C4  BZF d   1      -2.059  -0.247   0.655  0.00  0.00     0.055 A 
ATOM      6  C5  BZF d   1      -2.088   0.111   1.966  0.00  0.00    -0.016 A 
ATOM      7  C6  BZF d   1      -1.047   0.798   2.554  0.00  0.00     0.022 A 
ATOM      8  C7  BZF d   1       0.050   1.158   1.844  0.00  0.00     0.029 A 
ATOM      9  C7A BZF d   1       0.068   0.827   0.511  0.00  0.00     0.058 A 
ENDROOT
TORSDOF 0
ENDMDL
