MODEL 1
REMARK minimizedAffinity -2.79938722
REMARK minimizedRMSD -1
REMARK  0 active torsions:
REMARK  status: ('A' for Active; 'I' for Inactive)
ROOT
ATOM      1  O1  BZF d   1       0.901   1.126  -2.802  0.00  0.00    -0.204 OA
ATOM      2  C2  BZF d   1       1.588   0.224  -3.592  0.00  0.00     0.174 A 
ATOM      3  C3  BZF d   1       2.010  -0.828  -2.860  0.00  0.00    -0.012 A 
ATOM      4  C3A BZF d   1       1.480  -0.611  -1.549  0.00  0.00    -0.107 A 
ATOM      5  C4  BZF d   1       1.542  -1.319  -0.383  0.00  0.00     0.055 A 
ATOM      6  C5  BZF d   1       0.977  -0.797   0.737  0.00  0.00    -0.016 A 
ATOM      7  C6  BZF d   1       0.349   0.431   0.729  0.00  0.00     0.022 A 
ATOM      8  C7  BZF d   1       0.258   1.168  -0.405  0.00  0.00     0.029 A 
ATOM      9  C7A BZF d   1       0.798   0.628  -1.547  0.00  0.00     0.058 A 
ENDROOT
TORSDOF 0
ENDMDL
