MODEL 1
REMARK minimizedAffinity 0.802854836
REMARK minimizedRMSD -1
REMARK  0 active torsions:
REMARK  status: ('A' for Active; 'I' for Inactive)
ROOT
ATOM      1  O1  BZF d   1      -0.513  -1.134   1.978  0.00  0.00    -0.204 OA
ATOM      2  C2  BZF d   1      -1.780  -0.840   1.512  0.00  0.00     0.174 A 
ATOM      3  C3  BZF d   1      -1.721   0.015   0.471  0.00  0.00    -0.012 A 
ATOM      4  C3A BZF d   1      -0.326   0.199   0.215  0.00  0.00    -0.107 A 
ATOM      5  C4  BZF d   1       0.372   0.925  -0.708  0.00  0.00     0.055 A 
ATOM      6  C5  BZF d   1       1.729   0.948  -0.643  0.00  0.00    -0.016 A 
ATOM      7  C6  BZF d   1       2.420   0.262   0.334  0.00  0.00     0.022 A 
ATOM      8  C7  BZF d   1       1.772  -0.476   1.268  0.00  0.00     0.029 A 
ATOM      9  C7A BZF d   1       0.402  -0.528   1.185  0.00  0.00     0.058 A 
ENDROOT
TORSDOF 0
ENDMDL
