MODEL 1
REMARK minimizedAffinity -4.63807201
REMARK minimizedRMSD -1
REMARK  0 active torsions:
REMARK  status: ('A' for Active; 'I' for Inactive)
ROOT
ATOM      1  C   UNL d   1      -1.843   0.748  -3.009  0.00  0.00     0.077 C 
ATOM      2  C1  UNL d   1      -1.122   0.608  -1.701  0.00  0.00    -0.074 A 
ATOM      3  C2  UNL d   1      -1.343   1.513  -0.658  0.00  0.00    -0.005 A 
ATOM      4  C3  UNL d   1      -0.673   1.363   0.556  0.00  0.00     0.006 A 
ATOM      5  C4  UNL d   1       0.223   0.309   0.739  0.00  0.00    -0.005 A 
ATOM      6  C5  UNL d   1       0.456  -0.606  -0.292  0.00  0.00    -0.074 A 
ATOM      7  C6  UNL d   1       1.408  -1.750  -0.108  0.00  0.00     0.077 C 
ATOM      8  C7  UNL d   1      -0.226  -0.453  -1.507  0.00  0.00    -0.001 A 
ENDROOT
TORSDOF 0
ENDMDL
