MODEL 1
REMARK minimizedAffinity -3.55008483
REMARK minimizedRMSD -1
REMARK  0 active torsions:
REMARK  status: ('A' for Active; 'I' for Inactive)
ROOT
ATOM      1  C   UNL d   1       1.104  -2.991   0.779  0.00  0.00     0.077 C 
ATOM      2  C1  UNL d   1       1.246  -1.558   0.358  0.00  0.00    -0.074 A 
ATOM      3  C2  UNL d   1       2.469  -1.062  -0.104  0.00  0.00    -0.005 A 
ATOM      4  C3  UNL d   1       2.583   0.271  -0.501  0.00  0.00     0.006 A 
ATOM      5  C4  UNL d   1       1.476   1.119  -0.440  0.00  0.00    -0.005 A 
ATOM      6  C5  UNL d   1       0.245   0.640   0.018  0.00  0.00    -0.074 A 
ATOM      7  C6  UNL d   1      -0.957   1.536   0.080  0.00  0.00     0.077 C 
ATOM      8  C7  UNL d   1       0.137  -0.702   0.408  0.00  0.00    -0.001 A 
ENDROOT
TORSDOF 0
ENDMDL
