MODEL 1
REMARK minimizedAffinity -2.96882677
REMARK minimizedRMSD -1
REMARK  0 active torsions:
REMARK  status: ('A' for Active; 'I' for Inactive)
ROOT
ATOM      1  C   UNL d   1      -2.082   0.162   1.955  0.00  0.00     0.077 C 
ATOM      2  C1  UNL d   1      -0.824   0.124   1.139  0.00  0.00    -0.074 A 
ATOM      3  C2  UNL d   1      -0.550   1.117   0.194  0.00  0.00    -0.005 A 
ATOM      4  C3  UNL d   1       0.629   1.073  -0.551  0.00  0.00     0.006 A 
ATOM      5  C4  UNL d   1       1.544   0.038  -0.357  0.00  0.00    -0.005 A 
ATOM      6  C5  UNL d   1       1.287  -0.964   0.585  0.00  0.00    -0.074 A 
ATOM      7  C6  UNL d   1       2.265  -2.078   0.812  0.00  0.00     0.077 C 
ATOM      8  C7  UNL d   1       0.104  -0.909   1.334  0.00  0.00    -0.001 A 
ENDROOT
TORSDOF 0
ENDMDL
