MODEL 1
REMARK minimizedAffinity -5.01162815
REMARK minimizedRMSD -1
REMARK  0 active torsions:
REMARK  status: ('A' for Active; 'I' for Inactive)
ROOT
ATOM      1  C   UNL d   1      -0.078  -0.530   0.436  0.00  0.00     0.077 C 
ATOM      2  C1  UNL d   1      -0.696   0.161  -0.743  0.00  0.00    -0.074 A 
ATOM      3  C2  UNL d   1      -1.349  -0.569  -1.742  0.00  0.00    -0.005 A 
ATOM      4  C3  UNL d   1      -1.927   0.088  -2.828  0.00  0.00     0.006 A 
ATOM      5  C4  UNL d   1      -1.859   1.478  -2.927  0.00  0.00    -0.005 A 
ATOM      6  C5  UNL d   1      -1.211   2.224  -1.937  0.00  0.00    -0.074 A 
ATOM      7  C6  UNL d   1      -1.137   3.720  -2.022  0.00  0.00     0.077 C 
ATOM      8  C7  UNL d   1      -0.639   1.558  -0.845  0.00  0.00    -0.001 A 
ENDROOT
TORSDOF 0
ENDMDL
