MODEL 1
REMARK minimizedAffinity -3.784554
REMARK minimizedRMSD -1
REMARK  0 active torsions:
REMARK  status: ('A' for Active; 'I' for Inactive)
ROOT
ATOM      1  C   UNL d   1      -2.924   1.462  -1.896  0.00  0.00     0.077 C 
ATOM      2  C1  UNL d   1      -1.624   1.164  -1.208  0.00  0.00    -0.074 A 
ATOM      3  C2  UNL d   1      -0.681   2.172  -0.986  0.00  0.00    -0.005 A 
ATOM      4  C3  UNL d   1       0.519   1.882  -0.337  0.00  0.00     0.006 A 
ATOM      5  C4  UNL d   1       0.787   0.583   0.096  0.00  0.00    -0.005 A 
ATOM      6  C5  UNL d   1      -0.144  -0.438  -0.117  0.00  0.00    -0.074 A 
ATOM      7  C6  UNL d   1       0.124  -1.838   0.350  0.00  0.00     0.077 C 
ATOM      8  C7  UNL d   1      -1.351  -0.137  -0.764  0.00  0.00    -0.001 A 
ENDROOT
TORSDOF 0
ENDMDL
