MODEL 1
REMARK minimizedAffinity -3.677742
REMARK minimizedRMSD -1
REMARK  0 active torsions:
REMARK  status: ('A' for Active; 'I' for Inactive)
ROOT
ATOM      1  C   UNL d   1       1.149  -1.069  -0.278  0.00  0.00     0.077 C 
ATOM      2  C1  UNL d   1       0.185   0.005  -0.686  0.00  0.00    -0.074 A 
ATOM      3  C2  UNL d   1      -0.235   0.978   0.226  0.00  0.00    -0.005 A 
ATOM      4  C3  UNL d   1      -1.125   1.976  -0.171  0.00  0.00     0.006 A 
ATOM      5  C4  UNL d   1      -1.603   2.011  -1.481  0.00  0.00    -0.005 A 
ATOM      6  C5  UNL d   1      -1.194   1.046  -2.407  0.00  0.00    -0.074 A 
ATOM      7  C6  UNL d   1      -1.691   1.075  -3.822  0.00  0.00     0.077 C 
ATOM      8  C7  UNL d   1      -0.294   0.051  -2.003  0.00  0.00    -0.001 A 
ENDROOT
TORSDOF 0
ENDMDL
