MODEL 1
REMARK minimizedAffinity -4.34681273
REMARK minimizedRMSD -1
REMARK  0 active torsions:
REMARK  status: ('A' for Active; 'I' for Inactive)
ROOT
ATOM      1  C   UNL d   1      -0.361   1.572  -0.966  0.00  0.00     0.077 C 
ATOM      2  C1  UNL d   1      -0.482   0.480   0.055  0.00  0.00    -0.074 A 
ATOM      3  C2  UNL d   1      -1.488   0.513   1.026  0.00  0.00    -0.005 A 
ATOM      4  C3  UNL d   1      -1.594  -0.515   1.964  0.00  0.00     0.006 A 
ATOM      5  C4  UNL d   1      -0.696  -1.583   1.940  0.00  0.00    -0.005 A 
ATOM      6  C5  UNL d   1       0.316  -1.633   0.976  0.00  0.00    -0.074 A 
ATOM      7  C6  UNL d   1       1.282  -2.779   0.931  0.00  0.00     0.077 C 
ATOM      8  C7  UNL d   1       0.411  -0.600   0.033  0.00  0.00    -0.001 A 
ENDROOT
TORSDOF 0
ENDMDL
