MODEL 1
REMARK minimizedAffinity -3.80117106
REMARK minimizedRMSD -1
REMARK  0 active torsions:
REMARK  status: ('A' for Active; 'I' for Inactive)
ROOT
ATOM      1  C   UNL d   1       2.001   0.740  -0.394  0.00  0.00     0.077 C 
ATOM      2  C1  UNL d   1       1.128  -0.310   0.225  0.00  0.00    -0.074 A 
ATOM      3  C2  UNL d   1       1.534  -1.648   0.270  0.00  0.00    -0.005 A 
ATOM      4  C3  UNL d   1       0.715  -2.612   0.858  0.00  0.00     0.006 A 
ATOM      5  C4  UNL d   1      -0.517  -2.249   1.405  0.00  0.00    -0.005 A 
ATOM      6  C5  UNL d   1      -0.939  -0.916   1.370  0.00  0.00    -0.074 A 
ATOM      7  C6  UNL d   1      -2.255  -0.507   1.962  0.00  0.00     0.077 C 
ATOM      8  C7  UNL d   1      -0.107   0.048   0.784  0.00  0.00    -0.001 A 
ENDROOT
TORSDOF 0
ENDMDL
