MODEL 1
REMARK minimizedAffinity -4.03924227
REMARK minimizedRMSD -1
REMARK  0 active torsions:
REMARK  status: ('A' for Active; 'I' for Inactive)
ROOT
ATOM      1  C   UNL d   1       1.862   0.954  -1.412  0.00  0.00     0.077 C 
ATOM      2  C1  UNL d   1       1.114   0.038  -0.490  0.00  0.00    -0.074 A 
ATOM      3  C2  UNL d   1      -0.178   0.354  -0.055  0.00  0.00    -0.005 A 
ATOM      4  C3  UNL d   1      -0.865  -0.512   0.795  0.00  0.00     0.006 A 
ATOM      5  C4  UNL d   1      -0.269  -1.701   1.218  0.00  0.00    -0.005 A 
ATOM      6  C5  UNL d   1       1.021  -2.034   0.793  0.00  0.00    -0.074 A 
ATOM      7  C6  UNL d   1       1.672  -3.312   1.230  0.00  0.00     0.077 C 
ATOM      8  C7  UNL d   1       1.702  -1.162  -0.067  0.00  0.00    -0.001 A 
ENDROOT
TORSDOF 0
ENDMDL
