MODEL 1
REMARK minimizedAffinity -2.94687629
REMARK minimizedRMSD -1
REMARK  0 active torsions:
REMARK  status: ('A' for Active; 'I' for Inactive)
ROOT
ATOM      1  C   UNL d   1       1.356  -3.133   0.869  0.00  0.00     0.077 C 
ATOM      2  C1  UNL d   1       1.087  -1.773   0.296  0.00  0.00    -0.074 A 
ATOM      3  C2  UNL d   1       2.120  -1.006  -0.250  0.00  0.00    -0.005 A 
ATOM      4  C3  UNL d   1       1.853   0.253  -0.788  0.00  0.00     0.006 A 
ATOM      5  C4  UNL d   1       0.552   0.757  -0.785  0.00  0.00    -0.005 A 
ATOM      6  C5  UNL d   1      -0.495   0.004  -0.243  0.00  0.00    -0.074 A 
ATOM      7  C6  UNL d   1      -1.901   0.527  -0.241  0.00  0.00     0.077 C 
ATOM      8  C7  UNL d   1      -0.219  -1.263   0.289  0.00  0.00    -0.001 A 
ENDROOT
TORSDOF 0
ENDMDL
