MODEL 1
REMARK minimizedAffinity -3.63721728
REMARK minimizedRMSD -1
REMARK  0 active torsions:
REMARK  status: ('A' for Active; 'I' for Inactive)
ROOT
ATOM      1  C   UNL d   1       1.831  -2.973   1.587  0.00  0.00     0.077 C 
ATOM      2  C1  UNL d   1       1.316  -1.753   0.883  0.00  0.00    -0.074 A 
ATOM      3  C2  UNL d   1       2.018  -1.191  -0.188  0.00  0.00    -0.005 A 
ATOM      4  C3  UNL d   1       1.522  -0.062  -0.840  0.00  0.00     0.006 A 
ATOM      5  C4  UNL d   1       0.321   0.516  -0.428  0.00  0.00    -0.005 A 
ATOM      6  C5  UNL d   1      -0.396  -0.033   0.640  0.00  0.00    -0.074 A 
ATOM      7  C6  UNL d   1      -1.694   0.570   1.089  0.00  0.00     0.077 C 
ATOM      8  C7  UNL d   1       0.106  -1.171   1.286  0.00  0.00    -0.001 A 
ENDROOT
TORSDOF 0
ENDMDL
