MODEL 1
REMARK minimizedAffinity -4.12277174
REMARK minimizedRMSD -1
REMARK  0 active torsions:
REMARK  status: ('A' for Active; 'I' for Inactive)
ROOT
ATOM      1  C   UNL d   1       1.123  -3.030   1.150  0.00  0.00     0.077 C 
ATOM      2  C1  UNL d   1       1.033  -1.681   0.501  0.00  0.00    -0.074 A 
ATOM      3  C2  UNL d   1       2.187  -0.958   0.183  0.00  0.00    -0.005 A 
ATOM      4  C3  UNL d   1       2.087   0.292  -0.429  0.00  0.00     0.006 A 
ATOM      5  C4  UNL d   1       0.835   0.830  -0.728  0.00  0.00    -0.005 A 
ATOM      6  C5  UNL d   1      -0.330   0.121  -0.418  0.00  0.00    -0.074 A 
ATOM      7  C6  UNL d   1      -1.684   0.680  -0.741  0.00  0.00     0.077 C 
ATOM      8  C7  UNL d   1      -0.221  -1.137   0.191  0.00  0.00    -0.001 A 
ENDROOT
TORSDOF 0
ENDMDL
