MODEL 1
REMARK minimizedAffinity -3.91637135
REMARK minimizedRMSD -1
REMARK  0 active torsions:
REMARK  status: ('A' for Active; 'I' for Inactive)
ROOT
ATOM      1  C   UNL d   1      -1.803   0.645   1.895  0.00  0.00     0.077 C 
ATOM      2  C1  UNL d   1      -0.661   0.093   1.095  0.00  0.00    -0.074 A 
ATOM      3  C2  UNL d   1      -0.043   0.859   0.102  0.00  0.00    -0.005 A 
ATOM      4  C3  UNL d   1       1.024   0.335  -0.628  0.00  0.00     0.006 A 
ATOM      5  C4  UNL d   1       1.483  -0.958  -0.372  0.00  0.00    -0.005 A 
ATOM      6  C5  UNL d   1       0.878  -1.738   0.618  0.00  0.00    -0.074 A 
ATOM      7  C6  UNL d   1       1.365  -3.126   0.912  0.00  0.00     0.077 C 
ATOM      8  C7  UNL d   1      -0.190  -1.202   1.351  0.00  0.00    -0.001 A 
ENDROOT
TORSDOF 0
ENDMDL
