MODEL 1
REMARK minimizedAffinity -5.00855112
REMARK minimizedRMSD -1
REMARK  0 active torsions:
REMARK  status: ('A' for Active; 'I' for Inactive)
ROOT
ATOM      1  C   UNL d   1      -1.969   0.729   0.804  0.00  0.00     0.077 C 
ATOM      2  C1  UNL d   1      -0.633   0.172   0.410  0.00  0.00    -0.074 A 
ATOM      3  C2  UNL d   1       0.289   0.950  -0.298  0.00  0.00    -0.005 A 
ATOM      4  C3  UNL d   1       1.531   0.422  -0.650  0.00  0.00     0.006 A 
ATOM      5  C4  UNL d   1       1.863  -0.888  -0.299  0.00  0.00    -0.005 A 
ATOM      6  C5  UNL d   1       0.954  -1.680   0.409  0.00  0.00    -0.074 A 
ATOM      7  C6  UNL d   1       1.298  -3.086   0.803  0.00  0.00     0.077 C 
ATOM      8  C7  UNL d   1      -0.290  -1.140   0.766  0.00  0.00    -0.001 A 
ENDROOT
TORSDOF 0
ENDMDL
