MODEL 1
REMARK minimizedAffinity -4.83454752
REMARK minimizedRMSD -1
REMARK  0 active torsions:
REMARK  status: ('A' for Active; 'I' for Inactive)
ROOT
ATOM      1  C   UNL d   1       1.213  -3.114   1.010  0.00  0.00     0.077 C 
ATOM      2  C1  UNL d   1       1.070  -1.711   0.499  0.00  0.00    -0.074 A 
ATOM      3  C2  UNL d   1       2.189  -0.888   0.334  0.00  0.00    -0.005 A 
ATOM      4  C3  UNL d   1       2.041   0.411  -0.152  0.00  0.00     0.006 A 
ATOM      5  C4  UNL d   1       0.775   0.900  -0.477  0.00  0.00    -0.005 A 
ATOM      6  C5  UNL d   1      -0.355   0.092  -0.319  0.00  0.00    -0.074 A 
ATOM      7  C6  UNL d   1      -1.722   0.598  -0.673  0.00  0.00     0.077 C 
ATOM      8  C7  UNL d   1      -0.198  -1.215   0.163  0.00  0.00    -0.001 A 
ENDROOT
TORSDOF 0
ENDMDL
