MODEL 1
REMARK minimizedAffinity 2.20799899
REMARK minimizedRMSD -1
REMARK  0 active torsions:
REMARK  status: ('A' for Active; 'I' for Inactive)
ROOT
ATOM      1  C1  BNZ d   1      -3.350  -3.398  -0.851  0.00  0.00     0.000 A 
ATOM      2  C2  BNZ d   1      -3.724  -4.701  -0.654  0.00  0.00     0.000 A 
ATOM      3  C3  BNZ d   1      -2.806  -5.711  -0.726  0.00  0.00     0.000 A 
ATOM      4  C4  BNZ d   1      -1.525  -5.423  -1.035  0.00  0.00     0.000 A 
ATOM      5  C5  BNZ d   1      -1.134  -4.116  -1.246  0.00  0.00     0.000 A 
ATOM      6  C6  BNZ d   1      -2.053  -3.097  -1.134  0.00  0.00     0.000 A 
ENDROOT
TORSDOF 0
ENDMDL
