MODEL 1
REMARK minimizedAffinity 1.76804352
REMARK minimizedRMSD -1
REMARK  0 active torsions:
REMARK  status: ('A' for Active; 'I' for Inactive)
ROOT
ATOM      1  C1  BNZ d   1       3.014   0.723  -2.192  0.00  0.00     0.000 A 
ATOM      2  C2  BNZ d   1       2.882   1.255  -0.937  0.00  0.00     0.000 A 
ATOM      3  C3  BNZ d   1       2.380   0.507   0.091  0.00  0.00     0.000 A 
ATOM      4  C4  BNZ d   1       1.974  -0.757  -0.145  0.00  0.00     0.000 A 
ATOM      5  C5  BNZ d   1       2.092  -1.305  -1.407  0.00  0.00     0.000 A 
ATOM      6  C6  BNZ d   1       2.634  -0.562  -2.431  0.00  0.00     0.000 A 
ENDROOT
TORSDOF 0
ENDMDL
