MODEL 1
REMARK minimizedAffinity -2.20317459
REMARK minimizedRMSD -1
REMARK  0 active torsions:
REMARK  status: ('A' for Active; 'I' for Inactive)
ROOT
ATOM      1  C1  BNZ d   1      -3.649   3.012  -5.989  0.00  0.00     0.000 A 
ATOM      2  C2  BNZ d   1      -4.954   3.428  -5.985  0.00  0.00     0.000 A 
ATOM      3  C3  BNZ d   1      -5.264   4.759  -6.000  0.00  0.00     0.000 A 
ATOM      4  C4  BNZ d   1      -4.271   5.671  -5.978  0.00  0.00     0.000 A 
ATOM      5  C5  BNZ d   1      -2.951   5.268  -5.973  0.00  0.00     0.000 A 
ATOM      6  C6  BNZ d   1      -2.642   3.927  -5.997  0.00  0.00     0.000 A 
ENDROOT
TORSDOF 0
ENDMDL
