MODEL 1
REMARK minimizedAffinity -3.03252554
REMARK minimizedRMSD -1
REMARK  0 active torsions:
REMARK  status: ('A' for Active; 'I' for Inactive)
ROOT
ATOM      1  C1  BNZ d   1      -1.533   2.907   3.391  0.00  0.00     0.000 A 
ATOM      2  C2  BNZ d   1      -1.955   2.703   2.104  0.00  0.00     0.000 A 
ATOM      3  C3  BNZ d   1      -1.063   2.690   1.069  0.00  0.00     0.000 A 
ATOM      4  C4  BNZ d   1       0.243   2.921   1.315  0.00  0.00     0.000 A 
ATOM      5  C5  BNZ d   1       0.683   3.137   2.606  0.00  0.00     0.000 A 
ATOM      6  C6  BNZ d   1      -0.212   3.110   3.651  0.00  0.00     0.000 A 
ENDROOT
TORSDOF 0
ENDMDL
