MODEL 1
REMARK minimizedAffinity 1.67916858
REMARK minimizedRMSD -1
REMARK  0 active torsions:
REMARK  status: ('A' for Active; 'I' for Inactive)
ROOT
ATOM      1  C1  BNZ d   1      -3.188   4.004  -5.977  0.00  0.00     0.000 A 
ATOM      2  C2  BNZ d   1      -3.381   5.359  -6.000  0.00  0.00     0.000 A 
ATOM      3  C3  BNZ d   1      -4.497   5.917  -5.440  0.00  0.00     0.000 A 
ATOM      4  C4  BNZ d   1      -5.435   5.116  -4.893  0.00  0.00     0.000 A 
ATOM      5  C5  BNZ d   1      -5.258   3.747  -4.871  0.00  0.00     0.000 A 
ATOM      6  C6  BNZ d   1      -4.116   3.193  -5.401  0.00  0.00     0.000 A 
ENDROOT
TORSDOF 0
ENDMDL
