MODEL 1
REMARK minimizedAffinity -2.11300349
REMARK minimizedRMSD -1
REMARK  0 active torsions:
REMARK  status: ('A' for Active; 'I' for Inactive)
ROOT
ATOM      1  C1  BNZ d   1      -4.100   5.630  -5.936  0.00  0.00     0.000 A 
ATOM      2  C2  BNZ d   1      -2.812   5.166  -5.904  0.00  0.00     0.000 A 
ATOM      3  C3  BNZ d   1      -2.549   3.825  -5.945  0.00  0.00     0.000 A 
ATOM      4  C4  BNZ d   1      -3.575   2.950  -5.976  0.00  0.00     0.000 A 
ATOM      5  C5  BNZ d   1      -4.879   3.402  -6.000  0.00  0.00     0.000 A 
ATOM      6  C6  BNZ d   1      -5.138   4.753  -5.998  0.00  0.00     0.000 A 
ENDROOT
TORSDOF 0
ENDMDL
