MODEL 1
REMARK minimizedAffinity -0.0188324116
REMARK minimizedRMSD -1
REMARK  0 active torsions:
REMARK  status: ('A' for Active; 'I' for Inactive)
ROOT
ATOM      1  C1  BNZ d   1      -0.909  -0.089   0.390  0.00  0.00     0.000 A 
ATOM      2  C2  BNZ d   1      -1.900   0.845   0.534  0.00  0.00     0.000 A 
ATOM      3  C3  BNZ d   1      -1.598   2.171   0.668  0.00  0.00     0.000 A 
ATOM      4  C4  BNZ d   1      -0.306   2.557   0.698  0.00  0.00     0.000 A 
ATOM      5  C5  BNZ d   1       0.705   1.626   0.563  0.00  0.00     0.000 A 
ATOM      6  C6  BNZ d   1       0.396   0.297   0.389  0.00  0.00     0.000 A 
ENDROOT
TORSDOF 0
ENDMDL
