MODEL 1
REMARK minimizedAffinity 3.86903906
REMARK minimizedRMSD -1
REMARK  0 active torsions:
REMARK  status: ('A' for Active; 'I' for Inactive)
ROOT
ATOM      1  C1  BNZ d   1      -1.442  -0.680   0.640  0.00  0.00     0.000 A 
ATOM      2  C2  BNZ d   1      -2.630  -0.028   0.840  0.00  0.00     0.000 A 
ATOM      3  C3  BNZ d   1      -2.682   1.338   0.869  0.00  0.00     0.000 A 
ATOM      4  C4  BNZ d   1      -1.542   2.047   0.738  0.00  0.00     0.000 A 
ATOM      5  C5  BNZ d   1      -0.336   1.404   0.545  0.00  0.00     0.000 A 
ATOM      6  C6  BNZ d   1      -0.293   0.030   0.477  0.00  0.00     0.000 A 
ENDROOT
TORSDOF 0
ENDMDL
