MODEL 1
REMARK minimizedAffinity 1.69215465
REMARK minimizedRMSD -1
REMARK  0 active torsions:
REMARK  status: ('A' for Active; 'I' for Inactive)
ROOT
ATOM      1  C1  BNZ d   1      -1.303   3.203   2.979  0.00  0.00     0.000 A 
ATOM      2  C2  BNZ d   1      -1.979   2.774   1.868  0.00  0.00     0.000 A 
ATOM      3  C3  BNZ d   1      -1.367   2.739   0.646  0.00  0.00     0.000 A 
ATOM      4  C4  BNZ d   1      -0.094   3.169   0.530  0.00  0.00     0.000 A 
ATOM      5  C5  BNZ d   1       0.598   3.613   1.639  0.00  0.00     0.000 A 
ATOM      6  C6  BNZ d   1      -0.009   3.610   2.874  0.00  0.00     0.000 A 
ENDROOT
TORSDOF 0
ENDMDL
