MODEL 1
REMARK minimizedAffinity 4.75668097
REMARK minimizedRMSD -1
REMARK  0 active torsions:
REMARK  status: ('A' for Active; 'I' for Inactive)
ROOT
ATOM      1  C1  BNZ d   1      -1.832  -4.141   0.076  0.00  0.00     0.000 A 
ATOM      2  C2  BNZ d   1      -1.708  -4.862  -1.081  0.00  0.00     0.000 A 
ATOM      3  C3  BNZ d   1      -1.257  -4.271  -2.229  0.00  0.00     0.000 A 
ATOM      4  C4  BNZ d   1      -0.970  -2.953  -2.228  0.00  0.00     0.000 A 
ATOM      5  C5  BNZ d   1      -1.099  -2.211  -1.071  0.00  0.00     0.000 A 
ATOM      6  C6  BNZ d   1      -1.516  -2.817   0.092  0.00  0.00     0.000 A 
ENDROOT
TORSDOF 0
ENDMDL
