MODEL 1
REMARK minimizedAffinity 2.54780293
REMARK minimizedRMSD -1
REMARK  0 active torsions:
REMARK  status: ('A' for Active; 'I' for Inactive)
ROOT
ATOM      1  C1  BNZ d   1      -3.161  -3.852  -0.575  0.00  0.00     0.000 A 
ATOM      2  C2  BNZ d   1      -2.893  -2.532  -0.825  0.00  0.00     0.000 A 
ATOM      3  C3  BNZ d   1      -1.653  -2.137  -1.242  0.00  0.00     0.000 A 
ATOM      4  C4  BNZ d   1      -0.673  -3.054  -1.369  0.00  0.00     0.000 A 
ATOM      5  C5  BNZ d   1      -0.925  -4.387  -1.112  0.00  0.00     0.000 A 
ATOM      6  C6  BNZ d   1      -2.185  -4.787  -0.731  0.00  0.00     0.000 A 
ENDROOT
TORSDOF 0
ENDMDL
