MODEL 1
REMARK minimizedAffinity 2.33157301
REMARK minimizedRMSD -1
REMARK  0 active torsions:
REMARK  status: ('A' for Active; 'I' for Inactive)
ROOT
ATOM      1  C1  BNZ d   1      -4.487  -4.815  -1.060  0.00  0.00     0.000 A 
ATOM      2  C2  BNZ d   1      -3.584  -3.981  -1.663  0.00  0.00     0.000 A 
ATOM      3  C3  BNZ d   1      -2.294  -3.906  -1.217  0.00  0.00     0.000 A 
ATOM      4  C4  BNZ d   1      -1.920  -4.633  -0.145  0.00  0.00     0.000 A 
ATOM      5  C5  BNZ d   1      -2.821  -5.471   0.481  0.00  0.00     0.000 A 
ATOM      6  C6  BNZ d   1      -4.108  -5.574   0.005  0.00  0.00     0.000 A 
ENDROOT
TORSDOF 0
ENDMDL
