MODEL 1
REMARK minimizedAffinity -1.66907239
REMARK minimizedRMSD -1
REMARK  0 active torsions:
REMARK  status: ('A' for Active; 'I' for Inactive)
ROOT
ATOM      1  C1  BNZ d   1      -2.328   2.029   0.322  0.00  0.00     0.000 A 
ATOM      2  C2  BNZ d   1      -3.224   1.009   0.495  0.00  0.00     0.000 A 
ATOM      3  C3  BNZ d   1      -2.816  -0.209   0.962  0.00  0.00     0.000 A 
ATOM      4  C4  BNZ d   1      -1.508  -0.417   1.216  0.00  0.00     0.000 A 
ATOM      5  C5  BNZ d   1      -0.590   0.599   1.037  0.00  0.00     0.000 A 
ATOM      6  C6  BNZ d   1      -1.011   1.835   0.604  0.00  0.00     0.000 A 
ENDROOT
TORSDOF 0
ENDMDL
