MODEL 1
REMARK minimizedAffinity 1.20951688
REMARK minimizedRMSD -1
REMARK  0 active torsions:
REMARK  status: ('A' for Active; 'I' for Inactive)
ROOT
ATOM      1  C1  BNZ d   1      -1.062  -0.439   1.001  0.00  0.00     0.000 A 
ATOM      2  C2  BNZ d   1      -2.278   0.144   1.239  0.00  0.00     0.000 A 
ATOM      3  C3  BNZ d   1      -2.394   1.501   1.348  0.00  0.00     0.000 A 
ATOM      4  C4  BNZ d   1      -1.290   2.270   1.260  0.00  0.00     0.000 A 
ATOM      5  C5  BNZ d   1      -0.055   1.697   1.029  0.00  0.00     0.000 A 
ATOM      6  C6  BNZ d   1       0.052   0.333   0.881  0.00  0.00     0.000 A 
ENDROOT
TORSDOF 0
ENDMDL
