MODEL 1
REMARK minimizedAffinity 7.85971546
REMARK minimizedRMSD -1
REMARK  0 active torsions:
REMARK  status: ('A' for Active; 'I' for Inactive)
ROOT
ATOM      1  C1  BNZ d   1       1.966   1.330   0.010  0.00  0.00     0.000 A 
ATOM      2  C2  BNZ d   1       2.243   0.940  -1.273  0.00  0.00     0.000 A 
ATOM      3  C3  BNZ d   1       2.088  -0.362  -1.657  0.00  0.00     0.000 A 
ATOM      4  C4  BNZ d   1       1.695  -1.279  -0.750  0.00  0.00     0.000 A 
ATOM      5  C5  BNZ d   1       1.421  -0.903   0.550  0.00  0.00     0.000 A 
ATOM      6  C6  BNZ d   1       1.541   0.416   0.924  0.00  0.00     0.000 A 
ENDROOT
TORSDOF 0
ENDMDL
