MODEL 1
REMARK minimizedAffinity 8.02269077
REMARK minimizedRMSD -1
REMARK  0 active torsions:
REMARK  status: ('A' for Active; 'I' for Inactive)
ROOT
ATOM      1  C1  DEN d   1       3.598   0.687  -0.618  0.00  0.00     0.130 A 
ATOM      2  C2  DEN d   1       2.659   0.838   0.490  0.00  0.00    -0.031 A 
ATOM      3  C3  DEN d   1       1.823  -0.378   0.549  0.00  0.00     0.027 A 
ATOM      4  C4  DEN d   1       1.894  -2.470  -0.958  0.00  0.00     0.027 A 
ATOM      5  C5  DEN d   1       2.515  -3.054  -2.040  0.00  0.00    -0.003 A 
ATOM      6  C6  DEN d   1       3.509  -2.422  -2.739  0.00  0.00     0.001 A 
ATOM      7  C7  DEN d   1       3.943  -1.187  -2.336  0.00  0.00     0.017 A 
ATOM      8  C8  DEN d   1       3.317  -0.589  -1.250  0.00  0.00    -0.094 A 
ATOM      9  C9  DEN d   1       2.322  -1.249  -0.549  0.00  0.00    -0.072 A 
ENDROOT
TORSDOF 0
ENDMDL
