MODEL 1
REMARK minimizedAffinity 7.73787165
REMARK minimizedRMSD -1
REMARK  0 active torsions:
REMARK  status: ('A' for Active; 'I' for Inactive)
ROOT
ATOM      1  C1  DEN d   1      -2.038   0.257  -1.432  0.00  0.00     0.130 A 
ATOM      2  C2  DEN d   1      -0.738   0.716  -0.950  0.00  0.00    -0.031 A 
ATOM      3  C3  DEN d   1      -0.921   2.053  -0.349  0.00  0.00     0.027 A 
ATOM      4  C4  DEN d   1      -3.079   3.446  -0.116  0.00  0.00     0.027 A 
ATOM      5  C5  DEN d   1      -4.429   3.478  -0.386  0.00  0.00    -0.003 A 
ATOM      6  C6  DEN d   1      -5.066   2.462  -1.049  0.00  0.00     0.001 A 
ATOM      7  C7  DEN d   1      -4.359   1.349  -1.424  0.00  0.00     0.017 A 
ATOM      8  C8  DEN d   1      -2.996   1.313  -1.162  0.00  0.00    -0.094 A 
ATOM      9  C9  DEN d   1      -2.374   2.345  -0.480  0.00  0.00    -0.072 A 
ENDROOT
TORSDOF 0
ENDMDL
