MODEL 1
REMARK minimizedAffinity 11.2666559
REMARK minimizedRMSD -1
REMARK  0 active torsions:
REMARK  status: ('A' for Active; 'I' for Inactive)
ROOT
ATOM      1  C1  DEN d   1      -4.832   3.252  -2.034  0.00  0.00     0.130 A 
ATOM      2  C2  DEN d   1      -5.990   2.650  -1.378  0.00  0.00    -0.031 A 
ATOM      3  C3  DEN d   1      -5.756   1.195  -1.283  0.00  0.00     0.027 A 
ATOM      4  C4  DEN d   1      -3.722  -0.177  -2.079  0.00  0.00     0.027 A 
ATOM      5  C5  DEN d   1      -2.496  -0.108  -2.704  0.00  0.00    -0.003 A 
ATOM      6  C6  DEN d   1      -1.983   1.071  -3.176  0.00  0.00     0.001 A 
ATOM      7  C7  DEN d   1      -2.678   2.237  -2.990  0.00  0.00     0.017 A 
ATOM      8  C8  DEN d   1      -3.917   2.174  -2.367  0.00  0.00    -0.094 A 
ATOM      9  C9  DEN d   1      -4.414   0.975  -1.886  0.00  0.00    -0.072 A 
ENDROOT
TORSDOF 0
ENDMDL
