MODEL 1
REMARK minimizedAffinity 4.50981045
REMARK minimizedRMSD -1
REMARK  0 active torsions:
REMARK  status: ('A' for Active; 'I' for Inactive)
ROOT
ATOM      1  C1  DEN d   1       1.491  -2.093   0.080  0.00  0.00     0.130 A 
ATOM      2  C2  DEN d   1       2.065  -3.241  -0.616  0.00  0.00    -0.031 A 
ATOM      3  C3  DEN d   1       3.365  -2.828  -1.181  0.00  0.00     0.027 A 
ATOM      4  C4  DEN d   1       4.541  -0.537  -1.042  0.00  0.00     0.027 A 
ATOM      5  C5  DEN d   1       4.437   0.751  -0.565  0.00  0.00    -0.003 A 
ATOM      6  C6  DEN d   1       3.337   1.188   0.125  0.00  0.00     0.001 A 
ATOM      7  C7  DEN d   1       2.317   0.315   0.397  0.00  0.00     0.017 A 
ATOM      8  C8  DEN d   1       2.411  -0.983  -0.086  0.00  0.00    -0.094 A 
ATOM      9  C9  DEN d   1       3.537  -1.408  -0.771  0.00  0.00    -0.072 A 
ENDROOT
TORSDOF 0
ENDMDL
