MODEL 1
REMARK minimizedAffinity 5.05343008
REMARK minimizedRMSD -1
REMARK  0 active torsions:
REMARK  status: ('A' for Active; 'I' for Inactive)
ROOT
ATOM      1  C1  DEN d   1       1.394  -3.311  -0.707  0.00  0.00     0.130 A 
ATOM      2  C2  DEN d   1       1.240  -2.068  -1.459  0.00  0.00    -0.031 A 
ATOM      3  C3  DEN d   1      -0.032  -2.141  -2.206  0.00  0.00     0.027 A 
ATOM      4  C4  DEN d   1      -1.770  -4.046  -2.267  0.00  0.00     0.027 A 
ATOM      5  C5  DEN d   1      -2.071  -5.307  -1.801  0.00  0.00    -0.003 A 
ATOM      6  C6  DEN d   1      -1.229  -5.999  -0.972  0.00  0.00     0.001 A 
ATOM      7  C7  DEN d   1      -0.064  -5.415  -0.546  0.00  0.00     0.017 A 
ATOM      8  C8  DEN d   1       0.249  -4.147  -1.018  0.00  0.00    -0.094 A 
ATOM      9  C9  DEN d   1      -0.621  -3.459  -1.846  0.00  0.00    -0.072 A 
ENDROOT
TORSDOF 0
ENDMDL
