MODEL 1
REMARK minimizedAffinity 1.94693565
REMARK minimizedRMSD -1
REMARK  0 active torsions:
REMARK  status: ('A' for Active; 'I' for Inactive)
ROOT
ATOM      1  C1  DEN d   1       0.871   1.248   2.367  0.00  0.00     0.130 A 
ATOM      2  C2  DEN d   1       0.418   0.300   3.382  0.00  0.00    -0.031 A 
ATOM      3  C3  DEN d   1       1.098  -0.988   3.140  0.00  0.00     0.027 A 
ATOM      4  C4  DEN d   1       2.802  -1.603   1.303  0.00  0.00     0.027 A 
ATOM      5  C5  DEN d   1       3.486  -1.133   0.204  0.00  0.00    -0.003 A 
ATOM      6  C6  DEN d   1       3.323   0.142  -0.267  0.00  0.00     0.001 A 
ATOM      7  C7  DEN d   1       2.487   1.007   0.389  0.00  0.00     0.017 A 
ATOM      8  C8  DEN d   1       1.788   0.538   1.494  0.00  0.00    -0.094 A 
ATOM      9  C9  DEN d   1       1.976  -0.751   1.963  0.00  0.00    -0.072 A 
ENDROOT
TORSDOF 0
ENDMDL
