MODEL 1
REMARK minimizedAffinity 7.27008343
REMARK minimizedRMSD -1
REMARK  0 active torsions:
REMARK  status: ('A' for Active; 'I' for Inactive)
ROOT
ATOM      1  C1  DEN d   1      -1.961   0.805   0.662  0.00  0.00     0.130 A 
ATOM      2  C2  DEN d   1      -1.713   1.030  -0.760  0.00  0.00    -0.031 A 
ATOM      3  C3  DEN d   1      -0.252   1.073  -0.967  0.00  0.00     0.027 A 
ATOM      4  C4  DEN d   1       1.641   0.809   0.764  0.00  0.00     0.027 A 
ATOM      5  C5  DEN d   1       1.923   0.613   2.098  0.00  0.00    -0.003 A 
ATOM      6  C6  DEN d   1       0.939   0.501   3.044  0.00  0.00     0.001 A 
ATOM      7  C7  DEN d   1      -0.377   0.541   2.662  0.00  0.00     0.017 A 
ATOM      8  C8  DEN d   1      -0.669   0.746   1.320  0.00  0.00    -0.094 A 
ATOM      9  C9  DEN d   1       0.341   0.844   0.378  0.00  0.00    -0.072 A 
ENDROOT
TORSDOF 0
ENDMDL
