MODEL 1
REMARK minimizedAffinity 10.5112286
REMARK minimizedRMSD -1
REMARK  0 active torsions:
REMARK  status: ('A' for Active; 'I' for Inactive)
ROOT
ATOM      1  C1  DEN d   1      -0.545   0.730   3.629  0.00  0.00     0.130 A 
ATOM      2  C2  DEN d   1       0.752   0.154   3.970  0.00  0.00    -0.031 A 
ATOM      3  C3  DEN d   1       1.543   0.042   2.728  0.00  0.00     0.027 A 
ATOM      4  C4  DEN d   1       0.889   0.706   0.323  0.00  0.00     0.027 A 
ATOM      5  C5  DEN d   1      -0.114   1.226  -0.464  0.00  0.00    -0.003 A 
ATOM      6  C6  DEN d   1      -1.333   1.583   0.048  0.00  0.00     0.001 A 
ATOM      7  C7  DEN d   1      -1.565   1.466   1.393  0.00  0.00     0.017 A 
ATOM      8  C8  DEN d   1      -0.561   0.936   2.192  0.00  0.00    -0.094 A 
ATOM      9  C9  DEN d   1       0.669   0.592   1.658  0.00  0.00    -0.072 A 
ENDROOT
TORSDOF 0
ENDMDL
