MODEL 1
REMARK minimizedAffinity 11.4965887
REMARK minimizedRMSD -1
REMARK  0 active torsions:
REMARK  status: ('A' for Active; 'I' for Inactive)
ROOT
ATOM      1  C1  DEN d   1      -2.389   4.169   1.557  0.00  0.00     0.130 A 
ATOM      2  C2  DEN d   1      -1.401   3.188   1.998  0.00  0.00    -0.031 A 
ATOM      3  C3  DEN d   1      -1.723   1.896   1.358  0.00  0.00     0.027 A 
ATOM      4  C4  DEN d   1      -3.643   1.325  -0.267  0.00  0.00     0.027 A 
ATOM      5  C5  DEN d   1      -4.743   1.828  -0.925  0.00  0.00    -0.003 A 
ATOM      6  C6  DEN d   1      -5.153   3.126  -0.777  0.00  0.00     0.001 A 
ATOM      7  C7  DEN d   1      -4.430   3.980   0.015  0.00  0.00     0.017 A 
ATOM      8  C8  DEN d   1      -3.324   3.478   0.687  0.00  0.00    -0.094 A 
ATOM      9  C9  DEN d   1      -2.919   2.166   0.515  0.00  0.00    -0.072 A 
ENDROOT
TORSDOF 0
ENDMDL
