MODEL 1
REMARK minimizedAffinity 4.82234335
REMARK minimizedRMSD -1
REMARK  0 active torsions:
REMARK  status: ('A' for Active; 'I' for Inactive)
ROOT
ATOM      1  C1  DEN d   1       4.614   2.774  -0.140  0.00  0.00     0.130 A 
ATOM      2  C2  DEN d   1       5.904   2.171  -0.465  0.00  0.00    -0.031 A 
ATOM      3  C3  DEN d   1       5.706   0.714  -0.602  0.00  0.00     0.027 A 
ATOM      4  C4  DEN d   1       3.538  -0.660  -0.350  0.00  0.00     0.027 A 
ATOM      5  C5  DEN d   1       2.192  -0.590  -0.067  0.00  0.00    -0.003 A 
ATOM      6  C6  DEN d   1       1.570   0.590   0.242  0.00  0.00     0.001 A 
ATOM      7  C7  DEN d   1       2.287   1.758   0.232  0.00  0.00     0.017 A 
ATOM      8  C8  DEN d   1       3.646   1.695  -0.045  0.00  0.00    -0.094 A 
ATOM      9  C9  DEN d   1       4.254   0.493  -0.367  0.00  0.00    -0.072 A 
ENDROOT
TORSDOF 0
ENDMDL
