MODEL 1
REMARK minimizedAffinity 1.55828404
REMARK minimizedRMSD -1
REMARK  0 active torsions:
REMARK  status: ('A' for Active; 'I' for Inactive)
ROOT
ATOM      1  C1  DEN d   1       0.664  -1.180   2.633  0.00  0.00     0.130 A 
ATOM      2  C2  DEN d   1       0.063   0.127   2.884  0.00  0.00    -0.031 A 
ATOM      3  C3  DEN d   1       0.552   1.061   1.850  0.00  0.00     0.027 A 
ATOM      4  C4  DEN d   1       2.170   0.611  -0.108  0.00  0.00     0.027 A 
ATOM      5  C5  DEN d   1       2.950  -0.343  -0.723  0.00  0.00    -0.003 A 
ATOM      6  C6  DEN d   1       3.048  -1.624  -0.247  0.00  0.00     0.001 A 
ATOM      7  C7  DEN d   1       2.320  -1.997   0.852  0.00  0.00     0.017 A 
ATOM      8  C8  DEN d   1       1.537  -1.039   1.482  0.00  0.00    -0.094 A 
ATOM      9  C9  DEN d   1       1.441   0.247   0.977  0.00  0.00    -0.072 A 
ENDROOT
TORSDOF 0
ENDMDL
