MODEL 1
REMARK minimizedAffinity 8.71637154
REMARK minimizedRMSD -1
REMARK  0 active torsions:
REMARK  status: ('A' for Active; 'I' for Inactive)
ROOT
ATOM      1  C1  DEN d   1       2.612  -2.702  -0.854  0.00  0.00     0.130 A 
ATOM      2  C2  DEN d   1       3.720  -2.457  -1.772  0.00  0.00    -0.031 A 
ATOM      3  C3  DEN d   1       4.237  -1.098  -1.511  0.00  0.00     0.027 A 
ATOM      4  C4  DEN d   1       3.437   0.638   0.220  0.00  0.00     0.027 A 
ATOM      5  C5  DEN d   1       2.519   0.889   1.216  0.00  0.00    -0.003 A 
ATOM      6  C6  DEN d   1       1.555  -0.018   1.566  0.00  0.00     0.001 A 
ATOM      7  C7  DEN d   1       1.514  -1.239   0.945  0.00  0.00     0.017 A 
ATOM      8  C8  DEN d   1       2.431  -1.497  -0.065  0.00  0.00    -0.094 A 
ATOM      9  C9  DEN d   1       3.406  -0.571  -0.396  0.00  0.00    -0.072 A 
ENDROOT
TORSDOF 0
ENDMDL
