MODEL 1
REMARK minimizedAffinity 4.61669636
REMARK minimizedRMSD -1
REMARK  0 active torsions:
REMARK  status: ('A' for Active; 'I' for Inactive)
ROOT
ATOM      1  O1  BZF d   1       1.175   2.508   2.955  0.00  0.00    -0.204 OA
ATOM      2  C2  BZF d   1       1.227   3.879   2.793  0.00  0.00     0.174 A 
ATOM      3  C3  BZF d   1       0.697   4.241   1.607  0.00  0.00    -0.012 A 
ATOM      4  C3A BZF d   1       0.204   3.028   1.030  0.00  0.00    -0.107 A 
ATOM      5  C4  BZF d   1      -0.444   2.740  -0.137  0.00  0.00     0.055 A 
ATOM      6  C5  BZF d   1      -0.721   1.443  -0.435  0.00  0.00    -0.016 A 
ATOM      7  C6  BZF d   1      -0.362   0.412   0.407  0.00  0.00     0.022 A 
ATOM      8  C7  BZF d   1       0.278   0.649   1.578  0.00  0.00     0.029 A 
ATOM      9  C7A BZF d   1       0.530   1.961   1.898  0.00  0.00     0.058 A 
ENDROOT
TORSDOF 0
ENDMDL
