MODEL 1
REMARK minimizedAffinity 2.53114605
REMARK minimizedRMSD -1
REMARK  0 active torsions:
REMARK  status: ('A' for Active; 'I' for Inactive)
ROOT
ATOM      1  O1  BZF d   1      -3.724   3.380  -3.324  0.00  0.00    -0.204 OA
ATOM      2  C2  BZF d   1      -3.492   2.656  -2.170  0.00  0.00     0.174 A 
ATOM      3  C3  BZF d   1      -4.139   1.473  -2.209  0.00  0.00    -0.012 A 
ATOM      4  C3A BZF d   1      -4.743   1.417  -3.505  0.00  0.00    -0.107 A 
ATOM      5  C4  BZF d   1      -5.507   0.484  -4.145  0.00  0.00     0.055 A 
ATOM      6  C5  BZF d   1      -6.000   0.767  -5.380  0.00  0.00    -0.016 A 
ATOM      7  C6  BZF d   1      -5.754   1.975  -6.000  0.00  0.00     0.022 A 
ATOM      8  C7  BZF d   1      -4.998   2.930  -5.406  0.00  0.00     0.029 A 
ATOM      9  C7A BZF d   1      -4.471   2.634  -4.173  0.00  0.00     0.058 A 
ENDROOT
TORSDOF 0
ENDMDL
