MODEL 1
REMARK minimizedAffinity 5.98240995
REMARK minimizedRMSD -1
REMARK  0 active torsions:
REMARK  status: ('A' for Active; 'I' for Inactive)
ROOT
ATOM      1  O1  BZF d   1       0.881   0.813   2.703  0.00  0.00    -0.204 OA
ATOM      2  C2  BZF d   1       1.434  -0.430   2.463  0.00  0.00     0.174 A 
ATOM      3  C3  BZF d   1       1.455  -0.698   1.141  0.00  0.00    -0.012 A 
ATOM      4  C3A BZF d   1       0.964   0.489   0.509  0.00  0.00    -0.107 A 
ATOM      5  C4  BZF d   1       0.764   0.844  -0.794  0.00  0.00     0.055 A 
ATOM      6  C5  BZF d   1       0.203   2.050  -1.071  0.00  0.00    -0.016 A 
ATOM      7  C6  BZF d   1      -0.176   2.922  -0.071  0.00  0.00     0.022 A 
ATOM      8  C7  BZF d   1       0.007   2.615   1.237  0.00  0.00     0.029 A 
ATOM      9  C7A BZF d   1       0.605   1.411   1.519  0.00  0.00     0.058 A 
ENDROOT
TORSDOF 0
ENDMDL
