MODEL 1
REMARK minimizedAffinity 3.31913972
REMARK minimizedRMSD -1
REMARK  0 active torsions:
REMARK  status: ('A' for Active; 'I' for Inactive)
ROOT
ATOM      1  O1  BZF d   1      -3.304   4.507  -5.996  0.00  0.00    -0.204 OA
ATOM      2  C2  BZF d   1      -2.120   4.407  -5.291  0.00  0.00     0.174 A 
ATOM      3  C3  BZF d   1      -2.176   3.393  -4.404  0.00  0.00    -0.012 A 
ATOM      4  C3A BZF d   1      -3.442   2.766  -4.628  0.00  0.00    -0.107 A 
ATOM      5  C4  BZF d   1      -4.070   1.691  -4.066  0.00  0.00     0.055 A 
ATOM      6  C5  BZF d   1      -5.334   1.383  -4.461  0.00  0.00    -0.016 A 
ATOM      7  C6  BZF d   1      -6.000   2.130  -5.410  0.00  0.00     0.022 A 
ATOM      8  C7  BZF d   1      -5.416   3.202  -5.999  0.00  0.00     0.029 A 
ATOM      9  C7A BZF d   1      -4.127   3.496  -5.626  0.00  0.00     0.058 A 
ENDROOT
TORSDOF 0
ENDMDL
