MODEL 1
REMARK minimizedAffinity 10.3423891
REMARK minimizedRMSD -1
REMARK  0 active torsions:
REMARK  status: ('A' for Active; 'I' for Inactive)
ROOT
ATOM      1  O1  BZF d   1       0.515   0.128  -1.379  0.00  0.00    -0.204 OA
ATOM      2  C2  BZF d   1       0.560   1.111  -2.349  0.00  0.00     0.174 A 
ATOM      3  C3  BZF d   1       0.343   2.327  -1.808  0.00  0.00    -0.012 A 
ATOM      4  C3A BZF d   1       0.242   2.100  -0.399  0.00  0.00    -0.107 A 
ATOM      5  C4  BZF d   1       0.043   2.923   0.673  0.00  0.00     0.055 A 
ATOM      6  C5  BZF d   1      -0.079   2.376   1.911  0.00  0.00    -0.016 A 
ATOM      7  C6  BZF d   1      -0.013   1.013   2.113  0.00  0.00     0.022 A 
ATOM      8  C7  BZF d   1       0.187   0.158   1.082  0.00  0.00     0.029 A 
ATOM      9  C7A BZF d   1       0.344   0.709  -0.167  0.00  0.00     0.058 A 
ENDROOT
TORSDOF 0
ENDMDL
