MODEL 1
REMARK minimizedAffinity 4.71373415
REMARK minimizedRMSD -1
REMARK  0 active torsions:
REMARK  status: ('A' for Active; 'I' for Inactive)
ROOT
ATOM      1  O1  BZF d   1      -4.978   4.881  -5.208  0.00  0.00    -0.204 OA
ATOM      2  C2  BZF d   1      -5.977   4.349  -6.000  0.00  0.00     0.174 A 
ATOM      3  C3  BZF d   1      -6.000   3.004  -5.902  0.00  0.00    -0.012 A 
ATOM      4  C3A BZF d   1      -5.009   2.681  -4.921  0.00  0.00    -0.107 A 
ATOM      5  C4  BZF d   1      -4.574   1.506  -4.378  0.00  0.00     0.055 A 
ATOM      6  C5  BZF d   1      -3.539   1.529  -3.497  0.00  0.00    -0.016 A 
ATOM      7  C6  BZF d   1      -2.915   2.707  -3.141  0.00  0.00     0.022 A 
ATOM      8  C7  BZF d   1      -3.315   3.898  -3.650  0.00  0.00     0.029 A 
ATOM      9  C7A BZF d   1      -4.381   3.881  -4.515  0.00  0.00     0.058 A 
ENDROOT
TORSDOF 0
ENDMDL
