MODEL 1
REMARK minimizedAffinity 12.5493717
REMARK minimizedRMSD -1
REMARK  0 active torsions:
REMARK  status: ('A' for Active; 'I' for Inactive)
ROOT
ATOM      1  O1  BZF d   1      -3.479   3.317  -3.138  0.00  0.00    -0.204 OA
ATOM      2  C2  BZF d   1      -3.246   2.243  -2.302  0.00  0.00     0.174 A 
ATOM      3  C3  BZF d   1      -3.968   1.171  -2.688  0.00  0.00    -0.012 A 
ATOM      4  C3A BZF d   1      -4.628   1.575  -3.892  0.00  0.00    -0.107 A 
ATOM      5  C4  BZF d   1      -5.475   0.942  -4.756  0.00  0.00     0.055 A 
ATOM      6  C5  BZF d   1      -6.000   1.641  -5.797  0.00  0.00    -0.016 A 
ATOM      7  C6  BZF d   1      -5.703   2.973  -6.000  0.00  0.00     0.022 A 
ATOM      8  C7  BZF d   1      -4.864   3.642  -5.172  0.00  0.00     0.029 A 
ATOM      9  C7A BZF d   1      -4.307   2.930  -4.139  0.00  0.00     0.058 A 
ENDROOT
TORSDOF 0
ENDMDL
