MODEL 1
REMARK minimizedAffinity 6.252913
REMARK minimizedRMSD -1
REMARK  0 active torsions:
REMARK  status: ('A' for Active; 'I' for Inactive)
ROOT
ATOM      1  O1  BZF d   1      -3.301   4.023  -3.751  0.00  0.00    -0.204 OA
ATOM      2  C2  BZF d   1      -2.701   3.095  -2.922  0.00  0.00     0.174 A 
ATOM      3  C3  BZF d   1      -3.286   1.887  -3.054  0.00  0.00    -0.012 A 
ATOM      4  C3A BZF d   1      -4.255   2.049  -4.094  0.00  0.00    -0.107 A 
ATOM      5  C4  BZF d   1      -5.143   1.201  -4.690  0.00  0.00     0.055 A 
ATOM      6  C5  BZF d   1      -6.000   1.691  -5.624  0.00  0.00    -0.016 A 
ATOM      7  C6  BZF d   1      -6.000   3.024  -5.981  0.00  0.00     0.022 A 
ATOM      8  C7  BZF d   1      -5.134   3.903  -5.421  0.00  0.00     0.029 A 
ATOM      9  C7A BZF d   1      -4.244   3.404  -4.501  0.00  0.00     0.058 A 
ENDROOT
TORSDOF 0
ENDMDL
