MODEL 1
REMARK minimizedAffinity 10.3067284
REMARK minimizedRMSD -1
REMARK  0 active torsions:
REMARK  status: ('A' for Active; 'I' for Inactive)
ROOT
ATOM      1  O1  BZF d   1      -2.600   3.546  -3.870  0.00  0.00    -0.204 OA
ATOM      2  C2  BZF d   1      -2.231   4.306  -4.963  0.00  0.00     0.174 A 
ATOM      3  C3  BZF d   1      -3.094   4.126  -5.984  0.00  0.00    -0.012 A 
ATOM      4  C3A BZF d   1      -4.114   3.266  -5.468  0.00  0.00    -0.107 A 
ATOM      5  C4  BZF d   1      -5.256   2.739  -6.000  0.00  0.00     0.055 A 
ATOM      6  C5  BZF d   1      -5.995   1.876  -5.254  0.00  0.00    -0.016 A 
ATOM      7  C6  BZF d   1      -5.620   1.516  -3.977  0.00  0.00     0.022 A 
ATOM      8  C7  BZF d   1      -4.498   2.017  -3.404  0.00  0.00     0.029 A 
ATOM      9  C7A BZF d   1      -3.767   2.914  -4.143  0.00  0.00     0.058 A 
ENDROOT
TORSDOF 0
ENDMDL
