MODEL 1
REMARK minimizedAffinity 9.39479923
REMARK minimizedRMSD -1
REMARK  0 active torsions:
REMARK  status: ('A' for Active; 'I' for Inactive)
ROOT
ATOM      1  O1  BZF d   1       0.799   2.031   2.677  0.00  0.00    -0.204 OA
ATOM      2  C2  BZF d   1       0.697   3.390   2.449  0.00  0.00     0.174 A 
ATOM      3  C3  BZF d   1       0.310   3.634   1.180  0.00  0.00    -0.012 A 
ATOM      4  C3A BZF d   1       0.072   2.345   0.605  0.00  0.00    -0.107 A 
ATOM      5  C4  BZF d   1      -0.348   1.930  -0.626  0.00  0.00     0.055 A 
ATOM      6  C5  BZF d   1      -0.408   0.598  -0.889  0.00  0.00    -0.016 A 
ATOM      7  C6  BZF d   1      -0.049  -0.345   0.053  0.00  0.00     0.022 A 
ATOM      8  C7  BZF d   1       0.369   0.019   1.289  0.00  0.00     0.029 A 
ATOM      9  C7A BZF d   1       0.398   1.364   1.569  0.00  0.00     0.058 A 
ENDROOT
TORSDOF 0
ENDMDL
