MODEL 1
REMARK minimizedAffinity 7.14702797
REMARK minimizedRMSD -1
REMARK  0 active torsions:
REMARK  status: ('A' for Active; 'I' for Inactive)
ROOT
ATOM      1  O1  BZF d   1      -5.820   3.809  -3.760  0.00  0.00    -0.204 OA
ATOM      2  C2  BZF d   1      -5.931   4.518  -4.941  0.00  0.00     0.174 A 
ATOM      3  C3  BZF d   1      -5.949   3.683  -6.000  0.00  0.00    -0.012 A 
ATOM      4  C3A BZF d   1      -5.936   2.366  -5.441  0.00  0.00    -0.107 A 
ATOM      5  C4  BZF d   1      -5.959   1.114  -5.987  0.00  0.00     0.055 A 
ATOM      6  C5  BZF d   1      -5.862   0.034  -5.167  0.00  0.00    -0.016 A 
ATOM      7  C6  BZF d   1      -5.737   0.169  -3.800  0.00  0.00     0.022 A 
ATOM      8  C7  BZF d   1      -5.715   1.390  -3.212  0.00  0.00     0.029 A 
ATOM      9  C7A BZF d   1      -5.845   2.483  -4.035  0.00  0.00     0.058 A 
ENDROOT
TORSDOF 0
ENDMDL
