MODEL 1
REMARK minimizedAffinity 1.13667905
REMARK minimizedRMSD -1
REMARK  0 active torsions:
REMARK  status: ('A' for Active; 'I' for Inactive)
ROOT
ATOM      1  O1  BZF d   1      -5.236   2.253  -4.780  0.00  0.00    -0.204 OA
ATOM      2  C2  BZF d   1      -5.751   3.159  -5.687  0.00  0.00     0.174 A 
ATOM      3  C3  BZF d   1      -4.835   4.099  -5.998  0.00  0.00    -0.012 A 
ATOM      4  C3A BZF d   1      -3.645   3.706  -5.308  0.00  0.00    -0.107 A 
ATOM      5  C4  BZF d   1      -2.386   4.231  -5.235  0.00  0.00     0.055 A 
ATOM      6  C5  BZF d   1      -1.474   3.647  -4.414  0.00  0.00    -0.016 A 
ATOM      7  C6  BZF d   1      -1.787   2.542  -3.650  0.00  0.00     0.022 A 
ATOM      8  C7  BZF d   1      -3.021   1.983  -3.694  0.00  0.00     0.029 A 
ATOM      9  C7A BZF d   1      -3.935   2.551  -4.547  0.00  0.00     0.058 A 
ENDROOT
TORSDOF 0
ENDMDL
