MODEL 1
REMARK minimizedAffinity 12.5842991
REMARK minimizedRMSD -1
REMARK  0 active torsions:
REMARK  status: ('A' for Active; 'I' for Inactive)
ROOT
ATOM      1  O1  BZF d   1       0.634   2.532   2.437  0.00  0.00    -0.204 OA
ATOM      2  C2  BZF d   1       0.526   3.791   1.878  0.00  0.00     0.174 A 
ATOM      3  C3  BZF d   1       0.381   3.709   0.540  0.00  0.00    -0.012 A 
ATOM      4  C3A BZF d   1       0.306   2.309   0.254  0.00  0.00    -0.107 A 
ATOM      5  C4  BZF d   1       0.146   1.593  -0.898  0.00  0.00     0.055 A 
ATOM      6  C5  BZF d   1       0.189   0.236  -0.844  0.00  0.00    -0.016 A 
ATOM      7  C6  BZF d   1       0.396  -0.437   0.343  0.00  0.00     0.022 A 
ATOM      8  C7  BZF d   1       0.555   0.230   1.512  0.00  0.00     0.029 A 
ATOM      9  C7A BZF d   1       0.479   1.600   1.465  0.00  0.00     0.058 A 
ENDROOT
TORSDOF 0
ENDMDL
