MODEL 1
REMARK minimizedAffinity 4.03904819
REMARK minimizedRMSD -1
REMARK  0 active torsions:
REMARK  status: ('A' for Active; 'I' for Inactive)
ROOT
ATOM      1  O1  BZF d   1      -2.531   2.611  -4.154  0.00  0.00    -0.204 OA
ATOM      2  C2  BZF d   1      -1.643   3.607  -4.510  0.00  0.00     0.174 A 
ATOM      3  C3  BZF d   1      -2.240   4.521  -5.302  0.00  0.00    -0.012 A 
ATOM      4  C3A BZF d   1      -3.611   4.117  -5.374  0.00  0.00    -0.107 A 
ATOM      5  C4  BZF d   1      -4.710   4.632  -6.000  0.00  0.00     0.055 A 
ATOM      6  C5  BZF d   1      -5.887   3.956  -5.932  0.00  0.00    -0.016 A 
ATOM      7  C6  BZF d   1      -5.999   2.761  -5.252  0.00  0.00     0.022 A 
ATOM      8  C7  BZF d   1      -4.938   2.212  -4.612  0.00  0.00     0.029 A 
ATOM      9  C7A BZF d   1      -3.755   2.910  -4.651  0.00  0.00     0.058 A 
ENDROOT
TORSDOF 0
ENDMDL
