MODEL 1
REMARK minimizedAffinity 7.30167341
REMARK minimizedRMSD -1
REMARK  0 active torsions:
REMARK  status: ('A' for Active; 'I' for Inactive)
ROOT
ATOM      1  O1  BZF d   1      -4.310   0.899  -4.188  0.00  0.00    -0.204 OA
ATOM      2  C2  BZF d   1      -5.169   0.086  -4.902  0.00  0.00     0.174 A 
ATOM      3  C3  BZF d   1      -5.998   0.823  -5.669  0.00  0.00    -0.012 A 
ATOM      4  C3A BZF d   1      -5.574   2.177  -5.488  0.00  0.00    -0.107 A 
ATOM      5  C4  BZF d   1      -5.999   3.370  -5.999  0.00  0.00     0.055 A 
ATOM      6  C5  BZF d   1      -5.420   4.520  -5.563  0.00  0.00    -0.016 A 
ATOM      7  C6  BZF d   1      -4.418   4.513  -4.615  0.00  0.00     0.022 A 
ATOM      8  C7  BZF d   1      -3.960   3.354  -4.082  0.00  0.00     0.029 A 
ATOM      9  C7A BZF d   1      -4.521   2.189  -4.545  0.00  0.00     0.058 A 
ENDROOT
TORSDOF 0
ENDMDL
