MODEL 1
REMARK minimizedAffinity 4.58545399
REMARK minimizedRMSD -1
REMARK  0 active torsions:
REMARK  status: ('A' for Active; 'I' for Inactive)
ROOT
ATOM      1  O1  BZF d   1       0.164   1.283   2.145  0.00  0.00    -0.204 OA
ATOM      2  C2  BZF d   1       0.116   2.663   2.150  0.00  0.00     0.174 A 
ATOM      3  C3  BZF d   1       0.329   3.154   0.912  0.00  0.00    -0.012 A 
ATOM      4  C3A BZF d   1       0.430   2.005   0.064  0.00  0.00    -0.107 A 
ATOM      5  C4  BZF d   1       0.625   1.843  -1.278  0.00  0.00     0.055 A 
ATOM      6  C5  BZF d   1       0.748   0.586  -1.780  0.00  0.00    -0.016 A 
ATOM      7  C6  BZF d   1       0.686  -0.529  -0.969  0.00  0.00     0.022 A 
ATOM      8  C7  BZF d   1       0.489  -0.418   0.367  0.00  0.00     0.029 A 
ATOM      9  C7A BZF d   1       0.332   0.849   0.873  0.00  0.00     0.058 A 
ENDROOT
TORSDOF 0
ENDMDL
