MODEL 1
REMARK minimizedAffinity -1.9616003
REMARK minimizedRMSD -1
REMARK  0 active torsions:
REMARK  status: ('A' for Active; 'I' for Inactive)
ROOT
ATOM      1  O1  BZF d   1      -3.717   1.114  -5.864  0.00  0.00    -0.204 OA
ATOM      2  C2  BZF d   1      -4.889   0.385  -5.810  0.00  0.00     0.174 A 
ATOM      3  C3  BZF d   1      -5.960   1.204  -5.769  0.00  0.00    -0.012 A 
ATOM      4  C3A BZF d   1      -5.427   2.527  -5.892  0.00  0.00    -0.107 A 
ATOM      5  C4  BZF d   1      -5.995   3.768  -5.933  0.00  0.00     0.055 A 
ATOM      6  C5  BZF d   1      -5.190   4.861  -5.986  0.00  0.00    -0.016 A 
ATOM      7  C6  BZF d   1      -3.815   4.751  -5.993  0.00  0.00     0.022 A 
ATOM      8  C7  BZF d   1      -3.205   3.540  -5.959  0.00  0.00     0.029 A 
ATOM      9  C7A BZF d   1      -4.017   2.432  -5.939  0.00  0.00     0.058 A 
ENDROOT
TORSDOF 0
ENDMDL
