MODEL 1
REMARK minimizedAffinity 10.3971891
REMARK minimizedRMSD -1
REMARK  0 active torsions:
REMARK  status: ('A' for Active; 'I' for Inactive)
ROOT
ATOM      1  O1  BZF d   1       0.725  -0.432  -2.146  0.00  0.00    -0.204 OA
ATOM      2  C2  BZF d   1       0.629   0.492  -3.169  0.00  0.00     0.174 A 
ATOM      3  C3  BZF d   1       0.284   1.704  -2.688  0.00  0.00    -0.012 A 
ATOM      4  C3A BZF d   1       0.246   1.547  -1.266  0.00  0.00    -0.107 A 
ATOM      5  C4  BZF d   1      -0.020   2.401  -0.234  0.00  0.00     0.055 A 
ATOM      6  C5  BZF d   1      -0.045   1.916   1.035  0.00  0.00    -0.016 A 
ATOM      7  C6  BZF d   1       0.187   0.584   1.308  0.00  0.00     0.022 A 
ATOM      8  C7  BZF d   1       0.460  -0.300   0.318  0.00  0.00     0.029 A 
ATOM      9  C7A BZF d   1       0.518   0.193  -0.962  0.00  0.00     0.058 A 
ENDROOT
TORSDOF 0
ENDMDL
