MODEL 1
REMARK minimizedAffinity -5.08541203
REMARK minimizedRMSD -1
REMARK  0 active torsions:
REMARK  status: ('A' for Active; 'I' for Inactive)
ROOT
ATOM      1  C1  BNZ d   1      -0.370   0.858   1.410  0.00  0.00     0.000 A 
ATOM      2  C2  BNZ d   1       0.564   1.604   2.078  0.00  0.00     0.000 A 
ATOM      3  C3  BNZ d   1       1.707   2.017   1.453  0.00  0.00     0.000 A 
ATOM      4  C4  BNZ d   1       1.933   1.652   0.175  0.00  0.00     0.000 A 
ATOM      5  C5  BNZ d   1       1.006   0.892  -0.510  0.00  0.00     0.000 A 
ATOM      6  C6  BNZ d   1      -0.162   0.510   0.111  0.00  0.00     0.000 A 
ENDROOT
TORSDOF 0
ENDMDL
