MODEL 1
REMARK minimizedAffinity -4.46598673
REMARK minimizedRMSD -1
REMARK  0 active torsions:
REMARK  status: ('A' for Active; 'I' for Inactive)
ROOT
ATOM      1  C1  BNZ d   1       1.712   1.504  -0.056  0.00  0.00     0.000 A 
ATOM      2  C2  BNZ d   1       0.968   0.403  -0.387  0.00  0.00     0.000 A 
ATOM      3  C3  BNZ d   1      -0.143   0.066   0.335  0.00  0.00     0.000 A 
ATOM      4  C4  BNZ d   1      -0.485   0.806   1.409  0.00  0.00     0.000 A 
ATOM      5  C5  BNZ d   1       0.260   1.914   1.762  0.00  0.00     0.000 A 
ATOM      6  C6  BNZ d   1       1.355   2.272   1.009  0.00  0.00     0.000 A 
ENDROOT
TORSDOF 0
ENDMDL
