MODEL 1
REMARK minimizedAffinity -2.5664475
REMARK minimizedRMSD -1
REMARK  0 active torsions:
REMARK  status: ('A' for Active; 'I' for Inactive)
ROOT
ATOM      1  C1  BNZ d   1      -3.453   5.996  -3.374  0.00  0.00     0.000 A 
ATOM      2  C2  BNZ d   1      -2.524   5.999  -4.380  0.00  0.00     0.000 A 
ATOM      3  C3  BNZ d   1      -2.912   6.000  -5.691  0.00  0.00     0.000 A 
ATOM      4  C4  BNZ d   1      -4.225   5.956  -5.994  0.00  0.00     0.000 A 
ATOM      5  C5  BNZ d   1      -5.174   5.943  -4.991  0.00  0.00     0.000 A 
ATOM      6  C6  BNZ d   1      -4.781   5.981  -3.673  0.00  0.00     0.000 A 
ENDROOT
TORSDOF 0
ENDMDL
