MODEL 1
REMARK minimizedAffinity -4.6069746
REMARK minimizedRMSD -1
REMARK  0 active torsions:
REMARK  status: ('A' for Active; 'I' for Inactive)
ROOT
ATOM      1  C1  BNZ d   1       0.326   0.771   0.072  0.00  0.00     0.000 A 
ATOM      2  C2  BNZ d   1       1.187   1.782   0.409  0.00  0.00     0.000 A 
ATOM      3  C3  BNZ d   1       2.526   1.673   0.159  0.00  0.00     0.000 A 
ATOM      4  C4  BNZ d   1       3.008   0.540  -0.390  0.00  0.00     0.000 A 
ATOM      5  C5  BNZ d   1       2.155  -0.492  -0.727  0.00  0.00     0.000 A 
ATOM      6  C6  BNZ d   1       0.802  -0.363  -0.510  0.00  0.00     0.000 A 
ENDROOT
TORSDOF 0
ENDMDL
