MODEL 1
REMARK minimizedAffinity -3.96935225
REMARK minimizedRMSD -1
REMARK  0 active torsions:
REMARK  status: ('A' for Active; 'I' for Inactive)
ROOT
ATOM      1  C1  BNZ d   1       2.885   1.888   0.639  0.00  0.00     0.000 A 
ATOM      2  C2  BNZ d   1       2.191   1.110  -0.250  0.00  0.00     0.000 A 
ATOM      3  C3  BNZ d   1       0.998   0.542   0.101  0.00  0.00     0.000 A 
ATOM      4  C4  BNZ d   1       0.522   0.718   1.350  0.00  0.00     0.000 A 
ATOM      5  C5  BNZ d   1       1.215   1.491   2.260  0.00  0.00     0.000 A 
ATOM      6  C6  BNZ d   1       2.396   2.094   1.891  0.00  0.00     0.000 A 
ENDROOT
TORSDOF 0
ENDMDL
