MODEL 1
REMARK minimizedAffinity -3.76077414
REMARK minimizedRMSD -1
REMARK  0 active torsions:
REMARK  status: ('A' for Active; 'I' for Inactive)
ROOT
ATOM      1  C1  BNZ d   1      -0.036   1.819   2.052  0.00  0.00     0.000 A 
ATOM      2  C2  BNZ d   1      -0.968   0.951   1.550  0.00  0.00     0.000 A 
ATOM      3  C3  BNZ d   1      -0.674   0.151   0.481  0.00  0.00     0.000 A 
ATOM      4  C4  BNZ d   1       0.535   0.248  -0.108  0.00  0.00     0.000 A 
ATOM      5  C5  BNZ d   1       1.482   1.125   0.381  0.00  0.00     0.000 A 
ATOM      6  C6  BNZ d   1       1.197   1.901   1.481  0.00  0.00     0.000 A 
ENDROOT
TORSDOF 0
ENDMDL
