MODEL 1
REMARK minimizedAffinity -3.87510228
REMARK minimizedRMSD -1
REMARK  0 active torsions:
REMARK  status: ('A' for Active; 'I' for Inactive)
ROOT
ATOM      1  C1  BNZ d   1       2.152   0.119  -0.746  0.00  0.00     0.000 A 
ATOM      2  C2  BNZ d   1       1.241  -0.901  -0.822  0.00  0.00     0.000 A 
ATOM      3  C3  BNZ d   1       0.046  -0.822  -0.164  0.00  0.00     0.000 A 
ATOM      4  C4  BNZ d   1      -0.220   0.257   0.600  0.00  0.00     0.000 A 
ATOM      5  C5  BNZ d   1       0.692   1.289   0.695  0.00  0.00     0.000 A 
ATOM      6  C6  BNZ d   1       1.878   1.223   0.000  0.00  0.00     0.000 A 
ENDROOT
TORSDOF 0
ENDMDL
