MODEL 1
REMARK minimizedAffinity -2.52139258
REMARK minimizedRMSD -1
REMARK  0 active torsions:
REMARK  status: ('A' for Active; 'I' for Inactive)
ROOT
ATOM      1  C1  BNZ d   1       1.001   1.631  -0.090  0.00  0.00     0.000 A 
ATOM      2  C2  BNZ d   1       0.541   0.351  -0.248  0.00  0.00     0.000 A 
ATOM      3  C3  BNZ d   1      -0.518  -0.108   0.483  0.00  0.00     0.000 A 
ATOM      4  C4  BNZ d   1      -1.091   0.700   1.400  0.00  0.00     0.000 A 
ATOM      5  C5  BNZ d   1      -0.633   1.990   1.578  0.00  0.00     0.000 A 
ATOM      6  C6  BNZ d   1       0.409   2.461   0.812  0.00  0.00     0.000 A 
ENDROOT
TORSDOF 0
ENDMDL
