MODEL 1
REMARK minimizedAffinity -2.36721802
REMARK minimizedRMSD -1
REMARK  0 active torsions:
REMARK  status: ('A' for Active; 'I' for Inactive)
ROOT
ATOM      1  C1  BNZ d   1      -1.125   0.352   1.302  0.00  0.00     0.000 A 
ATOM      2  C2  BNZ d   1      -1.242  -0.788   0.553  0.00  0.00     0.000 A 
ATOM      3  C3  BNZ d   1      -0.268  -1.143  -0.337  0.00  0.00     0.000 A 
ATOM      4  C4  BNZ d   1       0.801  -0.339  -0.506  0.00  0.00     0.000 A 
ATOM      5  C5  BNZ d   1       0.929   0.819   0.235  0.00  0.00     0.000 A 
ATOM      6  C6  BNZ d   1      -0.035   1.153   1.159  0.00  0.00     0.000 A 
ENDROOT
TORSDOF 0
ENDMDL
