MODEL 1
REMARK minimizedAffinity -2.70485997
REMARK minimizedRMSD -1
REMARK  0 active torsions:
REMARK  status: ('A' for Active; 'I' for Inactive)
ROOT
ATOM      1  C1  BNZ d   1      -2.091  -1.408  -4.656  0.00  0.00     0.000 A 
ATOM      2  C2  BNZ d   1      -2.656  -2.574  -4.212  0.00  0.00     0.000 A 
ATOM      3  C3  BNZ d   1      -3.327  -2.617  -3.022  0.00  0.00     0.000 A 
ATOM      4  C4  BNZ d   1      -3.398  -1.507  -2.259  0.00  0.00     0.000 A 
ATOM      5  C5  BNZ d   1      -2.826  -0.326  -2.689  0.00  0.00     0.000 A 
ATOM      6  C6  BNZ d   1      -2.184  -0.277  -3.905  0.00  0.00     0.000 A 
ENDROOT
TORSDOF 0
ENDMDL
