MODEL 1
REMARK minimizedAffinity -5.20818615
REMARK minimizedRMSD -1
REMARK  0 active torsions:
REMARK  status: ('A' for Active; 'I' for Inactive)
ROOT
ATOM      1  C1  BNZ d   1       1.621   2.486   1.396  0.00  0.00     0.000 A 
ATOM      2  C2  BNZ d   1       2.394   1.899   0.430  0.00  0.00     0.000 A 
ATOM      3  C3  BNZ d   1       1.923   0.839  -0.294  0.00  0.00     0.000 A 
ATOM      4  C4  BNZ d   1       0.698   0.343  -0.023  0.00  0.00     0.000 A 
ATOM      5  C5  BNZ d   1      -0.089   0.918   0.954  0.00  0.00     0.000 A 
ATOM      6  C6  BNZ d   1       0.373   2.009   1.654  0.00  0.00     0.000 A 
ENDROOT
TORSDOF 0
ENDMDL
