MODEL 1
REMARK minimizedAffinity -2.60388732
REMARK minimizedRMSD -1
REMARK  0 active torsions:
REMARK  status: ('A' for Active; 'I' for Inactive)
ROOT
ATOM      1  C1  BNZ d   1      -0.911   0.629   1.470  0.00  0.00     0.000 A 
ATOM      2  C2  BNZ d   1      -0.277   1.732   1.977  0.00  0.00     0.000 A 
ATOM      3  C3  BNZ d   1       0.746   2.327   1.293  0.00  0.00     0.000 A 
ATOM      4  C4  BNZ d   1       1.160   1.796   0.125  0.00  0.00     0.000 A 
ATOM      5  C5  BNZ d   1       0.537   0.679  -0.395  0.00  0.00     0.000 A 
ATOM      6  C6  BNZ d   1      -0.518   0.105   0.277  0.00  0.00     0.000 A 
ENDROOT
TORSDOF 0
ENDMDL
