MODEL 1
REMARK minimizedAffinity -3.98122072
REMARK minimizedRMSD -1
REMARK  0 active torsions:
REMARK  status: ('A' for Active; 'I' for Inactive)
ROOT
ATOM      1  C1  BNZ d   1       2.924   2.252   0.890  0.00  0.00     0.000 A 
ATOM      2  C2  BNZ d   1       1.780   2.865   1.326  0.00  0.00     0.000 A 
ATOM      3  C3  BNZ d   1       0.553   2.320   1.071  0.00  0.00     0.000 A 
ATOM      4  C4  BNZ d   1       0.469   1.185   0.346  0.00  0.00     0.000 A 
ATOM      5  C5  BNZ d   1       1.613   0.561  -0.108  0.00  0.00     0.000 A 
ATOM      6  C6  BNZ d   1       2.849   1.092   0.184  0.00  0.00     0.000 A 
ENDROOT
TORSDOF 0
ENDMDL
