MODEL 1
REMARK minimizedAffinity -2.31183195
REMARK minimizedRMSD -1
REMARK  0 active torsions:
REMARK  status: ('A' for Active; 'I' for Inactive)
ROOT
ATOM      1  C1  BNZ d   1      -0.384   1.594   1.743  0.00  0.00     0.000 A 
ATOM      2  C2  BNZ d   1      -1.074   0.751   0.914  0.00  0.00     0.000 A 
ATOM      3  C3  BNZ d   1      -0.414  -0.133   0.107  0.00  0.00     0.000 A 
ATOM      4  C4  BNZ d   1       0.935  -0.144   0.100  0.00  0.00     0.000 A 
ATOM      5  C5  BNZ d   1       1.645   0.707   0.924  0.00  0.00     0.000 A 
ATOM      6  C6  BNZ d   1       0.976   1.567   1.763  0.00  0.00     0.000 A 
ENDROOT
TORSDOF 0
ENDMDL
