MODEL 1
REMARK minimizedAffinity -3.58287835
REMARK minimizedRMSD -1
REMARK  0 active torsions:
REMARK  status: ('A' for Active; 'I' for Inactive)
ROOT
ATOM      1  C1  BNZ d   1       0.376  -0.679   0.162  0.00  0.00     0.000 A 
ATOM      2  C2  BNZ d   1      -0.253   0.132   1.069  0.00  0.00     0.000 A 
ATOM      3  C3  BNZ d   1       0.453   1.051   1.794  0.00  0.00     0.000 A 
ATOM      4  C4  BNZ d   1       1.791   1.131   1.639  0.00  0.00     0.000 A 
ATOM      5  C5  BNZ d   1       2.440   0.314   0.736  0.00  0.00     0.000 A 
ATOM      6  C6  BNZ d   1       1.721  -0.583  -0.020  0.00  0.00     0.000 A 
ENDROOT
TORSDOF 0
ENDMDL
