MODEL 1
REMARK minimizedAffinity -5.04894495
REMARK minimizedRMSD -1
REMARK  0 active torsions:
REMARK  status: ('A' for Active; 'I' for Inactive)
ROOT
ATOM      1  C1  BNZ d   1       2.120   0.485   0.373  0.00  0.00     0.000 A 
ATOM      2  C2  BNZ d   1       1.309  -0.473  -0.175  0.00  0.00     0.000 A 
ATOM      3  C3  BNZ d   1      -0.004  -0.572   0.191  0.00  0.00     0.000 A 
ATOM      4  C4  BNZ d   1      -0.494   0.260   1.133  0.00  0.00     0.000 A 
ATOM      5  C5  BNZ d   1       0.313   1.225   1.702  0.00  0.00     0.000 A 
ATOM      6  C6  BNZ d   1       1.624   1.347   1.302  0.00  0.00     0.000 A 
ENDROOT
TORSDOF 0
ENDMDL
