MODEL 1
REMARK minimizedAffinity -4.37726212
REMARK minimizedRMSD -1
REMARK  0 active torsions:
REMARK  status: ('A' for Active; 'I' for Inactive)
ROOT
ATOM      1  C1  BNZ d   1       0.304   1.117   0.593  0.00  0.00     0.000 A 
ATOM      2  C2  BNZ d   1       1.345   1.224  -0.291  0.00  0.00     0.000 A 
ATOM      3  C3  BNZ d   1       1.561   0.263  -1.238  0.00  0.00     0.000 A 
ATOM      4  C4  BNZ d   1       0.762  -0.823  -1.274  0.00  0.00     0.000 A 
ATOM      5  C5  BNZ d   1      -0.285  -0.951  -0.384  0.00  0.00     0.000 A 
ATOM      6  C6  BNZ d   1      -0.524   0.038   0.542  0.00  0.00     0.000 A 
ENDROOT
TORSDOF 0
ENDMDL
