MODEL 1
REMARK minimizedAffinity -4.74343109
REMARK minimizedRMSD -1
REMARK  0 active torsions:
REMARK  status: ('A' for Active; 'I' for Inactive)
ROOT
ATOM      1  C1  BNZ d   1       1.496   3.042  -2.053  0.00  0.00     0.000 A 
ATOM      2  C2  BNZ d   1       1.322   1.685  -1.980  0.00  0.00     0.000 A 
ATOM      3  C3  BNZ d   1       1.162   1.064  -0.773  0.00  0.00     0.000 A 
ATOM      4  C4  BNZ d   1       1.216   1.794   0.361  0.00  0.00     0.000 A 
ATOM      5  C5  BNZ d   1       1.400   3.161   0.304  0.00  0.00     0.000 A 
ATOM      6  C6  BNZ d   1       1.522   3.788  -0.915  0.00  0.00     0.000 A 
ENDROOT
TORSDOF 0
ENDMDL
