MODEL 1
REMARK minimizedAffinity -5.45408249
REMARK minimizedRMSD -1
REMARK  0 active torsions:
REMARK  status: ('A' for Active; 'I' for Inactive)
ROOT
ATOM      1  C1  BNZ d   1       1.403   3.006  -1.591  0.00  0.00     0.000 A 
ATOM      2  C2  BNZ d   1       1.264   1.663  -1.361  0.00  0.00     0.000 A 
ATOM      3  C3  BNZ d   1       0.923   1.197  -0.122  0.00  0.00     0.000 A 
ATOM      4  C4  BNZ d   1       0.762   2.069   0.894  0.00  0.00     0.000 A 
ATOM      5  C5  BNZ d   1       0.907   3.425   0.680  0.00  0.00     0.000 A 
ATOM      6  C6  BNZ d   1       1.212   3.894  -0.578  0.00  0.00     0.000 A 
ENDROOT
TORSDOF 0
ENDMDL
