MODEL 1
REMARK minimizedAffinity -4.07271671
REMARK minimizedRMSD -1
REMARK  0 active torsions:
REMARK  status: ('A' for Active; 'I' for Inactive)
ROOT
ATOM      1  C1  BNZ d   1       1.977   2.288   0.695  0.00  0.00     0.000 A 
ATOM      2  C2  BNZ d   1       1.484   1.059   1.042  0.00  0.00     0.000 A 
ATOM      3  C3  BNZ d   1       0.811   0.292   0.133  0.00  0.00     0.000 A 
ATOM      4  C4  BNZ d   1       0.598   0.772  -1.110  0.00  0.00     0.000 A 
ATOM      5  C5  BNZ d   1       1.081   2.013  -1.473  0.00  0.00     0.000 A 
ATOM      6  C6  BNZ d   1       1.791   2.765  -0.566  0.00  0.00     0.000 A 
ENDROOT
TORSDOF 0
ENDMDL
