MODEL 1
REMARK minimizedAffinity -4.39854145
REMARK minimizedRMSD -1
REMARK  0 active torsions:
REMARK  status: ('A' for Active; 'I' for Inactive)
ROOT
ATOM      1  C1  BNZ d   1       1.383  -0.474  -0.489  0.00  0.00     0.000 A 
ATOM      2  C2  BNZ d   1       1.119   0.468   0.470  0.00  0.00     0.000 A 
ATOM      3  C3  BNZ d   1       0.814   1.754   0.122  0.00  0.00     0.000 A 
ATOM      4  C4  BNZ d   1       0.813   2.106  -1.180  0.00  0.00     0.000 A 
ATOM      5  C5  BNZ d   1       1.087   1.170  -2.158  0.00  0.00     0.000 A 
ATOM      6  C6  BNZ d   1       1.355  -0.133  -1.806  0.00  0.00     0.000 A 
ENDROOT
TORSDOF 0
ENDMDL
