MODEL 1
REMARK minimizedAffinity -5.84086227
REMARK minimizedRMSD -1
REMARK  0 active torsions:
REMARK  status: ('A' for Active; 'I' for Inactive)
ROOT
ATOM      1  C1  BNZ d   1       1.370   3.564  -0.531  0.00  0.00     0.000 A 
ATOM      2  C2  BNZ d   1       1.223   2.986   0.701  0.00  0.00     0.000 A 
ATOM      3  C3  BNZ d   1       1.177   1.626   0.836  0.00  0.00     0.000 A 
ATOM      4  C4  BNZ d   1       1.236   0.849  -0.264  0.00  0.00     0.000 A 
ATOM      5  C5  BNZ d   1       1.374   1.416  -1.515  0.00  0.00     0.000 A 
ATOM      6  C6  BNZ d   1       1.460   2.784  -1.643  0.00  0.00     0.000 A 
ENDROOT
TORSDOF 0
ENDMDL
