MODEL 1
REMARK minimizedAffinity 0.411721915
REMARK minimizedRMSD -1
REMARK  0 active torsions:
REMARK  status: ('A' for Active; 'I' for Inactive)
ROOT
ATOM      1  C1  BNZ d   1       1.573  -0.410   0.809  0.00  0.00     0.000 A 
ATOM      2  C2  BNZ d   1       1.184  -0.469  -0.503  0.00  0.00     0.000 A 
ATOM      3  C3  BNZ d   1       0.595   0.605  -1.108  0.00  0.00     0.000 A 
ATOM      4  C4  BNZ d   1       0.358   1.723  -0.390  0.00  0.00     0.000 A 
ATOM      5  C5  BNZ d   1       0.735   1.795   0.936  0.00  0.00     0.000 A 
ATOM      6  C6  BNZ d   1       1.364   0.725   1.531  0.00  0.00     0.000 A 
ENDROOT
TORSDOF 0
ENDMDL
