MODEL 1
REMARK minimizedAffinity -2.64704871
REMARK minimizedRMSD -1
REMARK  0 active torsions:
REMARK  status: ('A' for Active; 'I' for Inactive)
ROOT
ATOM      1  C1  BNZ d   1       1.347   3.312  -1.616  0.00  0.00     0.000 A 
ATOM      2  C2  BNZ d   1       1.219   3.520  -0.268  0.00  0.00     0.000 A 
ATOM      3  C3  BNZ d   1       0.762   2.527   0.553  0.00  0.00     0.000 A 
ATOM      4  C4  BNZ d   1       0.397   1.342   0.021  0.00  0.00     0.000 A 
ATOM      5  C5  BNZ d   1       0.512   1.121  -1.337  0.00  0.00     0.000 A 
ATOM      6  C6  BNZ d   1       1.009   2.109  -2.155  0.00  0.00     0.000 A 
ENDROOT
TORSDOF 0
ENDMDL
