MODEL 1
REMARK minimizedAffinity -3.1913166
REMARK minimizedRMSD -1
REMARK  0 active torsions:
REMARK  status: ('A' for Active; 'I' for Inactive)
ROOT
ATOM      1  C1  BNZ d   1       1.551   1.935  -1.851  0.00  0.00     0.000 A 
ATOM      2  C2  BNZ d   1       1.872   0.644  -1.527  0.00  0.00     0.000 A 
ATOM      3  C3  BNZ d   1       1.609   0.150  -0.280  0.00  0.00     0.000 A 
ATOM      4  C4  BNZ d   1       1.063   0.957   0.652  0.00  0.00     0.000 A 
ATOM      5  C5  BNZ d   1       0.742   2.264   0.343  0.00  0.00     0.000 A 
ATOM      6  C6  BNZ d   1       0.972   2.747  -0.924  0.00  0.00     0.000 A 
ENDROOT
TORSDOF 0
ENDMDL
