MODEL 1
REMARK minimizedAffinity -1.65623605
REMARK minimizedRMSD -1
REMARK  0 active torsions:
REMARK  status: ('A' for Active; 'I' for Inactive)
ROOT
ATOM      1  C1  BNZ d   1       1.183   3.164  -0.117  0.00  0.00     0.000 A 
ATOM      2  C2  BNZ d   1       1.583   2.661  -1.326  0.00  0.00     0.000 A 
ATOM      3  C3  BNZ d   1       1.635   1.312  -1.540  0.00  0.00     0.000 A 
ATOM      4  C4  BNZ d   1       1.327   0.468  -0.534  0.00  0.00     0.000 A 
ATOM      5  C5  BNZ d   1       0.931   0.960   0.694  0.00  0.00     0.000 A 
ATOM      6  C6  BNZ d   1       0.842   2.318   0.894  0.00  0.00     0.000 A 
ENDROOT
TORSDOF 0
ENDMDL
