MODEL 1
REMARK minimizedAffinity -0.496800601
REMARK minimizedRMSD -1
REMARK  0 active torsions:
REMARK  status: ('A' for Active; 'I' for Inactive)
ROOT
ATOM      1  C1  BNZ d   1       0.385  -3.623  -0.021  0.00  0.00     0.000 A 
ATOM      2  C2  BNZ d   1       1.302  -2.609  -0.107  0.00  0.00     0.000 A 
ATOM      3  C3  BNZ d   1       1.365  -1.815  -1.218  0.00  0.00     0.000 A 
ATOM      4  C4  BNZ d   1       0.541  -2.062  -2.257  0.00  0.00     0.000 A 
ATOM      5  C5  BNZ d   1      -0.382  -3.086  -2.189  0.00  0.00     0.000 A 
ATOM      6  C6  BNZ d   1      -0.469  -3.858  -1.053  0.00  0.00     0.000 A 
ENDROOT
TORSDOF 0
ENDMDL
