MODEL 1
REMARK minimizedAffinity -3.73549724
REMARK minimizedRMSD -1
REMARK  0 active torsions:
REMARK  status: ('A' for Active; 'I' for Inactive)
ROOT
ATOM      1  C1  BNZ d   1       1.224  -0.268  -1.327  0.00  0.00     0.000 A 
ATOM      2  C2  BNZ d   1       1.448   0.724  -2.243  0.00  0.00     0.000 A 
ATOM      3  C3  BNZ d   1       1.514   2.033  -1.856  0.00  0.00     0.000 A 
ATOM      4  C4  BNZ d   1       1.317   2.352  -0.561  0.00  0.00     0.000 A 
ATOM      5  C5  BNZ d   1       1.080   1.364   0.374  0.00  0.00     0.000 A 
ATOM      6  C6  BNZ d   1       1.054   0.044  -0.013  0.00  0.00     0.000 A 
ENDROOT
TORSDOF 0
ENDMDL
