MODEL 1
REMARK minimizedAffinity -2.7831285
REMARK minimizedRMSD -1
REMARK  0 active torsions:
REMARK  status: ('A' for Active; 'I' for Inactive)
ROOT
ATOM      1  C1  BNZ d   1       1.629   2.997  -0.363  0.00  0.00     0.000 A 
ATOM      2  C2  BNZ d   1       1.279   2.000   0.508  0.00  0.00     0.000 A 
ATOM      3  C3  BNZ d   1       0.809   0.802   0.048  0.00  0.00     0.000 A 
ATOM      4  C4  BNZ d   1       0.653   0.616  -1.279  0.00  0.00     0.000 A 
ATOM      5  C5  BNZ d   1       0.993   1.614  -2.169  0.00  0.00     0.000 A 
ATOM      6  C6  BNZ d   1       1.502   2.805  -1.704  0.00  0.00     0.000 A 
ENDROOT
TORSDOF 0
ENDMDL
