MODEL 1
REMARK minimizedAffinity -1.95338297
REMARK minimizedRMSD -1
REMARK  0 active torsions:
REMARK  status: ('A' for Active; 'I' for Inactive)
ROOT
ATOM      1  C1  BNZ d   1       0.558   0.923  -1.459  0.00  0.00     0.000 A 
ATOM      2  C2  BNZ d   1       0.800   1.960  -2.322  0.00  0.00     0.000 A 
ATOM      3  C3  BNZ d   1       1.368   3.121  -1.878  0.00  0.00     0.000 A 
ATOM      4  C4  BNZ d   1       1.658   3.259  -0.568  0.00  0.00     0.000 A 
ATOM      5  C5  BNZ d   1       1.412   2.227   0.315  0.00  0.00     0.000 A 
ATOM      6  C6  BNZ d   1       0.875   1.045  -0.142  0.00  0.00     0.000 A 
ENDROOT
TORSDOF 0
ENDMDL
