MODEL 1
REMARK minimizedAffinity -1.82267928
REMARK minimizedRMSD -1
REMARK  0 active torsions:
REMARK  status: ('A' for Active; 'I' for Inactive)
ROOT
ATOM      1  C1  BNZ d   1       1.719   4.486  -0.574  0.00  0.00     0.000 A 
ATOM      2  C2  BNZ d   1       1.767   3.836  -1.778  0.00  0.00     0.000 A 
ATOM      3  C3  BNZ d   1       1.632   2.477  -1.846  0.00  0.00     0.000 A 
ATOM      4  C4  BNZ d   1       1.489   1.768  -0.708  0.00  0.00     0.000 A 
ATOM      5  C5  BNZ d   1       1.448   2.408   0.515  0.00  0.00     0.000 A 
ATOM      6  C6  BNZ d   1       1.545   3.779   0.576  0.00  0.00     0.000 A 
ENDROOT
TORSDOF 0
ENDMDL
