MODEL 1
REMARK minimizedAffinity -5.0036087
REMARK minimizedRMSD -1
REMARK  0 active torsions:
REMARK  status: ('A' for Active; 'I' for Inactive)
ROOT
ATOM      1  C1  BNZ d   1       1.083   0.675  -0.586  0.00  0.00     0.000 A 
ATOM      2  C2  BNZ d   1       0.768   0.967   0.715  0.00  0.00     0.000 A 
ATOM      3  C3  BNZ d   1       0.721   2.262   1.150  0.00  0.00     0.000 A 
ATOM      4  C4  BNZ d   1       1.026   3.260   0.296  0.00  0.00     0.000 A 
ATOM      5  C5  BNZ d   1       1.354   2.981  -1.016  0.00  0.00     0.000 A 
ATOM      6  C6  BNZ d   1       1.363   1.679  -1.461  0.00  0.00     0.000 A 
ENDROOT
TORSDOF 0
ENDMDL
