MODEL 1
REMARK minimizedAffinity -2.14493561
REMARK minimizedRMSD -1
REMARK  0 active torsions:
REMARK  status: ('A' for Active; 'I' for Inactive)
ROOT
ATOM      1  C1  BNZ d   1       1.920   2.318   0.392  0.00  0.00     0.000 A 
ATOM      2  C2  BNZ d   1       1.949   2.409  -0.975  0.00  0.00     0.000 A 
ATOM      3  C3  BNZ d   1       1.484   1.386  -1.754  0.00  0.00     0.000 A 
ATOM      4  C4  BNZ d   1       1.030   0.260  -1.167  0.00  0.00     0.000 A 
ATOM      5  C5  BNZ d   1       1.003   0.150   0.209  0.00  0.00     0.000 A 
ATOM      6  C6  BNZ d   1       1.435   1.196   0.990  0.00  0.00     0.000 A 
ENDROOT
TORSDOF 0
ENDMDL
