MODEL 1
REMARK minimizedAffinity -3.20949078
REMARK minimizedRMSD -1
REMARK  0 active torsions:
REMARK  status: ('A' for Active; 'I' for Inactive)
ROOT
ATOM      1  C1  BNZ d   1       1.540   3.273  -2.027  0.00  0.00     0.000 A 
ATOM      2  C2  BNZ d   1       1.283   1.933  -2.150  0.00  0.00     0.000 A 
ATOM      3  C3  BNZ d   1       0.961   1.178  -1.057  0.00  0.00     0.000 A 
ATOM      4  C4  BNZ d   1       0.935   1.754   0.162  0.00  0.00     0.000 A 
ATOM      5  C5  BNZ d   1       1.200   3.102   0.304  0.00  0.00     0.000 A 
ATOM      6  C6  BNZ d   1       1.486   3.867  -0.803  0.00  0.00     0.000 A 
ENDROOT
TORSDOF 0
ENDMDL
