MODEL 1
REMARK minimizedAffinity -4.85063648
REMARK minimizedRMSD -1
REMARK  0 active torsions:
REMARK  status: ('A' for Active; 'I' for Inactive)
ROOT
ATOM      1  C1  BNZ d   1       1.444   1.840  -1.916  0.00  0.00     0.000 A 
ATOM      2  C2  BNZ d   1       0.852   2.613  -0.953  0.00  0.00     0.000 A 
ATOM      3  C3  BNZ d   1       0.600   2.109   0.292  0.00  0.00     0.000 A 
ATOM      4  C4  BNZ d   1       0.902   0.822   0.560  0.00  0.00     0.000 A 
ATOM      5  C5  BNZ d   1       1.490   0.027  -0.403  0.00  0.00     0.000 A 
ATOM      6  C6  BNZ d   1       1.779   0.550  -1.643  0.00  0.00     0.000 A 
ENDROOT
TORSDOF 0
ENDMDL
