MODEL 1
REMARK minimizedAffinity -0.691936672
REMARK minimizedRMSD -1
REMARK  0 active torsions:
REMARK  status: ('A' for Active; 'I' for Inactive)
ROOT
ATOM      1  N1  IND d   1       1.760  -0.204   1.419  0.00  0.00    -0.196 N 
ATOM      2  C2  IND d   1       1.981   0.831   0.554  0.00  0.00     0.054 A 
ATOM      3  C3  IND d   1       0.861   1.101  -0.152  0.00  0.00    -0.031 A 
ATOM      4  C4  IND d   1      -1.478   0.040   0.020  0.00  0.00     0.051 A 
ATOM      5  C5  IND d   1      -2.160  -0.969   0.642  0.00  0.00    -0.031 A 
ATOM      6  C6  IND d   1      -1.559  -1.788   1.575  0.00  0.00     0.015 A 
ATOM      7  C7  IND d   1      -0.250  -1.622   1.931  0.00  0.00    -0.016 A 
ATOM      8  C8  IND d   1       0.447  -0.604   1.297  0.00  0.00    -0.047 A 
ATOM      9  C9  IND d   1      -0.146   0.204   0.318  0.00  0.00    -0.096 A 
ATOM     10  HN1 IND d   1       2.342  -0.548   1.950  0.00  0.00     0.298 HD
ENDROOT
TORSDOF 0
ENDMDL
