MODEL 1
REMARK minimizedAffinity -2.04699087
REMARK minimizedRMSD -1
REMARK  0 active torsions:
REMARK  status: ('A' for Active; 'I' for Inactive)
ROOT
ATOM      1  N1  IND d   1       0.188  -0.148   1.016  0.00  0.00    -0.196 N 
ATOM      2  C2  IND d   1       1.050   0.400   0.108  0.00  0.00     0.054 A 
ATOM      3  C3  IND d   1       0.557   0.272  -1.144  0.00  0.00    -0.031 A 
ATOM      4  C4  IND d   1      -1.690  -0.712  -1.926  0.00  0.00     0.051 A 
ATOM      5  C5  IND d   1      -2.797  -1.367  -1.465  0.00  0.00    -0.031 A 
ATOM      6  C6  IND d   1      -2.971  -1.653  -0.126  0.00  0.00     0.015 A 
ATOM      7  C7  IND d   1      -2.045  -1.283   0.807  0.00  0.00    -0.016 A 
ATOM      8  C8  IND d   1      -0.916  -0.623   0.342  0.00  0.00    -0.047 A 
ATOM      9  C9  IND d   1      -0.714  -0.368  -1.020  0.00  0.00    -0.096 A 
ATOM     10  HN1 IND d   1       0.314  -0.190   1.866  0.00  0.00     0.298 HD
ENDROOT
TORSDOF 0
ENDMDL
