MODEL 1
REMARK minimizedAffinity -0.252976239
REMARK minimizedRMSD -1
REMARK  0 active torsions:
REMARK  status: ('A' for Active; 'I' for Inactive)
ROOT
ATOM      1  N1  IND d   1      -0.538  -1.862   2.236  0.00  0.00    -0.196 N 
ATOM      2  C2  IND d   1      -1.886  -1.644   2.158  0.00  0.00     0.054 A 
ATOM      3  C3  IND d   1      -2.162  -0.750   1.183  0.00  0.00    -0.031 A 
ATOM      4  C4  IND d   1      -0.569   0.406  -0.475  0.00  0.00     0.051 A 
ATOM      5  C5  IND d   1       0.758   0.552  -0.772  0.00  0.00    -0.031 A 
ATOM      6  C6  IND d   1       1.739  -0.116  -0.068  0.00  0.00     0.015 A 
ATOM      7  C7  IND d   1       1.429  -0.966   0.955  0.00  0.00    -0.016 A 
ATOM      8  C8  IND d   1       0.084  -1.111   1.263  0.00  0.00    -0.047 A 
ATOM      9  C9  IND d   1      -0.914  -0.403   0.581  0.00  0.00    -0.096 A 
ATOM     10  HN1 IND d   1      -0.146  -2.381   2.798  0.00  0.00     0.298 HD
ENDROOT
TORSDOF 0
ENDMDL
