MODEL 1
REMARK minimizedAffinity -4.66099024
REMARK minimizedRMSD -1
REMARK  0 active torsions:
REMARK  status: ('A' for Active; 'I' for Inactive)
ROOT
ATOM      1  N1  IND d   1       0.503  -0.749   0.888  0.00  0.00    -0.196 N 
ATOM      2  C2  IND d   1       1.485  -0.265   0.069  0.00  0.00     0.054 A 
ATOM      3  C3  IND d   1       0.961   0.123  -1.115  0.00  0.00    -0.031 A 
ATOM      4  C4  IND d   1      -1.494   0.148  -1.887  0.00  0.00     0.051 A 
ATOM      5  C5  IND d   1      -2.749  -0.231  -1.501  0.00  0.00    -0.031 A 
ATOM      6  C6  IND d   1      -2.989  -0.812  -0.272  0.00  0.00     0.015 A 
ATOM      7  C7  IND d   1      -1.980  -1.026   0.624  0.00  0.00    -0.016 A 
ATOM      8  C8  IND d   1      -0.704  -0.648   0.232  0.00  0.00    -0.047 A 
ATOM      9  C9  IND d   1      -0.448  -0.097  -1.030  0.00  0.00    -0.096 A 
ATOM     10  HN1 IND d   1       0.620  -1.064   1.680  0.00  0.00     0.298 HD
ENDROOT
TORSDOF 0
ENDMDL
