MODEL 1
REMARK minimizedAffinity -4.26210546
REMARK minimizedRMSD -1
REMARK  0 active torsions:
REMARK  status: ('A' for Active; 'I' for Inactive)
ROOT
ATOM      1  N1  IND d   1      -2.343  -1.325   0.360  0.00  0.00    -0.196 N 
ATOM      2  C2  IND d   1      -3.089  -1.043  -0.750  0.00  0.00     0.054 A 
ATOM      3  C3  IND d   1      -2.379  -0.284  -1.614  0.00  0.00    -0.031 A 
ATOM      4  C4  IND d   1       0.060   0.525  -1.456  0.00  0.00     0.051 A 
ATOM      5  C5  IND d   1       1.135   0.549  -0.612  0.00  0.00    -0.031 A 
ATOM      6  C6  IND d   1       1.105  -0.066   0.623  0.00  0.00     0.015 A 
ATOM      7  C7  IND d   1      -0.001  -0.739   1.057  0.00  0.00    -0.016 A 
ATOM      8  C8  IND d   1      -1.097  -0.759   0.206  0.00  0.00    -0.047 A 
ATOM      9  C9  IND d   1      -1.087  -0.102  -1.031  0.00  0.00    -0.096 A 
ATOM     10  HN1 IND d   1      -2.608  -1.779   1.041  0.00  0.00     0.298 HD
ENDROOT
TORSDOF 0
ENDMDL
