MODEL 1
REMARK minimizedAffinity -4.70833778
REMARK minimizedRMSD -1
REMARK  0 active torsions:
REMARK  status: ('A' for Active; 'I' for Inactive)
ROOT
ATOM      1  N1  IND d   1       0.143  -0.013  -1.036  0.00  0.00    -0.196 N 
ATOM      2  C2  IND d   1       0.328   0.713   0.107  0.00  0.00     0.054 A 
ATOM      3  C3  IND d   1      -0.824   0.783   0.811  0.00  0.00    -0.031 A 
ATOM      4  C4  IND d   1      -3.107  -0.304   0.325  0.00  0.00     0.051 A 
ATOM      5  C5  IND d   1      -3.774  -1.031  -0.621  0.00  0.00    -0.031 A 
ATOM      6  C6  IND d   1      -3.156  -1.467  -1.776  0.00  0.00     0.015 A 
ATOM      7  C7  IND d   1      -1.839  -1.200  -2.023  0.00  0.00    -0.016 A 
ATOM      8  C8  IND d   1      -1.161  -0.457  -1.068  0.00  0.00    -0.047 A 
ATOM      9  C9  IND d   1      -1.793   0.025   0.085  0.00  0.00    -0.096 A 
ATOM     10  HN1 IND d   1       0.741  -0.167  -1.635  0.00  0.00     0.298 HD
ENDROOT
TORSDOF 0
ENDMDL
