MODEL 1
REMARK minimizedAffinity 1.83365405
REMARK minimizedRMSD -1
REMARK  0 active torsions:
REMARK  status: ('A' for Active; 'I' for Inactive)
ROOT
ATOM      1  N1  IND d   1       1.023   0.296   1.609  0.00  0.00    -0.196 N 
ATOM      2  C2  IND d   1       0.825  -0.302   0.396  0.00  0.00     0.054 A 
ATOM      3  C3  IND d   1       1.405   0.425  -0.586  0.00  0.00    -0.031 A 
ATOM      4  C4  IND d   1       2.814   2.573  -0.417  0.00  0.00     0.051 A 
ATOM      5  C5  IND d   1       3.239   3.514   0.477  0.00  0.00    -0.031 A 
ATOM      6  C6  IND d   1       2.944   3.428   1.823  0.00  0.00     0.015 A 
ATOM      7  C7  IND d   1       2.218   2.386   2.327  0.00  0.00    -0.016 A 
ATOM      8  C8  IND d   1       1.779   1.432   1.421  0.00  0.00    -0.047 A 
ATOM      9  C9  IND d   1       2.039   1.536   0.048  0.00  0.00    -0.096 A 
ATOM     10  HN1 IND d   1       0.724   0.010   2.363  0.00  0.00     0.298 HD
ENDROOT
TORSDOF 0
ENDMDL
