MODEL 1
REMARK minimizedAffinity -5.23243761
REMARK minimizedRMSD -1
REMARK  0 active torsions:
REMARK  status: ('A' for Active; 'I' for Inactive)
ROOT
ATOM      1  N1  IND d   1      -0.363  -1.835   1.300  0.00  0.00    -0.196 N 
ATOM      2  C2  IND d   1      -1.262  -2.784   1.701  0.00  0.00     0.054 A 
ATOM      3  C3  IND d   1      -2.460  -2.577   1.110  0.00  0.00    -0.031 A 
ATOM      4  C4  IND d   1      -3.143  -0.804  -0.627  0.00  0.00     0.051 A 
ATOM      5  C5  IND d   1      -2.676   0.304  -1.276  0.00  0.00    -0.031 A 
ATOM      6  C6  IND d   1      -1.386   0.763  -1.098  0.00  0.00     0.015 A 
ATOM      7  C7  IND d   1      -0.510   0.122  -0.270  0.00  0.00    -0.016 A 
ATOM      8  C8  IND d   1      -0.983  -0.999   0.397  0.00  0.00    -0.047 A 
ATOM      9  C9  IND d   1      -2.303  -1.445   0.253  0.00  0.00    -0.096 A 
ATOM     10  HN1 IND d   1       0.451  -1.770   1.567  0.00  0.00     0.298 HD
ENDROOT
TORSDOF 0
ENDMDL
