MODEL 1
REMARK minimizedAffinity -4.49036646
REMARK minimizedRMSD -1
REMARK  0 active torsions:
REMARK  status: ('A' for Active; 'I' for Inactive)
ROOT
ATOM      1  N1  IND d   1      -1.475  -1.663   1.620  0.00  0.00    -0.196 N 
ATOM      2  C2  IND d   1      -2.654  -2.229   1.224  0.00  0.00     0.054 A 
ATOM      3  C3  IND d   1      -3.027  -1.744   0.018  0.00  0.00    -0.031 A 
ATOM      4  C4  IND d   1      -1.802  -0.092  -1.529  0.00  0.00     0.051 A 
ATOM      5  C5  IND d   1      -0.707   0.724  -1.583  0.00  0.00    -0.031 A 
ATOM      6  C6  IND d   1       0.209   0.785  -0.553  0.00  0.00     0.015 A 
ATOM      7  C7  IND d   1       0.068   0.020   0.571  0.00  0.00    -0.016 A 
ATOM      8  C8  IND d   1      -1.047  -0.804   0.632  0.00  0.00    -0.047 A 
ATOM      9  C9  IND d   1      -2.002  -0.838  -0.392  0.00  0.00    -0.096 A 
ATOM     10  HN1 IND d   1      -1.068  -1.818   2.362  0.00  0.00     0.298 HD
ENDROOT
TORSDOF 0
ENDMDL
