MODEL 1
REMARK minimizedAffinity -3.48759818
REMARK minimizedRMSD -1
REMARK  0 active torsions:
REMARK  status: ('A' for Active; 'I' for Inactive)
ROOT
ATOM      1  N1  IND d   1       2.226   0.893   1.895  0.00  0.00    -0.196 N 
ATOM      2  C2  IND d   1       2.918   1.986   1.451  0.00  0.00     0.054 A 
ATOM      3  C3  IND d   1       2.504   2.332   0.211  0.00  0.00    -0.031 A 
ATOM      4  C4  IND d   1       0.637   1.309  -1.235  0.00  0.00     0.051 A 
ATOM      5  C5  IND d   1      -0.252   0.271  -1.271  0.00  0.00    -0.031 A 
ATOM      6  C6  IND d   1      -0.364  -0.629  -0.231  0.00  0.00     0.015 A 
ATOM      7  C7  IND d   1       0.404  -0.517   0.894  0.00  0.00    -0.016 A 
ATOM      8  C8  IND d   1       1.312   0.531   0.930  0.00  0.00    -0.047 A 
ATOM      9  C9  IND d   1       1.460   1.422  -0.140  0.00  0.00    -0.096 A 
ATOM     10  HN1 IND d   1       2.342   0.499   2.650  0.00  0.00     0.298 HD
ENDROOT
TORSDOF 0
ENDMDL
