MODEL 1
REMARK minimizedAffinity -2.4640739
REMARK minimizedRMSD -1
REMARK  0 active torsions:
REMARK  status: ('A' for Active; 'I' for Inactive)
ROOT
ATOM      1  N1  IND d   1       0.436   0.161  -1.597  0.00  0.00    -0.196 N 
ATOM      2  C2  IND d   1       1.513   0.172  -0.755  0.00  0.00     0.054 A 
ATOM      3  C3  IND d   1       1.127  -0.123   0.507  0.00  0.00    -0.031 A 
ATOM      4  C4  IND d   1      -1.203  -0.759   1.397  0.00  0.00     0.051 A 
ATOM      5  C5  IND d   1      -2.510  -0.868   1.013  0.00  0.00    -0.031 A 
ATOM      6  C6  IND d   1      -2.910  -0.638  -0.287  0.00  0.00     0.015 A 
ATOM      7  C7  IND d   1      -2.011  -0.300  -1.259  0.00  0.00    -0.016 A 
ATOM      8  C8  IND d   1      -0.684  -0.181  -0.871  0.00  0.00    -0.047 A 
ATOM      9  C9  IND d   1      -0.279  -0.371   0.456  0.00  0.00    -0.096 A 
ATOM     10  HN1 IND d   1       0.455   0.338  -2.438  0.00  0.00     0.298 HD
ENDROOT
TORSDOF 0
ENDMDL
