MODEL 1
REMARK minimizedAffinity -3.7859087
REMARK minimizedRMSD -1
REMARK  0 active torsions:
REMARK  status: ('A' for Active; 'I' for Inactive)
ROOT
ATOM      1  N1  IND d   1       0.008   0.083   1.151  0.00  0.00    -0.196 N 
ATOM      2  C2  IND d   1       1.184   0.566   0.649  0.00  0.00     0.054 A 
ATOM      3  C3  IND d   1       1.099   0.708  -0.693  0.00  0.00    -0.031 A 
ATOM      4  C4  IND d   1      -0.906   0.306  -2.257  0.00  0.00     0.051 A 
ATOM      5  C5  IND d   1      -2.186  -0.172  -2.266  0.00  0.00    -0.031 A 
ATOM      6  C6  IND d   1      -2.814  -0.596  -1.112  0.00  0.00     0.015 A 
ATOM      7  C7  IND d   1      -2.186  -0.546   0.100  0.00  0.00    -0.016 A 
ATOM      8  C8  IND d   1      -0.884  -0.068   0.112  0.00  0.00    -0.047 A 
ATOM      9  C9  IND d   1      -0.226   0.323  -1.062  0.00  0.00    -0.096 A 
ATOM     10  HN1 IND d   1      -0.149  -0.097   1.977  0.00  0.00     0.298 HD
ENDROOT
TORSDOF 0
ENDMDL
