MODEL 1
REMARK minimizedAffinity -3.9118247
REMARK minimizedRMSD -1
REMARK  0 active torsions:
REMARK  status: ('A' for Active; 'I' for Inactive)
ROOT
ATOM      1  N1  IND d   1       0.891   0.364  -1.021  0.00  0.00    -0.196 N 
ATOM      2  C2  IND d   1       1.620  -0.022   0.069  0.00  0.00     0.054 A 
ATOM      3  C3  IND d   1       0.801  -0.473   1.046  0.00  0.00    -0.031 A 
ATOM      4  C4  IND d   1      -1.757  -0.762   1.033  0.00  0.00     0.051 A 
ATOM      5  C5  IND d   1      -2.865  -0.512   0.274  0.00  0.00    -0.031 A 
ATOM      6  C6  IND d   1      -2.776   0.051  -0.983  0.00  0.00     0.015 A 
ATOM      7  C7  IND d   1      -1.569   0.377  -1.534  0.00  0.00    -0.016 A 
ATOM      8  C8  IND d   1      -0.442   0.131  -0.763  0.00  0.00    -0.047 A 
ATOM      9  C9  IND d   1      -0.529  -0.401   0.530  0.00  0.00    -0.096 A 
ATOM     10  HN1 IND d   1       1.211   0.696  -1.747  0.00  0.00     0.298 HD
ENDROOT
TORSDOF 0
ENDMDL
