MODEL 1
REMARK minimizedAffinity -4.00782156
REMARK minimizedRMSD -1
REMARK  0 active torsions:
REMARK  status: ('A' for Active; 'I' for Inactive)
ROOT
ATOM      1  N1  IND d   1       1.695  -0.953   1.032  0.00  0.00    -0.196 N 
ATOM      2  C2  IND d   1       2.174  -0.092   0.085  0.00  0.00     0.054 A 
ATOM      3  C3  IND d   1       1.156   0.579  -0.498  0.00  0.00    -0.031 A 
ATOM      4  C4  IND d   1      -1.365   0.496   0.016  0.00  0.00     0.051 A 
ATOM      5  C5  IND d   1      -2.288  -0.168   0.775  0.00  0.00    -0.031 A 
ATOM      6  C6  IND d   1      -1.923  -1.145   1.679  0.00  0.00     0.015 A 
ATOM      7  C7  IND d   1      -0.614  -1.488   1.866  0.00  0.00    -0.016 A 
ATOM      8  C8  IND d   1       0.325  -0.822   1.092  0.00  0.00    -0.047 A 
ATOM      9  C9  IND d   1      -0.043   0.141   0.143  0.00  0.00    -0.096 A 
ATOM     10  HN1 IND d   1       2.170  -1.488   1.510  0.00  0.00     0.298 HD
ENDROOT
TORSDOF 0
ENDMDL
