MODEL 1
REMARK minimizedAffinity 9.3904686
REMARK minimizedRMSD -1
REMARK  0 active torsions:
REMARK  status: ('A' for Active; 'I' for Inactive)
ROOT
ATOM      1  C   UNL d   1      -2.034   0.195   2.237  0.00  0.00     0.020 A 
ATOM      2  C1  UNL d   1      -1.712   0.047   3.585  0.00  0.00     0.020 A 
ATOM      3  C2  UNL d   1      -0.496  -0.532   3.953  0.00  0.00     0.034 A 
ATOM      4  C3  UNL d   1       0.403  -0.966   2.972  0.00  0.00     0.017 A 
ATOM      5  C4  UNL d   1       0.078  -0.818   1.618  0.00  0.00     0.017 A 
ATOM      6  C5  UNL d   1      -1.141  -0.237   1.255  0.00  0.00     0.034 A 
ATOM      7 Cl   UNL d   1       1.136  -1.329   0.351  0.00  0.00    -0.070 Cl
ATOM      8 Cl1  UNL d   1       1.889  -1.673   3.499  0.00  0.00    -0.070 Cl
ENDROOT
TORSDOF 0
ENDMDL
