MODEL 1
REMARK minimizedAffinity 9.07131481
REMARK minimizedRMSD -1
REMARK  0 active torsions:
REMARK  status: ('A' for Active; 'I' for Inactive)
ROOT
ATOM      1  C   UNL d   1      -4.343  -0.940  -5.846  0.00  0.00     0.020 A 
ATOM      2  C1  UNL d   1      -3.128  -0.895  -5.164  0.00  0.00     0.020 A 
ATOM      3  C2  UNL d   1      -2.782   0.240  -4.428  0.00  0.00     0.034 A 
ATOM      4  C3  UNL d   1      -3.653   1.334  -4.371  0.00  0.00     0.017 A 
ATOM      5  C4  UNL d   1      -4.873   1.288  -5.056  0.00  0.00     0.017 A 
ATOM      6  C5  UNL d   1      -5.214   0.149  -5.792  0.00  0.00     0.034 A 
ATOM      7 Cl   UNL d   1      -5.999   2.599  -5.033  0.00  0.00    -0.070 Cl
ATOM      8 Cl1  UNL d   1      -3.162   2.705  -3.441  0.00  0.00    -0.070 Cl
ENDROOT
TORSDOF 0
ENDMDL
