MODEL 1
REMARK minimizedAffinity 3.99972129
REMARK minimizedRMSD -1
REMARK  0 active torsions:
REMARK  status: ('A' for Active; 'I' for Inactive)
ROOT
ATOM      1  C   UNL d   1      -3.728  -1.713  -2.575  0.00  0.00     0.020 A 
ATOM      2  C1  UNL d   1      -4.711  -1.996  -3.522  0.00  0.00     0.020 A 
ATOM      3  C2  UNL d   1      -5.163  -0.992  -4.381  0.00  0.00     0.034 A 
ATOM      4  C3  UNL d   1      -4.631   0.300  -4.295  0.00  0.00     0.017 A 
ATOM      5  C4  UNL d   1      -3.644   0.583  -3.344  0.00  0.00     0.017 A 
ATOM      6  C5  UNL d   1      -3.196  -0.426  -2.486  0.00  0.00     0.034 A 
ATOM      7 Cl   UNL d   1      -2.940   2.153  -3.177  0.00  0.00    -0.070 Cl
ATOM      8 Cl1  UNL d   1      -5.236   1.493  -5.389  0.00  0.00    -0.070 Cl
ENDROOT
TORSDOF 0
ENDMDL
