MODEL 1
REMARK minimizedAffinity 10.2591047
REMARK minimizedRMSD -1
REMARK  0 active torsions:
REMARK  status: ('A' for Active; 'I' for Inactive)
ROOT
ATOM      1  C   UNL d   1       6.000   0.152   1.507  0.00  0.00     0.020 A 
ATOM      2  C1  UNL d   1       5.796  -1.157   1.072  0.00  0.00     0.020 A 
ATOM      3  C2  UNL d   1       4.609  -1.500   0.421  0.00  0.00     0.034 A 
ATOM      4  C3  UNL d   1       3.621  -0.533   0.204  0.00  0.00     0.017 A 
ATOM      5  C4  UNL d   1       3.827   0.781   0.640  0.00  0.00     0.017 A 
ATOM      6  C5  UNL d   1       5.017   1.119   1.291  0.00  0.00     0.034 A 
ATOM      7 Cl   UNL d   1       2.654   2.029   0.408  0.00  0.00    -0.070 Cl
ATOM      8 Cl1  UNL d   1       2.178  -1.027  -0.608  0.00  0.00    -0.070 Cl
ENDROOT
TORSDOF 0
ENDMDL
