MODEL 1
REMARK minimizedAffinity 7.59907055
REMARK minimizedRMSD -1
REMARK  0 active torsions:
REMARK  status: ('A' for Active; 'I' for Inactive)
ROOT
ATOM      1  C   UNL d   1      -4.594   1.317   4.106  0.00  0.00     0.020 A 
ATOM      2  C1  UNL d   1      -5.471   1.462   3.031  0.00  0.00     0.020 A 
ATOM      3  C2  UNL d   1      -5.158   0.897   1.793  0.00  0.00     0.034 A 
ATOM      4  C3  UNL d   1      -3.965   0.185   1.626  0.00  0.00     0.017 A 
ATOM      5  C4  UNL d   1      -3.085   0.040   2.705  0.00  0.00     0.017 A 
ATOM      6  C5  UNL d   1      -3.404   0.607   3.943  0.00  0.00     0.034 A 
ATOM      7 Cl   UNL d   1      -1.595  -0.825   2.576  0.00  0.00    -0.070 Cl
ATOM      8 Cl1  UNL d   1      -3.642  -0.487   0.067  0.00  0.00    -0.070 Cl
ENDROOT
TORSDOF 0
ENDMDL
