MODEL 1
REMARK minimizedAffinity -2.97461343
REMARK minimizedRMSD -1
REMARK  0 active torsions:
REMARK  status: ('A' for Active; 'I' for Inactive)
ROOT
ATOM      1  C   UNL d   1      -0.124   0.864  -0.953  0.00  0.00     0.020 A 
ATOM      2  C1  UNL d   1       0.955   0.258  -0.310  0.00  0.00     0.020 A 
ATOM      3  C2  UNL d   1       0.751  -0.455   0.873  0.00  0.00     0.034 A 
ATOM      4  C3  UNL d   1      -0.534  -0.564   1.417  0.00  0.00     0.017 A 
ATOM      5  C4  UNL d   1      -1.616   0.045   0.770  0.00  0.00     0.017 A 
ATOM      6  C5  UNL d   1      -1.406   0.758  -0.414  0.00  0.00     0.034 A 
ATOM      7 Cl   UNL d   1      -3.231  -0.046   1.380  0.00  0.00    -0.070 Cl
ATOM      8 Cl1  UNL d   1      -0.714  -1.461   2.882  0.00  0.00    -0.070 Cl
ENDROOT
TORSDOF 0
ENDMDL
