MODEL 1
REMARK minimizedAffinity 3.78028274
REMARK minimizedRMSD -1
REMARK  1 active torsions:
REMARK  status: ('A' for Active; 'I' for Inactive)
REMARK    1  A    between atoms: C3_4  and  O_7 
ROOT
ATOM      1  C   UNL d   1       0.983   2.515  -3.138  0.00  0.00    -0.033 A 
ATOM      2  C1  UNL d   1       1.374   1.175  -3.152  0.00  0.00     0.039 A 
ATOM      3  C2  UNL d   1       0.430   0.173  -3.388  0.00  0.00    -0.080 A 
ATOM      4  C3  UNL d   1      -0.898   0.525  -3.608  0.00  0.00     0.150 A 
ATOM      5  C4  UNL d   1      -1.294   1.858  -3.599  0.00  0.00    -0.007 A 
ATOM      6  C5  UNL d   1      -0.351   2.857  -3.362  0.00  0.00     0.039 A 
ENDROOT
BRANCH   4   7
ATOM      7  O   UNL d   1      -1.856  -0.418  -3.837  0.00  0.00    -0.526 OA
ATOM      8  H5  UNL d   1      -1.442  -1.296  -3.786  0.00  0.00     0.418 HD
ENDBRANCH   4   7
TORSDOF 1
ENDMDL
