MODEL 1
REMARK minimizedAffinity 8.25965881
REMARK minimizedRMSD -1
REMARK  1 active torsions:
REMARK  status: ('A' for Active; 'I' for Inactive)
REMARK    1  A    between atoms: C3_4  and  O_7 
ROOT
ATOM      1  C   UNL d   1      -0.405   1.508  -1.512  0.00  0.00    -0.033 A 
ATOM      2  C1  UNL d   1      -0.295   2.517  -2.470  0.00  0.00     0.039 A 
ATOM      3  C2  UNL d   1      -1.269   2.650  -3.462  0.00  0.00    -0.080 A 
ATOM      4  C3  UNL d   1      -2.347   1.769  -3.483  0.00  0.00     0.150 A 
ATOM      5  C4  UNL d   1      -2.464   0.764  -2.529  0.00  0.00    -0.007 A 
ATOM      6  C5  UNL d   1      -1.490   0.632  -1.541  0.00  0.00     0.039 A 
ENDROOT
BRANCH   4   7
ATOM      7  O   UNL d   1      -3.319   1.857  -4.434  0.00  0.00    -0.526 OA
ATOM      8  H5  UNL d   1      -3.091   2.579  -5.042  0.00  0.00     0.418 HD
ENDBRANCH   4   7
TORSDOF 1
ENDMDL
