MODEL 1
REMARK minimizedAffinity -0.188321412
REMARK minimizedRMSD -1
REMARK  1 active torsions:
REMARK  status: ('A' for Active; 'I' for Inactive)
REMARK    1  A    between atoms: C3_4  and  O_7 
ROOT
ATOM      1  C   UNL d   1      -4.569  -0.835   0.106  0.00  0.00    -0.033 A 
ATOM      2  C1  UNL d   1      -3.341  -1.074  -0.513  0.00  0.00     0.039 A 
ATOM      3  C2  UNL d   1      -2.284  -0.179  -0.339  0.00  0.00    -0.080 A 
ATOM      4  C3  UNL d   1      -2.467   0.949   0.457  0.00  0.00     0.150 A 
ATOM      5  C4  UNL d   1      -3.687   1.191   1.080  0.00  0.00    -0.007 A 
ATOM      6  C5  UNL d   1      -4.742   0.297   0.903  0.00  0.00     0.039 A 
ENDROOT
BRANCH   4   7
ATOM      7  O   UNL d   1      -1.466   1.853   0.653  0.00  0.00    -0.526 OA
ATOM      8  H5  UNL d   1      -0.691   1.571   0.138  0.00  0.00     0.418 HD
ENDBRANCH   4   7
TORSDOF 1
ENDMDL
