MODEL 1
REMARK minimizedAffinity -3.70301318
REMARK minimizedRMSD -1
REMARK  1 active torsions:
REMARK  status: ('A' for Active; 'I' for Inactive)
REMARK    1  A    between atoms: C3_4  and  O_7 
ROOT
ATOM      1  C   UNL d   1       3.660   1.166   1.129  0.00  0.00    -0.033 A 
ATOM      2  C1  UNL d   1       2.310   1.151   0.773  0.00  0.00     0.039 A 
ATOM      3  C2  UNL d   1       1.491   0.095   1.177  0.00  0.00    -0.080 A 
ATOM      4  C3  UNL d   1       2.033  -0.938   1.937  0.00  0.00     0.150 A 
ATOM      5  C4  UNL d   1       3.376  -0.928   2.299  0.00  0.00    -0.007 A 
ATOM      6  C5  UNL d   1       4.193   0.127   1.893  0.00  0.00     0.039 A 
ENDROOT
BRANCH   4   7
ATOM      7  O   UNL d   1       1.274  -1.992   2.351  0.00  0.00    -0.526 OA
ATOM      8  H5  UNL d   1       0.374  -1.879   2.003  0.00  0.00     0.418 HD
ENDBRANCH   4   7
TORSDOF 1
ENDMDL
