MODEL 1
REMARK minimizedAffinity 1.38633871
REMARK minimizedRMSD -1
REMARK  1 active torsions:
REMARK  status: ('A' for Active; 'I' for Inactive)
REMARK    1  A    between atoms: C3_4  and  O_7 
ROOT
ATOM      1  C   UNL d   1       1.202  -5.998   2.011  0.00  0.00    -0.033 A 
ATOM      2  C1  UNL d   1       0.214  -5.998   2.997  0.00  0.00     0.039 A 
ATOM      3  C2  UNL d   1      -1.134  -5.997   2.637  0.00  0.00    -0.080 A 
ATOM      4  C3  UNL d   1      -1.482  -5.995   1.289  0.00  0.00     0.150 A 
ATOM      5  C4  UNL d   1      -0.503  -5.999   0.301  0.00  0.00    -0.007 A 
ATOM      6  C5  UNL d   1       0.844  -6.000   0.663  0.00  0.00     0.039 A 
ENDROOT
BRANCH   4   7
ATOM      7  O   UNL d   1      -2.785  -5.989   0.889  0.00  0.00    -0.526 OA
ATOM      8  H5  UNL d   1      -3.349  -5.958   1.680  0.00  0.00     0.418 HD
ENDBRANCH   4   7
TORSDOF 1
ENDMDL
