MODEL 1
REMARK minimizedAffinity -0.429372638
REMARK minimizedRMSD -1
REMARK  1 active torsions:
REMARK  status: ('A' for Active; 'I' for Inactive)
REMARK    1  A    between atoms: C3_4  and  O_7 
ROOT
ATOM      1  C   UNL d   1      -4.772  -1.128   5.973  0.00  0.00    -0.033 A 
ATOM      2  C1  UNL d   1      -5.985  -0.437   5.942  0.00  0.00     0.039 A 
ATOM      3  C2  UNL d   1      -5.994   0.959   5.942  0.00  0.00    -0.080 A 
ATOM      4  C3  UNL d   1      -4.787   1.651   5.971  0.00  0.00     0.150 A 
ATOM      5  C4  UNL d   1      -3.575   0.969   5.998  0.00  0.00    -0.007 A 
ATOM      6  C5  UNL d   1      -3.567  -0.425   5.999  0.00  0.00     0.039 A 
ENDROOT
BRANCH   4   7
ATOM      7  O   UNL d   1      -4.746   3.014   5.977  0.00  0.00    -0.526 OA
ATOM      8  H5  UNL d   1      -5.658   3.349   5.985  0.00  0.00     0.418 HD
ENDBRANCH   4   7
TORSDOF 1
ENDMDL
