MODEL 1
REMARK minimizedAffinity 9.31575584
REMARK minimizedRMSD -1
REMARK  1 active torsions:
REMARK  status: ('A' for Active; 'I' for Inactive)
REMARK    1  A    between atoms: C3_4  and  O_7 
ROOT
ATOM      1  C   UNL d   1       1.979  -4.241   2.204  0.00  0.00    -0.033 A 
ATOM      2  C1  UNL d   1       0.774  -3.656   2.597  0.00  0.00     0.039 A 
ATOM      3  C2  UNL d   1      -0.440  -4.236   2.223  0.00  0.00    -0.080 A 
ATOM      4  C3  UNL d   1      -0.435  -5.399   1.458  0.00  0.00     0.150 A 
ATOM      5  C4  UNL d   1       0.762  -5.989   1.066  0.00  0.00    -0.007 A 
ATOM      6  C5  UNL d   1       1.973  -5.409   1.440  0.00  0.00     0.039 A 
ENDROOT
BRANCH   4   7
ATOM      7  O   UNL d   1      -1.595  -5.998   1.065  0.00  0.00    -0.526 OA
ATOM      8  H5  UNL d   1      -2.341  -5.463   1.384  0.00  0.00     0.418 HD
ENDBRANCH   4   7
TORSDOF 1
ENDMDL
