MODEL 1
REMARK minimizedAffinity -0.0254424457
REMARK minimizedRMSD -1
REMARK  1 active torsions:
REMARK  status: ('A' for Active; 'I' for Inactive)
REMARK    1  A    between atoms: C3_4  and  O_7 
ROOT
ATOM      1  C   UNL d   1      -4.661  -2.018   5.842  0.00  0.00    -0.033 A 
ATOM      2  C1  UNL d   1      -5.874  -1.522   5.360  0.00  0.00     0.039 A 
ATOM      3  C2  UNL d   1      -6.000  -0.169   5.040  0.00  0.00    -0.080 A 
ATOM      4  C3  UNL d   1      -4.906   0.676   5.205  0.00  0.00     0.150 A 
ATOM      5  C4  UNL d   1      -3.693   0.189   5.680  0.00  0.00    -0.007 A 
ATOM      6  C5  UNL d   1      -3.570  -1.163   6.000  0.00  0.00     0.039 A 
ENDROOT
BRANCH   4   7
ATOM      7  O   UNL d   1      -4.983   2.005   4.910  0.00  0.00    -0.526 OA
ATOM      8  H5  UNL d   1      -5.888   2.205   4.620  0.00  0.00     0.418 HD
ENDBRANCH   4   7
TORSDOF 1
ENDMDL
