MODEL 1
REMARK minimizedAffinity 2.9019897
REMARK minimizedRMSD -1
REMARK  1 active torsions:
REMARK  status: ('A' for Active; 'I' for Inactive)
REMARK    1  A    between atoms: C3_4  and  O_7 
ROOT
ATOM      1  C   UNL d   1       1.305  -5.994   2.537  0.00  0.00    -0.033 A 
ATOM      2  C1  UNL d   1       0.193  -5.999   3.382  0.00  0.00     0.039 A 
ATOM      3  C2  UNL d   1      -1.095  -6.000   2.844  0.00  0.00    -0.080 A 
ATOM      4  C3  UNL d   1      -1.258  -5.996   1.461  0.00  0.00     0.150 A 
ATOM      5  C4  UNL d   1      -0.155  -5.995   0.614  0.00  0.00    -0.007 A 
ATOM      6  C5  UNL d   1       1.131  -5.994   1.153  0.00  0.00     0.039 A 
ENDROOT
BRANCH   4   7
ATOM      7  O   UNL d   1      -2.495  -5.991   0.889  0.00  0.00    -0.526 OA
ATOM      8  H5  UNL d   1      -3.161  -5.963   1.597  0.00  0.00     0.418 HD
ENDBRANCH   4   7
TORSDOF 1
ENDMDL
