MODEL 1
REMARK minimizedAffinity 6.93721676
REMARK minimizedRMSD -1
REMARK  1 active torsions:
REMARK  status: ('A' for Active; 'I' for Inactive)
REMARK    1  A    between atoms: C3_4  and  O_7 
ROOT
ATOM      1  C   UNL d   1      -5.999  -0.367   3.979  0.00  0.00    -0.033 A 
ATOM      2  C1  UNL d   1      -5.939  -0.290   5.372  0.00  0.00     0.039 A 
ATOM      3  C2  UNL d   1      -5.523   0.890   5.990  0.00  0.00    -0.080 A 
ATOM      4  C3  UNL d   1      -5.172   1.986   5.206  0.00  0.00     0.150 A 
ATOM      5  C4  UNL d   1      -5.233   1.917   3.818  0.00  0.00    -0.007 A 
ATOM      6  C5  UNL d   1      -5.648   0.737   3.202  0.00  0.00     0.039 A 
ENDROOT
BRANCH   4   7
ATOM      7  O   UNL d   1      -4.756   3.158   5.764  0.00  0.00    -0.526 OA
ATOM      8  H5  UNL d   1      -4.736   3.049   6.729  0.00  0.00     0.418 HD
ENDBRANCH   4   7
TORSDOF 1
ENDMDL
