MODEL 1
REMARK minimizedAffinity -0.0333110467
REMARK minimizedRMSD -1
REMARK  1 active torsions:
REMARK  status: ('A' for Active; 'I' for Inactive)
REMARK    1  A    between atoms: C3_4  and  O_7 
ROOT
ATOM      1  C   UNL d   1      -2.678   0.272  -4.061  0.00  0.00    -0.033 A 
ATOM      2  C1  UNL d   1      -2.215   0.136  -2.751  0.00  0.00     0.039 A 
ATOM      3  C2  UNL d   1      -1.066   0.815  -2.341  0.00  0.00    -0.080 A 
ATOM      4  C3  UNL d   1      -0.391   1.626  -3.249  0.00  0.00     0.150 A 
ATOM      5  C4  UNL d   1      -0.848   1.768  -4.555  0.00  0.00    -0.007 A 
ATOM      6  C5  UNL d   1      -1.995   1.089  -4.963  0.00  0.00     0.039 A 
ENDROOT
BRANCH   4   7
ATOM      7  O   UNL d   1       0.738   2.304  -2.896  0.00  0.00    -0.526 OA
ATOM      8  H5  UNL d   1       0.952   2.088  -1.973  0.00  0.00     0.418 HD
ENDBRANCH   4   7
TORSDOF 1
ENDMDL
