MODEL 1
REMARK minimizedAffinity 7.03291178
REMARK minimizedRMSD -1
REMARK  1 active torsions:
REMARK  status: ('A' for Active; 'I' for Inactive)
REMARK    1  A    between atoms: C3_4  and  O_7 
ROOT
ATOM      1  C   UNL d   1      -0.521   2.138  -2.590  0.00  0.00    -0.033 A 
ATOM      2  C1  UNL d   1      -0.836   2.828  -3.763  0.00  0.00     0.039 A 
ATOM      3  C2  UNL d   1      -1.919   2.421  -4.545  0.00  0.00    -0.080 A 
ATOM      4  C3  UNL d   1      -2.678   1.325  -4.144  0.00  0.00     0.150 A 
ATOM      5  C4  UNL d   1      -2.373   0.636  -2.975  0.00  0.00    -0.007 A 
ATOM      6  C5  UNL d   1      -1.291   1.043  -2.196  0.00  0.00     0.039 A 
ENDROOT
BRANCH   4   7
ATOM      7  O   UNL d   1      -3.741   0.888  -4.877  0.00  0.00    -0.526 OA
ATOM      8  H5  UNL d   1      -3.815   1.442  -5.672  0.00  0.00     0.418 HD
ENDBRANCH   4   7
TORSDOF 1
ENDMDL
