MODEL 1
REMARK minimizedAffinity 5.53678179
REMARK minimizedRMSD -1
REMARK  1 active torsions:
REMARK  status: ('A' for Active; 'I' for Inactive)
REMARK    1  A    between atoms: C3_4  and  O_7 
ROOT
ATOM      1  C   UNL d   1       1.597   2.375  -3.342  0.00  0.00    -0.033 A 
ATOM      2  C1  UNL d   1       1.795   1.302  -2.471  0.00  0.00     0.039 A 
ATOM      3  C2  UNL d   1       2.687   0.283  -2.807  0.00  0.00    -0.080 A 
ATOM      4  C3  UNL d   1       3.376   0.348  -4.015  0.00  0.00     0.150 A 
ATOM      5  C4  UNL d   1       3.187   1.416  -4.886  0.00  0.00    -0.007 A 
ATOM      6  C5  UNL d   1       2.294   2.432  -4.549  0.00  0.00     0.039 A 
ENDROOT
BRANCH   4   7
ATOM      7  O   UNL d   1       4.254  -0.626  -4.388  0.00  0.00    -0.526 OA
ATOM      8  H5  UNL d   1       4.260  -1.314  -3.702  0.00  0.00     0.418 HD
ENDBRANCH   4   7
TORSDOF 1
ENDMDL
