MODEL 1
REMARK minimizedAffinity 4.6606226
REMARK minimizedRMSD -1
REMARK  1 active torsions:
REMARK  status: ('A' for Active; 'I' for Inactive)
REMARK    1  A    between atoms: C3_4  and  O_7 
ROOT
ATOM      1  C   UNL d   1       2.994   1.238  -2.459  0.00  0.00    -0.033 A 
ATOM      2  C1  UNL d   1       1.984   2.198  -2.367  0.00  0.00     0.039 A 
ATOM      3  C2  UNL d   1       1.800   3.122  -3.397  0.00  0.00    -0.080 A 
ATOM      4  C3  UNL d   1       2.632   3.076  -4.513  0.00  0.00     0.150 A 
ATOM      5  C4  UNL d   1       3.638   2.120  -4.613  0.00  0.00    -0.007 A 
ATOM      6  C5  UNL d   1       3.820   1.198  -3.583  0.00  0.00     0.039 A 
ENDROOT
BRANCH   4   7
ATOM      7  O   UNL d   1       2.494   3.960  -5.541  0.00  0.00    -0.526 OA
ATOM      8  H5  UNL d   1       1.779   4.579  -5.321  0.00  0.00     0.418 HD
ENDBRANCH   4   7
TORSDOF 1
ENDMDL
