MODEL 1
REMARK minimizedAffinity 6.51416349
REMARK minimizedRMSD -1
REMARK  1 active torsions:
REMARK  status: ('A' for Active; 'I' for Inactive)
REMARK    1  A    between atoms: C3_4  and  O_7 
ROOT
ATOM      1  C   UNL d   1       3.077  -1.130  -4.120  0.00  0.00    -0.033 A 
ATOM      2  C1  UNL d   1       3.962  -0.114  -3.756  0.00  0.00     0.039 A 
ATOM      3  C2  UNL d   1       3.756   0.606  -2.578  0.00  0.00    -0.080 A 
ATOM      4  C3  UNL d   1       2.663   0.299  -1.773  0.00  0.00     0.150 A 
ATOM      5  C4  UNL d   1       1.779  -0.715  -2.127  0.00  0.00    -0.007 A 
ATOM      6  C5  UNL d   1       1.986  -1.432  -3.305  0.00  0.00     0.039 A 
ENDROOT
BRANCH   4   7
ATOM      7  O   UNL d   1       2.417   0.976  -0.615  0.00  0.00    -0.526 OA
ATOM      8  H5  UNL d   1       3.093   1.667  -0.514  0.00  0.00     0.418 HD
ENDBRANCH   4   7
TORSDOF 1
ENDMDL
