MODEL 1
REMARK minimizedAffinity -3.70955014
REMARK minimizedRMSD -1
REMARK  0 active torsions:
REMARK  status: ('A' for Active; 'I' for Inactive)
ROOT
ATOM      1  C2' OXE d   1      -2.932   0.744   4.753  0.00  0.00     0.078 C 
ATOM      2  C1' OXE d   1      -5.611   1.513   5.086  0.00  0.00     0.078 C 
ATOM      3  C1  OXE d   1      -5.128   1.233   3.685  0.00  0.00    -0.078 A 
ATOM      4  C2  OXE d   1      -3.804   0.903   3.526  0.00  0.00    -0.078 A 
ATOM      5  C3  OXE d   1      -3.320   0.581   2.262  0.00  0.00     0.003 A 
ATOM      6  C4  OXE d   1      -4.130   0.741   1.131  0.00  0.00    -0.002 A 
ATOM      7  C5  OXE d   1      -5.471   1.115   1.266  0.00  0.00    -0.002 A 
ATOM      8  C6  OXE d   1      -5.996   1.323   2.537  0.00  0.00     0.003 A 
ENDROOT
TORSDOF 0
ENDMDL
