MODEL 1
REMARK minimizedAffinity 9.21610832
REMARK minimizedRMSD -1
REMARK  0 active torsions:
REMARK  status: ('A' for Active; 'I' for Inactive)
ROOT
ATOM      1  C2' OXE d   1       2.311   4.843  -2.357  0.00  0.00     0.078 C 
ATOM      2  C1' OXE d   1       4.701   5.993  -1.438  0.00  0.00     0.078 C 
ATOM      3  C1  OXE d   1       4.767   5.121  -2.667  0.00  0.00    -0.078 A 
ATOM      4  C2  OXE d   1       3.601   4.525  -3.082  0.00  0.00    -0.078 A 
ATOM      5  C3  OXE d   1       3.595   3.755  -4.242  0.00  0.00     0.003 A 
ATOM      6  C4  OXE d   1       4.794   3.457  -4.901  0.00  0.00    -0.002 A 
ATOM      7  C5  OXE d   1       6.000   4.022  -4.471  0.00  0.00    -0.002 A 
ATOM      8  C6  OXE d   1       5.997   4.888  -3.384  0.00  0.00     0.003 A 
ENDROOT
TORSDOF 0
ENDMDL
