MODEL 1
REMARK minimizedAffinity 2.19999576
REMARK minimizedRMSD -1
REMARK  0 active torsions:
REMARK  status: ('A' for Active; 'I' for Inactive)
ROOT
ATOM      1  C2' OXE d   1      -2.888   1.016   3.221  0.00  0.00     0.078 C 
ATOM      2  C1' OXE d   1      -2.830  -0.742   1.033  0.00  0.00     0.078 C 
ATOM      3  C1  OXE d   1      -1.755  -0.887   2.081  0.00  0.00    -0.078 A 
ATOM      4  C2  OXE d   1      -1.764   0.008   3.124  0.00  0.00    -0.078 A 
ATOM      5  C3  OXE d   1      -0.827  -0.116   4.146  0.00  0.00     0.003 A 
ATOM      6  C4  OXE d   1       0.216  -1.045   4.043  0.00  0.00    -0.002 A 
ATOM      7  C5  OXE d   1       0.266  -1.939   2.969  0.00  0.00    -0.002 A 
ATOM      8  C6  OXE d   1      -0.733  -1.901   2.003  0.00  0.00     0.003 A 
ENDROOT
TORSDOF 0
ENDMDL
