MODEL 1
REMARK minimizedAffinity 3.11582398
REMARK minimizedRMSD -1
REMARK  0 active torsions:
REMARK  status: ('A' for Active; 'I' for Inactive)
ROOT
ATOM      1  C2' OXE d   1      -4.533   2.075   2.990  0.00  0.00     0.078 C 
ATOM      2  C1' OXE d   1      -4.586   1.234   0.312  0.00  0.00     0.078 C 
ATOM      3  C1  OXE d   1      -3.485   0.702   1.195  0.00  0.00    -0.078 A 
ATOM      4  C2  OXE d   1      -3.440   1.156   2.491  0.00  0.00    -0.078 A 
ATOM      5  C3  OXE d   1      -2.477   0.655   3.363  0.00  0.00     0.003 A 
ATOM      6  C4  OXE d   1      -1.463  -0.188   2.891  0.00  0.00    -0.002 A 
ATOM      7  C5  OXE d   1      -1.468  -0.630   1.564  0.00  0.00    -0.002 A 
ATOM      8  C6  OXE d   1      -2.494  -0.229   0.716  0.00  0.00     0.003 A 
ENDROOT
TORSDOF 0
ENDMDL
