MODEL 1
REMARK minimizedAffinity -0.00136905443
REMARK minimizedRMSD -1
REMARK  0 active torsions:
REMARK  status: ('A' for Active; 'I' for Inactive)
ROOT
ATOM      1  C2' OXE d   1      -2.941  -5.428  -5.614  0.00  0.00     0.078 C 
ATOM      2  C1' OXE d   1      -2.191  -3.888  -3.389  0.00  0.00     0.078 C 
ATOM      3  C1  OXE d   1      -1.100  -4.587  -4.162  0.00  0.00    -0.078 A 
ATOM      4  C2  OXE d   1      -1.480  -5.376  -5.220  0.00  0.00    -0.078 A 
ATOM      5  C3  OXE d   1      -0.510  -5.999  -6.000  0.00  0.00     0.003 A 
ATOM      6  C4  OXE d   1       0.838  -5.954  -5.623  0.00  0.00    -0.002 A 
ATOM      7  C5  OXE d   1       1.243  -5.188  -4.525  0.00  0.00    -0.002 A 
ATOM      8  C6  OXE d   1       0.294  -4.466  -3.810  0.00  0.00     0.003 A 
ENDROOT
TORSDOF 0
ENDMDL
