MODEL 1
REMARK minimizedAffinity 3.98502946
REMARK minimizedRMSD -1
REMARK  0 active torsions:
REMARK  status: ('A' for Active; 'I' for Inactive)
ROOT
ATOM      1  C2' OXE d   1      -3.314  -0.998  -0.898  0.00  0.00     0.078 C 
ATOM      2  C1' OXE d   1      -4.993   0.848   0.388  0.00  0.00     0.078 C 
ATOM      3  C1  OXE d   1      -3.726   0.437   1.096  0.00  0.00    -0.078 A 
ATOM      4  C2  OXE d   1      -2.934  -0.502   0.481  0.00  0.00    -0.078 A 
ATOM      5  C3  OXE d   1      -1.728  -0.876   1.066  0.00  0.00     0.003 A 
ATOM      6  C4  OXE d   1      -1.389  -0.420   2.346  0.00  0.00    -0.002 A 
ATOM      7  C5  OXE d   1      -2.202   0.506   3.008  0.00  0.00    -0.002 A 
ATOM      8  C6  OXE d   1      -3.350   0.977   2.380  0.00  0.00     0.003 A 
ENDROOT
TORSDOF 0
ENDMDL
