MODEL 1
REMARK minimizedAffinity 3.17685866
REMARK minimizedRMSD -1
REMARK  0 active torsions:
REMARK  status: ('A' for Active; 'I' for Inactive)
ROOT
ATOM      1  C2' OXE d   1      -3.296   1.605   3.387  0.00  0.00     0.078 C 
ATOM      2  C1' OXE d   1      -4.445   0.375   1.140  0.00  0.00     0.078 C 
ATOM      3  C1  OXE d   1      -3.120  -0.153   1.630  0.00  0.00    -0.078 A 
ATOM      4  C2  OXE d   1      -2.542   0.486   2.702  0.00  0.00    -0.078 A 
ATOM      5  C3  OXE d   1      -1.347   0.005   3.228  0.00  0.00     0.003 A 
ATOM      6  C4  OXE d   1      -0.651  -1.025   2.582  0.00  0.00    -0.002 A 
ATOM      7  C5  OXE d   1      -1.203  -1.663   1.466  0.00  0.00    -0.002 A 
ATOM      8  C6  OXE d   1      -2.453  -1.268   1.004  0.00  0.00     0.003 A 
ENDROOT
TORSDOF 0
ENDMDL
