MODEL 1
REMARK minimizedAffinity 6.29424524
REMARK minimizedRMSD -1
REMARK  0 active torsions:
REMARK  status: ('A' for Active; 'I' for Inactive)
ROOT
ATOM      1  C2' OXE d   1      -1.619  -0.034   3.908  0.00  0.00     0.078 C 
ATOM      2  C1' OXE d   1      -1.666  -1.655   1.616  0.00  0.00     0.078 C 
ATOM      3  C1  OXE d   1      -2.647  -0.512   1.689  0.00  0.00    -0.078 A 
ATOM      4  C2  OXE d   1      -2.649   0.247   2.835  0.00  0.00    -0.078 A 
ATOM      5  C3  OXE d   1      -3.497   1.347   2.932  0.00  0.00     0.003 A 
ATOM      6  C4  OXE d   1      -4.454   1.594   1.939  0.00  0.00    -0.002 A 
ATOM      7  C5  OXE d   1      -4.495   0.809   0.782  0.00  0.00    -0.002 A 
ATOM      8  C6  OXE d   1      -3.573  -0.220   0.623  0.00  0.00     0.003 A 
ENDROOT
TORSDOF 0
ENDMDL
