MODEL 1
REMARK minimizedAffinity 10.4688244
REMARK minimizedRMSD -1
REMARK  0 active torsions:
REMARK  status: ('A' for Active; 'I' for Inactive)
ROOT
ATOM      1  C2' OXE d   1       5.785   5.999  -1.114  0.00  0.00     0.078 C 
ATOM      2  C1' OXE d   1       4.284   3.788  -0.255  0.00  0.00     0.078 C 
ATOM      3  C1  OXE d   1       4.471   3.978  -1.740  0.00  0.00    -0.078 A 
ATOM      4  C2  OXE d   1       5.168   5.088  -2.152  0.00  0.00    -0.078 A 
ATOM      5  C3  OXE d   1       5.416   5.281  -3.508  0.00  0.00     0.003 A 
ATOM      6  C4  OXE d   1       4.833   4.439  -4.463  0.00  0.00    -0.002 A 
ATOM      7  C5  OXE d   1       4.087   3.325  -4.065  0.00  0.00    -0.002 A 
ATOM      8  C6  OXE d   1       3.932   3.056  -2.709  0.00  0.00     0.003 A 
ENDROOT
TORSDOF 0
ENDMDL
