MODEL 1
REMARK minimizedAffinity 7.05912781
REMARK minimizedRMSD -1
REMARK  0 active torsions:
REMARK  status: ('A' for Active; 'I' for Inactive)
ROOT
ATOM      1  C2' OXE d   1      -2.949   0.563   2.741  0.00  0.00     0.078 C 
ATOM      2  C1' OXE d   1      -1.412  -1.029   1.013  0.00  0.00     0.078 C 
ATOM      3  C1  OXE d   1      -2.704  -0.460   0.482  0.00  0.00    -0.078 A 
ATOM      4  C2  OXE d   1      -3.473   0.279   1.349  0.00  0.00    -0.078 A 
ATOM      5  C3  OXE d   1      -4.647   0.872   0.895  0.00  0.00     0.003 A 
ATOM      6  C4  OXE d   1      -5.129   0.596  -0.391  0.00  0.00    -0.002 A 
ATOM      7  C5  OXE d   1      -4.381  -0.187  -1.277  0.00  0.00    -0.002 A 
ATOM      8  C6  OXE d   1      -3.148  -0.686  -0.871  0.00  0.00     0.003 A 
ENDROOT
TORSDOF 0
ENDMDL
