MODEL 1
REMARK minimizedAffinity 4.38778925
REMARK minimizedRMSD -1
REMARK  0 active torsions:
REMARK  status: ('A' for Active; 'I' for Inactive)
ROOT
ATOM      1  C2' OXE d   1       1.608   3.148  -3.203  0.00  0.00     0.078 C 
ATOM      2  C1' OXE d   1       1.444   5.616  -1.876  0.00  0.00     0.078 C 
ATOM      3  C1  OXE d   1       2.794   5.183  -2.393  0.00  0.00    -0.078 A 
ATOM      4  C2  OXE d   1       2.873   3.953  -3.000  0.00  0.00    -0.078 A 
ATOM      5  C3  OXE d   1       4.082   3.529  -3.544  0.00  0.00     0.003 A 
ATOM      6  C4  OXE d   1       5.250   4.276  -3.343  0.00  0.00    -0.002 A 
ATOM      7  C5  OXE d   1       5.198   5.513  -2.693  0.00  0.00    -0.002 A 
ATOM      8  C6  OXE d   1       3.973   6.000  -2.250  0.00  0.00     0.003 A 
ENDROOT
TORSDOF 0
ENDMDL
