MODEL 1
REMARK minimizedAffinity 7.19142342
REMARK minimizedRMSD -1
REMARK  0 active torsions:
REMARK  status: ('A' for Active; 'I' for Inactive)
ROOT
ATOM      1  C2' OXE d   1      -4.485   0.865   1.876  0.00  0.00     0.078 C 
ATOM      2  C1' OXE d   1      -2.091   0.581   3.314  0.00  0.00     0.078 C 
ATOM      3  C1  OXE d   1      -3.276   1.177   4.031  0.00  0.00    -0.078 A 
ATOM      4  C2  OXE d   1      -4.430   1.355   3.306  0.00  0.00    -0.078 A 
ATOM      5  C3  OXE d   1      -5.569   1.850   3.935  0.00  0.00     0.003 A 
ATOM      6  C4  OXE d   1      -5.507   2.311   5.255  0.00  0.00    -0.002 A 
ATOM      7  C5  OXE d   1      -4.330   2.175   6.000  0.00  0.00    -0.002 A 
ATOM      8  C6  OXE d   1      -3.221   1.572   5.417  0.00  0.00     0.003 A 
ENDROOT
TORSDOF 0
ENDMDL
