MODEL 1
REMARK minimizedAffinity 13.4511986
REMARK minimizedRMSD -1
REMARK  0 active torsions:
REMARK  status: ('A' for Active; 'I' for Inactive)
ROOT
ATOM      1  C2' OXE d   1       6.000   4.211  -4.500  0.00  0.00     0.078 C 
ATOM      2  C1' OXE d   1       4.139   2.673  -5.931  0.00  0.00     0.078 C 
ATOM      3  C1  OXE d   1       3.772   3.097  -4.531  0.00  0.00    -0.078 A 
ATOM      4  C2  OXE d   1       4.708   3.810  -3.821  0.00  0.00    -0.078 A 
ATOM      5  C3  OXE d   1       4.400   4.272  -2.545  0.00  0.00     0.003 A 
ATOM      6  C4  OXE d   1       3.207   3.888  -1.920  0.00  0.00    -0.002 A 
ATOM      7  C5  OXE d   1       2.257   3.129  -2.611  0.00  0.00    -0.002 A 
ATOM      8  C6  OXE d   1       2.505   2.762  -3.929  0.00  0.00     0.003 A 
ENDROOT
TORSDOF 0
ENDMDL
