MODEL 1
REMARK minimizedAffinity 6.12969494
REMARK minimizedRMSD -1
REMARK  0 active torsions:
REMARK  status: ('A' for Active; 'I' for Inactive)
ROOT
ATOM      1  C2' OXE d   1      -2.608   1.047   3.001  0.00  0.00     0.078 C 
ATOM      2  C1' OXE d   1      -2.787  -0.462   0.641  0.00  0.00     0.078 C 
ATOM      3  C1  OXE d   1      -1.713  -0.832   1.633  0.00  0.00    -0.078 A 
ATOM      4  C2  OXE d   1      -1.603  -0.059   2.763  0.00  0.00    -0.078 A 
ATOM      5  C3  OXE d   1      -0.664  -0.390   3.736  0.00  0.00     0.003 A 
ATOM      6  C4  OXE d   1       0.269  -1.408   3.504  0.00  0.00    -0.002 A 
ATOM      7  C5  OXE d   1       0.200  -2.183   2.341  0.00  0.00    -0.002 A 
ATOM      8  C6  OXE d   1      -0.810  -1.936   1.417  0.00  0.00     0.003 A 
ENDROOT
TORSDOF 0
ENDMDL
