MODEL 1
REMARK minimizedAffinity 8.45146275
REMARK minimizedRMSD -1
REMARK  0 active torsions:
REMARK  status: ('A' for Active; 'I' for Inactive)
ROOT
ATOM      1  C2' OXE d   1      -4.100   0.117   2.257  0.00  0.00     0.078 C 
ATOM      2  C1' OXE d   1      -2.469   0.848   4.422  0.00  0.00     0.078 C 
ATOM      3  C1  OXE d   1      -1.850   0.023   3.321  0.00  0.00    -0.078 A 
ATOM      4  C2  OXE d   1      -2.667  -0.370   2.289  0.00  0.00    -0.078 A 
ATOM      5  C3  OXE d   1      -2.134  -1.085   1.221  0.00  0.00     0.003 A 
ATOM      6  C4  OXE d   1      -0.810  -1.540   1.263  0.00  0.00    -0.002 A 
ATOM      7  C5  OXE d   1       0.029  -1.184   2.324  0.00  0.00    -0.002 A 
ATOM      8  C6  OXE d   1      -0.462  -0.370   3.338  0.00  0.00     0.003 A 
ENDROOT
TORSDOF 0
ENDMDL
