MODEL 1
REMARK minimizedAffinity 8.03372383
REMARK minimizedRMSD -1
REMARK  0 active torsions:
REMARK  status: ('A' for Active; 'I' for Inactive)
ROOT
ATOM      1  C2' OXE d   1       3.337   0.793   1.126  0.00  0.00     0.078 C 
ATOM      2  C1' OXE d   1       0.537   0.595   1.075  0.00  0.00     0.078 C 
ATOM      3  C1  OXE d   1       1.224   1.168  -0.139  0.00  0.00    -0.078 A 
ATOM      4  C2  OXE d   1       2.590   1.305  -0.087  0.00  0.00    -0.078 A 
ATOM      5  C3  OXE d   1       3.279   1.778  -1.201  0.00  0.00     0.003 A 
ATOM      6  C4  OXE d   1       2.580   2.258  -2.315  0.00  0.00    -0.002 A 
ATOM      7  C5  OXE d   1       1.185   2.165  -2.373  0.00  0.00    -0.002 A 
ATOM      8  C6  OXE d   1       0.497   1.585  -1.313  0.00  0.00     0.003 A 
ENDROOT
TORSDOF 0
ENDMDL
