MODEL 1
REMARK minimizedAffinity 6.04740095
REMARK minimizedRMSD -1
REMARK  0 active torsions:
REMARK  status: ('A' for Active; 'I' for Inactive)
ROOT
ATOM      1  C2' OXE d   1      -5.618  -1.293   5.984  0.00  0.00     0.078 C 
ATOM      2  C1' OXE d   1      -4.551  -1.901   3.460  0.00  0.00     0.078 C 
ATOM      3  C1  OXE d   1      -4.121  -0.612   4.114  0.00  0.00    -0.078 A 
ATOM      4  C2  OXE d   1      -4.683  -0.300   5.328  0.00  0.00    -0.078 A 
ATOM      5  C3  OXE d   1      -4.279   0.850   6.000  0.00  0.00     0.003 A 
ATOM      6  C4  OXE d   1      -3.422   1.768   5.382  0.00  0.00    -0.002 A 
ATOM      7  C5  OXE d   1      -2.868   1.489   4.128  0.00  0.00    -0.002 A 
ATOM      8  C6  OXE d   1      -3.173   0.286   3.500  0.00  0.00     0.003 A 
ENDROOT
TORSDOF 0
ENDMDL
