MODEL 1
REMARK minimizedAffinity 5.59615564
REMARK minimizedRMSD -1
REMARK  0 active torsions:
REMARK  status: ('A' for Active; 'I' for Inactive)
ROOT
ATOM      1  C2' OXE d   1      -1.919  -3.292  -3.519  0.00  0.00     0.078 C 
ATOM      2  C1' OXE d   1      -3.138  -4.962  -5.418  0.00  0.00     0.078 C 
ATOM      3  C1  OXE d   1      -1.643  -5.066  -5.247  0.00  0.00    -0.078 A 
ATOM      4  C2  OXE d   1      -1.049  -4.212  -4.349  0.00  0.00    -0.078 A 
ATOM      5  C3  OXE d   1       0.320  -4.303  -4.112  0.00  0.00     0.003 A 
ATOM      6  C4  OXE d   1       1.119  -5.149  -4.890  0.00  0.00    -0.002 A 
ATOM      7  C5  OXE d   1       0.539  -5.999  -5.839  0.00  0.00    -0.002 A 
ATOM      8  C6  OXE d   1      -0.842  -6.000  -5.999  0.00  0.00     0.003 A 
ENDROOT
TORSDOF 0
ENDMDL
