MODEL 1
REMARK minimizedAffinity 7.694242
REMARK minimizedRMSD -1
REMARK  0 active torsions:
REMARK  status: ('A' for Active; 'I' for Inactive)
ROOT
ATOM      1  C2' OXE d   1      -4.938   5.235  -3.045  0.00  0.00     0.078 C 
ATOM      2  C1' OXE d   1      -5.090   6.000  -5.742  0.00  0.00     0.078 C 
ATOM      3  C1  OXE d   1      -3.734   5.636  -5.189  0.00  0.00    -0.078 A 
ATOM      4  C2  OXE d   1      -3.662   5.308  -3.856  0.00  0.00    -0.078 A 
ATOM      5  C3  OXE d   1      -2.446   4.911  -3.309  0.00  0.00     0.003 A 
ATOM      6  C4  OXE d   1      -1.269   4.990  -4.064  0.00  0.00    -0.002 A 
ATOM      7  C5  OXE d   1      -1.314   5.360  -5.412  0.00  0.00    -0.002 A 
ATOM      8  C6  OXE d   1      -2.542   5.644  -6.000  0.00  0.00     0.003 A 
ENDROOT
TORSDOF 0
ENDMDL
