MODEL 1
REMARK minimizedAffinity 5.76353979
REMARK minimizedRMSD -1
REMARK  0 active torsions:
REMARK  status: ('A' for Active; 'I' for Inactive)
ROOT
ATOM      1  C2' OXE d   1      -1.619  -0.110   2.558  0.00  0.00     0.078 C 
ATOM      2  C1' OXE d   1      -4.261   0.411   1.766  0.00  0.00     0.078 C 
ATOM      3  C1  OXE d   1      -3.878   0.730   3.189  0.00  0.00    -0.078 A 
ATOM      4  C2  OXE d   1      -2.595   0.429   3.581  0.00  0.00    -0.078 A 
ATOM      5  C3  OXE d   1      -2.173   0.754   4.867  0.00  0.00     0.003 A 
ATOM      6  C4  OXE d   1      -3.085   1.242   5.810  0.00  0.00    -0.002 A 
ATOM      7  C5  OXE d   1      -4.407   1.519   5.443  0.00  0.00    -0.002 A 
ATOM      8  C6  OXE d   1      -4.807   1.309   4.128  0.00  0.00     0.003 A 
ENDROOT
TORSDOF 0
ENDMDL
