MODEL 1
REMARK minimizedAffinity -5.24308634
REMARK minimizedRMSD -1
REMARK  0 active torsions:
REMARK  status: ('A' for Active; 'I' for Inactive)
ROOT
ATOM      1  C   UNL d   1      -0.754   0.004   0.743  0.00  0.00     0.078 C 
ATOM      2  C1  UNL d   1       0.221  -0.101  -0.392  0.00  0.00    -0.077 A 
ATOM      3  C2  UNL d   1       0.891  -1.301  -0.659  0.00  0.00    -0.001 A 
ATOM      4  C3  UNL d   1       1.803  -1.381  -1.712  0.00  0.00     0.003 A 
ATOM      5  C4  UNL d   1       2.054  -0.264  -2.507  0.00  0.00    -0.005 A 
ATOM      6  C5  UNL d   1       1.394   0.935  -2.247  0.00  0.00     0.003 A 
ATOM      7  C6  UNL d   1       0.482   1.017  -1.194  0.00  0.00    -0.001 A 
ENDROOT
TORSDOF 0
ENDMDL
