MODEL 1
REMARK minimizedAffinity -2.63569641
REMARK minimizedRMSD -1
REMARK  0 active torsions:
REMARK  status: ('A' for Active; 'I' for Inactive)
ROOT
ATOM      1  C   UNL d   1      -1.667   0.014   0.814  0.00  0.00     0.078 C 
ATOM      2  C1  UNL d   1      -0.352   0.049   0.094  0.00  0.00    -0.077 A 
ATOM      3  C2  UNL d   1       0.211   1.263  -0.319  0.00  0.00    -0.001 A 
ATOM      4  C3  UNL d   1       1.431   1.280  -0.997  0.00  0.00     0.003 A 
ATOM      5  C4  UNL d   1       2.098   0.087  -1.269  0.00  0.00    -0.005 A 
ATOM      6  C5  UNL d   1       1.544  -1.125  -0.863  0.00  0.00     0.003 A 
ATOM      7  C6  UNL d   1       0.324  -1.145  -0.185  0.00  0.00    -0.001 A 
ENDROOT
TORSDOF 0
ENDMDL
