MODEL 1
REMARK minimizedAffinity -0.818809032
REMARK minimizedRMSD -1
REMARK  0 active torsions:
REMARK  status: ('A' for Active; 'I' for Inactive)
ROOT
ATOM      1  C   UNL d   1      -2.613   0.756   1.861  0.00  0.00     0.078 C 
ATOM      2  C1  UNL d   1      -1.349   0.464   1.110  0.00  0.00    -0.077 A 
ATOM      3  C2  UNL d   1      -0.817  -0.831   1.069  0.00  0.00    -0.001 A 
ATOM      4  C3  UNL d   1       0.366  -1.086   0.373  0.00  0.00     0.003 A 
ATOM      5  C4  UNL d   1       1.028  -0.052  -0.286  0.00  0.00    -0.005 A 
ATOM      6  C5  UNL d   1       0.507   1.240  -0.249  0.00  0.00     0.003 A 
ATOM      7  C6  UNL d   1      -0.676   1.497   0.446  0.00  0.00    -0.001 A 
ENDROOT
TORSDOF 0
ENDMDL
