MODEL 1
REMARK minimizedAffinity -4.66272783
REMARK minimizedRMSD -1
REMARK  0 active torsions:
REMARK  status: ('A' for Active; 'I' for Inactive)
ROOT
ATOM      1  C   UNL d   1      -3.656   0.049   1.587  0.00  0.00     0.078 C 
ATOM      2  C1  UNL d   1      -2.224   0.372   1.281  0.00  0.00    -0.077 A 
ATOM      3  C2  UNL d   1      -1.264   0.427   2.299  0.00  0.00    -0.001 A 
ATOM      4  C3  UNL d   1       0.064   0.738   2.001  0.00  0.00     0.003 A 
ATOM      5  C4  UNL d   1       0.443   0.998   0.686  0.00  0.00    -0.005 A 
ATOM      6  C5  UNL d   1      -0.506   0.948  -0.334  0.00  0.00     0.003 A 
ATOM      7  C6  UNL d   1      -1.834   0.637  -0.037  0.00  0.00    -0.001 A 
ENDROOT
TORSDOF 0
ENDMDL
