MODEL 1
REMARK minimizedAffinity -4.45154428
REMARK minimizedRMSD -1
REMARK  0 active torsions:
REMARK  status: ('A' for Active; 'I' for Inactive)
ROOT
ATOM      1  C   UNL d   1       1.173   2.000   0.876  0.00  0.00     0.078 C 
ATOM      2  C1  UNL d   1       0.907   1.226  -0.381  0.00  0.00    -0.077 A 
ATOM      3  C2  UNL d   1      -0.378   0.756  -0.680  0.00  0.00    -0.001 A 
ATOM      4  C3  UNL d   1      -0.609   0.030  -1.849  0.00  0.00     0.003 A 
ATOM      5  C4  UNL d   1       0.439  -0.235  -2.727  0.00  0.00    -0.005 A 
ATOM      6  C5  UNL d   1       1.721   0.227  -2.437  0.00  0.00     0.003 A 
ATOM      7  C6  UNL d   1       1.955   0.954  -1.269  0.00  0.00    -0.001 A 
ENDROOT
TORSDOF 0
ENDMDL
