MODEL 1
REMARK minimizedAffinity -4.21761227
REMARK minimizedRMSD -1
REMARK  0 active torsions:
REMARK  status: ('A' for Active; 'I' for Inactive)
ROOT
ATOM      1  C   UNL d   1       1.881  -0.021  -2.683  0.00  0.00     0.078 C 
ATOM      2  C1  UNL d   1       0.957  -0.196  -1.515  0.00  0.00    -0.077 A 
ATOM      3  C2  UNL d   1       0.636  -1.471  -1.033  0.00  0.00    -0.001 A 
ATOM      4  C3  UNL d   1      -0.234  -1.618   0.049  0.00  0.00     0.003 A 
ATOM      5  C4  UNL d   1      -0.791  -0.495   0.657  0.00  0.00    -0.005 A 
ATOM      6  C5  UNL d   1      -0.479   0.777   0.183  0.00  0.00     0.003 A 
ATOM      7  C6  UNL d   1       0.390   0.927  -0.898  0.00  0.00    -0.001 A 
ENDROOT
TORSDOF 0
ENDMDL
