MODEL 1
REMARK minimizedAffinity -5.1487565
REMARK minimizedRMSD -1
REMARK  0 active torsions:
REMARK  status: ('A' for Active; 'I' for Inactive)
ROOT
ATOM      1  C   UNL d   1      -1.061  -0.071   0.992  0.00  0.00     0.078 C 
ATOM      2  C1  UNL d   1      -0.156  -0.089  -0.203  0.00  0.00    -0.077 A 
ATOM      3  C2  UNL d   1       0.401   1.094  -0.704  0.00  0.00    -0.001 A 
ATOM      4  C3  UNL d   1       1.235   1.064  -1.823  0.00  0.00     0.003 A 
ATOM      5  C4  UNL d   1       1.518  -0.147  -2.452  0.00  0.00    -0.005 A 
ATOM      6  C5  UNL d   1       0.967  -1.330  -1.962  0.00  0.00     0.003 A 
ATOM      7  C6  UNL d   1       0.133  -1.301  -0.843  0.00  0.00    -0.001 A 
ENDROOT
TORSDOF 0
ENDMDL
