MODEL 1
REMARK minimizedAffinity -2.32571101
REMARK minimizedRMSD -1
REMARK  0 active torsions:
REMARK  status: ('A' for Active; 'I' for Inactive)
ROOT
ATOM      1  C   UNL d   1      -1.388   2.032   0.072  0.00  0.00     0.078 C 
ATOM      2  C1  UNL d   1      -0.889   0.618   0.036  0.00  0.00    -0.077 A 
ATOM      3  C2  UNL d   1      -0.603  -0.076   1.218  0.00  0.00    -0.001 A 
ATOM      4  C3  UNL d   1      -0.130  -1.389   1.169  0.00  0.00     0.003 A 
ATOM      5  C4  UNL d   1       0.062  -2.018  -0.059  0.00  0.00    -0.005 A 
ATOM      6  C5  UNL d   1      -0.217  -1.334  -1.241  0.00  0.00     0.003 A 
ATOM      7  C6  UNL d   1      -0.690  -0.022  -1.194  0.00  0.00    -0.001 A 
ENDROOT
TORSDOF 0
ENDMDL
