MODEL 1
REMARK minimizedAffinity -2.69083738
REMARK minimizedRMSD -1
REMARK  0 active torsions:
REMARK  status: ('A' for Active; 'I' for Inactive)
ROOT
ATOM      1  C   UNL d   1      -5.322   1.805  -5.944  0.00  0.00     0.078 C 
ATOM      2  C1  UNL d   1      -4.991   3.267  -5.914  0.00  0.00    -0.077 A 
ATOM      3  C2  UNL d   1      -6.000   4.233  -5.813  0.00  0.00    -0.001 A 
ATOM      4  C3  UNL d   1      -5.677   5.591  -5.795  0.00  0.00     0.003 A 
ATOM      5  C4  UNL d   1      -4.346   5.995  -5.879  0.00  0.00    -0.005 A 
ATOM      6  C5  UNL d   1      -3.336   5.041  -5.982  0.00  0.00     0.003 A 
ATOM      7  C6  UNL d   1      -3.657   3.683  -6.000  0.00  0.00    -0.001 A 
ENDROOT
TORSDOF 0
ENDMDL
