MODEL 1
REMARK minimizedAffinity -1.94084156
REMARK minimizedRMSD -1
REMARK  0 active torsions:
REMARK  status: ('A' for Active; 'I' for Inactive)
ROOT
ATOM      1  C   UNL d   1      -2.605   0.302   1.730  0.00  0.00     0.078 C 
ATOM      2  C1  UNL d   1      -1.312   0.314   0.970  0.00  0.00    -0.077 A 
ATOM      3  C2  UNL d   1      -0.585  -0.866   0.765  0.00  0.00    -0.001 A 
ATOM      4  C3  UNL d   1       0.621  -0.838   0.064  0.00  0.00     0.003 A 
ATOM      5  C4  UNL d   1       1.112   0.366  -0.436  0.00  0.00    -0.005 A 
ATOM      6  C5  UNL d   1       0.397   1.545  -0.235  0.00  0.00     0.003 A 
ATOM      7  C6  UNL d   1      -0.809   1.519   0.465  0.00  0.00    -0.001 A 
ENDROOT
TORSDOF 0
ENDMDL
