MODEL 1
REMARK minimizedAffinity -1.86593163
REMARK minimizedRMSD -1
REMARK  0 active torsions:
REMARK  status: ('A' for Active; 'I' for Inactive)
ROOT
ATOM      1  C   UNL d   1      -0.816  -0.125   0.561  0.00  0.00     0.078 C 
ATOM      2  C1  UNL d   1       0.384  -0.415  -0.291  0.00  0.00    -0.077 A 
ATOM      3  C2  UNL d   1       1.148   0.623  -0.838  0.00  0.00    -0.001 A 
ATOM      4  C3  UNL d   1       2.256   0.338  -1.638  0.00  0.00     0.003 A 
ATOM      5  C4  UNL d   1       2.609  -0.985  -1.898  0.00  0.00    -0.005 A 
ATOM      6  C5  UNL d   1       1.853  -2.024  -1.360  0.00  0.00     0.003 A 
ATOM      7  C6  UNL d   1       0.745  -1.741  -0.561  0.00  0.00    -0.001 A 
ENDROOT
TORSDOF 0
ENDMDL
