MODEL 1
REMARK minimizedAffinity -1.82707155
REMARK minimizedRMSD -1
REMARK  0 active torsions:
REMARK  status: ('A' for Active; 'I' for Inactive)
ROOT
ATOM      1  C   UNL d   1      -0.951   0.014   2.049  0.00  0.00     0.078 C 
ATOM      2  C1  UNL d   1      -0.433  -0.415   0.708  0.00  0.00    -0.077 A 
ATOM      3  C2  UNL d   1       0.061  -1.709   0.507  0.00  0.00    -0.001 A 
ATOM      4  C3  UNL d   1       0.549  -2.091  -0.744  0.00  0.00     0.003 A 
ATOM      5  C4  UNL d   1       0.548  -1.185  -1.802  0.00  0.00    -0.005 A 
ATOM      6  C5  UNL d   1       0.060   0.106  -1.611  0.00  0.00     0.003 A 
ATOM      7  C6  UNL d   1      -0.428   0.490  -0.361  0.00  0.00    -0.001 A 
ENDROOT
TORSDOF 0
ENDMDL
