MODEL 1
REMARK minimizedAffinity -0.988709152
REMARK minimizedRMSD -1
REMARK  0 active torsions:
REMARK  status: ('A' for Active; 'I' for Inactive)
ROOT
ATOM      1  C   UNL d   1       0.109  -0.629   0.166  0.00  0.00     0.078 C 
ATOM      2  C1  UNL d   1      -1.170  -0.038   0.681  0.00  0.00    -0.077 A 
ATOM      3  C2  UNL d   1      -1.275   0.416   2.001  0.00  0.00    -0.001 A 
ATOM      4  C3  UNL d   1      -2.475   0.954   2.469  0.00  0.00     0.003 A 
ATOM      5  C4  UNL d   1      -3.579   1.042   1.623  0.00  0.00    -0.005 A 
ATOM      6  C5  UNL d   1      -3.485   0.591   0.308  0.00  0.00     0.003 A 
ATOM      7  C6  UNL d   1      -2.286   0.053  -0.161  0.00  0.00    -0.001 A 
ENDROOT
TORSDOF 0
ENDMDL
