MODEL 1
REMARK minimizedAffinity -3.78402209
REMARK minimizedRMSD -1
REMARK  0 active torsions:
REMARK  status: ('A' for Active; 'I' for Inactive)
ROOT
ATOM      1  C   UNL d   1       0.852   1.151  -1.262  0.00  0.00     0.078 C 
ATOM      2  C1  UNL d   1      -0.328   0.894  -0.372  0.00  0.00    -0.077 A 
ATOM      3  C2  UNL d   1      -1.502   1.648  -0.494  0.00  0.00    -0.001 A 
ATOM      4  C3  UNL d   1      -2.588   1.404   0.347  0.00  0.00     0.003 A 
ATOM      5  C4  UNL d   1      -2.512   0.407   1.317  0.00  0.00    -0.005 A 
ATOM      6  C5  UNL d   1      -1.347  -0.347   1.448  0.00  0.00     0.003 A 
ATOM      7  C6  UNL d   1      -0.260  -0.104   0.608  0.00  0.00    -0.001 A 
ENDROOT
TORSDOF 0
ENDMDL
