MODEL 1
REMARK minimizedAffinity -4.73501968
REMARK minimizedRMSD -1
REMARK  0 active torsions:
REMARK  status: ('A' for Active; 'I' for Inactive)
ROOT
ATOM      1  C   UNL d   1      -0.795  -0.019   1.372  0.00  0.00     0.078 C 
ATOM      2  C1  UNL d   1       0.088   0.077   0.163  0.00  0.00    -0.077 A 
ATOM      3  C2  UNL d   1       0.091  -0.929  -0.810  0.00  0.00    -0.001 A 
ATOM      4  C3  UNL d   1       0.925  -0.831  -1.924  0.00  0.00     0.003 A 
ATOM      5  C4  UNL d   1       1.763   0.271  -2.076  0.00  0.00    -0.005 A 
ATOM      6  C5  UNL d   1       1.769   1.277  -1.112  0.00  0.00     0.003 A 
ATOM      7  C6  UNL d   1       0.936   1.181   0.004  0.00  0.00    -0.001 A 
ENDROOT
TORSDOF 0
ENDMDL
