MODEL 1
REMARK minimizedAffinity -5.19744921
REMARK minimizedRMSD -1
REMARK  0 active torsions:
REMARK  status: ('A' for Active; 'I' for Inactive)
ROOT
ATOM      1  C   UNL d   1      -0.659  -0.215   0.352  0.00  0.00     0.078 C 
ATOM      2  C1  UNL d   1       0.351  -0.248  -0.756  0.00  0.00    -0.077 A 
ATOM      3  C2  UNL d   1       0.993  -1.440  -1.111  0.00  0.00    -0.001 A 
ATOM      4  C3  UNL d   1       1.939  -1.454  -2.137  0.00  0.00     0.003 A 
ATOM      5  C4  UNL d   1       2.251  -0.278  -2.817  0.00  0.00    -0.005 A 
ATOM      6  C5  UNL d   1       1.619   0.913  -2.469  0.00  0.00     0.003 A 
ATOM      7  C6  UNL d   1       0.673   0.929  -1.442  0.00  0.00    -0.001 A 
ENDROOT
TORSDOF 0
ENDMDL
