MODEL 1
REMARK minimizedAffinity -3.45218205
REMARK minimizedRMSD -1
REMARK  0 active torsions:
REMARK  status: ('A' for Active; 'I' for Inactive)
ROOT
ATOM      1  C   UNL d   1      -1.621   0.342   1.052  0.00  0.00     0.078 C 
ATOM      2  C1  UNL d   1      -0.420   0.610   0.195  0.00  0.00    -0.077 A 
ATOM      3  C2  UNL d   1       0.330  -0.443  -0.345  0.00  0.00    -0.001 A 
ATOM      4  C3  UNL d   1       1.451  -0.179  -1.133  0.00  0.00     0.003 A 
ATOM      5  C4  UNL d   1       1.835   1.136  -1.386  0.00  0.00    -0.005 A 
ATOM      6  C5  UNL d   1       1.097   2.190  -0.850  0.00  0.00     0.003 A 
ATOM      7  C6  UNL d   1      -0.025   1.928  -0.063  0.00  0.00    -0.001 A 
ENDROOT
TORSDOF 0
ENDMDL
