MODEL 1
REMARK minimizedAffinity 9.20542526
REMARK minimizedRMSD -1
REMARK  1 active torsions:
REMARK  status: ('A' for Active; 'I' for Inactive)
REMARK    1  A    between atoms: C1_2  and  C2_3 
ROOT
ATOM      1  C2  UNL d   1       3.868   2.258   0.186  0.00  0.00    -0.076 A 
ATOM      2  C3  UNL d   1       5.232   2.414  -0.118  0.00  0.00     0.004 A 
ATOM      3  C4  UNL d   1       5.999   3.395   0.506  0.00  0.00    -0.003 A 
ATOM      4  C5  UNL d   1       5.415   4.237   1.447  0.00  0.00     0.000 A 
ATOM      5  C6  UNL d   1       4.068   4.086   1.774  0.00  0.00     0.000 A 
ATOM      6  C7  UNL d   1       3.284   3.090   1.165  0.00  0.00    -0.073 A 
ATOM      7  C8  UNL d   1       1.835   2.975   1.551  0.00  0.00     0.078 C 
ENDROOT
BRANCH   1   8
ATOM      8  C1  UNL d   1       3.080   1.194  -0.544  0.00  0.00     0.053 C 
ATOM      9  C   UNL d   1       2.289   0.303   0.402  0.00  0.00     0.018 C 
ENDBRANCH   1   8
TORSDOF 1
ENDMDL
