MODEL 1
REMARK minimizedAffinity 16.7594624
REMARK minimizedRMSD -1
REMARK  1 active torsions:
REMARK  status: ('A' for Active; 'I' for Inactive)
REMARK    1  A    between atoms: C1_2  and  C2_3 
ROOT
ATOM      1  C2  UNL d   1      -2.991  -0.423   1.628  0.00  0.00    -0.076 A 
ATOM      2  C3  UNL d   1      -2.472  -1.511   0.904  0.00  0.00     0.004 A 
ATOM      3  C4  UNL d   1      -1.177  -1.972   1.133  0.00  0.00    -0.003 A 
ATOM      4  C5  UNL d   1      -0.379  -1.354   2.090  0.00  0.00     0.000 A 
ATOM      5  C6  UNL d   1      -0.884  -0.285   2.830  0.00  0.00     0.000 A 
ATOM      6  C7  UNL d   1      -2.193   0.182   2.623  0.00  0.00    -0.073 A 
ATOM      7  C8  UNL d   1      -2.683   1.342   3.445  0.00  0.00     0.078 C 
ENDROOT
BRANCH   1   8
ATOM      8  C1  UNL d   1      -4.392   0.051   1.318  0.00  0.00     0.053 C 
ATOM      9  C   UNL d   1      -4.778  -0.180  -0.135  0.00  0.00     0.018 C 
ENDBRANCH   1   8
TORSDOF 1
ENDMDL
