MODEL 1
REMARK minimizedAffinity 13.8962336
REMARK minimizedRMSD -1
REMARK  1 active torsions:
REMARK  status: ('A' for Active; 'I' for Inactive)
REMARK    1  A    between atoms: C1_2  and  C2_3 
ROOT
ATOM      1  C2  UNL d   1       4.362   4.260  -3.708  0.00  0.00    -0.076 A 
ATOM      2  C3  UNL d   1       3.911   4.883  -2.531  0.00  0.00     0.004 A 
ATOM      3  C4  UNL d   1       2.612   4.684  -2.067  0.00  0.00    -0.003 A 
ATOM      4  C5  UNL d   1       1.743   3.859  -2.773  0.00  0.00     0.000 A 
ATOM      5  C6  UNL d   1       2.179   3.219  -3.932  0.00  0.00     0.000 A 
ATOM      6  C7  UNL d   1       3.491   3.396  -4.405  0.00  0.00    -0.073 A 
ATOM      7  C8  UNL d   1       3.906   2.687  -5.664  0.00  0.00     0.078 C 
ENDROOT
BRANCH   1   8
ATOM      8  C1  UNL d   1       5.773   4.535  -4.177  0.00  0.00     0.053 C 
ATOM      9  C   UNL d   1       6.000   6.000  -4.517  0.00  0.00     0.018 C 
ENDBRANCH   1   8
TORSDOF 1
ENDMDL
