MODEL 1
REMARK minimizedAffinity 8.74911022
REMARK minimizedRMSD -1
REMARK  1 active torsions:
REMARK  status: ('A' for Active; 'I' for Inactive)
REMARK    1  A    between atoms: C1_2  and  C2_3 
ROOT
ATOM      1  C2  UNL d   1       4.575   4.493  -4.085  0.00  0.00    -0.076 A 
ATOM      2  C3  UNL d   1       4.439   5.161  -2.855  0.00  0.00     0.004 A 
ATOM      3  C4  UNL d   1       3.252   5.090  -2.128  0.00  0.00    -0.003 A 
ATOM      4  C5  UNL d   1       2.182   4.348  -2.618  0.00  0.00     0.000 A 
ATOM      5  C6  UNL d   1       2.306   3.665  -3.827  0.00  0.00     0.000 A 
ATOM      6  C7  UNL d   1       3.502   3.714  -4.565  0.00  0.00    -0.073 A 
ATOM      7  C8  UNL d   1       3.578   2.962  -5.866  0.00  0.00     0.078 C 
ENDROOT
BRANCH   1   8
ATOM      8  C1  UNL d   1       5.877   4.630  -4.842  0.00  0.00     0.053 C 
ATOM      9  C   UNL d   1       5.998   5.967  -5.556  0.00  0.00     0.018 C 
ENDBRANCH   1   8
TORSDOF 1
ENDMDL
