MODEL 1
REMARK minimizedAffinity 19.1070385
REMARK minimizedRMSD -1
REMARK  1 active torsions:
REMARK  status: ('A' for Active; 'I' for Inactive)
REMARK    1  A    between atoms: C1_2  and  C2_3 
ROOT
ATOM      1  C2  UNL d   1       2.477   3.091  -3.385  0.00  0.00    -0.076 A 
ATOM      2  C3  UNL d   1       3.673   2.760  -4.046  0.00  0.00     0.004 A 
ATOM      3  C4  UNL d   1       3.925   3.211  -5.341  0.00  0.00    -0.003 A 
ATOM      4  C5  UNL d   1       2.985   3.999  -5.995  0.00  0.00     0.000 A 
ATOM      5  C6  UNL d   1       1.801   4.351  -5.348  0.00  0.00     0.000 A 
ATOM      6  C7  UNL d   1       1.538   3.919  -4.037  0.00  0.00    -0.073 A 
ATOM      7  C8  UNL d   1       0.242   4.323  -3.389  0.00  0.00     0.078 C 
ENDROOT
BRANCH   1   8
ATOM      8  C1  UNL d   1       2.247   2.551  -1.991  0.00  0.00     0.053 C 
ATOM      9  C   UNL d   1       2.626   1.083  -1.865  0.00  0.00     0.018 C 
ENDBRANCH   1   8
TORSDOF 1
ENDMDL
