MODEL 1
REMARK minimizedAffinity 23.0835514
REMARK minimizedRMSD -1
REMARK  1 active torsions:
REMARK  status: ('A' for Active; 'I' for Inactive)
REMARK    1  A    between atoms: C1_2  and  C2_3 
ROOT
ATOM      1  C2  UNL d   1       3.523   3.150  -3.403  0.00  0.00    -0.076 A 
ATOM      2  C3  UNL d   1       4.131   3.752  -2.288  0.00  0.00     0.004 A 
ATOM      3  C4  UNL d   1       5.359   4.401  -2.404  0.00  0.00    -0.003 A 
ATOM      4  C5  UNL d   1       5.998   4.461  -3.637  0.00  0.00     0.000 A 
ATOM      5  C6  UNL d   1       5.400   3.885  -4.758  0.00  0.00     0.000 A 
ATOM      6  C7  UNL d   1       4.155   3.240  -4.661  0.00  0.00    -0.073 A 
ATOM      7  C8  UNL d   1       3.559   2.632  -5.901  0.00  0.00     0.078 C 
ENDROOT
BRANCH   1   8
ATOM      8  C1  UNL d   1       2.204   2.436  -3.211  0.00  0.00     0.053 C 
ATOM      9  C   UNL d   1       2.143   1.667  -1.900  0.00  0.00     0.018 C 
ENDBRANCH   1   8
TORSDOF 1
ENDMDL
