MODEL 1
REMARK minimizedAffinity 19.502943
REMARK minimizedRMSD -1
REMARK  1 active torsions:
REMARK  status: ('A' for Active; 'I' for Inactive)
REMARK    1  A    between atoms: C1_2  and  C2_3 
ROOT
ATOM      1  C2  UNL d   1       3.453   3.535  -3.541  0.00  0.00    -0.076 A 
ATOM      2  C3  UNL d   1       3.971   4.254  -2.449  0.00  0.00     0.004 A 
ATOM      3  C4  UNL d   1       5.143   4.998  -2.571  0.00  0.00    -0.003 A 
ATOM      4  C5  UNL d   1       5.816   5.038  -3.788  0.00  0.00     0.000 A 
ATOM      5  C6  UNL d   1       5.307   4.346  -4.886  0.00  0.00     0.000 A 
ATOM      6  C7  UNL d   1       4.118   3.603  -4.784  0.00  0.00    -0.073 A 
ATOM      7  C8  UNL d   1       3.617   2.871  -6.000  0.00  0.00     0.078 C 
ENDROOT
BRANCH   1   8
ATOM      8  C1  UNL d   1       2.193   2.723  -3.342  0.00  0.00     0.053 C 
ATOM      9  C   UNL d   1       2.368   1.621  -2.309  0.00  0.00     0.018 C 
ENDBRANCH   1   8
TORSDOF 1
ENDMDL
