MODEL 1
REMARK minimizedAffinity 12.7936802
REMARK minimizedRMSD -1
REMARK  1 active torsions:
REMARK  status: ('A' for Active; 'I' for Inactive)
REMARK    1  A    between atoms: C1_2  and  C2_3 
ROOT
ATOM      1  C2  UNL d   1      -0.511  -1.171   2.998  0.00  0.00    -0.076 A 
ATOM      2  C3  UNL d   1      -0.454  -0.557   4.261  0.00  0.00     0.004 A 
ATOM      3  C4  UNL d   1      -1.248   0.550   4.557  0.00  0.00    -0.003 A 
ATOM      4  C5  UNL d   1      -2.112   1.060   3.595  0.00  0.00     0.000 A 
ATOM      5  C6  UNL d   1      -2.195   0.453   2.343  0.00  0.00     0.000 A 
ATOM      6  C7  UNL d   1      -1.413  -0.673   2.033  0.00  0.00    -0.073 A 
ATOM      7  C8  UNL d   1      -1.538  -1.285   0.664  0.00  0.00     0.078 C 
ENDROOT
BRANCH   1   8
ATOM      8  C1  UNL d   1       0.393  -2.351   2.724  0.00  0.00     0.053 C 
ATOM      9  C   UNL d   1       1.303  -2.673   3.900  0.00  0.00     0.018 C 
ENDBRANCH   1   8
TORSDOF 1
ENDMDL
