MODEL 1
REMARK minimizedAffinity 14.8551502
REMARK minimizedRMSD -1
REMARK  1 active torsions:
REMARK  status: ('A' for Active; 'I' for Inactive)
REMARK    1  A    between atoms: C1_2  and  C2_3 
ROOT
ATOM      1  C2  UNL d   1      -0.843  -0.187   3.299  0.00  0.00    -0.076 A 
ATOM      2  C3  UNL d   1      -1.913   0.694   3.065  0.00  0.00     0.004 A 
ATOM      3  C4  UNL d   1      -2.709   0.571   1.928  0.00  0.00    -0.003 A 
ATOM      4  C5  UNL d   1      -2.448  -0.437   1.006  0.00  0.00     0.000 A 
ATOM      5  C6  UNL d   1      -1.402  -1.331   1.230  0.00  0.00     0.000 A 
ATOM      6  C7  UNL d   1      -0.600  -1.231   2.380  0.00  0.00    -0.073 A 
ATOM      7  C8  UNL d   1       0.518  -2.219   2.569  0.00  0.00     0.078 C 
ENDROOT
BRANCH   1   8
ATOM      8  C1  UNL d   1       0.002   0.012   4.537  0.00  0.00     0.053 C 
ATOM      9  C   UNL d   1      -0.835   0.142   5.800  0.00  0.00     0.018 C 
ENDBRANCH   1   8
TORSDOF 1
ENDMDL
