MODEL 1
REMARK minimizedAffinity 12.5631008
REMARK minimizedRMSD -1
REMARK  1 active torsions:
REMARK  status: ('A' for Active; 'I' for Inactive)
REMARK    1  A    between atoms: C1_2  and  C2_3 
ROOT
ATOM      1  C2  UNL d   1      -2.203   0.078   2.479  0.00  0.00    -0.076 A 
ATOM      2  C3  UNL d   1      -2.635   1.028   3.421  0.00  0.00     0.004 A 
ATOM      3  C4  UNL d   1      -1.983   1.174   4.644  0.00  0.00    -0.003 A 
ATOM      4  C5  UNL d   1      -0.887   0.372   4.945  0.00  0.00     0.000 A 
ATOM      5  C6  UNL d   1      -0.434  -0.563   4.016  0.00  0.00     0.000 A 
ATOM      6  C7  UNL d   1      -1.070  -0.712   2.771  0.00  0.00    -0.073 A 
ATOM      7  C8  UNL d   1      -0.543  -1.741   1.809  0.00  0.00     0.078 C 
ENDROOT
BRANCH   1   8
ATOM      8  C1  UNL d   1      -2.966  -0.054   1.181  0.00  0.00     0.053 C 
ATOM      9  C   UNL d   1      -4.469   0.090   1.371  0.00  0.00     0.018 C 
ENDBRANCH   1   8
TORSDOF 1
ENDMDL
