MODEL 1
REMARK minimizedAffinity 9.17367077
REMARK minimizedRMSD -1
REMARK  1 active torsions:
REMARK  status: ('A' for Active; 'I' for Inactive)
REMARK    1  A    between atoms: C1_2  and  C2_3 
ROOT
ATOM      1  C2  UNL d   1       0.540  -0.099   1.626  0.00  0.00    -0.076 A 
ATOM      2  C3  UNL d   1       0.695   0.778   0.537  0.00  0.00     0.004 A 
ATOM      3  C4  UNL d   1       1.958   1.074   0.028  0.00  0.00    -0.003 A 
ATOM      4  C5  UNL d   1       3.088   0.498   0.599  0.00  0.00     0.000 A 
ATOM      5  C6  UNL d   1       2.952  -0.388   1.668  0.00  0.00     0.000 A 
ATOM      6  C7  UNL d   1       1.684  -0.709   2.183  0.00  0.00    -0.073 A 
ATOM      7  C8  UNL d   1       1.596  -1.666   3.340  0.00  0.00     0.078 C 
ENDROOT
BRANCH   1   8
ATOM      8  C1  UNL d   1      -0.853  -0.361   2.152  0.00  0.00     0.053 C 
ATOM      9  C   UNL d   1      -1.393   0.799   2.974  0.00  0.00     0.018 C 
ENDBRANCH   1   8
TORSDOF 1
ENDMDL
