MODEL 1
REMARK minimizedAffinity 15.0692444
REMARK minimizedRMSD -1
REMARK  1 active torsions:
REMARK  status: ('A' for Active; 'I' for Inactive)
REMARK    1  A    between atoms: C1_2  and  C2_3 
ROOT
ATOM      1  C2  UNL d   1       3.521   3.775  -3.209  0.00  0.00    -0.076 A 
ATOM      2  C3  UNL d   1       4.040   4.506  -2.126  0.00  0.00     0.004 A 
ATOM      3  C4  UNL d   1       5.269   5.155  -2.223  0.00  0.00    -0.003 A 
ATOM      4  C5  UNL d   1       5.999   5.085  -3.404  0.00  0.00     0.000 A 
ATOM      5  C6  UNL d   1       5.491   4.379  -4.494  0.00  0.00     0.000 A 
ATOM      6  C7  UNL d   1       4.246   3.732  -4.419  0.00  0.00    -0.073 A 
ATOM      7  C8  UNL d   1       3.749   2.980  -5.623  0.00  0.00     0.078 C 
ENDROOT
BRANCH   1   8
ATOM      8  C1  UNL d   1       2.195   3.069  -3.036  0.00  0.00     0.053 C 
ATOM      9  C   UNL d   1       2.219   2.052  -1.905  0.00  0.00     0.018 C 
ENDBRANCH   1   8
TORSDOF 1
ENDMDL
