MODEL 1
REMARK minimizedAffinity 11.9713049
REMARK minimizedRMSD -1
REMARK  1 active torsions:
REMARK  status: ('A' for Active; 'I' for Inactive)
REMARK    1  A    between atoms: C1_2  and  C2_3 
ROOT
ATOM      1  C2  UNL d   1       3.363   3.531  -3.031  0.00  0.00    -0.076 A 
ATOM      2  C3  UNL d   1       3.847   4.201  -1.894  0.00  0.00     0.004 A 
ATOM      3  C4  UNL d   1       5.153   4.685  -1.848  0.00  0.00    -0.003 A 
ATOM      4  C5  UNL d   1       5.997   4.509  -2.939  0.00  0.00     0.000 A 
ATOM      5  C6  UNL d   1       5.528   3.862  -4.082  0.00  0.00     0.000 A 
ATOM      6  C7  UNL d   1       4.209   3.382  -4.151  0.00  0.00    -0.073 A 
ATOM      7  C8  UNL d   1       3.759   2.687  -5.407  0.00  0.00     0.078 C 
ENDROOT
BRANCH   1   8
ATOM      8  C1  UNL d   1       1.947   3.004  -3.013  0.00  0.00     0.053 C 
ATOM      9  C   UNL d   1       1.806   1.739  -2.181  0.00  0.00     0.018 C 
ENDBRANCH   1   8
TORSDOF 1
ENDMDL
