MODEL 1
REMARK minimizedAffinity 5.32653856
REMARK minimizedRMSD -1
REMARK  1 active torsions:
REMARK  status: ('A' for Active; 'I' for Inactive)
REMARK    1  A    between atoms: C1_2  and  C2_3 
ROOT
ATOM      1  C2  UNL d   1       0.646  -1.557   0.277  0.00  0.00    -0.073 A 
ATOM      2  C3  UNL d   1       1.555  -0.569   0.673  0.00  0.00    -0.002 A 
ATOM      3  C4  UNL d   1       1.148   0.466   1.516  0.00  0.00     0.004 A 
ATOM      4  C5  UNL d   1      -0.167   0.520   1.977  0.00  0.00    -0.004 A 
ATOM      5  C6  UNL d   1      -1.087  -0.464   1.603  0.00  0.00    -0.075 A 
ATOM      6  C7  UNL d   1      -2.506  -0.419   2.089  0.00  0.00     0.076 C 
ATOM      7  C8  UNL d   1      -0.672  -1.499   0.754  0.00  0.00     0.001 A 
ENDROOT
BRANCH   1   8
ATOM      8  C1  UNL d   1       1.082  -2.681  -0.627  0.00  0.00     0.053 C 
ATOM      9  C   UNL d   1       0.186  -3.902  -0.492  0.00  0.00     0.018 C 
ENDBRANCH   1   8
TORSDOF 1
ENDMDL
