MODEL 1
REMARK minimizedAffinity 4.88264704
REMARK minimizedRMSD -1
REMARK  1 active torsions:
REMARK  status: ('A' for Active; 'I' for Inactive)
REMARK    1  A    between atoms: C1_2  and  C2_3 
ROOT
ATOM      1  C2  UNL d   1      -0.167  -2.477  -0.638  0.00  0.00    -0.073 A 
ATOM      2  C3  UNL d   1      -1.221  -3.318  -1.014  0.00  0.00    -0.002 A 
ATOM      3  C4  UNL d   1      -1.029  -4.698  -1.091  0.00  0.00     0.004 A 
ATOM      4  C5  UNL d   1       0.215  -5.252  -0.786  0.00  0.00    -0.004 A 
ATOM      5  C6  UNL d   1       1.277  -4.429  -0.397  0.00  0.00    -0.075 A 
ATOM      6  C7  UNL d   1       2.622  -5.008  -0.069  0.00  0.00     0.076 C 
ATOM      7  C8  UNL d   1       1.077  -3.044  -0.325  0.00  0.00     0.001 A 
ENDROOT
BRANCH   1   8
ATOM      8  C1  UNL d   1      -0.372  -0.987  -0.547  0.00  0.00     0.053 C 
ATOM      9  C   UNL d   1       0.080  -0.430   0.794  0.00  0.00     0.018 C 
ENDBRANCH   1   8
TORSDOF 1
ENDMDL
