MODEL 1
REMARK minimizedAffinity -2.67609
REMARK minimizedRMSD -1
REMARK  1 active torsions:
REMARK  status: ('A' for Active; 'I' for Inactive)
REMARK    1  A    between atoms: C1_2  and  C2_3 
ROOT
ATOM      1  C2  UNL d   1       0.369  -1.965  -1.323  0.00  0.00    -0.073 A 
ATOM      2  C3  UNL d   1      -0.593  -2.273  -2.290  0.00  0.00    -0.002 A 
ATOM      3  C4  UNL d   1      -0.988  -3.596  -2.495  0.00  0.00     0.004 A 
ATOM      4  C5  UNL d   1      -0.431  -4.621  -1.730  0.00  0.00    -0.004 A 
ATOM      5  C6  UNL d   1       0.523  -4.331  -0.750  0.00  0.00    -0.075 A 
ATOM      6  C7  UNL d   1       1.133  -5.423   0.079  0.00  0.00     0.076 C 
ATOM      7  C8  UNL d   1       0.917  -3.001  -0.553  0.00  0.00     0.001 A 
ENDROOT
BRANCH   1   8
ATOM      8  C1  UNL d   1       0.795  -0.537  -1.094  0.00  0.00     0.053 C 
ATOM      9  C   UNL d   1       0.515  -0.080   0.329  0.00  0.00     0.018 C 
ENDBRANCH   1   8
TORSDOF 1
ENDMDL
