MODEL 1
REMARK minimizedAffinity -2.60289025
REMARK minimizedRMSD -1
REMARK  1 active torsions:
REMARK  status: ('A' for Active; 'I' for Inactive)
REMARK    1  A    between atoms: C1_2  and  C2_3 
ROOT
ATOM      1  C2  UNL d   1       0.415  -1.817  -0.478  0.00  0.00    -0.073 A 
ATOM      2  C3  UNL d   1       0.577  -1.373   0.839  0.00  0.00    -0.002 A 
ATOM      3  C4  UNL d   1       0.527  -0.010   1.135  0.00  0.00     0.004 A 
ATOM      4  C5  UNL d   1       0.308   0.921   0.119  0.00  0.00    -0.004 A 
ATOM      5  C6  UNL d   1       0.132   0.496  -1.202  0.00  0.00    -0.075 A 
ATOM      6  C7  UNL d   1      -0.102   1.484  -2.306  0.00  0.00     0.076 C 
ATOM      7  C8  UNL d   1       0.186  -0.875  -1.491  0.00  0.00     0.001 A 
ENDROOT
BRANCH   1   8
ATOM      8  C1  UNL d   1       0.461  -3.288  -0.801  0.00  0.00     0.053 C 
ATOM      9  C   UNL d   1      -0.822  -3.768  -1.460  0.00  0.00     0.018 C 
ENDBRANCH   1   8
TORSDOF 1
ENDMDL
