MODEL 1
REMARK minimizedAffinity -4.97110033
REMARK minimizedRMSD -1
REMARK  1 active torsions:
REMARK  status: ('A' for Active; 'I' for Inactive)
REMARK    1  A    between atoms: C1_2  and  C2_3 
ROOT
ATOM      1  C2  UNL d   1       0.328  -0.099  -0.209  0.00  0.00    -0.073 A 
ATOM      2  C3  UNL d   1       0.465  -0.193   1.181  0.00  0.00    -0.002 A 
ATOM      3  C4  UNL d   1       0.015   0.839   2.005  0.00  0.00     0.004 A 
ATOM      4  C5  UNL d   1      -0.581   1.971   1.450  0.00  0.00    -0.004 A 
ATOM      5  C6  UNL d   1      -0.738   2.078   0.065  0.00  0.00    -0.075 A 
ATOM      6  C7  UNL d   1      -1.376   3.291  -0.548  0.00  0.00     0.076 C 
ATOM      7  C8  UNL d   1      -0.282   1.039  -0.757  0.00  0.00     0.001 A 
ENDROOT
BRANCH   1   8
ATOM      8  C1  UNL d   1       0.806  -1.214  -1.103  0.00  0.00     0.053 C 
ATOM      9  C   UNL d   1      -0.326  -2.145  -1.508  0.00  0.00     0.018 C 
ENDBRANCH   1   8
TORSDOF 1
ENDMDL
