MODEL 1
REMARK minimizedAffinity -4.87919188
REMARK minimizedRMSD -1
REMARK  1 active torsions:
REMARK  status: ('A' for Active; 'I' for Inactive)
REMARK    1  A    between atoms: C1_2  and  C2_3 
ROOT
ATOM      1  C2  UNL d   1       0.284   0.437  -0.169  0.00  0.00    -0.073 A 
ATOM      2  C3  UNL d   1       1.020   0.097   0.972  0.00  0.00    -0.002 A 
ATOM      3  C4  UNL d   1       0.861   0.820   2.155  0.00  0.00     0.004 A 
ATOM      4  C5  UNL d   1      -0.039   1.885   2.212  0.00  0.00    -0.004 A 
ATOM      5  C6  UNL d   1      -0.792   2.233   1.085  0.00  0.00    -0.075 A 
ATOM      6  C7  UNL d   1      -1.762   3.376   1.129  0.00  0.00     0.076 C 
ATOM      7  C8  UNL d   1      -0.624   1.503  -0.099  0.00  0.00     0.001 A 
ENDROOT
BRANCH   1   8
ATOM      8  C1  UNL d   1       0.448  -0.345  -1.446  0.00  0.00     0.053 C 
ATOM      9  C   UNL d   1      -0.024  -1.783  -1.299  0.00  0.00     0.018 C 
ENDBRANCH   1   8
TORSDOF 1
ENDMDL
