MODEL 1
REMARK minimizedAffinity -7.02125454
REMARK minimizedRMSD -1
REMARK  1 active torsions:
REMARK  status: ('A' for Active; 'I' for Inactive)
REMARK    1  A    between atoms: C1_2  and  C2_3 
ROOT
ATOM      1  C2  UNL d   1      -0.578   2.676   0.463  0.00  0.00    -0.073 A 
ATOM      2  C3  UNL d   1      -0.606   2.573   1.859  0.00  0.00    -0.002 A 
ATOM      3  C4  UNL d   1      -0.422   1.335   2.477  0.00  0.00     0.004 A 
ATOM      4  C5  UNL d   1      -0.201   0.192   1.709  0.00  0.00    -0.004 A 
ATOM      5  C6  UNL d   1      -0.157   0.278   0.314  0.00  0.00    -0.075 A 
ATOM      6  C7  UNL d   1       0.077  -0.943  -0.527  0.00  0.00     0.076 C 
ATOM      7  C8  UNL d   1      -0.346   1.523  -0.300  0.00  0.00     0.001 A 
ENDROOT
BRANCH   1   8
ATOM      8  C1  UNL d   1      -0.770   4.011  -0.209  0.00  0.00     0.053 C 
ATOM      9  C   UNL d   1       0.056   4.134  -1.480  0.00  0.00     0.018 C 
ENDBRANCH   1   8
TORSDOF 1
ENDMDL
