MODEL 1
REMARK minimizedAffinity 6.68901348
REMARK minimizedRMSD -1
REMARK  0 active torsions:
REMARK  status: ('A' for Active; 'I' for Inactive)
ROOT
ATOM      1  C   UNL d   1       3.031   2.392  -1.162  0.00  0.00     0.077 C 
ATOM      2  C1  UNL d   1       2.478   1.064  -0.737  0.00  0.00    -0.074 A 
ATOM      3  C2  UNL d   1       1.931   0.180  -1.672  0.00  0.00    -0.005 A 
ATOM      4  C3  UNL d   1       1.430  -1.056  -1.263  0.00  0.00     0.006 A 
ATOM      5  C4  UNL d   1       1.470  -1.420   0.083  0.00  0.00    -0.005 A 
ATOM      6  C5  UNL d   1       2.014  -0.549   1.033  0.00  0.00    -0.074 A 
ATOM      7  C6  UNL d   1       2.074  -0.929   2.483  0.00  0.00     0.077 C 
ATOM      8  C7  UNL d   1       2.523   0.688   0.613  0.00  0.00    -0.001 A 
ENDROOT
TORSDOF 0
ENDMDL
