MODEL 1
REMARK minimizedAffinity -0.473944396
REMARK minimizedRMSD -1
REMARK  0 active torsions:
REMARK  status: ('A' for Active; 'I' for Inactive)
ROOT
ATOM      1  C   UNL d   1       2.366  -1.625   2.079  0.00  0.00     0.077 C 
ATOM      2  C1  UNL d   1       2.336  -1.020   0.707  0.00  0.00    -0.074 A 
ATOM      3  C2  UNL d   1       2.390  -1.826  -0.435  0.00  0.00    -0.005 A 
ATOM      4  C3  UNL d   1       2.352  -1.249  -1.705  0.00  0.00     0.006 A 
ATOM      5  C4  UNL d   1       2.260   0.136  -1.845  0.00  0.00    -0.005 A 
ATOM      6  C5  UNL d   1       2.204   0.957  -0.715  0.00  0.00    -0.074 A 
ATOM      7  C6  UNL d   1       2.094   2.447  -0.848  0.00  0.00     0.077 C 
ATOM      8  C7  UNL d   1       2.235   0.370   0.558  0.00  0.00    -0.001 A 
ENDROOT
TORSDOF 0
ENDMDL
