MODEL 1
REMARK minimizedAffinity 4.50216627
REMARK minimizedRMSD -1
REMARK  0 active torsions:
REMARK  status: ('A' for Active; 'I' for Inactive)
ROOT
ATOM      1  C   UNL d   1      -5.091  -0.712  -4.117  0.00  0.00     0.077 C 
ATOM      2  C1  UNL d   1      -4.428   0.473  -4.754  0.00  0.00    -0.074 A 
ATOM      3  C2  UNL d   1      -3.195   0.345  -5.401  0.00  0.00    -0.005 A 
ATOM      4  C3  UNL d   1      -2.595   1.454  -5.998  0.00  0.00     0.006 A 
ATOM      5  C4  UNL d   1      -3.222   2.701  -5.953  0.00  0.00    -0.005 A 
ATOM      6  C5  UNL d   1      -4.455   2.848  -5.311  0.00  0.00    -0.074 A 
ATOM      7  C6  UNL d   1      -5.147   4.178  -5.263  0.00  0.00     0.077 C 
ATOM      8  C7  UNL d   1      -5.055   1.727  -4.720  0.00  0.00    -0.001 A 
ENDROOT
TORSDOF 0
ENDMDL
