MODEL 1
REMARK minimizedAffinity 5.36733675
REMARK minimizedRMSD -1
REMARK  0 active torsions:
REMARK  status: ('A' for Active; 'I' for Inactive)
ROOT
ATOM      1  C   UNL d   1      -3.032   1.147   3.254  0.00  0.00     0.077 C 
ATOM      2  C1  UNL d   1      -1.857   0.305   2.852  0.00  0.00    -0.074 A 
ATOM      3  C2  UNL d   1      -1.996  -0.719   1.909  0.00  0.00    -0.005 A 
ATOM      4  C3  UNL d   1      -0.893  -1.488   1.538  0.00  0.00     0.006 A 
ATOM      5  C4  UNL d   1       0.358  -1.241   2.105  0.00  0.00    -0.005 A 
ATOM      6  C5  UNL d   1       0.516  -0.221   3.048  0.00  0.00    -0.074 A 
ATOM      7  C6  UNL d   1       1.856   0.064   3.659  0.00  0.00     0.077 C 
ATOM      8  C7  UNL d   1      -0.596   0.552   3.411  0.00  0.00    -0.001 A 
ENDROOT
TORSDOF 0
ENDMDL
