MODEL 1
REMARK minimizedAffinity 0.985991418
REMARK minimizedRMSD -1
REMARK  0 active torsions:
REMARK  status: ('A' for Active; 'I' for Inactive)
ROOT
ATOM      1  C   UNL d   1      -1.555  -1.522   1.501  0.00  0.00     0.077 C 
ATOM      2  C1  UNL d   1      -0.142  -1.563   0.998  0.00  0.00    -0.074 A 
ATOM      3  C2  UNL d   1       0.906  -1.970   1.830  0.00  0.00    -0.005 A 
ATOM      4  C3  UNL d   1       2.213  -2.011   1.345  0.00  0.00     0.006 A 
ATOM      5  C4  UNL d   1       2.485  -1.646   0.026  0.00  0.00    -0.005 A 
ATOM      6  C5  UNL d   1       1.450  -1.237  -0.821  0.00  0.00    -0.074 A 
ATOM      7  C6  UNL d   1       1.724  -0.851  -2.244  0.00  0.00     0.077 C 
ATOM      8  C7  UNL d   1       0.138  -1.205  -0.328  0.00  0.00    -0.001 A 
ENDROOT
TORSDOF 0
ENDMDL
