MODEL 1
REMARK minimizedAffinity 0.37052232
REMARK minimizedRMSD -1
REMARK  0 active torsions:
REMARK  status: ('A' for Active; 'I' for Inactive)
ROOT
ATOM      1  C   UNL d   1      -0.693   0.169   3.386  0.00  0.00     0.077 C 
ATOM      2  C1  UNL d   1       0.044  -1.023   2.850  0.00  0.00    -0.074 A 
ATOM      3  C2  UNL d   1      -0.358  -2.322   3.177  0.00  0.00    -0.005 A 
ATOM      4  C3  UNL d   1       0.331  -3.421   2.663  0.00  0.00     0.006 A 
ATOM      5  C4  UNL d   1       1.426  -3.232   1.819  0.00  0.00    -0.005 A 
ATOM      6  C5  UNL d   1       1.841  -1.940   1.480  0.00  0.00    -0.074 A 
ATOM      7  C6  UNL d   1       3.010  -1.719   0.566  0.00  0.00     0.077 C 
ATOM      8  C7  UNL d   1       1.140  -0.841   1.995  0.00  0.00    -0.001 A 
ENDROOT
TORSDOF 0
ENDMDL
