MODEL 1
REMARK minimizedAffinity 2.34336042
REMARK minimizedRMSD -1
REMARK  0 active torsions:
REMARK  status: ('A' for Active; 'I' for Inactive)
ROOT
ATOM      1  C   UNL d   1      -1.879   0.421   2.918  0.00  0.00     0.077 C 
ATOM      2  C1  UNL d   1      -0.659  -0.217   2.324  0.00  0.00    -0.074 A 
ATOM      3  C2  UNL d   1       0.354  -0.730   3.140  0.00  0.00    -0.005 A 
ATOM      4  C3  UNL d   1       1.479  -1.329   2.572  0.00  0.00     0.006 A 
ATOM      5  C4  UNL d   1       1.602  -1.419   1.185  0.00  0.00    -0.005 A 
ATOM      6  C5  UNL d   1       0.599  -0.912   0.353  0.00  0.00    -0.074 A 
ATOM      7  C6  UNL d   1       0.711  -1.010  -1.139  0.00  0.00     0.077 C 
ATOM      8  C7  UNL d   1      -0.531  -0.319   0.931  0.00  0.00    -0.001 A 
ENDROOT
TORSDOF 0
ENDMDL
