MODEL 1
REMARK minimizedAffinity 6.83939695
REMARK minimizedRMSD -1
REMARK  0 active torsions:
REMARK  status: ('A' for Active; 'I' for Inactive)
ROOT
ATOM      1  C   UNL d   1      -2.693   1.270   3.676  0.00  0.00     0.077 C 
ATOM      2  C1  UNL d   1      -1.656   0.359   3.090  0.00  0.00    -0.074 A 
ATOM      3  C2  UNL d   1      -0.538  -0.031   3.834  0.00  0.00    -0.005 A 
ATOM      4  C3  UNL d   1       0.413  -0.886   3.279  0.00  0.00     0.006 A 
ATOM      5  C4  UNL d   1       0.257  -1.360   1.976  0.00  0.00    -0.005 A 
ATOM      6  C5  UNL d   1      -0.855  -0.982   1.217  0.00  0.00    -0.074 A 
ATOM      7  C6  UNL d   1      -1.043  -1.490  -0.182  0.00  0.00     0.077 C 
ATOM      8  C7  UNL d   1      -1.810  -0.127   1.784  0.00  0.00    -0.001 A 
ENDROOT
TORSDOF 0
ENDMDL
