MODEL 1
REMARK minimizedAffinity 6.03532457
REMARK minimizedRMSD -1
REMARK  0 active torsions:
REMARK  status: ('A' for Active; 'I' for Inactive)
ROOT
ATOM      1  C   UNL d   1       0.715  -0.760   3.309  0.00  0.00     0.077 C 
ATOM      2  C1  UNL d   1       0.879  -0.843   1.820  0.00  0.00    -0.074 A 
ATOM      3  C2  UNL d   1       2.116  -1.160   1.249  0.00  0.00    -0.005 A 
ATOM      4  C3  UNL d   1       2.250  -1.242  -0.137  0.00  0.00     0.006 A 
ATOM      5  C4  UNL d   1       1.151  -1.010  -0.964  0.00  0.00    -0.005 A 
ATOM      6  C5  UNL d   1      -0.094  -0.693  -0.412  0.00  0.00    -0.074 A 
ATOM      7  C6  UNL d   1      -1.287  -0.450  -1.287  0.00  0.00     0.077 C 
ATOM      8  C7  UNL d   1      -0.223  -0.619   0.982  0.00  0.00    -0.001 A 
ENDROOT
TORSDOF 0
ENDMDL
