MODEL 1
REMARK minimizedAffinity 4.7846117
REMARK minimizedRMSD -1
REMARK  0 active torsions:
REMARK  status: ('A' for Active; 'I' for Inactive)
ROOT
ATOM      1  C   UNL d   1       0.893  -1.406   0.090  0.00  0.00     0.077 C 
ATOM      2  C1  UNL d   1       0.691  -1.027   1.527  0.00  0.00    -0.074 A 
ATOM      3  C2  UNL d   1       1.590  -1.443   2.514  0.00  0.00    -0.005 A 
ATOM      4  C3  UNL d   1       1.394  -1.074   3.845  0.00  0.00     0.006 A 
ATOM      5  C4  UNL d   1       0.298  -0.287   4.202  0.00  0.00    -0.005 A 
ATOM      6  C5  UNL d   1      -0.611   0.140   3.228  0.00  0.00    -0.074 A 
ATOM      7  C6  UNL d   1      -1.788   0.994   3.593  0.00  0.00     0.077 C 
ATOM      8  C7  UNL d   1      -0.403  -0.229   1.892  0.00  0.00    -0.001 A 
ENDROOT
TORSDOF 0
ENDMDL
