MODEL 1
REMARK minimizedAffinity 1.31020796
REMARK minimizedRMSD -1
REMARK  0 active torsions:
REMARK  status: ('A' for Active; 'I' for Inactive)
ROOT
ATOM      1  C   UNL d   1       0.379  -0.859   3.194  0.00  0.00     0.077 C 
ATOM      2  C1  UNL d   1       1.257  -1.276   2.052  0.00  0.00    -0.074 A 
ATOM      3  C2  UNL d   1       2.280  -2.212   2.236  0.00  0.00    -0.005 A 
ATOM      4  C3  UNL d   1       3.082  -2.597   1.162  0.00  0.00     0.006 A 
ATOM      5  C4  UNL d   1       2.870  -2.052  -0.105  0.00  0.00    -0.005 A 
ATOM      6  C5  UNL d   1       1.851  -1.116  -0.308  0.00  0.00    -0.074 A 
ATOM      7  C6  UNL d   1       1.603  -0.528  -1.665  0.00  0.00     0.077 C 
ATOM      8  C7  UNL d   1       1.044  -0.739   0.774  0.00  0.00    -0.001 A 
ENDROOT
TORSDOF 0
ENDMDL
