MODEL 1
REMARK minimizedAffinity 8.59484959
REMARK minimizedRMSD -1
REMARK  0 active torsions:
REMARK  status: ('A' for Active; 'I' for Inactive)
ROOT
ATOM      1  C   UNL d   1      -0.605  -0.750   3.598  0.00  0.00     0.077 C 
ATOM      2  C1  UNL d   1      -1.310   0.563   3.766  0.00  0.00    -0.074 A 
ATOM      3  C2  UNL d   1      -2.690   0.614   3.989  0.00  0.00    -0.005 A 
ATOM      4  C3  UNL d   1      -3.331   1.842   4.153  0.00  0.00     0.006 A 
ATOM      5  C4  UNL d   1      -2.600   3.029   4.095  0.00  0.00    -0.005 A 
ATOM      6  C5  UNL d   1      -1.220   2.997   3.874  0.00  0.00    -0.074 A 
ATOM      7  C6  UNL d   1      -0.418   4.264   3.819  0.00  0.00     0.077 C 
ATOM      8  C7  UNL d   1      -0.582   1.759   3.718  0.00  0.00    -0.001 A 
ENDROOT
TORSDOF 0
ENDMDL
