MODEL 1
REMARK minimizedAffinity -2.88958263
REMARK minimizedRMSD -1
REMARK  1 active torsions:
REMARK  status: ('A' for Active; 'I' for Inactive)
REMARK    1  A    between atoms: C1_2  and  C2_3 
ROOT
ATOM      1  C2  UNL d   1       0.907   0.047  -0.650  0.00  0.00    -0.073 A 
ATOM      2  C3  UNL d   1       0.640   0.982   0.357  0.00  0.00    -0.002 A 
ATOM      3  C4  UNL d   1      -0.355   1.943   0.181  0.00  0.00     0.004 A 
ATOM      4  C5  UNL d   1      -1.098   1.977  -0.999  0.00  0.00    -0.004 A 
ATOM      5  C6  UNL d   1      -0.855   1.044  -2.012  0.00  0.00    -0.075 A 
ATOM      6  C7  UNL d   1      -1.643   1.068  -3.288  0.00  0.00     0.076 C 
ATOM      7  C8  UNL d   1       0.149   0.083  -1.829  0.00  0.00     0.001 A 
ENDROOT
BRANCH   1   8
ATOM      8  C1  UNL d   1       1.977  -0.997  -0.462  0.00  0.00     0.053 C 
ATOM      9  C   UNL d   1       2.386  -1.137   0.996  0.00  0.00     0.018 C 
ENDBRANCH   1   8
TORSDOF 1
ENDMDL
