MODEL 1
REMARK minimizedAffinity 0.0808971226
REMARK minimizedRMSD -1
REMARK  1 active torsions:
REMARK  status: ('A' for Active; 'I' for Inactive)
REMARK    1  A    between atoms: C1_2  and  C2_3 
ROOT
ATOM      1  C2  UNL d   1       0.628  -0.850   1.121  0.00  0.00    -0.073 A 
ATOM      2  C3  UNL d   1       1.773  -1.496   0.639  0.00  0.00    -0.002 A 
ATOM      3  C4  UNL d   1       2.289  -1.173  -0.616  0.00  0.00     0.004 A 
ATOM      4  C5  UNL d   1       1.671  -0.199  -1.400  0.00  0.00    -0.004 A 
ATOM      5  C6  UNL d   1       0.533   0.466  -0.932  0.00  0.00    -0.075 A 
ATOM      6  C7  UNL d   1      -0.145   1.515  -1.763  0.00  0.00     0.076 C 
ATOM      7  C8  UNL d   1       0.019   0.135   0.329  0.00  0.00     0.001 A 
ENDROOT
BRANCH   1   8
ATOM      8  C1  UNL d   1       0.072  -1.190   2.479  0.00  0.00     0.053 C 
ATOM      9  C   UNL d   1      -1.417  -0.898   2.574  0.00  0.00     0.018 C 
ENDBRANCH   1   8
TORSDOF 1
ENDMDL
