MODEL 1
REMARK minimizedAffinity -1.3835876
REMARK minimizedRMSD -1
REMARK  1 active torsions:
REMARK  status: ('A' for Active; 'I' for Inactive)
REMARK    1  A    between atoms: C1_2  and  C2_3 
ROOT
ATOM      1  C2  UNL d   1      -0.030  -0.851   1.265  0.00  0.00    -0.073 A 
ATOM      2  C3  UNL d   1       0.658  -1.921   1.849  0.00  0.00    -0.002 A 
ATOM      3  C4  UNL d   1       1.921  -2.286   1.382  0.00  0.00     0.004 A 
ATOM      4  C5  UNL d   1       2.512  -1.582   0.332  0.00  0.00    -0.004 A 
ATOM      5  C6  UNL d   1       1.846  -0.502  -0.256  0.00  0.00    -0.075 A 
ATOM      6  C7  UNL d   1       2.467   0.264  -1.387  0.00  0.00     0.076 C 
ATOM      7  C8  UNL d   1       0.576  -0.144   0.217  0.00  0.00     0.001 A 
ENDROOT
BRANCH   1   8
ATOM      8  C1  UNL d   1      -1.391  -0.450   1.770  0.00  0.00     0.053 C 
ATOM      9  C   UNL d   1      -1.789  -1.226   3.016  0.00  0.00     0.018 C 
ENDBRANCH   1   8
TORSDOF 1
ENDMDL
