MODEL 1
REMARK minimizedAffinity 0.674968898
REMARK minimizedRMSD -1
REMARK  1 active torsions:
REMARK  status: ('A' for Active; 'I' for Inactive)
REMARK    1  A    between atoms: C1_2  and  C2_3 
ROOT
ATOM      1  C2  UNL d   1      -0.602   1.086  -0.728  0.00  0.00    -0.073 A 
ATOM      2  C3  UNL d   1      -0.438   2.064  -1.716  0.00  0.00    -0.002 A 
ATOM      3  C4  UNL d   1      -1.372   2.191  -2.744  0.00  0.00     0.004 A 
ATOM      4  C5  UNL d   1      -2.482   1.348  -2.793  0.00  0.00    -0.004 A 
ATOM      5  C6  UNL d   1      -2.670   0.372  -1.809  0.00  0.00    -0.075 A 
ATOM      6  C7  UNL d   1      -3.858  -0.544  -1.848  0.00  0.00     0.076 C 
ATOM      7  C8  UNL d   1      -1.726   0.249  -0.780  0.00  0.00     0.001 A 
ENDROOT
BRANCH   1   8
ATOM      8  C1  UNL d   1       0.400   0.949   0.388  0.00  0.00     0.053 C 
ATOM      9  C   UNL d   1       1.832   0.995  -0.123  0.00  0.00     0.018 C 
ENDBRANCH   1   8
TORSDOF 1
ENDMDL
