MODEL 1
REMARK minimizedAffinity -4.96008492
REMARK minimizedRMSD -1
REMARK  1 active torsions:
REMARK  status: ('A' for Active; 'I' for Inactive)
REMARK    1  A    between atoms: C1_2  and  C2_3 
ROOT
ATOM      1  C2  UNL d   1       0.226  -1.021   0.380  0.00  0.00    -0.073 A 
ATOM      2  C3  UNL d   1      -0.993  -0.396   0.670  0.00  0.00    -0.002 A 
ATOM      3  C4  UNL d   1      -1.119   0.989   0.558  0.00  0.00     0.004 A 
ATOM      4  C5  UNL d   1      -0.032   1.762   0.149  0.00  0.00    -0.004 A 
ATOM      5  C6  UNL d   1       1.190   1.155  -0.156  0.00  0.00    -0.075 A 
ATOM      6  C7  UNL d   1       2.369   1.973  -0.595  0.00  0.00     0.076 C 
ATOM      7  C8  UNL d   1       1.310  -0.236  -0.039  0.00  0.00     0.001 A 
ENDROOT
BRANCH   1   8
ATOM      8  C1  UNL d   1       0.365  -2.517   0.494  0.00  0.00     0.053 C 
ATOM      9  C   UNL d   1       1.292  -2.919   1.630  0.00  0.00     0.018 C 
ENDBRANCH   1   8
TORSDOF 1
ENDMDL
