MODEL 1
REMARK minimizedAffinity 0.785086989
REMARK minimizedRMSD -1
REMARK  1 active torsions:
REMARK  status: ('A' for Active; 'I' for Inactive)
REMARK    1  A    between atoms: C1_2  and  C2_3 
ROOT
ATOM      1  C2  UNL d   1       1.699  -2.466   0.116  0.00  0.00    -0.073 A 
ATOM      2  C3  UNL d   1       1.107  -1.627   1.066  0.00  0.00    -0.002 A 
ATOM      3  C4  UNL d   1       1.247  -0.242   0.969  0.00  0.00     0.004 A 
ATOM      4  C5  UNL d   1       1.974   0.318  -0.082  0.00  0.00    -0.004 A 
ATOM      5  C6  UNL d   1       2.563  -0.504  -1.048  0.00  0.00    -0.075 A 
ATOM      6  C7  UNL d   1       3.350   0.083  -2.183  0.00  0.00     0.076 C 
ATOM      7  C8  UNL d   1       2.420  -1.894  -0.942  0.00  0.00     0.001 A 
ENDROOT
BRANCH   1   8
ATOM      8  C1  UNL d   1       1.545  -3.962   0.213  0.00  0.00     0.053 C 
ATOM      9  C   UNL d   1       1.160  -4.405   1.616  0.00  0.00     0.018 C 
ENDBRANCH   1   8
TORSDOF 1
ENDMDL
