MODEL 1
REMARK minimizedAffinity 4.2946229
REMARK minimizedRMSD -1
REMARK  1 active torsions:
REMARK  status: ('A' for Active; 'I' for Inactive)
REMARK    1  A    between atoms: C1_2  and  C2_3 
ROOT
ATOM      1  C2  UNL d   1      -1.780   2.661  -1.835  0.00  0.00    -0.073 A 
ATOM      2  C3  UNL d   1      -2.590   1.704  -2.456  0.00  0.00    -0.002 A 
ATOM      3  C4  UNL d   1      -3.202   0.702  -1.702  0.00  0.00     0.004 A 
ATOM      4  C5  UNL d   1      -3.016   0.651  -0.321  0.00  0.00    -0.004 A 
ATOM      5  C6  UNL d   1      -2.220   1.605   0.320  0.00  0.00    -0.075 A 
ATOM      6  C7  UNL d   1      -2.009   1.563   1.805  0.00  0.00     0.076 C 
ATOM      7  C8  UNL d   1      -1.607   2.607  -0.444  0.00  0.00     0.001 A 
ENDROOT
BRANCH   1   8
ATOM      8  C1  UNL d   1      -1.122   3.749  -2.644  0.00  0.00     0.053 C 
ATOM      9  C   UNL d   1       0.327   3.423  -2.966  0.00  0.00     0.018 C 
ENDBRANCH   1   8
TORSDOF 1
ENDMDL
