MODEL 1
REMARK minimizedAffinity 6.05196857
REMARK minimizedRMSD -1
REMARK  1 active torsions:
REMARK  status: ('A' for Active; 'I' for Inactive)
REMARK    1  A    between atoms: C1_2  and  C2_3 
ROOT
ATOM      1  C2  UNL d   1       2.922  -0.693  -0.844  0.00  0.00    -0.073 A 
ATOM      2  C3  UNL d   1       2.299   0.254  -0.023  0.00  0.00    -0.002 A 
ATOM      3  C4  UNL d   1       1.561  -0.153   1.089  0.00  0.00     0.004 A 
ATOM      4  C5  UNL d   1       1.443  -1.508   1.396  0.00  0.00    -0.004 A 
ATOM      5  C6  UNL d   1       2.068  -2.470   0.595  0.00  0.00    -0.075 A 
ATOM      6  C7  UNL d   1       1.949  -3.932   0.910  0.00  0.00     0.076 C 
ATOM      7  C8  UNL d   1       2.805  -2.053  -0.522  0.00  0.00     0.001 A 
ENDROOT
BRANCH   1   8
ATOM      8  C1  UNL d   1       3.725  -0.258  -2.042  0.00  0.00     0.053 C 
ATOM      9  C   UNL d   1       3.544   1.221  -2.343  0.00  0.00     0.018 C 
ENDBRANCH   1   8
TORSDOF 1
ENDMDL
