MODEL 1
REMARK minimizedAffinity 6.31139421
REMARK minimizedRMSD -1
REMARK  1 active torsions:
REMARK  status: ('A' for Active; 'I' for Inactive)
REMARK    1  A    between atoms: C1_2  and  C2_3 
ROOT
ATOM      1  C2  UNL d   1      -1.384  -1.727   1.521  0.00  0.00    -0.073 A 
ATOM      2  C3  UNL d   1      -1.582  -1.700   2.906  0.00  0.00    -0.002 A 
ATOM      3  C4  UNL d   1      -0.491  -1.746   3.775  0.00  0.00     0.004 A 
ATOM      4  C5  UNL d   1       0.808  -1.812   3.269  0.00  0.00    -0.004 A 
ATOM      5  C6  UNL d   1       1.026  -1.827   1.887  0.00  0.00    -0.075 A 
ATOM      6  C7  UNL d   1       2.416  -1.900   1.327  0.00  0.00     0.076 C 
ATOM      7  C8  UNL d   1      -0.075  -1.784   1.021  0.00  0.00     0.001 A 
ENDROOT
BRANCH   1   8
ATOM      8  C1  UNL d   1      -2.559  -1.671   0.579  0.00  0.00     0.053 C 
ATOM      9  C   UNL d   1      -2.333  -2.517  -0.664  0.00  0.00     0.018 C 
ENDBRANCH   1   8
TORSDOF 1
ENDMDL
