MODEL 1
REMARK minimizedAffinity 3.7457366
REMARK minimizedRMSD -1
REMARK  1 active torsions:
REMARK  status: ('A' for Active; 'I' for Inactive)
REMARK    1  A    between atoms: C1_2  and  C2_3 
ROOT
ATOM      1  C2  UNL d   1      -3.178   0.223  -1.394  0.00  0.00    -0.073 A 
ATOM      2  C3  UNL d   1      -2.929  -1.125  -1.677  0.00  0.00    -0.002 A 
ATOM      3  C4  UNL d   1      -2.407  -1.967  -0.694  0.00  0.00     0.004 A 
ATOM      4  C5  UNL d   1      -2.135  -1.473   0.581  0.00  0.00    -0.004 A 
ATOM      5  C6  UNL d   1      -2.389  -0.132   0.887  0.00  0.00    -0.075 A 
ATOM      6  C7  UNL d   1      -2.100   0.415   2.254  0.00  0.00     0.076 C 
ATOM      7  C8  UNL d   1      -2.911   0.708  -0.105  0.00  0.00     0.001 A 
ENDROOT
BRANCH   1   8
ATOM      8  C1  UNL d   1      -3.748   1.135  -2.449  0.00  0.00     0.053 C 
ATOM      9  C   UNL d   1      -2.764   2.218  -2.859  0.00  0.00     0.018 C 
ENDBRANCH   1   8
TORSDOF 1
ENDMDL
