MODEL 1
REMARK minimizedAffinity 6.36194324
REMARK minimizedRMSD -1
REMARK  1 active torsions:
REMARK  status: ('A' for Active; 'I' for Inactive)
REMARK    1  A    between atoms: C1_2  and  C2_3 
ROOT
ATOM      1  C2  UNL d   1      -2.712   1.299   0.153  0.00  0.00    -0.073 A 
ATOM      2  C3  UNL d   1      -3.814   0.526  -0.230  0.00  0.00    -0.002 A 
ATOM      3  C4  UNL d   1      -4.222   0.492  -1.564  0.00  0.00     0.004 A 
ATOM      4  C5  UNL d   1      -3.530   1.224  -2.528  0.00  0.00    -0.004 A 
ATOM      5  C6  UNL d   1      -2.419   1.994  -2.167  0.00  0.00    -0.075 A 
ATOM      6  C7  UNL d   1      -1.665   2.789  -3.192  0.00  0.00     0.076 C 
ATOM      7  C8  UNL d   1      -2.017   2.025  -0.825  0.00  0.00     0.001 A 
ENDROOT
BRANCH   1   8
ATOM      8  C1  UNL d   1      -2.264   1.334   1.592  0.00  0.00     0.053 C 
ATOM      9  C   UNL d   1      -1.707  -0.005   2.047  0.00  0.00     0.018 C 
ENDBRANCH   1   8
TORSDOF 1
ENDMDL
