MODEL 1
REMARK minimizedAffinity -0.775714219
REMARK minimizedRMSD -1
REMARK  1 active torsions:
REMARK  status: ('A' for Active; 'I' for Inactive)
REMARK    1  A    between atoms: C1_2  and  C2_3 
ROOT
ATOM      1  C2  UNL d   1      -2.379   0.351  -1.753  0.00  0.00    -0.073 A 
ATOM      2  C3  UNL d   1      -2.890  -0.951  -1.771  0.00  0.00    -0.002 A 
ATOM      3  C4  UNL d   1      -2.648  -1.818  -0.704  0.00  0.00     0.004 A 
ATOM      4  C5  UNL d   1      -1.900  -1.391   0.392  0.00  0.00    -0.004 A 
ATOM      5  C6  UNL d   1      -1.390  -0.089   0.434  0.00  0.00    -0.075 A 
ATOM      6  C7  UNL d   1      -0.581   0.385   1.605  0.00  0.00     0.076 C 
ATOM      7  C8  UNL d   1      -1.635   0.775  -0.642  0.00  0.00     0.001 A 
ENDROOT
BRANCH   1   8
ATOM      8  C1  UNL d   1      -2.643   1.293  -2.899  0.00  0.00     0.053 C 
ATOM      9  C   UNL d   1      -1.500   2.274  -3.106  0.00  0.00     0.018 C 
ENDBRANCH   1   8
TORSDOF 1
ENDMDL
