MODEL 1
REMARK minimizedAffinity -3.91893363
REMARK minimizedRMSD -1
REMARK  0 active torsions:
REMARK  status: ('A' for Active; 'I' for Inactive)
ROOT
ATOM      1  C   UNL d   1      -0.962   0.416  -0.084  0.00  0.00     0.172 C 
ATOM      2  N   UNL d   1       0.354  -0.047  -0.455  0.00  0.00    -0.070 N 
ATOM      3  C1  UNL d   1       1.424   0.752  -0.760  0.00  0.00    -0.004 A 
ATOM      4  C2  UNL d   1       2.491  -0.068  -1.060  0.00  0.00    -0.047 A 
ATOM      5  C3  UNL d   1       2.046  -1.405  -0.931  0.00  0.00    -0.047 A 
ATOM      6  C4  UNL d   1       0.720  -1.363  -0.556  0.00  0.00    -0.004 A 
ENDROOT
TORSDOF 0
ENDMDL
