MODEL 1
REMARK minimizedAffinity 0.400043935
REMARK minimizedRMSD -1
REMARK  0 active torsions:
REMARK  status: ('A' for Active; 'I' for Inactive)
ROOT
ATOM      1  C   UNL d   1      -0.078   0.815  -0.002  0.00  0.00     0.172 C 
ATOM      2  N   UNL d   1      -0.115  -0.628   0.015  0.00  0.00    -0.070 N 
ATOM      3  C1  UNL d   1       0.926  -1.450   0.357  0.00  0.00    -0.004 A 
ATOM      4  C2  UNL d   1       0.489  -2.752   0.246  0.00  0.00    -0.047 A 
ATOM      5  C3  UNL d   1      -0.860  -2.712  -0.179  0.00  0.00    -0.047 A 
ATOM      6  C4  UNL d   1      -1.209  -1.385  -0.314  0.00  0.00    -0.004 A 
ENDROOT
TORSDOF 0
ENDMDL
