MODEL 1
REMARK minimizedAffinity -2.90202761
REMARK minimizedRMSD -1
REMARK  0 active torsions:
REMARK  status: ('A' for Active; 'I' for Inactive)
ROOT
ATOM      1  C   UNL d   1      -0.837   0.385   0.679  0.00  0.00     0.172 C 
ATOM      2  N   UNL d   1       0.340  -0.109   0.004  0.00  0.00    -0.070 N 
ATOM      3  C1  UNL d   1       1.150   0.619  -0.826  0.00  0.00    -0.004 A 
ATOM      4  C2  UNL d   1       2.159  -0.210  -1.265  0.00  0.00    -0.047 A 
ATOM      5  C3  UNL d   1       1.948  -1.481  -0.680  0.00  0.00    -0.047 A 
ATOM      6  C4  UNL d   1       0.815  -1.390   0.101  0.00  0.00    -0.004 A 
ENDROOT
TORSDOF 0
ENDMDL
