MODEL 1
REMARK minimizedAffinity -2.07911944
REMARK minimizedRMSD -1
REMARK  0 active torsions:
REMARK  status: ('A' for Active; 'I' for Inactive)
ROOT
ATOM      1  C   UNL d   1       0.716   1.724  -1.053  0.00  0.00     0.172 C 
ATOM      2  N   UNL d   1       1.115   0.344  -0.903  0.00  0.00    -0.070 N 
ATOM      3  C1  UNL d   1       0.373  -0.641  -0.309  0.00  0.00    -0.004 A 
ATOM      4  C2  UNL d   1       1.101  -1.811  -0.369  0.00  0.00    -0.047 A 
ATOM      5  C3  UNL d   1       2.322  -1.517  -1.020  0.00  0.00    -0.047 A 
ATOM      6  C4  UNL d   1       2.305  -0.176  -1.340  0.00  0.00    -0.004 A 
ENDROOT
TORSDOF 0
ENDMDL
