MODEL 1
REMARK minimizedAffinity -3.95211005
REMARK minimizedRMSD -1
REMARK  0 active torsions:
REMARK  status: ('A' for Active; 'I' for Inactive)
ROOT
ATOM      1  C   UNL d   1      -0.828   0.638  -0.023  0.00  0.00     0.172 C 
ATOM      2  N   UNL d   1       0.345  -0.142  -0.337  0.00  0.00    -0.070 N 
ATOM      3  C1  UNL d   1       0.420  -1.509  -0.331  0.00  0.00    -0.004 A 
ATOM      4  C2  UNL d   1       1.704  -1.863  -0.685  0.00  0.00    -0.047 A 
ATOM      5  C3  UNL d   1       2.426  -0.667  -0.912  0.00  0.00    -0.047 A 
ATOM      6  C4  UNL d   1       1.561   0.383  -0.689  0.00  0.00    -0.004 A 
ENDROOT
TORSDOF 0
ENDMDL
