MODEL 1
REMARK minimizedAffinity -3.73063135
REMARK minimizedRMSD -1
REMARK  0 active torsions:
REMARK  status: ('A' for Active; 'I' for Inactive)
ROOT
ATOM      1  C   UNL d   1      -0.996   0.246   0.211  0.00  0.00     0.172 C 
ATOM      2  N   UNL d   1       0.269  -0.250  -0.279  0.00  0.00    -0.070 N 
ATOM      3  C1  UNL d   1       1.330   0.520  -0.673  0.00  0.00    -0.004 A 
ATOM      4  C2  UNL d   1       2.342  -0.327  -1.070  0.00  0.00    -0.047 A 
ATOM      5  C3  UNL d   1       1.872  -1.652  -0.911  0.00  0.00    -0.047 A 
ATOM      6  C4  UNL d   1       0.586  -1.575  -0.419  0.00  0.00    -0.004 A 
ENDROOT
TORSDOF 0
ENDMDL
