MODEL 1
REMARK minimizedAffinity -4.12283564
REMARK minimizedRMSD -1
REMARK  0 active torsions:
REMARK  status: ('A' for Active; 'I' for Inactive)
ROOT
ATOM      1  C   UNL d   1      -0.590   0.376   1.088  0.00  0.00     0.172 C 
ATOM      2  N   UNL d   1       0.517  -0.132   0.314  0.00  0.00    -0.070 N 
ATOM      3  C1  UNL d   1       1.428   0.628  -0.370  0.00  0.00    -0.004 A 
ATOM      4  C2  UNL d   1       2.322  -0.228  -0.976  0.00  0.00    -0.047 A 
ATOM      5  C3  UNL d   1       1.934  -1.548  -0.646  0.00  0.00    -0.047 A 
ATOM      6  C4  UNL d   1       0.814  -1.459   0.153  0.00  0.00    -0.004 A 
ENDROOT
TORSDOF 0
ENDMDL
