MODEL 1
REMARK minimizedAffinity -3.40358353
REMARK minimizedRMSD -1
REMARK  0 active torsions:
REMARK  status: ('A' for Active; 'I' for Inactive)
ROOT
ATOM      1  C   UNL d   1      -0.225   0.739   0.561  0.00  0.00     0.172 C 
ATOM      2  N   UNL d   1       0.860  -0.002  -0.038  0.00  0.00    -0.070 N 
ATOM      3  C1  UNL d   1       2.179   0.368  -0.032  0.00  0.00    -0.004 A 
ATOM      4  C2  UNL d   1       2.892  -0.601  -0.704  0.00  0.00    -0.047 A 
ATOM      5  C3  UNL d   1       1.970  -1.587  -1.128  0.00  0.00    -0.047 A 
ATOM      6  C4  UNL d   1       0.720  -1.192  -0.703  0.00  0.00    -0.004 A 
ENDROOT
TORSDOF 0
ENDMDL
