MODEL 1
REMARK minimizedAffinity -3.79783463
REMARK minimizedRMSD -1
REMARK  0 active torsions:
REMARK  status: ('A' for Active; 'I' for Inactive)
ROOT
ATOM      1  C   UNL d   1      -1.118  -0.020   0.251  0.00  0.00     0.172 C 
ATOM      2  N   UNL d   1       0.255  -0.082  -0.194  0.00  0.00    -0.070 N 
ATOM      3  C1  UNL d   1       1.030   0.992  -0.542  0.00  0.00    -0.004 A 
ATOM      4  C2  UNL d   1       2.271   0.516  -0.907  0.00  0.00    -0.047 A 
ATOM      5  C3  UNL d   1       2.240  -0.893  -0.775  0.00  0.00    -0.047 A 
ATOM      6  C4  UNL d   1       0.980  -1.236  -0.332  0.00  0.00    -0.004 A 
ENDROOT
TORSDOF 0
ENDMDL
