MODEL 1
REMARK minimizedAffinity -4.15981579
REMARK minimizedRMSD -1
REMARK  0 active torsions:
REMARK  status: ('A' for Active; 'I' for Inactive)
ROOT
ATOM      1  C   UNL d   1       1.029  -0.001  -0.046  0.00  0.00     0.172 C 
ATOM      2  N   UNL d   1       1.859   0.352  -1.174  0.00  0.00    -0.070 N 
ATOM      3  C1  UNL d   1       1.520   1.225  -2.173  0.00  0.00    -0.004 A 
ATOM      4  C2  UNL d   1       2.577   1.289  -3.054  0.00  0.00    -0.047 A 
ATOM      5  C3  UNL d   1       3.587   0.425  -2.568  0.00  0.00    -0.047 A 
ATOM      6  C4  UNL d   1       3.116  -0.142  -1.403  0.00  0.00    -0.004 A 
ENDROOT
TORSDOF 0
ENDMDL
