MODEL 1
REMARK minimizedAffinity -3.89849806
REMARK minimizedRMSD -1
REMARK  0 active torsions:
REMARK  status: ('A' for Active; 'I' for Inactive)
ROOT
ATOM      1  C   UNL d   1      -0.961   0.456  -0.331  0.00  0.00     0.172 C 
ATOM      2  N   UNL d   1       0.369  -0.083  -0.497  0.00  0.00    -0.070 N 
ATOM      3  C1  UNL d   1       1.531   0.640  -0.485  0.00  0.00    -0.004 A 
ATOM      4  C2  UNL d   1       2.577  -0.237  -0.674  0.00  0.00    -0.047 A 
ATOM      5  C3  UNL d   1       2.023  -1.533  -0.807  0.00  0.00    -0.047 A 
ATOM      6  C4  UNL d   1       0.655  -1.409  -0.693  0.00  0.00    -0.004 A 
ENDROOT
TORSDOF 0
ENDMDL
