MODEL 1
REMARK minimizedAffinity -4.02270269
REMARK minimizedRMSD -1
REMARK  0 active torsions:
REMARK  status: ('A' for Active; 'I' for Inactive)
ROOT
ATOM      1  C   UNL d   1      -0.283  -1.728  -0.355  0.00  0.00     0.172 C 
ATOM      2  N   UNL d   1       0.683  -0.704  -0.676  0.00  0.00    -0.070 N 
ATOM      3  C1  UNL d   1       0.453   0.646  -0.653  0.00  0.00    -0.004 A 
ATOM      4  C2  UNL d   1       1.620   1.279  -1.021  0.00  0.00    -0.047 A 
ATOM      5  C3  UNL d   1       2.585   0.276  -1.274  0.00  0.00    -0.047 A 
ATOM      6  C4  UNL d   1       1.978  -0.943  -1.053  0.00  0.00    -0.004 A 
ENDROOT
TORSDOF 0
ENDMDL
