MODEL 1
REMARK minimizedAffinity -4.08016729
REMARK minimizedRMSD -1
REMARK  0 active torsions:
REMARK  status: ('A' for Active; 'I' for Inactive)
ROOT
ATOM      1  C   UNL d   1      -0.320   0.061   0.241  0.00  0.00     0.172 C 
ATOM      2  N   UNL d   1       0.747   0.215  -0.720  0.00  0.00    -0.070 N 
ATOM      3  C1  UNL d   1       1.801  -0.644  -0.887  0.00  0.00    -0.004 A 
ATOM      4  C2  UNL d   1       2.594  -0.146  -1.898  0.00  0.00    -0.047 A 
ATOM      5  C3  UNL d   1       1.998   1.054  -2.353  0.00  0.00    -0.047 A 
ATOM      6  C4  UNL d   1       0.856   1.253  -1.607  0.00  0.00    -0.004 A 
ENDROOT
TORSDOF 0
ENDMDL
