MODEL 1
REMARK minimizedAffinity -2.79896832
REMARK minimizedRMSD -1
REMARK  0 active torsions:
REMARK  status: ('A' for Active; 'I' for Inactive)
ROOT
ATOM      1  C   UNL d   1      -0.841   0.609  -0.026  0.00  0.00     0.172 C 
ATOM      2  N   UNL d   1       0.275  -0.261  -0.313  0.00  0.00    -0.070 N 
ATOM      3  C1  UNL d   1       0.260  -1.629  -0.244  0.00  0.00    -0.004 A 
ATOM      4  C2  UNL d   1       1.514  -2.083  -0.591  0.00  0.00    -0.047 A 
ATOM      5  C3  UNL d   1       2.311  -0.949  -0.877  0.00  0.00    -0.047 A 
ATOM      6  C4  UNL d   1       1.519   0.166  -0.697  0.00  0.00    -0.004 A 
ENDROOT
TORSDOF 0
ENDMDL
