MODEL 1
REMARK minimizedAffinity -2.43934441
REMARK minimizedRMSD -1
REMARK  0 active torsions:
REMARK  status: ('A' for Active; 'I' for Inactive)
ROOT
ATOM      1  C   UNL d   1       1.787  -0.721  -0.874  0.00  0.00     0.172 C 
ATOM      2  N   UNL d   1       0.525  -0.513  -0.203  0.00  0.00    -0.070 N 
ATOM      3  C1  UNL d   1      -0.304  -1.499   0.262  0.00  0.00    -0.004 A 
ATOM      4  C2  UNL d   1      -1.400  -0.892   0.836  0.00  0.00    -0.047 A 
ATOM      5  C3  UNL d   1      -1.225   0.506   0.709  0.00  0.00    -0.047 A 
ATOM      6  C4  UNL d   1      -0.025   0.713   0.062  0.00  0.00    -0.004 A 
ENDROOT
TORSDOF 0
ENDMDL
