MODEL 1
REMARK minimizedAffinity -1.48641551
REMARK minimizedRMSD -1
REMARK  0 active torsions:
REMARK  status: ('A' for Active; 'I' for Inactive)
ROOT
ATOM      1  C   UNL d   1       2.627  -1.153  -1.365  0.00  0.00     0.172 C 
ATOM      2  N   UNL d   1       1.410  -0.674  -0.751  0.00  0.00    -0.070 N 
ATOM      3  C1  UNL d   1       0.883   0.581  -0.897  0.00  0.00    -0.004 A 
ATOM      4  C2  UNL d   1      -0.277   0.640  -0.156  0.00  0.00    -0.047 A 
ATOM      5  C3  UNL d   1      -0.453  -0.623   0.457  0.00  0.00    -0.047 A 
ATOM      6  C4  UNL d   1       0.606  -1.417   0.071  0.00  0.00    -0.004 A 
ENDROOT
TORSDOF 0
ENDMDL
