MODEL 1
REMARK minimizedAffinity 0.787133396
REMARK minimizedRMSD -1
REMARK  1 active torsions:
REMARK  status: ('A' for Active; 'I' for Inactive)
REMARK    1  A    between atoms: N_2  and  C1_3 
ROOT
ATOM      1  C1  UNL d   1       0.018   0.577   1.121  0.00  0.00     0.143 A 
ATOM      2  C2  UNL d   1      -0.438   1.007  -0.129  0.00  0.00    -0.057 A 
ATOM      3  C3  UNL d   1      -0.088   0.328  -1.303  0.00  0.00     0.033 A 
ATOM      4  C4  UNL d   1       0.751  -0.781  -1.248  0.00  0.00    -0.042 A 
ATOM      5  C5  UNL d   1       1.236  -1.211  -0.018  0.00  0.00     0.033 A 
ATOM      6  C6  UNL d   1       0.878  -0.532   1.151  0.00  0.00    -0.057 A 
ENDROOT
BRANCH   1   7
ATOM      7  N   UNL d   1      -0.214   1.268   2.313  0.00  0.00    -0.732 N 
ATOM      8  C   UNL d   1       0.334   2.592   2.517  0.00  0.00     0.284 C 
ATOM      9  H3  UNL d   1      -1.169   1.157   2.647  0.00  0.00     0.395 HD
ENDBRANCH   1   7
TORSDOF 1
ENDMDL
