MODEL 1
REMARK minimizedAffinity -0.956597865
REMARK minimizedRMSD -1
REMARK  1 active torsions:
REMARK  status: ('A' for Active; 'I' for Inactive)
REMARK    1  A    between atoms: N_2  and  C1_3 
ROOT
ATOM      1  C1  UNL d   1       4.499  -3.224  -1.875  0.00  0.00     0.143 A 
ATOM      2  C2  UNL d   1       5.335  -4.066  -1.135  0.00  0.00    -0.057 A 
ATOM      3  C3  UNL d   1       5.407  -5.438  -1.405  0.00  0.00     0.033 A 
ATOM      4  C4  UNL d   1       4.619  -5.998  -2.404  0.00  0.00    -0.042 A 
ATOM      5  C5  UNL d   1       3.761  -5.185  -3.136  0.00  0.00     0.033 A 
ATOM      6  C6  UNL d   1       3.699  -3.814  -2.866  0.00  0.00    -0.057 A 
ENDROOT
BRANCH   1   7
ATOM      7  N   UNL d   1       4.310  -1.869  -1.591  0.00  0.00    -0.732 N 
ATOM      8  C   UNL d   1       3.554  -1.459  -0.427  0.00  0.00     0.284 C 
ATOM      9  H3  UNL d   1       5.147  -1.316  -1.758  0.00  0.00     0.395 HD
ENDBRANCH   1   7
TORSDOF 1
ENDMDL
