MODEL 1
REMARK minimizedAffinity 0.513567984
REMARK minimizedRMSD -1
REMARK  1 active torsions:
REMARK  status: ('A' for Active; 'I' for Inactive)
REMARK    1  A    between atoms: N_2  and  C1_3 
ROOT
ATOM      1  C1  UNL d   1       4.792  -2.910  -1.148  0.00  0.00     0.143 A 
ATOM      2  C2  UNL d   1       5.149  -4.203  -0.752  0.00  0.00    -0.057 A 
ATOM      3  C3  UNL d   1       4.905  -5.308  -1.576  0.00  0.00     0.033 A 
ATOM      4  C4  UNL d   1       4.270  -5.143  -2.802  0.00  0.00    -0.042 A 
ATOM      5  C5  UNL d   1       3.883  -3.870  -3.205  0.00  0.00     0.033 A 
ATOM      6  C6  UNL d   1       4.136  -2.769  -2.381  0.00  0.00    -0.057 A 
ENDROOT
BRANCH   1   7
ATOM      7  N   UNL d   1       4.919  -1.783  -0.332  0.00  0.00    -0.732 N 
ATOM      8  C   UNL d   1       3.841  -1.385   0.548  0.00  0.00     0.284 C 
ATOM      9  H3  UNL d   1       5.845  -1.707   0.083  0.00  0.00     0.395 HD
ENDBRANCH   1   7
TORSDOF 1
ENDMDL
