MODEL 1
REMARK minimizedAffinity 4.80135107
REMARK minimizedRMSD -1
REMARK  1 active torsions:
REMARK  status: ('A' for Active; 'I' for Inactive)
REMARK    1  A    between atoms: N_2  and  C1_3 
ROOT
ATOM      1  C1  UNL d   1       4.509  -3.292  -1.666  0.00  0.00     0.143 A 
ATOM      2  C2  UNL d   1       4.665  -4.633  -1.297  0.00  0.00    -0.057 A 
ATOM      3  C3  UNL d   1       4.313  -5.671  -2.168  0.00  0.00     0.033 A 
ATOM      4  C4  UNL d   1       3.770  -5.386  -3.416  0.00  0.00    -0.042 A 
ATOM      5  C5  UNL d   1       3.582  -4.061  -3.794  0.00  0.00     0.033 A 
ATOM      6  C6  UNL d   1       3.942  -3.029  -2.922  0.00  0.00    -0.057 A 
ENDROOT
BRANCH   1   7
ATOM      7  N   UNL d   1       4.748  -2.217  -0.807  0.00  0.00    -0.732 N 
ATOM      8  C   UNL d   1       3.710  -1.738   0.081  0.00  0.00     0.284 C 
ATOM      9  H3  UNL d   1       5.672  -2.255  -0.384  0.00  0.00     0.395 HD
ENDBRANCH   1   7
TORSDOF 1
ENDMDL
