MODEL 1
REMARK minimizedAffinity -0.431340784
REMARK minimizedRMSD -1
REMARK  1 active torsions:
REMARK  status: ('A' for Active; 'I' for Inactive)
REMARK    1  A    between atoms: N_2  and  C1_3 
ROOT
ATOM      1  C1  UNL d   1       4.226  -4.408  -2.883  0.00  0.00     0.143 A 
ATOM      2  C2  UNL d   1       5.106  -4.640  -1.820  0.00  0.00    -0.057 A 
ATOM      3  C3  UNL d   1       5.270  -3.700  -0.796  0.00  0.00     0.033 A 
ATOM      4  C4  UNL d   1       4.577  -2.494  -0.832  0.00  0.00    -0.042 A 
ATOM      5  C5  UNL d   1       3.717  -2.231  -1.892  0.00  0.00     0.033 A 
ATOM      6  C6  UNL d   1       3.552  -3.177  -2.908  0.00  0.00    -0.057 A 
ENDROOT
BRANCH   1   7
ATOM      7  N   UNL d   1       4.093  -5.260  -3.982  0.00  0.00    -0.732 N 
ATOM      8  C   UNL d   1       5.235  -5.984  -4.496  0.00  0.00     0.284 C 
ATOM      9  H3  UNL d   1       3.235  -5.806  -3.948  0.00  0.00     0.395 HD
ENDBRANCH   1   7
TORSDOF 1
ENDMDL
