MODEL 1
REMARK minimizedAffinity -2.24780607
REMARK minimizedRMSD -1
REMARK  1 active torsions:
REMARK  status: ('A' for Active; 'I' for Inactive)
REMARK    1  A    between atoms: N_2  and  C1_3 
ROOT
ATOM      1  C1  UNL d   1       4.165  -2.670  -2.114  0.00  0.00     0.143 A 
ATOM      2  C2  UNL d   1       5.231  -3.184  -1.367  0.00  0.00    -0.057 A 
ATOM      3  C3  UNL d   1       5.778  -4.441  -1.652  0.00  0.00     0.033 A 
ATOM      4  C4  UNL d   1       5.248  -5.221  -2.675  0.00  0.00    -0.042 A 
ATOM      5  C5  UNL d   1       4.173  -4.741  -3.415  0.00  0.00     0.033 A 
ATOM      6  C6  UNL d   1       3.636  -3.482  -3.130  0.00  0.00    -0.057 A 
ENDROOT
BRANCH   1   7
ATOM      7  N   UNL d   1       3.514  -1.471  -1.817  0.00  0.00    -0.732 N 
ATOM      8  C   UNL d   1       2.737  -1.335  -0.604  0.00  0.00     0.284 C 
ATOM      9  H3  UNL d   1       4.080  -0.655  -2.041  0.00  0.00     0.395 HD
ENDBRANCH   1   7
TORSDOF 1
ENDMDL
