MODEL 1
REMARK minimizedAffinity 1.60981524
REMARK minimizedRMSD -1
REMARK  1 active torsions:
REMARK  status: ('A' for Active; 'I' for Inactive)
REMARK    1  A    between atoms: N_2  and  C1_3 
ROOT
ATOM      1  C1  UNL d   1      -0.276   3.203  -0.821  0.00  0.00     0.143 A 
ATOM      2  C2  UNL d   1       0.836   3.709  -1.503  0.00  0.00    -0.057 A 
ATOM      3  C3  UNL d   1       1.008   5.085  -1.692  0.00  0.00     0.033 A 
ATOM      4  C4  UNL d   1       0.052   5.982  -1.226  0.00  0.00    -0.042 A 
ATOM      5  C5  UNL d   1      -1.074   5.500  -0.567  0.00  0.00     0.033 A 
ATOM      6  C6  UNL d   1      -1.236   4.125  -0.376  0.00  0.00    -0.057 A 
ENDROOT
BRANCH   1   7
ATOM      7  N   UNL d   1      -0.552   1.840  -0.687  0.00  0.00    -0.732 N 
ATOM      8  C   UNL d   1      -1.739   1.267  -1.285  0.00  0.00     0.284 C 
ATOM      9  H3  UNL d   1       0.281   1.264  -0.781  0.00  0.00     0.395 HD
ENDBRANCH   1   7
TORSDOF 1
ENDMDL
