MODEL 1
REMARK minimizedAffinity -0.235427588
REMARK minimizedRMSD -1
REMARK  1 active torsions:
REMARK  status: ('A' for Active; 'I' for Inactive)
REMARK    1  A    between atoms: N_2  and  C1_3 
ROOT
ATOM      1  C1  UNL d   1       3.077  -4.536  -1.526  0.00  0.00     0.143 A 
ATOM      2  C2  UNL d   1       4.173  -4.788  -2.359  0.00  0.00    -0.057 A 
ATOM      3  C3  UNL d   1       5.283  -3.935  -2.378  0.00  0.00     0.033 A 
ATOM      4  C4  UNL d   1       5.304  -2.794  -1.583  0.00  0.00    -0.042 A 
ATOM      5  C5  UNL d   1       4.215  -2.509  -0.766  0.00  0.00     0.033 A 
ATOM      6  C6  UNL d   1       3.113  -3.369  -0.746  0.00  0.00    -0.057 A 
ENDROOT
BRANCH   1   7
ATOM      7  N   UNL d   1       1.903  -5.292  -1.535  0.00  0.00    -0.732 N 
ATOM      8  C   UNL d   1       0.766  -4.898  -0.731  0.00  0.00     0.284 C 
ATOM      9  H3  UNL d   1       1.659  -5.621  -2.466  0.00  0.00     0.395 HD
ENDBRANCH   1   7
TORSDOF 1
ENDMDL
