MODEL 1
REMARK minimizedAffinity -0.725304902
REMARK minimizedRMSD -1
REMARK  1 active torsions:
REMARK  status: ('A' for Active; 'I' for Inactive)
REMARK    1  A    between atoms: N_2  and  C1_3 
ROOT
ATOM      1  C1  UNL d   1       2.975  -4.596  -1.558  0.00  0.00     0.143 A 
ATOM      2  C2  UNL d   1       3.458  -3.821  -2.618  0.00  0.00    -0.057 A 
ATOM      3  C3  UNL d   1       4.596  -3.019  -2.471  0.00  0.00     0.033 A 
ATOM      4  C4  UNL d   1       5.257  -2.955  -1.249  0.00  0.00    -0.042 A 
ATOM      5  C5  UNL d   1       4.780  -3.697  -0.174  0.00  0.00     0.033 A 
ATOM      6  C6  UNL d   1       3.646  -4.501  -0.329  0.00  0.00    -0.057 A 
ENDROOT
BRANCH   1   7
ATOM      7  N   UNL d   1       1.792  -5.337  -1.612  0.00  0.00    -0.732 N 
ATOM      8  C   UNL d   1       0.657  -4.974  -0.790  0.00  0.00     0.284 C 
ATOM      9  H3  UNL d   1       1.548  -5.610  -2.561  0.00  0.00     0.395 HD
ENDBRANCH   1   7
TORSDOF 1
ENDMDL
