MODEL 1
REMARK minimizedAffinity 2.37088752
REMARK minimizedRMSD -1
REMARK  0 active torsions:
REMARK  status: ('A' for Active; 'I' for Inactive)
ROOT
ATOM      1  C   UNL d   1       0.829   1.441   1.862  0.00  0.00     0.020 A 
ATOM      2  C1  UNL d   1       0.921   0.183   2.455  0.00  0.00     0.020 A 
ATOM      3  C2  UNL d   1       0.788  -0.968   1.675  0.00  0.00     0.034 A 
ATOM      4  C3  UNL d   1       0.561  -0.863   0.298  0.00  0.00     0.017 A 
ATOM      5  C4  UNL d   1       0.468   0.401  -0.296  0.00  0.00     0.017 A 
ATOM      6  C5  UNL d   1       0.603   1.550   0.489  0.00  0.00     0.034 A 
ATOM      7 Cl   UNL d   1       0.190   0.611  -1.989  0.00  0.00    -0.070 Cl
ATOM      8 Cl1  UNL d   1       0.406  -2.328  -0.605  0.00  0.00    -0.070 Cl
ENDROOT
TORSDOF 0
ENDMDL
