MODEL 1
REMARK minimizedAffinity 4.5316062
REMARK minimizedRMSD -1
REMARK  0 active torsions:
REMARK  status: ('A' for Active; 'I' for Inactive)
ROOT
ATOM      1  C   UNL d   1       0.826  -0.372  -0.135  0.00  0.00     0.020 A 
ATOM      2  C1  UNL d   1      -0.364  -0.454   0.587  0.00  0.00     0.020 A 
ATOM      3  C2  UNL d   1      -0.331  -0.718   1.958  0.00  0.00     0.034 A 
ATOM      4  C3  UNL d   1       0.893  -0.900   2.611  0.00  0.00     0.017 A 
ATOM      5  C4  UNL d   1       2.087  -0.817   1.885  0.00  0.00     0.017 A 
ATOM      6  C5  UNL d   1       2.049  -0.553   0.513  0.00  0.00     0.034 A 
ATOM      7 Cl   UNL d   1       3.636  -1.030   2.621  0.00  0.00    -0.070 Cl
ATOM      8 Cl1  UNL d   1       0.859  -1.222   4.308  0.00  0.00    -0.070 Cl
ENDROOT
TORSDOF 0
ENDMDL
