MODEL 1
REMARK minimizedAffinity 5.51252556
REMARK minimizedRMSD -1
REMARK  0 active torsions:
REMARK  status: ('A' for Active; 'I' for Inactive)
ROOT
ATOM      1  C   UNL d   1      -6.000  -3.350   4.795  0.00  0.00     0.020 A 
ATOM      2  C1  UNL d   1      -5.941  -3.598   3.424  0.00  0.00     0.020 A 
ATOM      3  C2  UNL d   1      -5.883  -2.533   2.524  0.00  0.00     0.034 A 
ATOM      4  C3  UNL d   1      -5.883  -1.214   2.993  0.00  0.00     0.017 A 
ATOM      5  C4  UNL d   1      -5.942  -0.966   4.369  0.00  0.00     0.017 A 
ATOM      6  C5  UNL d   1      -6.000  -2.037   5.266  0.00  0.00     0.034 A 
ATOM      7 Cl   UNL d   1      -5.946   0.634   5.024  0.00  0.00    -0.070 Cl
ATOM      8 Cl1  UNL d   1      -5.809   0.055   1.823  0.00  0.00    -0.070 Cl
ENDROOT
TORSDOF 0
ENDMDL
