MODEL 1
REMARK minimizedAffinity 6.76069021
REMARK minimizedRMSD -1
REMARK  0 active torsions:
REMARK  status: ('A' for Active; 'I' for Inactive)
ROOT
ATOM      1  C   UNL d   1       0.635  -1.300   2.630  0.00  0.00     0.020 A 
ATOM      2  C1  UNL d   1       0.788  -0.359   3.648  0.00  0.00     0.020 A 
ATOM      3  C2  UNL d   1       0.628   1.000   3.372  0.00  0.00     0.034 A 
ATOM      4  C3  UNL d   1       0.315   1.423   2.075  0.00  0.00     0.017 A 
ATOM      5  C4  UNL d   1       0.162   0.478   1.054  0.00  0.00     0.017 A 
ATOM      6  C5  UNL d   1       0.323  -0.882   1.336  0.00  0.00     0.034 A 
ATOM      7 Cl   UNL d   1      -0.224   0.923  -0.571  0.00  0.00    -0.070 Cl
ATOM      8 Cl1  UNL d   1       0.132   3.120   1.805  0.00  0.00    -0.070 Cl
ENDROOT
TORSDOF 0
ENDMDL
