MODEL 1
REMARK minimizedAffinity 8.84081173
REMARK minimizedRMSD -1
REMARK  0 active torsions:
REMARK  status: ('A' for Active; 'I' for Inactive)
ROOT
ATOM      1  C   UNL d   1       1.807   4.417   2.078  0.00  0.00     0.020 A 
ATOM      2  C1  UNL d   1       2.186   3.942   3.333  0.00  0.00     0.020 A 
ATOM      3  C2  UNL d   1       1.763   2.680   3.759  0.00  0.00     0.034 A 
ATOM      4  C3  UNL d   1       0.959   1.890   2.929  0.00  0.00     0.017 A 
ATOM      5  C4  UNL d   1       0.580   2.368   1.669  0.00  0.00     0.017 A 
ATOM      6  C5  UNL d   1       1.006   3.632   1.248  0.00  0.00     0.034 A 
ATOM      7 Cl   UNL d   1      -0.410   1.451   0.589  0.00  0.00    -0.070 Cl
ATOM      8 Cl1  UNL d   1       0.474   0.341   3.519  0.00  0.00    -0.070 Cl
ENDROOT
TORSDOF 0
ENDMDL
