MODEL 1
REMARK minimizedAffinity 7.91418505
REMARK minimizedRMSD -1
REMARK  0 active torsions:
REMARK  status: ('A' for Active; 'I' for Inactive)
ROOT
ATOM      1  C   UNL d   1       0.701   3.938   1.379  0.00  0.00     0.020 A 
ATOM      2  C1  UNL d   1       0.966   3.379   2.628  0.00  0.00     0.020 A 
ATOM      3  C2  UNL d   1       0.713   2.024   2.855  0.00  0.00     0.034 A 
ATOM      4  C3  UNL d   1       0.193   1.224   1.831  0.00  0.00     0.017 A 
ATOM      5  C4  UNL d   1      -0.072   1.787   0.577  0.00  0.00     0.017 A 
ATOM      6  C5  UNL d   1       0.183   3.143   0.355  0.00  0.00     0.034 A 
ATOM      7 Cl   UNL d   1      -0.714   0.863  -0.736  0.00  0.00    -0.070 Cl
ATOM      8 Cl1  UNL d   1      -0.095  -0.443   2.181  0.00  0.00    -0.070 Cl
ENDROOT
TORSDOF 0
ENDMDL
