MODEL 1
REMARK minimizedAffinity 12.7099991
REMARK minimizedRMSD -1
REMARK  0 active torsions:
REMARK  status: ('A' for Active; 'I' for Inactive)
ROOT
ATOM      1  C   UNL d   1      -5.948  -4.594   4.568  0.00  0.00     0.020 A 
ATOM      2  C1  UNL d   1      -5.932  -3.756   5.682  0.00  0.00     0.020 A 
ATOM      3  C2  UNL d   1      -5.925  -2.370   5.513  0.00  0.00     0.034 A 
ATOM      4  C3  UNL d   1      -5.933  -1.818   4.227  0.00  0.00     0.017 A 
ATOM      5  C4  UNL d   1      -5.949  -2.660   3.109  0.00  0.00     0.017 A 
ATOM      6  C5  UNL d   1      -5.957  -4.047   3.284  0.00  0.00     0.034 A 
ATOM      7 Cl   UNL d   1      -5.961  -2.052   1.491  0.00  0.00    -0.070 Cl
ATOM      8 Cl1  UNL d   1      -5.924  -0.095   4.093  0.00  0.00    -0.070 Cl
ENDROOT
TORSDOF 0
ENDMDL
