MODEL 1
REMARK minimizedAffinity 5.71948242
REMARK minimizedRMSD -1
REMARK  0 active torsions:
REMARK  status: ('A' for Active; 'I' for Inactive)
ROOT
ATOM      1  C   UNL d   1      -5.998  -1.668   1.798  0.00  0.00     0.020 A 
ATOM      2  C1  UNL d   1      -5.999  -3.053   1.959  0.00  0.00     0.020 A 
ATOM      3  C2  UNL d   1      -5.999  -3.606   3.241  0.00  0.00     0.034 A 
ATOM      4  C3  UNL d   1      -5.999  -2.775   4.367  0.00  0.00     0.017 A 
ATOM      5  C4  UNL d   1      -5.998  -1.385   4.204  0.00  0.00     0.017 A 
ATOM      6  C5  UNL d   1      -5.998  -0.836   2.918  0.00  0.00     0.034 A 
ATOM      7 Cl   UNL d   1      -5.998  -0.295   5.545  0.00  0.00    -0.070 Cl
ATOM      8 Cl1  UNL d   1      -6.000  -3.528   5.922  0.00  0.00    -0.070 Cl
ENDROOT
TORSDOF 0
ENDMDL
