MODEL 1
REMARK minimizedAffinity 7.72786999
REMARK minimizedRMSD -1
REMARK  0 active torsions:
REMARK  status: ('A' for Active; 'I' for Inactive)
ROOT
ATOM      1  C   UNL d   1       0.636   1.419   2.173  0.00  0.00     0.020 A 
ATOM      2  C1  UNL d   1       1.106   0.219   2.705  0.00  0.00     0.020 A 
ATOM      3  C2  UNL d   1       1.115  -0.936   1.921  0.00  0.00     0.034 A 
ATOM      4  C3  UNL d   1       0.654  -0.895   0.600  0.00  0.00     0.017 A 
ATOM      5  C4  UNL d   1       0.182   0.310   0.067  0.00  0.00     0.017 A 
ATOM      6  C5  UNL d   1       0.175   1.464   0.856  0.00  0.00     0.034 A 
ATOM      7 Cl   UNL d   1      -0.403   0.440  -1.554  0.00  0.00    -0.070 Cl
ATOM      8 Cl1  UNL d   1       0.694  -2.362  -0.312  0.00  0.00    -0.070 Cl
ENDROOT
TORSDOF 0
ENDMDL
