MODEL 1
REMARK minimizedAffinity 7.28669357
REMARK minimizedRMSD -1
REMARK  0 active torsions:
REMARK  status: ('A' for Active; 'I' for Inactive)
ROOT
ATOM      1  C   UNL d   1      -1.963  -2.889  -1.607  0.00  0.00     0.020 A 
ATOM      2  C1  UNL d   1      -1.534  -4.203  -1.788  0.00  0.00     0.020 A 
ATOM      3  C2  UNL d   1      -0.317  -4.621  -1.246  0.00  0.00     0.034 A 
ATOM      4  C3  UNL d   1       0.476  -3.724  -0.520  0.00  0.00     0.017 A 
ATOM      5  C4  UNL d   1       0.044  -2.405  -0.339  0.00  0.00     0.017 A 
ATOM      6  C5  UNL d   1      -1.176  -1.992  -0.884  0.00  0.00     0.034 A 
ATOM      7 Cl   UNL d   1       0.967  -1.240   0.544  0.00  0.00    -0.070 Cl
ATOM      8 Cl1  UNL d   1       1.969  -4.309   0.122  0.00  0.00    -0.070 Cl
ENDROOT
TORSDOF 0
ENDMDL
