MODEL 1
REMARK minimizedAffinity -1.92926359
REMARK minimizedRMSD -1
REMARK  0 active torsions:
REMARK  status: ('A' for Active; 'I' for Inactive)
ROOT
ATOM      1  C   UNL d   1      -3.300   0.022  -2.164  0.00  0.00     0.020 A 
ATOM      2  C1  UNL d   1      -2.646   1.160  -1.693  0.00  0.00     0.020 A 
ATOM      3  C2  UNL d   1      -1.499   1.032  -0.908  0.00  0.00     0.034 A 
ATOM      4  C3  UNL d   1      -1.002  -0.238  -0.590  0.00  0.00     0.017 A 
ATOM      5  C4  UNL d   1      -1.659  -1.379  -1.063  0.00  0.00     0.017 A 
ATOM      6  C5  UNL d   1      -2.807  -1.245  -1.849  0.00  0.00     0.034 A 
ATOM      7 Cl   UNL d   1      -1.106  -2.979  -0.713  0.00  0.00    -0.070 Cl
ATOM      8 Cl1  UNL d   1       0.422  -0.322   0.385  0.00  0.00    -0.070 Cl
ENDROOT
TORSDOF 0
ENDMDL
