MODEL 1
REMARK minimizedAffinity -0.665117443
REMARK minimizedRMSD -1
REMARK  0 active torsions:
REMARK  status: ('A' for Active; 'I' for Inactive)
ROOT
ATOM      1  C   UNL d   1       0.953  -1.020   1.102  0.00  0.00     0.020 A 
ATOM      2  C1  UNL d   1       0.983  -0.748  -0.265  0.00  0.00     0.020 A 
ATOM      3  C2  UNL d   1       0.728   0.545  -0.726  0.00  0.00     0.034 A 
ATOM      4  C3  UNL d   1       0.441   1.572   0.181  0.00  0.00     0.017 A 
ATOM      5  C4  UNL d   1       0.411   1.298   1.554  0.00  0.00     0.017 A 
ATOM      6  C5  UNL d   1       0.667   0.001   2.009  0.00  0.00     0.034 A 
ATOM      7 Cl   UNL d   1       0.064   2.512   2.734  0.00  0.00    -0.070 Cl
ATOM      8 Cl1  UNL d   1       0.136   3.147  -0.459  0.00  0.00    -0.070 Cl
ENDROOT
TORSDOF 0
ENDMDL
