MODEL 1
REMARK minimizedAffinity -3.85820079
REMARK minimizedRMSD -1
REMARK  0 active torsions:
REMARK  status: ('A' for Active; 'I' for Inactive)
ROOT
ATOM      1  C2' OXE d   1      -0.966  -0.125   2.398  0.00  0.00     0.078 C 
ATOM      2  C1' OXE d   1      -2.727   1.435   0.867  0.00  0.00     0.078 C 
ATOM      3  C1  OXE d   1      -1.361   1.150   0.295  0.00  0.00    -0.078 A 
ATOM      4  C2  OXE d   1      -0.489   0.425   1.071  0.00  0.00    -0.078 A 
ATOM      5  C3  OXE d   1       0.765   0.088   0.569  0.00  0.00     0.003 A 
ATOM      6  C4  OXE d   1       1.202   0.610  -0.655  0.00  0.00    -0.002 A 
ATOM      7  C5  OXE d   1       0.344   1.384  -1.444  0.00  0.00    -0.002 A 
ATOM      8  C6  OXE d   1      -0.953   1.627  -1.003  0.00  0.00     0.003 A 
ENDROOT
TORSDOF 0
ENDMDL
