MODEL 1
REMARK minimizedAffinity -4.30062151
REMARK minimizedRMSD -1
REMARK  0 active torsions:
REMARK  status: ('A' for Active; 'I' for Inactive)
ROOT
ATOM      1  C2' OXE d   1       0.363  -0.784   2.540  0.00  0.00     0.078 C 
ATOM      2  C1' OXE d   1       0.762  -1.050  -0.226  0.00  0.00     0.078 C 
ATOM      3  C1  OXE d   1      -0.101   0.090   0.255  0.00  0.00    -0.078 A 
ATOM      4  C2  OXE d   1      -0.329   0.185   1.606  0.00  0.00    -0.078 A 
ATOM      5  C3  OXE d   1      -1.072   1.249   2.107  0.00  0.00     0.003 A 
ATOM      6  C4  OXE d   1      -1.717   2.136   1.236  0.00  0.00    -0.002 A 
ATOM      7  C5  OXE d   1      -1.531   2.033  -0.147  0.00  0.00    -0.002 A 
ATOM      8  C6  OXE d   1      -0.694   1.044  -0.650  0.00  0.00     0.003 A 
ENDROOT
TORSDOF 0
ENDMDL
