MODEL 1
REMARK minimizedAffinity -5.05730677
REMARK minimizedRMSD -1
REMARK  0 active torsions:
REMARK  status: ('A' for Active; 'I' for Inactive)
ROOT
ATOM      1  C2' OXE d   1      -1.637   2.497   1.136  0.00  0.00     0.078 C 
ATOM      2  C1' OXE d   1      -0.426   2.652  -1.392  0.00  0.00     0.078 C 
ATOM      3  C1  OXE d   1      -0.178   1.414  -0.568  0.00  0.00    -0.078 A 
ATOM      4  C2  OXE d   1      -0.736   1.367   0.687  0.00  0.00    -0.078 A 
ATOM      5  C3  OXE d   1      -0.584   0.224   1.467  0.00  0.00     0.003 A 
ATOM      6  C4  OXE d   1       0.259  -0.813   1.049  0.00  0.00    -0.002 A 
ATOM      7  C5  OXE d   1       0.870  -0.767  -0.209  0.00  0.00    -0.002 A 
ATOM      8  C6  OXE d   1       0.628   0.317  -1.045  0.00  0.00     0.003 A 
ENDROOT
TORSDOF 0
ENDMDL
