MODEL 1
REMARK minimizedAffinity -5.38438416
REMARK minimizedRMSD -1
REMARK  0 active torsions:
REMARK  status: ('A' for Active; 'I' for Inactive)
ROOT
ATOM      1  C2' OXE d   1       0.506  -0.972   1.899  0.00  0.00     0.078 C 
ATOM      2  C1' OXE d   1       1.096  -0.324  -0.768  0.00  0.00     0.078 C 
ATOM      3  C1  OXE d   1       0.041   0.492  -0.062  0.00  0.00    -0.078 A 
ATOM      4  C2  OXE d   1      -0.274   0.137   1.227  0.00  0.00    -0.078 A 
ATOM      5  C3  OXE d   1      -1.201   0.891   1.942  0.00  0.00     0.003 A 
ATOM      6  C4  OXE d   1      -1.925   1.909   1.310  0.00  0.00    -0.002 A 
ATOM      7  C5  OXE d   1      -1.648   2.260  -0.015  0.00  0.00    -0.002 A 
ATOM      8  C6  OXE d   1      -0.640   1.591  -0.701  0.00  0.00     0.003 A 
ENDROOT
TORSDOF 0
ENDMDL
