MODEL 1
REMARK minimizedAffinity 0.433338493
REMARK minimizedRMSD -1
REMARK  0 active torsions:
REMARK  status: ('A' for Active; 'I' for Inactive)
ROOT
ATOM      1  C2' OXE d   1      -0.635   2.469  -1.768  0.00  0.00     0.078 C 
ATOM      2  C1' OXE d   1      -2.345   1.756   0.341  0.00  0.00     0.078 C 
ATOM      3  C1  OXE d   1      -1.145   0.880   0.081  0.00  0.00    -0.078 A 
ATOM      4  C2  OXE d   1      -0.340   1.210  -0.982  0.00  0.00    -0.078 A 
ATOM      5  C3  OXE d   1       0.810   0.466  -1.232  0.00  0.00     0.003 A 
ATOM      6  C4  OXE d   1       1.070  -0.703  -0.507  0.00  0.00    -0.002 A 
ATOM      7  C5  OXE d   1       0.241  -1.079   0.554  0.00  0.00    -0.002 A 
ATOM      8  C6  OXE d   1      -0.845  -0.277   0.888  0.00  0.00     0.003 A 
ENDROOT
TORSDOF 0
ENDMDL
