MODEL 1
REMARK minimizedAffinity -4.92657423
REMARK minimizedRMSD -1
REMARK  0 active torsions:
REMARK  status: ('A' for Active; 'I' for Inactive)
ROOT
ATOM      1  C2' OXE d   1       1.702   0.835  -1.530  0.00  0.00     0.078 C 
ATOM      2  C1' OXE d   1       0.595  -1.672  -0.922  0.00  0.00     0.078 C 
ATOM      3  C1  OXE d   1      -0.160  -0.443  -0.479  0.00  0.00    -0.078 A 
ATOM      4  C2  OXE d   1       0.413   0.779  -0.740  0.00  0.00    -0.078 A 
ATOM      5  C3  OXE d   1      -0.267   1.945  -0.402  0.00  0.00     0.003 A 
ATOM      6  C4  OXE d   1      -1.454   1.884   0.338  0.00  0.00    -0.002 A 
ATOM      7  C5  OXE d   1      -2.035   0.650   0.649  0.00  0.00    -0.002 A 
ATOM      8  C6  OXE d   1      -1.423  -0.520   0.211  0.00  0.00     0.003 A 
ENDROOT
TORSDOF 0
ENDMDL
