MODEL 1
REMARK minimizedAffinity -3.47187686
REMARK minimizedRMSD -1
REMARK  0 active torsions:
REMARK  status: ('A' for Active; 'I' for Inactive)
ROOT
ATOM      1  C2' OXE d   1      -0.222   0.599   2.958  0.00  0.00     0.078 C 
ATOM      2  C1' OXE d   1      -2.094   1.677   1.165  0.00  0.00     0.078 C 
ATOM      3  C1  OXE d   1      -1.087   0.693   0.624  0.00  0.00    -0.078 A 
ATOM      4  C2  OXE d   1      -0.146   0.206   1.499  0.00  0.00    -0.078 A 
ATOM      5  C3  OXE d   1       0.772  -0.746   1.064  0.00  0.00     0.003 A 
ATOM      6  C4  OXE d   1       0.842  -1.097  -0.290  0.00  0.00    -0.002 A 
ATOM      7  C5  OXE d   1      -0.083  -0.583  -1.205  0.00  0.00    -0.002 A 
ATOM      8  C6  OXE d   1      -1.078   0.279  -0.757  0.00  0.00     0.003 A 
ENDROOT
TORSDOF 0
ENDMDL
