MODEL 1
REMARK minimizedAffinity -3.2302711
REMARK minimizedRMSD -1
REMARK  0 active torsions:
REMARK  status: ('A' for Active; 'I' for Inactive)
ROOT
ATOM      1  C2' OXE d   1      -2.081   1.580   1.209  0.00  0.00     0.078 C 
ATOM      2  C1' OXE d   1      -0.888  -0.662   2.405  0.00  0.00     0.078 C 
ATOM      3  C1  OXE d   1      -0.289  -0.148   1.120  0.00  0.00    -0.078 A 
ATOM      4  C2  OXE d   1      -0.907   0.921   0.517  0.00  0.00    -0.078 A 
ATOM      5  C3  OXE d   1      -0.363   1.469  -0.641  0.00  0.00     0.003 A 
ATOM      6  C4  OXE d   1       0.716   0.847  -1.280  0.00  0.00    -0.002 A 
ATOM      7  C5  OXE d   1       1.337  -0.266  -0.704  0.00  0.00    -0.002 A 
ATOM      8  C6  OXE d   1       0.874  -0.749   0.516  0.00  0.00     0.003 A 
ENDROOT
TORSDOF 0
ENDMDL
