MODEL 1
REMARK minimizedAffinity -4.39552689
REMARK minimizedRMSD -1
REMARK  0 active torsions:
REMARK  status: ('A' for Active; 'I' for Inactive)
ROOT
ATOM      1  C2' OXE d   1      -2.738   1.457   1.116  0.00  0.00     0.078 C 
ATOM      2  C1' OXE d   1      -1.364  -0.068   3.031  0.00  0.00     0.078 C 
ATOM      3  C1  OXE d   1      -0.680   0.185   1.710  0.00  0.00    -0.078 A 
ATOM      4  C2  OXE d   1      -1.379   0.893   0.762  0.00  0.00    -0.078 A 
ATOM      5  C3  OXE d   1      -0.773   1.202  -0.453  0.00  0.00     0.003 A 
ATOM      6  C4  OXE d   1       0.480   0.668  -0.776  0.00  0.00    -0.002 A 
ATOM      7  C5  OXE d   1       1.192  -0.089   0.161  0.00  0.00    -0.002 A 
ATOM      8  C6  OXE d   1       0.645  -0.303   1.422  0.00  0.00     0.003 A 
ENDROOT
TORSDOF 0
ENDMDL
