MODEL 1
REMARK minimizedAffinity -3.34914541
REMARK minimizedRMSD -1
REMARK  0 active torsions:
REMARK  status: ('A' for Active; 'I' for Inactive)
ROOT
ATOM      1  C2' OXE d   1       1.171  -0.176   2.134  0.00  0.00     0.078 C 
ATOM      2  C1' OXE d   1       0.412  -0.691  -0.519  0.00  0.00     0.078 C 
ATOM      3  C1  OXE d   1      -0.437   0.263   0.282  0.00  0.00    -0.078 A 
ATOM      4  C2  OXE d   1      -0.086   0.474   1.594  0.00  0.00    -0.078 A 
ATOM      5  C3  OXE d   1      -0.803   1.386   2.363  0.00  0.00     0.003 A 
ATOM      6  C4  OXE d   1      -1.969   1.975   1.859  0.00  0.00    -0.002 A 
ATOM      7  C5  OXE d   1      -2.368   1.743   0.538  0.00  0.00    -0.002 A 
ATOM      8  C6  OXE d   1      -1.591   0.925  -0.275  0.00  0.00     0.003 A 
ENDROOT
TORSDOF 0
ENDMDL
