MODEL 1
REMARK minimizedAffinity -5.35357857
REMARK minimizedRMSD -1
REMARK  0 active torsions:
REMARK  status: ('A' for Active; 'I' for Inactive)
ROOT
ATOM      1  C2' OXE d   1       0.769  -0.438  -0.522  0.00  0.00     0.078 C 
ATOM      2  C1' OXE d   1       0.839   2.287  -1.192  0.00  0.00     0.078 C 
ATOM      3  C1  OXE d   1       0.048   1.882   0.027  0.00  0.00    -0.078 A 
ATOM      4  C2  OXE d   1      -0.019   0.541   0.320  0.00  0.00    -0.078 A 
ATOM      5  C3  OXE d   1      -0.690   0.119   1.465  0.00  0.00     0.003 A 
ATOM      6  C4  OXE d   1      -1.425   1.031   2.232  0.00  0.00    -0.002 A 
ATOM      7  C5  OXE d   1      -1.402   2.396   1.928  0.00  0.00    -0.002 A 
ATOM      8  C6  OXE d   1      -0.638   2.842   0.855  0.00  0.00     0.003 A 
ENDROOT
TORSDOF 0
ENDMDL
