MODEL 1
REMARK minimizedAffinity -2.26732969
REMARK minimizedRMSD -1
REMARK  0 active torsions:
REMARK  status: ('A' for Active; 'I' for Inactive)
ROOT
ATOM      1  C2' OXE d   1       0.459  -1.043   2.587  0.00  0.00     0.078 C 
ATOM      2  C1' OXE d   1       0.929  -1.634  -0.117  0.00  0.00     0.078 C 
ATOM      3  C1  OXE d   1       0.081  -0.429   0.203  0.00  0.00    -0.078 A 
ATOM      4  C2  OXE d   1      -0.182  -0.174   1.527  0.00  0.00    -0.078 A 
ATOM      5  C3  OXE d   1      -0.914   0.957   1.880  0.00  0.00     0.003 A 
ATOM      6  C4  OXE d   1      -1.512   1.750   0.893  0.00  0.00    -0.002 A 
ATOM      7  C5  OXE d   1      -1.290   1.485  -0.462  0.00  0.00    -0.002 A 
ATOM      8  C6  OXE d   1      -0.462   0.427  -0.823  0.00  0.00     0.003 A 
ENDROOT
TORSDOF 0
ENDMDL
