MODEL 1
REMARK minimizedAffinity -3.05870152
REMARK minimizedRMSD -1
REMARK  0 active torsions:
REMARK  status: ('A' for Active; 'I' for Inactive)
ROOT
ATOM      1  C2' OXE d   1       0.018   2.848  -1.503  0.00  0.00     0.078 C 
ATOM      2  C1' OXE d   1      -1.686   1.813   0.472  0.00  0.00     0.078 C 
ATOM      3  C1  OXE d   1      -0.600   0.913  -0.061  0.00  0.00    -0.078 A 
ATOM      4  C2  OXE d   1       0.200   1.412  -1.061  0.00  0.00    -0.078 A 
ATOM      5  C3  OXE d   1       1.253   0.644  -1.550  0.00  0.00     0.003 A 
ATOM      6  C4  OXE d   1       1.408  -0.687  -1.143  0.00  0.00    -0.002 A 
ATOM      7  C5  OXE d   1       0.579  -1.228  -0.155  0.00  0.00    -0.002 A 
ATOM      8  C6  OXE d   1      -0.400  -0.430   0.426  0.00  0.00     0.003 A 
ENDROOT
TORSDOF 0
ENDMDL
