MODEL 1
REMARK minimizedAffinity -4.74355078
REMARK minimizedRMSD -1
REMARK  0 active torsions:
REMARK  status: ('A' for Active; 'I' for Inactive)
ROOT
ATOM      1  C2' OXE d   1       0.537  -0.731   0.023  0.00  0.00     0.078 C 
ATOM      2  C1' OXE d   1      -1.606  -1.704   1.552  0.00  0.00     0.078 C 
ATOM      3  C1  OXE d   1      -1.603  -0.238   1.198  0.00  0.00    -0.078 A 
ATOM      4  C2  OXE d   1      -0.527   0.239   0.489  0.00  0.00    -0.078 A 
ATOM      5  C3  OXE d   1      -0.501   1.572   0.089  0.00  0.00     0.003 A 
ATOM      6  C4  OXE d   1      -1.485   2.464   0.533  0.00  0.00    -0.002 A 
ATOM      7  C5  OXE d   1      -2.569   2.007   1.290  0.00  0.00    -0.002 A 
ATOM      8  C6  OXE d   1      -2.665   0.654   1.594  0.00  0.00     0.003 A 
ENDROOT
TORSDOF 0
ENDMDL
