MODEL 1
REMARK minimizedAffinity 10.9874916
REMARK minimizedRMSD -1
REMARK  0 active torsions:
REMARK  status: ('A' for Active; 'I' for Inactive)
ROOT
ATOM      1  C1  DEN d   1       0.648  -0.539  -6.000  0.00  0.00     0.130 A 
ATOM      2  C2  DEN d   1       0.087  -1.887  -6.000  0.00  0.00    -0.031 A 
ATOM      3  C3  DEN d   1       1.207  -2.848  -5.947  0.00  0.00     0.027 A 
ATOM      4  C4  DEN d   1       3.743  -2.381  -5.860  0.00  0.00     0.027 A 
ATOM      5  C5  DEN d   1       4.702  -1.393  -5.852  0.00  0.00    -0.003 A 
ATOM      6  C6  DEN d   1       4.382  -0.064  -5.926  0.00  0.00     0.001 A 
ATOM      7  C7  DEN d   1       3.067   0.317  -5.966  0.00  0.00     0.017 A 
ATOM      8  C8  DEN d   1       2.094  -0.674  -5.982  0.00  0.00    -0.094 A 
ATOM      9  C9  DEN d   1       2.437  -2.012  -5.894  0.00  0.00    -0.072 A 
ENDROOT
TORSDOF 0
ENDMDL
