MODEL 1
REMARK minimizedAffinity 19.1701488
REMARK minimizedRMSD -1
REMARK  0 active torsions:
REMARK  status: ('A' for Active; 'I' for Inactive)
ROOT
ATOM      1  C1  DEN d   1       5.250   2.277   4.725  0.00  0.00     0.130 A 
ATOM      2  C2  DEN d   1       4.479   1.522   3.742  0.00  0.00    -0.031 A 
ATOM      3  C3  DEN d   1       4.144   2.431   2.628  0.00  0.00     0.027 A 
ATOM      4  C4  DEN d   1       4.747   4.921   2.328  0.00  0.00     0.027 A 
ATOM      5  C5  DEN d   1       5.381   5.999   2.904  0.00  0.00    -0.003 A 
ATOM      6  C6  DEN d   1       5.981   5.923   4.133  0.00  0.00     0.001 A 
ATOM      7  C7  DEN d   1       6.000   4.730   4.806  0.00  0.00     0.017 A 
ATOM      8  C8  DEN d   1       5.356   3.640   4.235  0.00  0.00    -0.094 A 
ATOM      9  C9  DEN d   1       4.766   3.734   2.986  0.00  0.00    -0.072 A 
ENDROOT
TORSDOF 0
ENDMDL
