MODEL 1
REMARK minimizedAffinity 16.7825356
REMARK minimizedRMSD -1
REMARK  0 active torsions:
REMARK  status: ('A' for Active; 'I' for Inactive)
ROOT
ATOM      1  C1  DEN d   1      -0.790  -0.750  -4.506  0.00  0.00     0.130 A 
ATOM      2  C2  DEN d   1      -0.955  -0.772  -3.055  0.00  0.00    -0.031 A 
ATOM      3  C3  DEN d   1       0.388  -0.745  -2.442  0.00  0.00     0.027 A 
ATOM      4  C4  DEN d   1       2.695  -0.668  -3.593  0.00  0.00     0.027 A 
ATOM      5  C5  DEN d   1       3.343  -0.647  -4.809  0.00  0.00    -0.003 A 
ATOM      6  C6  DEN d   1       2.666  -0.694  -5.998  0.00  0.00     0.001 A 
ATOM      7  C7  DEN d   1       1.296  -0.718  -5.999  0.00  0.00     0.017 A 
ATOM      8  C8  DEN d   1       0.636  -0.746  -4.778  0.00  0.00    -0.094 A 
ATOM      9  C9  DEN d   1       1.338  -0.686  -3.586  0.00  0.00    -0.072 A 
ENDROOT
TORSDOF 0
ENDMDL
