MODEL 1
REMARK minimizedAffinity 13.823946
REMARK minimizedRMSD -1
REMARK  0 active torsions:
REMARK  status: ('A' for Active; 'I' for Inactive)
ROOT
ATOM      1  C1  DEN d   1       1.513  -3.679  -6.000  0.00  0.00     0.130 A 
ATOM      2  C2  DEN d   1       2.916  -4.081  -5.944  0.00  0.00    -0.031 A 
ATOM      3  C3  DEN d   1       3.720  -2.887  -5.612  0.00  0.00     0.027 A 
ATOM      4  C4  DEN d   1       2.932  -0.470  -5.178  0.00  0.00     0.027 A 
ATOM      5  C5  DEN d   1       1.835   0.361  -5.125  0.00  0.00    -0.003 A 
ATOM      6  C6  DEN d   1       0.567  -0.086  -5.390  0.00  0.00     0.001 A 
ATOM      7  C7  DEN d   1       0.360  -1.409  -5.678  0.00  0.00     0.017 A 
ATOM      8  C8  DEN d   1       1.463  -2.251  -5.741  0.00  0.00    -0.094 A 
ATOM      9  C9  DEN d   1       2.735  -1.783  -5.457  0.00  0.00    -0.072 A 
ENDROOT
TORSDOF 0
ENDMDL
