MODEL 1
REMARK minimizedAffinity 10.5798855
REMARK minimizedRMSD -1
REMARK  0 active torsions:
REMARK  status: ('A' for Active; 'I' for Inactive)
ROOT
ATOM      1  C1  DEN d   1       0.140  -0.035   1.968  0.00  0.00     0.130 A 
ATOM      2  C2  DEN d   1       0.549  -0.632   3.236  0.00  0.00    -0.031 A 
ATOM      3  C3  DEN d   1       1.810   0.010   3.658  0.00  0.00     0.027 A 
ATOM      4  C4  DEN d   1       3.160   1.865   2.478  0.00  0.00     0.027 A 
ATOM      5  C5  DEN d   1       3.216   2.680   1.369  0.00  0.00    -0.003 A 
ATOM      6  C6  DEN d   1       2.277   2.624   0.373  0.00  0.00     0.001 A 
ATOM      7  C7  DEN d   1       1.216   1.765   0.489  0.00  0.00     0.017 A 
ATOM      8  C8  DEN d   1       1.156   0.935   1.600  0.00  0.00    -0.094 A 
ATOM      9  C9  DEN d   1       2.109   1.015   2.602  0.00  0.00    -0.072 A 
ENDROOT
TORSDOF 0
ENDMDL
