MODEL 1
REMARK minimizedAffinity -1.89400208
REMARK minimizedRMSD -1
REMARK  0 active torsions:
REMARK  status: ('A' for Active; 'I' for Inactive)
ROOT
ATOM      1  N1  IND d   1      -0.816  -1.044   2.770  0.00  0.00    -0.196 N 
ATOM      2  C2  IND d   1      -1.957  -1.662   2.341  0.00  0.00     0.054 A 
ATOM      3  C3  IND d   1      -2.123  -1.475   1.012  0.00  0.00    -0.031 A 
ATOM      4  C4  IND d   1      -0.591  -0.276  -0.674  0.00  0.00     0.051 A 
ATOM      5  C5  IND d   1       0.547   0.477  -0.750  0.00  0.00    -0.031 A 
ATOM      6  C6  IND d   1       1.306   0.764   0.366  0.00  0.00     0.015 A 
ATOM      7  C7  IND d   1       0.960   0.298   1.603  0.00  0.00    -0.016 A 
ATOM      8  C8  IND d   1      -0.199  -0.460   1.685  0.00  0.00    -0.047 A 
ATOM      9  C9  IND d   1      -0.997  -0.720   0.562  0.00  0.00    -0.096 A 
ATOM     10  HN1 IND d   1      -0.531  -1.023   3.580  0.00  0.00     0.298 HD
ENDROOT
TORSDOF 0
ENDMDL
