MODEL 1
REMARK minimizedAffinity -1.7756269
REMARK minimizedRMSD -1
REMARK  0 active torsions:
REMARK  status: ('A' for Active; 'I' for Inactive)
ROOT
ATOM      1  N1  IND d   1      -1.338  -0.167  -0.585  0.00  0.00    -0.196 N 
ATOM      2  C2  IND d   1      -0.530   0.028  -1.671  0.00  0.00     0.054 A 
ATOM      3  C3  IND d   1       0.735   0.294  -1.274  0.00  0.00    -0.031 A 
ATOM      4  C4  IND d   1       1.723   0.359   1.102  0.00  0.00     0.051 A 
ATOM      5  C5  IND d   1       1.368   0.280   2.420  0.00  0.00    -0.031 A 
ATOM      6  C6  IND d   1       0.066   0.041   2.810  0.00  0.00     0.015 A 
ATOM      7  C7  IND d   1      -0.931  -0.141   1.894  0.00  0.00    -0.016 A 
ATOM      8  C8  IND d   1      -0.575  -0.055   0.556  0.00  0.00    -0.047 A 
ATOM      9  C9  IND d   1       0.737   0.230   0.154  0.00  0.00    -0.096 A 
ATOM     10  HN1 IND d   1      -2.182  -0.332  -0.611  0.00  0.00     0.298 HD
ENDROOT
TORSDOF 0
ENDMDL
