MODEL 1
REMARK minimizedAffinity -2.56019807
REMARK minimizedRMSD -1
REMARK  0 active torsions:
REMARK  status: ('A' for Active; 'I' for Inactive)
ROOT
ATOM      1  N1  IND d   1       2.029  -2.577  -1.261  0.00  0.00    -0.196 N 
ATOM      2  C2  IND d   1       1.594  -2.563  -2.557  0.00  0.00     0.054 A 
ATOM      3  C3  IND d   1       0.531  -1.738  -2.687  0.00  0.00    -0.031 A 
ATOM      4  C4  IND d   1      -0.598  -0.235  -0.928  0.00  0.00     0.051 A 
ATOM      5  C5  IND d   1      -0.577   0.066   0.405  0.00  0.00    -0.031 A 
ATOM      6  C6  IND d   1       0.335  -0.508   1.268  0.00  0.00     0.015 A 
ATOM      7  C7  IND d   1       1.270  -1.400   0.825  0.00  0.00    -0.016 A 
ATOM      8  C8  IND d   1       1.247  -1.714  -0.526  0.00  0.00    -0.047 A 
ATOM      9  C9  IND d   1       0.297  -1.166  -1.399  0.00  0.00    -0.096 A 
ATOM     10  HN1 IND d   1       2.682  -3.046  -0.956  0.00  0.00     0.298 HD
ENDROOT
TORSDOF 0
ENDMDL
