MODEL 1
REMARK minimizedAffinity -4.06903744
REMARK minimizedRMSD -1
REMARK  0 active torsions:
REMARK  status: ('A' for Active; 'I' for Inactive)
ROOT
ATOM      1  N1  IND d   1      -0.702  -1.125  -0.878  0.00  0.00    -0.196 N 
ATOM      2  C2  IND d   1      -0.097  -0.305  -1.789  0.00  0.00     0.054 A 
ATOM      3  C3  IND d   1       0.603   0.664  -1.158  0.00  0.00    -0.031 A 
ATOM      4  C4  IND d   1       0.977   1.034   1.362  0.00  0.00     0.051 A 
ATOM      5  C5  IND d   1       0.597   0.564   2.588  0.00  0.00    -0.031 A 
ATOM      6  C6  IND d   1      -0.250  -0.516   2.724  0.00  0.00     0.015 A 
ATOM      7  C7  IND d   1      -0.742  -1.177   1.634  0.00  0.00    -0.016 A 
ATOM      8  C8  IND d   1      -0.364  -0.699   0.388  0.00  0.00    -0.047 A 
ATOM      9  C9  IND d   1       0.462   0.424   0.243  0.00  0.00    -0.096 A 
ATOM     10  HN1 IND d   1      -1.208  -1.795  -1.063  0.00  0.00     0.298 HD
ENDROOT
TORSDOF 0
ENDMDL
