MODEL 1
REMARK minimizedAffinity -4.46543837
REMARK minimizedRMSD -1
REMARK  0 active torsions:
REMARK  status: ('A' for Active; 'I' for Inactive)
ROOT
ATOM      1  N1  IND d   1      -0.658   0.233  -1.261  0.00  0.00    -0.196 N 
ATOM      2  C2  IND d   1       0.594   0.737  -1.479  0.00  0.00     0.054 A 
ATOM      3  C3  IND d   1       1.339   0.650  -0.354  0.00  0.00    -0.031 A 
ATOM      4  C4  IND d   1       0.739  -0.376   1.929  0.00  0.00     0.051 A 
ATOM      5  C5  IND d   1      -0.302  -0.929   2.622  0.00  0.00    -0.031 A 
ATOM      6  C6  IND d   1      -1.538  -1.129   2.043  0.00  0.00     0.015 A 
ATOM      7  C7  IND d   1      -1.778  -0.793   0.741  0.00  0.00    -0.016 A 
ATOM      8  C8  IND d   1      -0.726  -0.225   0.037  0.00  0.00    -0.047 A 
ATOM      9  C9  IND d   1       0.519   0.020   0.631  0.00  0.00    -0.096 A 
ATOM     10  HN1 IND d   1      -1.295   0.206  -1.837  0.00  0.00     0.298 HD
ENDROOT
TORSDOF 0
ENDMDL
