MODEL 1
REMARK minimizedAffinity -4.19558144
REMARK minimizedRMSD -1
REMARK  0 active torsions:
REMARK  status: ('A' for Active; 'I' for Inactive)
ROOT
ATOM      1  N1  IND d   1      -1.853   0.497  -0.736  0.00  0.00    -0.196 N 
ATOM      2  C2  IND d   1      -0.800   0.658  -1.592  0.00  0.00     0.054 A 
ATOM      3  C3  IND d   1       0.364   0.375  -0.965  0.00  0.00    -0.031 A 
ATOM      4  C4  IND d   1       0.765  -0.467   1.435  0.00  0.00     0.051 A 
ATOM      5  C5  IND d   1       0.113  -0.731   2.607  0.00  0.00    -0.031 A 
ATOM      6  C6  IND d   1      -1.255  -0.600   2.726  0.00  0.00     0.015 A 
ATOM      7  C7  IND d   1      -2.028  -0.208   1.669  0.00  0.00    -0.016 A 
ATOM      8  C8  IND d   1      -1.369   0.068   0.480  0.00  0.00    -0.047 A 
ATOM      9  C9  IND d   1       0.024  -0.023   0.365  0.00  0.00    -0.096 A 
ATOM     10  HN1 IND d   1      -2.680   0.640  -0.926  0.00  0.00     0.298 HD
ENDROOT
TORSDOF 0
ENDMDL
