MODEL 1
REMARK minimizedAffinity -1.05737031
REMARK minimizedRMSD -1
REMARK  0 active torsions:
REMARK  status: ('A' for Active; 'I' for Inactive)
ROOT
ATOM      1  N1  IND d   1      -0.569   1.435  -0.778  0.00  0.00    -0.196 N 
ATOM      2  C2  IND d   1      -1.909   1.188  -0.899  0.00  0.00     0.054 A 
ATOM      3  C3  IND d   1      -2.357   0.489   0.168  0.00  0.00    -0.031 A 
ATOM      4  C4  IND d   1      -1.089  -0.265   2.278  0.00  0.00     0.051 A 
ATOM      5  C5  IND d   1       0.162  -0.302   2.828  0.00  0.00    -0.031 A 
ATOM      6  C6  IND d   1       1.254   0.251   2.192  0.00  0.00     0.015 A 
ATOM      7  C7  IND d   1       1.134   0.875   0.983  0.00  0.00    -0.016 A 
ATOM      8  C8  IND d   1      -0.133   0.909   0.418  0.00  0.00    -0.047 A 
ATOM      9  C9  IND d   1      -1.238   0.312   1.039  0.00  0.00    -0.096 A 
ATOM     10  HN1 IND d   1      -0.082   1.849  -1.352  0.00  0.00     0.298 HD
ENDROOT
TORSDOF 0
ENDMDL
