MODEL 1
REMARK minimizedAffinity -3.17441416
REMARK minimizedRMSD -1
REMARK  0 active torsions:
REMARK  status: ('A' for Active; 'I' for Inactive)
ROOT
ATOM      1  N1  IND d   1       1.075   0.889   0.035  0.00  0.00    -0.196 N 
ATOM      2  C2  IND d   1       0.401   0.586  -1.115  0.00  0.00     0.054 A 
ATOM      3  C3  IND d   1      -0.633  -0.244  -0.850  0.00  0.00    -0.031 A 
ATOM      4  C4  IND d   1      -1.466  -1.149   1.412  0.00  0.00     0.051 A 
ATOM      5  C5  IND d   1      -1.152  -1.178   2.742  0.00  0.00    -0.031 A 
ATOM      6  C6  IND d   1      -0.060  -0.503   3.248  0.00  0.00     0.015 A 
ATOM      7  C7  IND d   1       0.757   0.238   2.441  0.00  0.00    -0.016 A 
ATOM      8  C8  IND d   1       0.446   0.264   1.089  0.00  0.00    -0.047 A 
ATOM      9  C9  IND d   1      -0.637  -0.453   0.563  0.00  0.00    -0.096 A 
ATOM     10  HN1 IND d   1       1.774   1.387   0.091  0.00  0.00     0.298 HD
ENDROOT
TORSDOF 0
ENDMDL
