MODEL 1
REMARK minimizedAffinity -4.72906828
REMARK minimizedRMSD -1
REMARK  0 active torsions:
REMARK  status: ('A' for Active; 'I' for Inactive)
ROOT
ATOM      1  N1  IND d   1      -0.648  -1.287   1.729  0.00  0.00    -0.196 N 
ATOM      2  C2  IND d   1      -0.212  -0.647   2.855  0.00  0.00     0.054 A 
ATOM      3  C3  IND d   1       0.524   0.438   2.524  0.00  0.00    -0.031 A 
ATOM      4  C4  IND d   1       1.055   1.406   0.199  0.00  0.00     0.051 A 
ATOM      5  C5  IND d   1       0.906   1.149  -1.135  0.00  0.00    -0.031 A 
ATOM      6  C6  IND d   1       0.214   0.045  -1.592  0.00  0.00     0.015 A 
ATOM      7  C7  IND d   1      -0.366  -0.840  -0.728  0.00  0.00    -0.016 A 
ATOM      8  C8  IND d   1      -0.210  -0.585   0.628  0.00  0.00    -0.047 A 
ATOM      9  C9  IND d   1       0.527   0.510   1.097  0.00  0.00    -0.096 A 
ATOM     10  HN1 IND d   1      -1.117  -2.008   1.711  0.00  0.00     0.298 HD
ENDROOT
TORSDOF 0
ENDMDL
