MODEL 1
REMARK minimizedAffinity -3.8681109
REMARK minimizedRMSD -1
REMARK  0 active torsions:
REMARK  status: ('A' for Active; 'I' for Inactive)
ROOT
ATOM      1  N1  IND d   1       0.391   0.521   2.912  0.00  0.00    -0.196 N 
ATOM      2  C2  IND d   1      -0.526  -0.288   3.523  0.00  0.00     0.054 A 
ATOM      3  C3  IND d   1      -1.147  -1.069   2.611  0.00  0.00    -0.031 A 
ATOM      4  C4  IND d   1      -0.744  -1.260   0.076  0.00  0.00     0.051 A 
ATOM      5  C5  IND d   1      -0.032  -0.698  -0.947  0.00  0.00    -0.031 A 
ATOM      6  C6  IND d   1       0.877   0.317  -0.731  0.00  0.00     0.015 A 
ATOM      7  C7  IND d   1       1.118   0.803   0.523  0.00  0.00    -0.016 A 
ATOM      8  C8  IND d   1       0.392   0.240   1.563  0.00  0.00    -0.047 A 
ATOM      9  C9  IND d   1      -0.563  -0.762   1.344  0.00  0.00    -0.096 A 
ATOM     10  HN1 IND d   1       0.884   1.106   3.303  0.00  0.00     0.298 HD
ENDROOT
TORSDOF 0
ENDMDL
