MODEL 1
REMARK minimizedAffinity -4.20251703
REMARK minimizedRMSD -1
REMARK  0 active torsions:
REMARK  status: ('A' for Active; 'I' for Inactive)
ROOT
ATOM      1  N1  IND d   1       0.143   0.441   2.967  0.00  0.00    -0.196 N 
ATOM      2  C2  IND d   1      -0.677  -0.561   3.406  0.00  0.00     0.054 A 
ATOM      3  C3  IND d   1      -1.000  -1.386   2.385  0.00  0.00    -0.031 A 
ATOM      4  C4  IND d   1      -0.214  -1.340  -0.066  0.00  0.00     0.051 A 
ATOM      5  C5  IND d   1       0.511  -0.592  -0.951  0.00  0.00    -0.031 A 
ATOM      6  C6  IND d   1       1.167   0.559  -0.567  0.00  0.00     0.015 A 
ATOM      7  C7  IND d   1       1.130   1.002   0.725  0.00  0.00    -0.016 A 
ATOM      8  C8  IND d   1       0.388   0.250   1.625  0.00  0.00    -0.047 A 
ATOM      9  C9  IND d   1      -0.314  -0.897   1.231  0.00  0.00    -0.096 A 
ATOM     10  HN1 IND d   1       0.453   1.082   3.448  0.00  0.00     0.298 HD
ENDROOT
TORSDOF 0
ENDMDL
