MODEL 1
REMARK minimizedAffinity -3.2152741
REMARK minimizedRMSD -1
REMARK  0 active torsions:
REMARK  status: ('A' for Active; 'I' for Inactive)
ROOT
ATOM      1  N1  IND d   1      -0.969  -1.226   2.605  0.00  0.00    -0.196 N 
ATOM      2  C2  IND d   1      -0.569  -0.341   3.568  0.00  0.00     0.054 A 
ATOM      3  C3  IND d   1       0.201   0.629   3.025  0.00  0.00    -0.031 A 
ATOM      4  C4  IND d   1       0.850   1.016   0.564  0.00  0.00     0.051 A 
ATOM      5  C5  IND d   1       0.753   0.452  -0.677  0.00  0.00    -0.031 A 
ATOM      6  C6  IND d   1       0.062  -0.722  -0.892  0.00  0.00     0.015 A 
ATOM      7  C7  IND d   1      -0.572  -1.373   0.128  0.00  0.00    -0.016 A 
ATOM      8  C8  IND d   1      -0.470  -0.807   1.391  0.00  0.00    -0.047 A 
ATOM      9  C9  IND d   1       0.267   0.361   1.623  0.00  0.00    -0.096 A 
ATOM     10  HN1 IND d   1      -1.450  -1.926   2.736  0.00  0.00     0.298 HD
ENDROOT
TORSDOF 0
ENDMDL
