MODEL 1
REMARK minimizedAffinity 0.80607605
REMARK minimizedRMSD -1
REMARK  0 active torsions:
REMARK  status: ('A' for Active; 'I' for Inactive)
ROOT
ATOM      1  N1  IND d   1       1.088   1.043  -0.368  0.00  0.00    -0.196 N 
ATOM      2  C2  IND d   1       0.617   0.044  -1.174  0.00  0.00     0.054 A 
ATOM      3  C3  IND d   1      -0.147  -0.814  -0.461  0.00  0.00    -0.031 A 
ATOM      4  C4  IND d   1      -0.842  -0.715   2.016  0.00  0.00     0.051 A 
ATOM      5  C5  IND d   1      -0.631  -0.009   3.166  0.00  0.00    -0.031 A 
ATOM      6  C6  IND d   1       0.179   1.108   3.198  0.00  0.00     0.015 A 
ATOM      7  C7  IND d   1       0.800   1.569   2.072  0.00  0.00    -0.016 A 
ATOM      8  C8  IND d   1       0.594   0.851   0.903  0.00  0.00    -0.047 A 
ATOM      9  C9  IND d   1      -0.192  -0.309   0.874  0.00  0.00    -0.096 A 
ATOM     10  HN1 IND d   1       1.606   1.683  -0.614  0.00  0.00     0.298 HD
ENDROOT
TORSDOF 0
ENDMDL
