MODEL 1
REMARK minimizedAffinity 15.1317759
REMARK minimizedRMSD -1
REMARK  1 active torsions:
REMARK  status: ('A' for Active; 'I' for Inactive)
REMARK    1  A    between atoms: C1_2  and  C2_3 
ROOT
ATOM      1  C2  UNL d   1       4.795   3.168   2.265  0.00  0.00    -0.076 A 
ATOM      2  C3  UNL d   1       4.054   3.385   1.091  0.00  0.00     0.004 A 
ATOM      3  C4  UNL d   1       3.316   4.555   0.914  0.00  0.00    -0.003 A 
ATOM      4  C5  UNL d   1       3.308   5.526   1.909  0.00  0.00     0.000 A 
ATOM      5  C6  UNL d   1       4.052   5.335   3.072  0.00  0.00     0.000 A 
ATOM      6  C7  UNL d   1       4.814   4.169   3.259  0.00  0.00    -0.073 A 
ATOM      7  C8  UNL d   1       5.593   4.013   4.537  0.00  0.00     0.078 C 
ENDROOT
BRANCH   1   8
ATOM      8  C1  UNL d   1       5.554   1.869   2.413  0.00  0.00     0.053 C 
ATOM      9  C   UNL d   1       5.997   1.298   1.074  0.00  0.00     0.018 C 
ENDBRANCH   1   8
TORSDOF 1
ENDMDL
