MODEL 1
REMARK minimizedAffinity 9.09818268
REMARK minimizedRMSD -1
REMARK  1 active torsions:
REMARK  status: ('A' for Active; 'I' for Inactive)
REMARK    1  A    between atoms: C1_2  and  C2_3 
ROOT
ATOM      1  C2  UNL d   1      -1.364  -2.933  -4.077  0.00  0.00    -0.076 A 
ATOM      2  C3  UNL d   1      -1.552  -3.658  -5.267  0.00  0.00     0.004 A 
ATOM      3  C4  UNL d   1      -1.807  -5.028  -5.240  0.00  0.00    -0.003 A 
ATOM      4  C5  UNL d   1      -1.880  -5.695  -4.022  0.00  0.00     0.000 A 
ATOM      5  C6  UNL d   1      -1.713  -4.988  -2.831  0.00  0.00     0.000 A 
ATOM      6  C7  UNL d   1      -1.471  -3.604  -2.841  0.00  0.00    -0.073 A 
ATOM      7  C8  UNL d   1      -1.294  -2.893  -1.527  0.00  0.00     0.078 C 
ENDROOT
BRANCH   1   8
ATOM      8  C1  UNL d   1      -1.063  -1.454  -4.170  0.00  0.00     0.053 C 
ATOM      9  C   UNL d   1       0.382  -1.130  -3.825  0.00  0.00     0.018 C 
ENDBRANCH   1   8
TORSDOF 1
ENDMDL
