MODEL 1
REMARK minimizedAffinity 13.0536728
REMARK minimizedRMSD -1
REMARK  1 active torsions:
REMARK  status: ('A' for Active; 'I' for Inactive)
REMARK    1  A    between atoms: C1_2  and  C2_3 
ROOT
ATOM      1  C2  UNL d   1      -0.587  -2.104  -4.404  0.00  0.00    -0.076 A 
ATOM      2  C3  UNL d   1      -0.697  -2.590  -5.718  0.00  0.00     0.004 A 
ATOM      3  C4  UNL d   1      -1.383  -3.772  -5.992  0.00  0.00    -0.003 A 
ATOM      4  C5  UNL d   1      -1.972  -4.487  -4.955  0.00  0.00     0.000 A 
ATOM      5  C6  UNL d   1      -1.888  -4.011  -3.647  0.00  0.00     0.000 A 
ATOM      6  C7  UNL d   1      -1.214  -2.813  -3.356  0.00  0.00    -0.073 A 
ATOM      7  C8  UNL d   1      -1.149  -2.349  -1.927  0.00  0.00     0.078 C 
ENDROOT
BRANCH   1   8
ATOM      8  C1  UNL d   1       0.193  -0.831  -4.164  0.00  0.00     0.053 C 
ATOM      9  C   UNL d   1      -0.129   0.250  -5.184  0.00  0.00     0.018 C 
ENDBRANCH   1   8
TORSDOF 1
ENDMDL
