MODEL 1
REMARK minimizedAffinity 20.441576
REMARK minimizedRMSD -1
REMARK  1 active torsions:
REMARK  status: ('A' for Active; 'I' for Inactive)
REMARK    1  A    between atoms: C1_2  and  C2_3 
ROOT
ATOM      1  C2  UNL d   1      -5.572   2.468  -0.957  0.00  0.00    -0.076 A 
ATOM      2  C3  UNL d   1      -5.998   2.104  -2.246  0.00  0.00     0.004 A 
ATOM      3  C4  UNL d   1      -5.627   0.882  -2.806  0.00  0.00    -0.003 A 
ATOM      4  C5  UNL d   1      -4.825   0.005  -2.085  0.00  0.00     0.000 A 
ATOM      5  C6  UNL d   1      -4.407   0.342  -0.798  0.00  0.00     0.000 A 
ATOM      6  C7  UNL d   1      -4.785   1.562  -0.213  0.00  0.00    -0.073 A 
ATOM      7  C8  UNL d   1      -4.301   1.878   1.176  0.00  0.00     0.078 C 
ENDROOT
BRANCH   1   8
ATOM      8  C1  UNL d   1      -5.983   3.817  -0.413  0.00  0.00     0.053 C 
ATOM      9  C   UNL d   1      -5.992   4.899  -1.482  0.00  0.00     0.018 C 
ENDBRANCH   1   8
TORSDOF 1
ENDMDL
