MODEL 1
REMARK minimizedAffinity 15.0421658
REMARK minimizedRMSD -1
REMARK  1 active torsions:
REMARK  status: ('A' for Active; 'I' for Inactive)
REMARK    1  A    between atoms: C1_2  and  C2_3 
ROOT
ATOM      1  C2  UNL d   1       4.012  -4.278   5.165  0.00  0.00    -0.076 A 
ATOM      2  C3  UNL d   1       2.713  -4.448   4.654  0.00  0.00     0.004 A 
ATOM      3  C4  UNL d   1       2.004  -3.370   4.126  0.00  0.00    -0.003 A 
ATOM      4  C5  UNL d   1       2.582  -2.106   4.101  0.00  0.00     0.000 A 
ATOM      5  C6  UNL d   1       3.875  -1.923   4.588  0.00  0.00     0.000 A 
ATOM      6  C7  UNL d   1       4.610  -3.002   5.109  0.00  0.00    -0.073 A 
ATOM      7  C8  UNL d   1       6.000  -2.746   5.626  0.00  0.00     0.078 C 
ENDROOT
BRANCH   1   8
ATOM      8  C1  UNL d   1       4.722  -5.478   5.750  0.00  0.00     0.053 C 
ATOM      9  C   UNL d   1       5.827  -6.000   4.844  0.00  0.00     0.018 C 
ENDBRANCH   1   8
TORSDOF 1
ENDMDL
