MODEL 1
REMARK minimizedAffinity 8.77370644
REMARK minimizedRMSD -1
REMARK  1 active torsions:
REMARK  status: ('A' for Active; 'I' for Inactive)
REMARK    1  A    between atoms: C1_2  and  C2_3 
ROOT
ATOM      1  C2  UNL d   1       3.588  -3.143   4.599  0.00  0.00    -0.076 A 
ATOM      2  C3  UNL d   1       3.646  -4.529   4.828  0.00  0.00     0.004 A 
ATOM      3  C4  UNL d   1       4.840  -5.146   5.197  0.00  0.00    -0.003 A 
ATOM      4  C5  UNL d   1       5.996  -4.387   5.345  0.00  0.00     0.000 A 
ATOM      5  C6  UNL d   1       5.953  -3.008   5.139  0.00  0.00     0.000 A 
ATOM      6  C7  UNL d   1       4.753  -2.368   4.782  0.00  0.00    -0.073 A 
ATOM      7  C8  UNL d   1       4.766  -0.880   4.567  0.00  0.00     0.078 C 
ENDROOT
BRANCH   1   8
ATOM      8  C1  UNL d   1       2.271  -2.534   4.174  0.00  0.00     0.053 C 
ATOM      9  C   UNL d   1       1.078  -3.392   4.566  0.00  0.00     0.018 C 
ENDBRANCH   1   8
TORSDOF 1
ENDMDL
