MODEL 1
REMARK minimizedAffinity 5.9932766
REMARK minimizedRMSD -1
REMARK  1 active torsions:
REMARK  status: ('A' for Active; 'I' for Inactive)
REMARK    1  A    between atoms: C1_2  and  C2_3 
ROOT
ATOM      1  C2  UNL d   1       3.360  -3.739   5.139  0.00  0.00    -0.076 A 
ATOM      2  C3  UNL d   1       2.116  -3.974   4.529  0.00  0.00     0.004 A 
ATOM      3  C4  UNL d   1       1.504  -2.997   3.746  0.00  0.00    -0.003 A 
ATOM      4  C5  UNL d   1       2.127  -1.768   3.560  0.00  0.00     0.000 A 
ATOM      5  C6  UNL d   1       3.370  -1.523   4.143  0.00  0.00     0.000 A 
ATOM      6  C7  UNL d   1       4.007  -2.504   4.922  0.00  0.00    -0.073 A 
ATOM      7  C8  UNL d   1       5.344  -2.184   5.533  0.00  0.00     0.078 C 
ENDROOT
BRANCH   1   8
ATOM      8  C1  UNL d   1       3.962  -4.826   6.000  0.00  0.00     0.053 C 
ATOM      9  C   UNL d   1       5.043  -5.612   5.274  0.00  0.00     0.018 C 
ENDBRANCH   1   8
TORSDOF 1
ENDMDL
