MODEL 1
REMARK minimizedAffinity -0.994088471
REMARK minimizedRMSD -1
REMARK  3 active torsions:
REMARK  status: ('A' for Active; 'I' for Inactive)
REMARK    1  A    between atoms: C3'_2  and  C2'_3 
REMARK    2  A    between atoms: C2'_3  and  C1'_4 
REMARK    3  A    between atoms: C1'_4  and  C1_5 
ROOT
ATOM      1  C1  N4B d   1       1.507  -0.817   1.156  0.00  0.00    -0.075 A 
ATOM      2  C2  N4B d   1       1.407  -1.783   0.131  0.00  0.00     0.002 A 
ATOM      3  C3  N4B d   1       1.741  -1.452  -1.160  0.00  0.00     0.002 A 
ATOM      4  C4  N4B d   1       2.159  -0.162  -1.451  0.00  0.00    -0.004 A 
ATOM      5  C5  N4B d   1       2.277   0.758  -0.451  0.00  0.00     0.002 A 
ATOM      6  C6  N4B d   1       1.949   0.438   0.851  0.00  0.00     0.002 A 
ENDROOT
BRANCH   1   7
ATOM      7  C1' N4B d   1       1.071  -1.107   2.566  0.00  0.00     0.057 C 
BRANCH   7   8
ATOM      8  C2' N4B d   1      -0.392  -1.539   2.559  0.00  0.00     0.009 C 
BRANCH   8   9
ATOM      9  C3' N4B d   1      -1.305  -0.446   2.029  0.00  0.00     0.004 C 
ATOM     10  C4' N4B d   1      -1.982  -0.827   0.746  0.00  0.00     0.003 C 
ENDBRANCH   8   9
ENDBRANCH   7   8
ENDBRANCH   1   7
TORSDOF 3
ENDMDL
