MODEL 1
REMARK minimizedAffinity -0.400341004
REMARK minimizedRMSD -1
REMARK  3 active torsions:
REMARK  status: ('A' for Active; 'I' for Inactive)
REMARK    1  A    between atoms: C3'_2  and  C2'_3 
REMARK    2  A    between atoms: C2'_3  and  C1'_4 
REMARK    3  A    between atoms: C1'_4  and  C1_5 
ROOT
ATOM      1  C1  N4B d   1       1.713  -0.761   1.631  0.00  0.00    -0.075 A 
ATOM      2  C2  N4B d   1       1.824  -1.514   0.442  0.00  0.00     0.002 A 
ATOM      3  C3  N4B d   1       2.431  -0.969  -0.662  0.00  0.00     0.002 A 
ATOM      4  C4  N4B d   1       2.917   0.328  -0.607  0.00  0.00    -0.004 A 
ATOM      5  C5  N4B d   1       2.830   1.041   0.553  0.00  0.00     0.002 A 
ATOM      6  C6  N4B d   1       2.225   0.504   1.672  0.00  0.00     0.002 A 
ENDROOT
BRANCH   1   7
ATOM      7  C1' N4B d   1       0.981  -1.283   2.837  0.00  0.00     0.057 C 
BRANCH   7   8
ATOM      8  C2' N4B d   1      -0.455  -1.617   2.445  0.00  0.00     0.009 C 
BRANCH   8   9
ATOM      9  C3' N4B d   1      -1.214  -0.391   1.968  0.00  0.00     0.004 C 
ATOM     10  C4' N4B d   1      -1.396  -0.362   0.480  0.00  0.00     0.003 C 
ENDBRANCH   8   9
ENDBRANCH   7   8
ENDBRANCH   1   7
TORSDOF 3
ENDMDL
