MODEL 1
REMARK minimizedAffinity 1.46929395
REMARK minimizedRMSD -1
REMARK  3 active torsions:
REMARK  status: ('A' for Active; 'I' for Inactive)
REMARK    1  A    between atoms: C3'_2  and  C2'_3 
REMARK    2  A    between atoms: C2'_3  and  C1'_4 
REMARK    3  A    between atoms: C1'_4  and  C1_5 
ROOT
ATOM      1  C1  N4B d   1       3.864   5.038   2.359  0.00  0.00    -0.075 A 
ATOM      2  C2  N4B d   1       3.926   4.007   1.396  0.00  0.00     0.002 A 
ATOM      3  C3  N4B d   1       4.949   3.984   0.480  0.00  0.00     0.002 A 
ATOM      4  C4  N4B d   1       5.907   4.987   0.496  0.00  0.00    -0.004 A 
ATOM      5  C5  N4B d   1       5.853   5.965   1.445  0.00  0.00     0.002 A 
ATOM      6  C6  N4B d   1       4.833   5.999   2.375  0.00  0.00     0.002 A 
ENDROOT
BRANCH   1   7
ATOM      7  C1' N4B d   1       2.717   5.153   3.326  0.00  0.00     0.057 C 
BRANCH   7   8
ATOM      8  C2' N4B d   1       3.227   5.739   4.640  0.00  0.00     0.009 C 
BRANCH   8   9
ATOM      9  C3' N4B d   1       2.098   6.000   5.622  0.00  0.00     0.004 C 
ATOM     10  C4' N4B d   1       0.751   5.643   5.066  0.00  0.00     0.003 C 
ENDBRANCH   8   9
ENDBRANCH   7   8
ENDBRANCH   1   7
TORSDOF 3
ENDMDL
