MODEL 1
REMARK minimizedAffinity -4.36886787
REMARK minimizedRMSD -1
REMARK  3 active torsions:
REMARK  status: ('A' for Active; 'I' for Inactive)
REMARK    1  A    between atoms: C3'_2  and  C2'_3 
REMARK    2  A    between atoms: C2'_3  and  C1'_4 
REMARK    3  A    between atoms: C1'_4  and  C1_5 
ROOT
ATOM      1  C1  N4B d   1       0.100   0.086   0.237  0.00  0.00    -0.075 A 
ATOM      2  C2  N4B d   1      -0.716  -0.626   1.143  0.00  0.00     0.002 A 
ATOM      3  C3  N4B d   1      -0.216  -1.007   2.364  0.00  0.00     0.002 A 
ATOM      4  C4  N4B d   1       1.098  -0.705   2.692  0.00  0.00    -0.004 A 
ATOM      5  C5  N4B d   1       1.871   0.006   1.821  0.00  0.00     0.002 A 
ATOM      6  C6  N4B d   1       1.380   0.399   0.592  0.00  0.00     0.002 A 
ENDROOT
BRANCH   1   7
ATOM      7  C1' N4B d   1      -0.375   0.450  -1.143  0.00  0.00     0.057 C 
BRANCH   7   8
ATOM      8  C2' N4B d   1       0.214   1.801  -1.537  0.00  0.00     0.009 C 
BRANCH   8   9
ATOM      9  C3' N4B d   1      -0.708   2.575  -2.464  0.00  0.00     0.004 C 
ATOM     10  C4' N4B d   1      -1.045   3.939  -1.941  0.00  0.00     0.003 C 
ENDBRANCH   8   9
ENDBRANCH   7   8
ENDBRANCH   1   7
TORSDOF 3
ENDMDL
