MODEL 1
REMARK minimizedAffinity -3.3663702
REMARK minimizedRMSD -1
REMARK  3 active torsions:
REMARK  status: ('A' for Active; 'I' for Inactive)
REMARK    1  A    between atoms: C3'_2  and  C2'_3 
REMARK    2  A    between atoms: C2'_3  and  C1'_4 
REMARK    3  A    between atoms: C1'_4  and  C1_5 
ROOT
ATOM      1  C1  N4B d   1       0.106  -0.490   0.138  0.00  0.00    -0.075 A 
ATOM      2  C2  N4B d   1      -0.833  -0.229   1.160  0.00  0.00     0.002 A 
ATOM      3  C3  N4B d   1      -0.541  -0.560   2.461  0.00  0.00     0.002 A 
ATOM      4  C4  N4B d   1       0.669  -1.166   2.760  0.00  0.00    -0.004 A 
ATOM      5  C5  N4B d   1       1.581  -1.392   1.771  0.00  0.00     0.002 A 
ATOM      6  C6  N4B d   1       1.303  -1.061   0.459  0.00  0.00     0.002 A 
ENDROOT
BRANCH   1   7
ATOM      7  C1' N4B d   1      -0.203  -0.226  -1.310  0.00  0.00     0.057 C 
BRANCH   7   8
ATOM      8  C2' N4B d   1      -0.193   1.280  -1.557  0.00  0.00     0.009 C 
BRANCH   8   9
ATOM      9  C3' N4B d   1      -1.426   1.739  -2.316  0.00  0.00     0.004 C 
ATOM     10  C4' N4B d   1      -1.599   3.228  -2.297  0.00  0.00     0.003 C 
ENDBRANCH   8   9
ENDBRANCH   7   8
ENDBRANCH   1   7
TORSDOF 3
ENDMDL
