MODEL 1
REMARK minimizedAffinity 11.024704
REMARK minimizedRMSD -1
REMARK  0 active torsions:
REMARK  status: ('A' for Active; 'I' for Inactive)
ROOT
ATOM      1  N1  IND d   1       2.829  -0.496   0.793  0.00  0.00    -0.196 N 
ATOM      2  C2  IND d   1       3.441  -0.098   1.949  0.00  0.00     0.054 A 
ATOM      3  C3  IND d   1       2.551  -0.070   2.966  0.00  0.00    -0.031 A 
ATOM      4  C4  IND d   1       0.064  -0.735   2.983  0.00  0.00     0.051 A 
ATOM      5  C5  IND d   1      -0.952  -1.127   2.157  0.00  0.00    -0.031 A 
ATOM      6  C6  IND d   1      -0.755  -1.335   0.808  0.00  0.00     0.015 A 
ATOM      7  C7  IND d   1       0.473  -1.170   0.233  0.00  0.00    -0.016 A 
ATOM      8  C8  IND d   1       1.506  -0.765   1.067  0.00  0.00    -0.047 A 
ATOM      9  C9  IND d   1       1.302  -0.511   2.430  0.00  0.00    -0.096 A 
ATOM     10  HN1 IND d   1       3.207  -0.566   0.024  0.00  0.00     0.298 HD
ENDROOT
TORSDOF 0
ENDMDL
