MODEL 1
REMARK minimizedAffinity -4.04309368
REMARK minimizedRMSD -1
REMARK  0 active torsions:
REMARK  status: ('A' for Active; 'I' for Inactive)
ROOT
ATOM      1  N1  IND d   1      -0.993   1.193   0.949  0.00  0.00    -0.196 N 
ATOM      2  C2  IND d   1      -1.955   1.461   0.014  0.00  0.00     0.054 A 
ATOM      3  C3  IND d   1      -2.077   0.424  -0.844  0.00  0.00    -0.031 A 
ATOM      4  C4  IND d   1      -0.874  -1.852  -0.843  0.00  0.00     0.051 A 
ATOM      5  C5  IND d   1       0.117  -2.546  -0.207  0.00  0.00    -0.031 A 
ATOM      6  C6  IND d   1       0.800  -2.020   0.870  0.00  0.00     0.015 A 
ATOM      7  C7  IND d   1       0.509  -0.779   1.361  0.00  0.00    -0.016 A 
ATOM      8  C8  IND d   1      -0.492  -0.068   0.713  0.00  0.00    -0.047 A 
ATOM      9  C9  IND d   1      -1.159  -0.579  -0.407  0.00  0.00    -0.096 A 
ATOM     10  HN1 IND d   1      -0.744   1.724   1.578  0.00  0.00     0.298 HD
ENDROOT
TORSDOF 0
ENDMDL
