MODEL 1
REMARK minimizedAffinity 14.366291
REMARK minimizedRMSD -1
REMARK  0 active torsions:
REMARK  status: ('A' for Active; 'I' for Inactive)
ROOT
ATOM      1  N1  IND d   1       3.640   3.430   0.044  0.00  0.00    -0.196 N 
ATOM      2  C2  IND d   1       2.570   3.799  -0.724  0.00  0.00     0.054 A 
ATOM      3  C3  IND d   1       1.745   2.746  -0.917  0.00  0.00    -0.031 A 
ATOM      4  C4  IND d   1       1.901   0.352   0.018  0.00  0.00     0.051 A 
ATOM      5  C5  IND d   1       2.719  -0.471   0.740  0.00  0.00    -0.031 A 
ATOM      6  C6  IND d   1       3.909  -0.026   1.280  0.00  0.00     0.015 A 
ATOM      7  C7  IND d   1       4.321   1.267   1.127  0.00  0.00    -0.016 A 
ATOM      8  C8  IND d   1       3.496   2.104   0.389  0.00  0.00    -0.047 A 
ATOM      9  C9  IND d   1       2.309   1.648  -0.198  0.00  0.00    -0.096 A 
ATOM     10  HN1 IND d   1       4.293   3.941   0.273  0.00  0.00     0.298 HD
ENDROOT
TORSDOF 0
ENDMDL
