MODEL 1
REMARK minimizedAffinity 12.5611134
REMARK minimizedRMSD -1
REMARK  0 active torsions:
REMARK  status: ('A' for Active; 'I' for Inactive)
ROOT
ATOM      1  N1  IND d   1      -0.150  -0.539   3.271  0.00  0.00    -0.196 N 
ATOM      2  C2  IND d   1      -1.174  -0.811   2.408  0.00  0.00     0.054 A 
ATOM      3  C3  IND d   1      -0.743  -0.736   1.128  0.00  0.00    -0.031 A 
ATOM      4  C4  IND d   1       1.624  -0.283   0.224  0.00  0.00     0.051 A 
ATOM      5  C5  IND d   1       2.884   0.058   0.627  0.00  0.00    -0.031 A 
ATOM      6  C6  IND d   1       3.205   0.219   1.960  0.00  0.00     0.015 A 
ATOM      7  C7  IND d   1       2.275   0.032   2.944  0.00  0.00    -0.016 A 
ATOM      8  C8  IND d   1       0.993  -0.308   2.537  0.00  0.00    -0.047 A 
ATOM      9  C9  IND d   1       0.651  -0.431   1.184  0.00  0.00    -0.096 A 
ATOM     10  HN1 IND d   1      -0.209  -0.516   4.129  0.00  0.00     0.298 HD
ENDROOT
TORSDOF 0
ENDMDL
