MODEL 1
REMARK minimizedAffinity 15.6298771
REMARK minimizedRMSD -1
REMARK  0 active torsions:
REMARK  status: ('A' for Active; 'I' for Inactive)
ROOT
ATOM      1  N1  IND d   1       0.940   0.571   1.496  0.00  0.00    -0.196 N 
ATOM      2  C2  IND d   1       1.830   0.632   0.461  0.00  0.00     0.054 A 
ATOM      3  C3  IND d   1       1.959  -0.581  -0.122  0.00  0.00    -0.031 A 
ATOM      4  C4  IND d   1       0.728  -2.782   0.396  0.00  0.00     0.051 A 
ATOM      5  C5  IND d   1      -0.152  -3.342   1.278  0.00  0.00    -0.031 A 
ATOM      6  C6  IND d   1      -0.728  -2.611   2.297  0.00  0.00     0.015 A 
ATOM      7  C7  IND d   1      -0.451  -1.284   2.466  0.00  0.00    -0.016 A 
ATOM      8  C8  IND d   1       0.448  -0.713   1.576  0.00  0.00    -0.047 A 
ATOM      9  C9  IND d   1       1.068  -1.461   0.566  0.00  0.00    -0.096 A 
ATOM     10  HN1 IND d   1       0.723   1.225   2.011  0.00  0.00     0.298 HD
ENDROOT
TORSDOF 0
ENDMDL
