MODEL 1
REMARK minimizedAffinity 11.7268715
REMARK minimizedRMSD -1
REMARK  0 active torsions:
REMARK  status: ('A' for Active; 'I' for Inactive)
ROOT
ATOM      1  N1  IND d   1      -2.776  -5.993  -1.877  0.00  0.00    -0.196 N 
ATOM      2  C2  IND d   1      -3.388  -4.999  -1.165  0.00  0.00     0.054 A 
ATOM      3  C3  IND d   1      -2.883  -3.794  -1.511  0.00  0.00    -0.031 A 
ATOM      4  C4  IND d   1      -1.121  -3.210  -3.295  0.00  0.00     0.051 A 
ATOM      5  C5  IND d   1      -0.250  -3.785  -4.178  0.00  0.00    -0.031 A 
ATOM      6  C6  IND d   1      -0.177  -5.153  -4.344  0.00  0.00     0.015 A 
ATOM      7  C7  IND d   1      -0.984  -6.000  -3.639  0.00  0.00    -0.016 A 
ATOM      8  C8  IND d   1      -1.865  -5.420  -2.736  0.00  0.00    -0.047 A 
ATOM      9  C9  IND d   1      -1.913  -4.035  -2.532  0.00  0.00    -0.096 A 
ATOM     10  HN1 IND d   1      -2.934  -6.835  -1.801  0.00  0.00     0.298 HD
ENDROOT
TORSDOF 0
ENDMDL
