MODEL 1
REMARK minimizedAffinity 0.0281561427
REMARK minimizedRMSD -1
REMARK  0 active torsions:
REMARK  status: ('A' for Active; 'I' for Inactive)
ROOT
ATOM      1  N1  IND d   1      -3.515  -4.600   1.077  0.00  0.00    -0.196 N 
ATOM      2  C2  IND d   1      -4.337  -5.257   1.949  0.00  0.00     0.054 A 
ATOM      3  C3  IND d   1      -5.347  -5.860   1.281  0.00  0.00    -0.031 A 
ATOM      4  C4  IND d   1      -5.788  -5.983  -1.252  0.00  0.00     0.051 A 
ATOM      5  C5  IND d   1      -5.331  -5.507  -2.449  0.00  0.00    -0.031 A 
ATOM      6  C6  IND d   1      -4.222  -4.691  -2.534  0.00  0.00     0.015 A 
ATOM      7  C7  IND d   1      -3.518  -4.327  -1.421  0.00  0.00    -0.016 A 
ATOM      8  C8  IND d   1      -3.983  -4.802  -0.203  0.00  0.00    -0.047 A 
ATOM      9  C9  IND d   1      -5.133  -5.596  -0.106  0.00  0.00    -0.096 A 
ATOM     10  HN1 IND d   1      -2.823  -4.138   1.291  0.00  0.00     0.298 HD
ENDROOT
TORSDOF 0
ENDMDL
