MODEL 1
REMARK minimizedAffinity 6.48606062
REMARK minimizedRMSD -1
REMARK  0 active torsions:
REMARK  status: ('A' for Active; 'I' for Inactive)
ROOT
ATOM      1  N1  IND d   1      -1.400  -5.231  -0.955  0.00  0.00    -0.196 N 
ATOM      2  C2  IND d   1      -2.250  -4.162  -0.913  0.00  0.00     0.054 A 
ATOM      3  C3  IND d   1      -2.085  -3.386  -2.008  0.00  0.00    -0.031 A 
ATOM      4  C4  IND d   1      -0.547  -3.736  -4.043  0.00  0.00     0.051 A 
ATOM      5  C5  IND d   1       0.442  -4.551  -4.518  0.00  0.00    -0.031 A 
ATOM      6  C6  IND d   1       0.875  -5.658  -3.817  0.00  0.00     0.015 A 
ATOM      7  C7  IND d   1       0.324  -5.999  -2.614  0.00  0.00    -0.016 A 
ATOM      8  C8  IND d   1      -0.676  -5.170  -2.125  0.00  0.00    -0.047 A 
ATOM      9  C9  IND d   1      -1.089  -4.022  -2.812  0.00  0.00    -0.096 A 
ATOM     10  HN1 IND d   1      -1.328  -5.839  -0.351  0.00  0.00     0.298 HD
ENDROOT
TORSDOF 0
ENDMDL
