MODEL 1
REMARK minimizedAffinity 8.24552345
REMARK minimizedRMSD -1
REMARK  0 active torsions:
REMARK  status: ('A' for Active; 'I' for Inactive)
ROOT
ATOM      1  N1  IND d   1       2.827  -0.477   2.924  0.00  0.00    -0.196 N 
ATOM      2  C2  IND d   1       4.185  -0.345   2.831  0.00  0.00     0.054 A 
ATOM      3  C3  IND d   1       4.556  -0.203   1.539  0.00  0.00    -0.031 A 
ATOM      4  C4  IND d   1       3.096  -0.059  -0.576  0.00  0.00     0.051 A 
ATOM      5  C5  IND d   1       1.801  -0.164  -1.000  0.00  0.00    -0.031 A 
ATOM      6  C6  IND d   1       0.760  -0.382  -0.120  0.00  0.00     0.015 A 
ATOM      7  C7  IND d   1       0.976  -0.490   1.225  0.00  0.00    -0.016 A 
ATOM      8  C8  IND d   1       2.291  -0.390   1.658  0.00  0.00    -0.047 A 
ATOM      9  C9  IND d   1       3.355  -0.212   0.765  0.00  0.00    -0.096 A 
ATOM     10  HN1 IND d   1       2.383  -0.595   3.651  0.00  0.00     0.298 HD
ENDROOT
TORSDOF 0
ENDMDL
