MODEL 1
REMARK minimizedAffinity 3.68297386
REMARK minimizedRMSD -1
REMARK  0 active torsions:
REMARK  status: ('A' for Active; 'I' for Inactive)
ROOT
ATOM      1  N1  IND d   1       3.344  -1.876   0.060  0.00  0.00    -0.196 N 
ATOM      2  C2  IND d   1       3.660  -0.678   0.637  0.00  0.00     0.054 A 
ATOM      3  C3  IND d   1       2.540  -0.051   1.063  0.00  0.00    -0.031 A 
ATOM      4  C4  IND d   1       0.095  -0.854   1.007  0.00  0.00     0.051 A 
ATOM      5  C5  IND d   1      -0.695  -1.869   0.545  0.00  0.00    -0.031 A 
ATOM      6  C6  IND d   1      -0.169  -2.961  -0.114  0.00  0.00     0.015 A 
ATOM      7  C7  IND d   1       1.175  -3.085  -0.326  0.00  0.00    -0.016 A 
ATOM      8  C8  IND d   1       1.980  -2.054   0.137  0.00  0.00    -0.047 A 
ATOM      9  C9  IND d   1       1.447  -0.923   0.768  0.00  0.00    -0.096 A 
ATOM     10  HN1 IND d   1       3.903  -2.427  -0.292  0.00  0.00     0.298 HD
ENDROOT
TORSDOF 0
ENDMDL
