MODEL 1
REMARK minimizedAffinity 15.5169754
REMARK minimizedRMSD -1
REMARK  0 active torsions:
REMARK  status: ('A' for Active; 'I' for Inactive)
ROOT
ATOM      1  N1  IND d   1       3.091  -0.128   3.116  0.00  0.00    -0.196 N 
ATOM      2  C2  IND d   1       3.901  -0.029   2.019  0.00  0.00     0.054 A 
ATOM      3  C3  IND d   1       3.192  -0.250   0.889  0.00  0.00    -0.031 A 
ATOM      4  C4  IND d   1       0.672  -0.689   0.600  0.00  0.00     0.051 A 
ATOM      5  C5  IND d   1      -0.473  -0.905   1.314  0.00  0.00    -0.031 A 
ATOM      6  C6  IND d   1      -0.490  -0.868   2.694  0.00  0.00     0.015 A 
ATOM      7  C7  IND d   1       0.641  -0.603   3.413  0.00  0.00    -0.016 A 
ATOM      8  C8  IND d   1       1.807  -0.391   2.691  0.00  0.00    -0.047 A 
ATOM      9  C9  IND d   1       1.839  -0.469   1.292  0.00  0.00    -0.096 A 
ATOM     10  HN1 IND d   1       3.341  -0.039   3.934  0.00  0.00     0.298 HD
ENDROOT
TORSDOF 0
ENDMDL
