MODEL 1
REMARK minimizedAffinity 7.77596998
REMARK minimizedRMSD -1
REMARK  0 active torsions:
REMARK  status: ('A' for Active; 'I' for Inactive)
ROOT
ATOM      1  N1  IND d   1      -2.052   3.370  -4.348  0.00  0.00    -0.196 N 
ATOM      2  C2  IND d   1      -1.585   4.277  -5.258  0.00  0.00     0.054 A 
ATOM      3  C3  IND d   1      -0.522   4.944  -4.755  0.00  0.00    -0.031 A 
ATOM      4  C4  IND d   1       0.682   4.639  -2.500  0.00  0.00     0.051 A 
ATOM      5  C5  IND d   1       0.600   3.957  -1.318  0.00  0.00    -0.031 A 
ATOM      6  C6  IND d   1      -0.389   3.023  -1.083  0.00  0.00     0.015 A 
ATOM      7  C7  IND d   1      -1.329   2.728  -2.028  0.00  0.00    -0.016 A 
ATOM      8  C8  IND d   1      -1.253   3.424  -3.226  0.00  0.00    -0.047 A 
ATOM      9  C9  IND d   1      -0.278   4.403  -3.455  0.00  0.00    -0.096 A 
ATOM     10  HN1 IND d   1      -2.730   2.853  -4.457  0.00  0.00     0.298 HD
ENDROOT
TORSDOF 0
ENDMDL
