MODEL 1
REMARK minimizedAffinity 4.06925297
REMARK minimizedRMSD -1
REMARK  0 active torsions:
REMARK  status: ('A' for Active; 'I' for Inactive)
ROOT
ATOM      1  N1  IND d   1      -4.227  -6.000  -3.464  0.00  0.00    -0.196 N 
ATOM      2  C2  IND d   1      -5.408  -5.489  -3.002  0.00  0.00     0.054 A 
ATOM      3  C3  IND d   1      -5.220  -4.873  -1.813  0.00  0.00    -0.031 A 
ATOM      4  C4  IND d   1      -3.043  -4.498  -0.491  0.00  0.00     0.051 A 
ATOM      5  C5  IND d   1      -1.713  -4.814  -0.494  0.00  0.00    -0.031 A 
ATOM      6  C6  IND d   1      -1.141  -5.554  -1.509  0.00  0.00     0.015 A 
ATOM      7  C7  IND d   1      -1.879  -5.998  -2.569  0.00  0.00    -0.016 A 
ATOM      8  C8  IND d   1      -3.231  -5.685  -2.566  0.00  0.00    -0.047 A 
ATOM      9  C9  IND d   1      -3.825  -4.971  -1.518  0.00  0.00    -0.096 A 
ATOM     10  HN1 IND d   1      -4.124  -6.444  -4.194  0.00  0.00     0.298 HD
ENDROOT
TORSDOF 0
ENDMDL
