MODEL 1
REMARK minimizedAffinity 2.25663638
REMARK minimizedRMSD -1
REMARK  0 active torsions:
REMARK  status: ('A' for Active; 'I' for Inactive)
ROOT
ATOM      1  N1  IND d   1      -0.279   1.055   0.560  0.00  0.00    -0.196 N 
ATOM      2  C2  IND d   1       0.335  -0.134   0.838  0.00  0.00     0.054 A 
ATOM      3  C3  IND d   1       1.567  -0.168   0.282  0.00  0.00    -0.031 A 
ATOM      4  C4  IND d   1       2.817   1.655  -1.038  0.00  0.00     0.051 A 
ATOM      5  C5  IND d   1       2.651   2.900  -1.577  0.00  0.00    -0.031 A 
ATOM      6  C6  IND d   1       1.477   3.609  -1.425  0.00  0.00     0.015 A 
ATOM      7  C7  IND d   1       0.425   3.102  -0.716  0.00  0.00    -0.016 A 
ATOM      8  C8  IND d   1       0.587   1.835  -0.174  0.00  0.00    -0.047 A 
ATOM      9  C9  IND d   1       1.760   1.093  -0.361  0.00  0.00    -0.096 A 
ATOM     10  HN1 IND d   1      -1.073   1.279   0.803  0.00  0.00     0.298 HD
ENDROOT
TORSDOF 0
ENDMDL
