MODEL 1
REMARK minimizedAffinity 14.4170723
REMARK minimizedRMSD -1
REMARK  0 active torsions:
REMARK  status: ('A' for Active; 'I' for Inactive)
ROOT
ATOM      1  N1  IND d   1      -5.998   4.405  -5.061  0.00  0.00    -0.196 N 
ATOM      2  C2  IND d   1      -5.999   3.078  -5.388  0.00  0.00     0.054 A 
ATOM      3  C3  IND d   1      -5.959   2.318  -4.271  0.00  0.00    -0.031 A 
ATOM      4  C4  IND d   1      -5.988   3.041  -1.800  0.00  0.00     0.051 A 
ATOM      5  C5  IND d   1      -5.948   4.149  -1.001  0.00  0.00    -0.031 A 
ATOM      6  C6  IND d   1      -5.925   5.425  -1.526  0.00  0.00     0.015 A 
ATOM      7  C7  IND d   1      -5.953   5.642  -2.874  0.00  0.00    -0.016 A 
ATOM      8  C8  IND d   1      -5.986   4.519  -3.689  0.00  0.00    -0.047 A 
ATOM      9  C9  IND d   1      -5.967   3.220  -3.163  0.00  0.00    -0.096 A 
ATOM     10  HN1 IND d   1      -6.004   5.060  -5.619  0.00  0.00     0.298 HD
ENDROOT
TORSDOF 0
ENDMDL
