MODEL 1
REMARK minimizedAffinity 11.807991
REMARK minimizedRMSD -1
REMARK  0 active torsions:
REMARK  status: ('A' for Active; 'I' for Inactive)
ROOT
ATOM      1  N1  IND d   1      -4.835  -6.000   4.181  0.00  0.00    -0.196 N 
ATOM      2  C2  IND d   1      -6.000  -5.653   4.807  0.00  0.00     0.054 A 
ATOM      3  C3  IND d   1      -5.836  -4.506   5.503  0.00  0.00    -0.031 A 
ATOM      4  C4  IND d   1      -3.773  -2.975   5.671  0.00  0.00     0.051 A 
ATOM      5  C5  IND d   1      -2.460  -2.893   5.302  0.00  0.00    -0.031 A 
ATOM      6  C6  IND d   1      -1.859  -3.860   4.522  0.00  0.00     0.015 A 
ATOM      7  C7  IND d   1      -2.557  -4.945   4.071  0.00  0.00    -0.016 A 
ATOM      8  C8  IND d   1      -3.889  -5.035   4.450  0.00  0.00    -0.047 A 
ATOM      9  C9  IND d   1      -4.492  -4.078   5.276  0.00  0.00    -0.096 A 
ATOM     10  HN1 IND d   1      -4.714  -6.702   3.699  0.00  0.00     0.298 HD
ENDROOT
TORSDOF 0
ENDMDL
