MODEL 1
REMARK minimizedAffinity 0.805588365
REMARK minimizedRMSD -1
REMARK  0 active torsions:
REMARK  status: ('A' for Active; 'I' for Inactive)
ROOT
ATOM      1  N1  IND d   1      -0.527   0.338   1.381  0.00  0.00    -0.196 N 
ATOM      2  C2  IND d   1       0.397  -0.465   0.773  0.00  0.00     0.054 A 
ATOM      3  C3  IND d   1      -0.187  -1.202  -0.199  0.00  0.00    -0.031 A 
ATOM      4  C4  IND d   1      -2.624  -1.177  -1.029  0.00  0.00     0.051 A 
ATOM      5  C5  IND d   1      -3.849  -0.635  -0.758  0.00  0.00    -0.031 A 
ATOM      6  C6  IND d   1      -4.032   0.280   0.258  0.00  0.00     0.015 A 
ATOM      7  C7  IND d   1      -2.991   0.697   1.038  0.00  0.00    -0.016 A 
ATOM      8  C8  IND d   1      -1.747   0.143   0.770  0.00  0.00    -0.047 A 
ATOM      9  C9  IND d   1      -1.563  -0.818  -0.232  0.00  0.00    -0.096 A 
ATOM     10  HN1 IND d   1      -0.373   0.875   2.035  0.00  0.00     0.298 HD
ENDROOT
TORSDOF 0
ENDMDL
