MODEL 1
REMARK minimizedAffinity 12.1408777
REMARK minimizedRMSD -1
REMARK  0 active torsions:
REMARK  status: ('A' for Active; 'I' for Inactive)
ROOT
ATOM      1  N1  IND d   1      -3.269  -3.765  -1.638  0.00  0.00    -0.196 N 
ATOM      2  C2  IND d   1      -3.871  -4.946  -1.305  0.00  0.00     0.054 A 
ATOM      3  C3  IND d   1      -3.156  -5.990  -1.782  0.00  0.00    -0.031 A 
ATOM      4  C4  IND d   1      -0.915  -5.994  -3.049  0.00  0.00     0.051 A 
ATOM      5  C5  IND d   1       0.004  -5.156  -3.616  0.00  0.00    -0.031 A 
ATOM      6  C6  IND d   1      -0.123  -3.783  -3.549  0.00  0.00     0.015 A 
ATOM      7  C7  IND d   1      -1.171  -3.195  -2.900  0.00  0.00    -0.016 A 
ATOM      8  C8  IND d   1      -2.110  -4.043  -2.329  0.00  0.00    -0.047 A 
ATOM      9  C9  IND d   1      -2.009  -5.437  -2.431  0.00  0.00    -0.096 A 
ATOM     10  HN1 IND d   1      -3.564  -2.980  -1.449  0.00  0.00     0.298 HD
ENDROOT
TORSDOF 0
ENDMDL
