MODEL 1
REMARK minimizedAffinity 4.13331842
REMARK minimizedRMSD -1
REMARK  0 active torsions:
REMARK  status: ('A' for Active; 'I' for Inactive)
ROOT
ATOM      1  C2' OXE d   1      -1.343  -0.981   1.740  0.00  0.00     0.078 C 
ATOM      2  C1' OXE d   1      -1.348  -1.221  -1.057  0.00  0.00     0.078 C 
ATOM      3  C1  OXE d   1      -0.606  -0.055  -0.452  0.00  0.00    -0.078 A 
ATOM      4  C2  OXE d   1      -0.648   0.081   0.915  0.00  0.00    -0.078 A 
ATOM      5  C3  OXE d   1       0.065   1.107   1.528  0.00  0.00     0.003 A 
ATOM      6  C4  OXE d   1       0.697   2.090   0.757  0.00  0.00    -0.002 A 
ATOM      7  C5  OXE d   1       0.719   1.992  -0.639  0.00  0.00    -0.002 A 
ATOM      8  C6  OXE d   1       0.110   0.905  -1.255  0.00  0.00     0.003 A 
ENDROOT
TORSDOF 0
ENDMDL
