MODEL 1
REMARK minimizedAffinity 1.16892469
REMARK minimizedRMSD -1
REMARK  0 active torsions:
REMARK  status: ('A' for Active; 'I' for Inactive)
ROOT
ATOM      1  C2' OXE d   1       1.492   5.334  -5.985  0.00  0.00     0.078 C 
ATOM      2  C1' OXE d   1       1.262   2.536  -5.979  0.00  0.00     0.078 C 
ATOM      3  C1  OXE d   1      -0.010   3.347  -5.977  0.00  0.00    -0.078 A 
ATOM      4  C2  OXE d   1       0.112   4.715  -5.933  0.00  0.00    -0.078 A 
ATOM      5  C3  OXE d   1      -1.029   5.510  -5.985  0.00  0.00     0.003 A 
ATOM      6  C4  OXE d   1      -2.301   4.929  -5.927  0.00  0.00    -0.002 A 
ATOM      7  C5  OXE d   1      -2.448   3.538  -5.932  0.00  0.00    -0.002 A 
ATOM      8  C6  OXE d   1      -1.315   2.734  -5.999  0.00  0.00     0.003 A 
ENDROOT
TORSDOF 0
ENDMDL
