MODEL 1
REMARK minimizedAffinity 6.63734674
REMARK minimizedRMSD -1
REMARK  0 active torsions:
REMARK  status: ('A' for Active; 'I' for Inactive)
ROOT
ATOM      1  C2' OXE d   1      -4.346   3.627  -5.936  0.00  0.00     0.078 C 
ATOM      2  C1' OXE d   1      -2.246   1.763  -5.938  0.00  0.00     0.078 C 
ATOM      3  C1  OXE d   1      -1.887   3.228  -5.942  0.00  0.00    -0.078 A 
ATOM      4  C2  OXE d   1      -2.920   4.132  -5.988  0.00  0.00    -0.078 A 
ATOM      5  C3  OXE d   1      -2.645   5.496  -5.937  0.00  0.00     0.003 A 
ATOM      6  C4  OXE d   1      -1.324   5.956  -5.996  0.00  0.00    -0.002 A 
ATOM      7  C5  OXE d   1      -0.257   5.051  -5.990  0.00  0.00    -0.002 A 
ATOM      8  C6  OXE d   1      -0.520   3.687  -5.920  0.00  0.00     0.003 A 
ENDROOT
TORSDOF 0
ENDMDL
