MODEL 1
REMARK minimizedAffinity -0.943413258
REMARK minimizedRMSD -1
REMARK  0 active torsions:
REMARK  status: ('A' for Active; 'I' for Inactive)
ROOT
ATOM      1  C2' OXE d   1       5.723   5.731  -5.993  0.00  0.00     0.078 C 
ATOM      2  C1' OXE d   1       5.623   2.925  -5.974  0.00  0.00     0.078 C 
ATOM      3  C1  OXE d   1       4.315   3.676  -5.978  0.00  0.00    -0.078 A 
ATOM      4  C2  OXE d   1       4.373   5.048  -5.941  0.00  0.00    -0.078 A 
ATOM      5  C3  OXE d   1       3.197   5.790  -5.999  0.00  0.00     0.003 A 
ATOM      6  C4  OXE d   1       1.953   5.152  -5.940  0.00  0.00    -0.002 A 
ATOM      7  C5  OXE d   1       1.871   3.755  -5.938  0.00  0.00    -0.002 A 
ATOM      8  C6  OXE d   1       3.039   3.004  -6.000  0.00  0.00     0.003 A 
ENDROOT
TORSDOF 0
ENDMDL
