MODEL 1
REMARK minimizedAffinity 1.22704566
REMARK minimizedRMSD -1
REMARK  0 active torsions:
REMARK  status: ('A' for Active; 'I' for Inactive)
ROOT
ATOM      1  C2' OXE d   1      -0.784   5.670  -5.949  0.00  0.00     0.078 C 
ATOM      2  C1' OXE d   1      -1.207   2.895  -5.961  0.00  0.00     0.078 C 
ATOM      3  C1  OXE d   1       0.218   3.389  -5.958  0.00  0.00    -0.078 A 
ATOM      4  C2  OXE d   1       0.416   4.748  -5.999  0.00  0.00    -0.078 A 
ATOM      5  C3  OXE d   1       1.710   5.259  -5.943  0.00  0.00     0.003 A 
ATOM      6  C4  OXE d   1       2.814   4.400  -5.999  0.00  0.00    -0.002 A 
ATOM      7  C5  OXE d   1       2.635   3.013  -5.998  0.00  0.00    -0.002 A 
ATOM      8  C6  OXE d   1       1.347   2.492  -5.935  0.00  0.00     0.003 A 
ENDROOT
TORSDOF 0
ENDMDL
