MODEL 1
REMARK minimizedAffinity 5.30616951
REMARK minimizedRMSD -1
REMARK  0 active torsions:
REMARK  status: ('A' for Active; 'I' for Inactive)
ROOT
ATOM      1  C2' OXE d   1       1.578   2.029  -1.963  0.00  0.00     0.078 C 
ATOM      2  C1' OXE d   1       4.383   2.074  -2.075  0.00  0.00     0.078 C 
ATOM      3  C1  OXE d   1       3.683   3.271  -1.480  0.00  0.00    -0.078 A 
ATOM      4  C2  OXE d   1       2.309   3.260  -1.472  0.00  0.00    -0.078 A 
ATOM      5  C3  OXE d   1       1.615   4.315  -0.886  0.00  0.00     0.003 A 
ATOM      6  C4  OXE d   1       2.298   5.454  -0.444  0.00  0.00    -0.002 A 
ATOM      7  C5  OXE d   1       3.695   5.503  -0.480  0.00  0.00    -0.002 A 
ATOM      8  C6  OXE d   1       4.403   4.404  -0.954  0.00  0.00     0.003 A 
ENDROOT
TORSDOF 0
ENDMDL
