MODEL 1
REMARK minimizedAffinity 0.42013976
REMARK minimizedRMSD -1
REMARK  0 active torsions:
REMARK  status: ('A' for Active; 'I' for Inactive)
ROOT
ATOM      1  C2' OXE d   1       1.279   2.879  -5.957  0.00  0.00     0.078 C 
ATOM      2  C1' OXE d   1       1.402   5.684  -5.999  0.00  0.00     0.078 C 
ATOM      3  C1  OXE d   1       0.038   5.040  -5.974  0.00  0.00    -0.078 A 
ATOM      4  C2  OXE d   1      -0.013   3.667  -6.000  0.00  0.00    -0.078 A 
ATOM      5  C3  OXE d   1      -1.244   3.021  -5.922  0.00  0.00     0.003 A 
ATOM      6  C4  OXE d   1      -2.434   3.757  -5.973  0.00  0.00    -0.002 A 
ATOM      7  C5  OXE d   1      -2.405   5.155  -5.987  0.00  0.00    -0.002 A 
ATOM      8  C6  OXE d   1      -1.179   5.812  -5.944  0.00  0.00     0.003 A 
ENDROOT
TORSDOF 0
ENDMDL
