MODEL 1
REMARK minimizedAffinity 0.588728726
REMARK minimizedRMSD -1
REMARK  0 active torsions:
REMARK  status: ('A' for Active; 'I' for Inactive)
ROOT
ATOM      1  C2' OXE d   1       1.340   4.711  -5.948  0.00  0.00     0.078 C 
ATOM      2  C1' OXE d   1       2.626   2.217  -5.990  0.00  0.00     0.078 C 
ATOM      3  C1  OXE d   1       3.489   3.453  -5.972  0.00  0.00    -0.078 A 
ATOM      4  C2  OXE d   1       2.852   4.670  -5.998  0.00  0.00    -0.078 A 
ATOM      5  C3  OXE d   1       3.600   5.842  -5.928  0.00  0.00     0.003 A 
ATOM      6  C4  OXE d   1       4.998   5.795  -5.985  0.00  0.00    -0.002 A 
ATOM      7  C5  OXE d   1       5.667   4.567  -5.999  0.00  0.00    -0.002 A 
ATOM      8  C6  OXE d   1       4.930   3.388  -5.950  0.00  0.00     0.003 A 
ENDROOT
TORSDOF 0
ENDMDL
