MODEL 1
REMARK minimizedAffinity -0.992988467
REMARK minimizedRMSD -1
REMARK  0 active torsions:
REMARK  status: ('A' for Active; 'I' for Inactive)
ROOT
ATOM      1  C2' OXE d   1      -2.538   5.813  -5.949  0.00  0.00     0.078 C 
ATOM      2  C1' OXE d   1      -2.688   3.010  -5.976  0.00  0.00     0.078 C 
ATOM      3  C1  OXE d   1      -1.318   3.641  -5.965  0.00  0.00    -0.078 A 
ATOM      4  C2  OXE d   1      -1.254   5.013  -5.999  0.00  0.00    -0.078 A 
ATOM      5  C3  OXE d   1      -0.017   5.648  -5.936  0.00  0.00     0.003 A 
ATOM      6  C4  OXE d   1       1.166   4.901  -5.993  0.00  0.00    -0.002 A 
ATOM      7  C5  OXE d   1       1.124   3.503  -5.999  0.00  0.00    -0.002 A 
ATOM      8  C6  OXE d   1      -0.107   2.858  -5.942  0.00  0.00     0.003 A 
ENDROOT
TORSDOF 0
ENDMDL
