MODEL 1
REMARK minimizedAffinity -2.43762898
REMARK minimizedRMSD -1
REMARK  0 active torsions:
REMARK  status: ('A' for Active; 'I' for Inactive)
ROOT
ATOM      1  C2' OXE d   1       1.119   2.335  -5.945  0.00  0.00     0.078 C 
ATOM      2  C1' OXE d   1       0.529   5.079  -5.999  0.00  0.00     0.078 C 
ATOM      3  C1  OXE d   1      -0.628   4.111  -5.976  0.00  0.00    -0.078 A 
ATOM      4  C2  OXE d   1      -0.330   2.769  -5.997  0.00  0.00    -0.078 A 
ATOM      5  C3  OXE d   1      -1.358   1.834  -5.922  0.00  0.00     0.003 A 
ATOM      6  C4  OXE d   1      -2.695   2.244  -5.981  0.00  0.00    -0.002 A 
ATOM      7  C5  OXE d   1      -3.020   3.604  -6.000  0.00  0.00    -0.002 A 
ATOM      8  C6  OXE d   1      -2.001   4.549  -5.955  0.00  0.00     0.003 A 
ENDROOT
TORSDOF 0
ENDMDL
