MODEL 1
REMARK minimizedAffinity -1.63333881
REMARK minimizedRMSD -1
REMARK  0 active torsions:
REMARK  status: ('A' for Active; 'I' for Inactive)
ROOT
ATOM      1  C2' OXE d   1      -2.641   5.986  -5.935  0.00  0.00     0.078 C 
ATOM      2  C1' OXE d   1      -3.330   3.266  -5.999  0.00  0.00     0.078 C 
ATOM      3  C1  OXE d   1      -1.864   3.620  -5.974  0.00  0.00    -0.078 A 
ATOM      4  C2  OXE d   1      -1.536   4.954  -5.990  0.00  0.00    -0.078 A 
ATOM      5  C3  OXE d   1      -0.199   5.336  -5.913  0.00  0.00     0.003 A 
ATOM      6  C4  OXE d   1       0.817   4.375  -5.974  0.00  0.00    -0.002 A 
ATOM      7  C5  OXE d   1       0.504   3.011  -5.998  0.00  0.00    -0.002 A 
ATOM      8  C6  OXE d   1      -0.828   2.617  -5.956  0.00  0.00     0.003 A 
ENDROOT
TORSDOF 0
ENDMDL
