MODEL 1
REMARK minimizedAffinity -0.604528308
REMARK minimizedRMSD -1
REMARK  0 active torsions:
REMARK  status: ('A' for Active; 'I' for Inactive)
ROOT
ATOM      1  C2' OXE d   1      -2.226   6.000  -5.950  0.00  0.00     0.078 C 
ATOM      2  C1' OXE d   1      -3.575   3.538  -5.976  0.00  0.00     0.078 C 
ATOM      3  C1  OXE d   1      -2.067   3.514  -5.965  0.00  0.00    -0.078 A 
ATOM      4  C2  OXE d   1      -1.415   4.723  -5.999  0.00  0.00    -0.078 A 
ATOM      5  C3  OXE d   1      -0.025   4.759  -5.936  0.00  0.00     0.003 A 
ATOM      6  C4  OXE d   1       0.718   3.574  -5.992  0.00  0.00    -0.002 A 
ATOM      7  C5  OXE d   1       0.074   2.332  -5.998  0.00  0.00    -0.002 A 
ATOM      8  C6  OXE d   1      -1.314   2.284  -5.942  0.00  0.00     0.003 A 
ENDROOT
TORSDOF 0
ENDMDL
