MODEL 1
REMARK minimizedAffinity -3.76412511
REMARK minimizedRMSD -1
REMARK  0 active torsions:
REMARK  status: ('A' for Active; 'I' for Inactive)
ROOT
ATOM      1  C2' OXE d   1      -0.133   6.000  -5.946  0.00  0.00     0.078 C 
ATOM      2  C1' OXE d   1      -0.240   3.195  -5.950  0.00  0.00     0.078 C 
ATOM      3  C1  OXE d   1       1.120   3.847  -5.950  0.00  0.00    -0.078 A 
ATOM      4  C2  OXE d   1       1.163   5.220  -5.996  0.00  0.00    -0.078 A 
ATOM      5  C3  OXE d   1       2.391   5.873  -5.943  0.00  0.00     0.003 A 
ATOM      6  C4  OXE d   1       3.585   5.145  -5.999  0.00  0.00    -0.002 A 
ATOM      7  C5  OXE d   1       3.564   3.746  -5.994  0.00  0.00    -0.002 A 
ATOM      8  C6  OXE d   1       2.343   3.083  -5.927  0.00  0.00     0.003 A 
ENDROOT
TORSDOF 0
ENDMDL
