MODEL 1
REMARK minimizedAffinity -1.45848131
REMARK minimizedRMSD -1
REMARK  0 active torsions:
REMARK  status: ('A' for Active; 'I' for Inactive)
ROOT
ATOM      1  C2' OXE d   1      -3.670   5.999  -5.835  0.00  0.00     0.078 C 
ATOM      2  C1' OXE d   1      -3.900   3.203  -5.749  0.00  0.00     0.078 C 
ATOM      3  C1  OXE d   1      -2.513   3.793  -5.819  0.00  0.00    -0.078 A 
ATOM      4  C2  OXE d   1      -2.413   5.161  -5.908  0.00  0.00    -0.078 A 
ATOM      5  C3  OXE d   1      -1.156   5.760  -5.920  0.00  0.00     0.003 A 
ATOM      6  C4  OXE d   1       0.002   4.977  -5.997  0.00  0.00    -0.002 A 
ATOM      7  C5  OXE d   1      -0.080   3.581  -5.947  0.00  0.00    -0.002 A 
ATOM      8  C6  OXE d   1      -1.325   2.976  -5.816  0.00  0.00     0.003 A 
ENDROOT
TORSDOF 0
ENDMDL
