MODEL 1
REMARK minimizedAffinity -2.27194762
REMARK minimizedRMSD -1
REMARK  0 active torsions:
REMARK  status: ('A' for Active; 'I' for Inactive)
ROOT
ATOM      1  C2' OXE d   1      -3.002   5.997  -5.949  0.00  0.00     0.078 C 
ATOM      2  C1' OXE d   1      -3.828   3.314  -5.988  0.00  0.00     0.078 C 
ATOM      3  C1  OXE d   1      -2.346   3.594  -5.971  0.00  0.00    -0.078 A 
ATOM      4  C2  OXE d   1      -1.950   4.909  -6.000  0.00  0.00    -0.078 A 
ATOM      5  C3  OXE d   1      -0.596   5.224  -5.931  0.00  0.00     0.003 A 
ATOM      6  C4  OXE d   1       0.370   4.212  -5.988  0.00  0.00    -0.002 A 
ATOM      7  C5  OXE d   1      -0.011   2.866  -6.000  0.00  0.00    -0.002 A 
ATOM      8  C6  OXE d   1      -1.362   2.540  -5.949  0.00  0.00     0.003 A 
ENDROOT
TORSDOF 0
ENDMDL
