MODEL 1
REMARK minimizedAffinity 3.48605871
REMARK minimizedRMSD -1
REMARK  0 active torsions:
REMARK  status: ('A' for Active; 'I' for Inactive)
ROOT
ATOM      1  C2' OXE d   1       0.177   4.305  -6.000  0.00  0.00     0.078 C 
ATOM      2  C1' OXE d   1      -1.484   2.042  -5.997  0.00  0.00     0.078 C 
ATOM      3  C1  OXE d   1      -2.143   3.399  -5.986  0.00  0.00    -0.078 A 
ATOM      4  C2  OXE d   1      -1.323   4.500  -5.940  0.00  0.00    -0.078 A 
ATOM      5  C3  OXE d   1      -1.878   5.776  -5.983  0.00  0.00     0.003 A 
ATOM      6  C4  OXE d   1      -3.266   5.947  -5.918  0.00  0.00    -0.002 A 
ATOM      7  C5  OXE d   1      -4.119   4.839  -5.923  0.00  0.00    -0.002 A 
ATOM      8  C6  OXE d   1      -3.576   3.561  -6.000  0.00  0.00     0.003 A 
ENDROOT
TORSDOF 0
ENDMDL
