MODEL 1
REMARK minimizedAffinity -1.42709315
REMARK minimizedRMSD -1
REMARK  0 active torsions:
REMARK  status: ('A' for Active; 'I' for Inactive)
ROOT
ATOM      1  C2' OXE d   1       2.988   2.279  -5.999  0.00  0.00     0.078 C 
ATOM      2  C1' OXE d   1       1.626   4.734  -5.994  0.00  0.00     0.078 C 
ATOM      3  C1  OXE d   1       3.134   4.766  -5.984  0.00  0.00    -0.078 A 
ATOM      4  C2  OXE d   1       3.792   3.560  -5.940  0.00  0.00    -0.078 A 
ATOM      5  C3  OXE d   1       5.183   3.532  -5.984  0.00  0.00     0.003 A 
ATOM      6  C4  OXE d   1       5.919   4.721  -5.919  0.00  0.00    -0.002 A 
ATOM      7  C5  OXE d   1       5.268   5.960  -5.924  0.00  0.00    -0.002 A 
ATOM      8  C6  OXE d   1       3.880   6.000  -5.999  0.00  0.00     0.003 A 
ENDROOT
TORSDOF 0
ENDMDL
