MODEL 1
REMARK minimizedAffinity -2.95881915
REMARK minimizedRMSD -1
REMARK  0 active torsions:
REMARK  status: ('A' for Active; 'I' for Inactive)
ROOT
ATOM      1  C2' OXE d   1      -0.561   2.611  -5.953  0.00  0.00     0.078 C 
ATOM      2  C1' OXE d   1       0.093   5.341  -5.972  0.00  0.00     0.078 C 
ATOM      3  C1  OXE d   1      -1.368   4.968  -5.962  0.00  0.00    -0.078 A 
ATOM      4  C2  OXE d   1      -1.680   3.630  -6.000  0.00  0.00    -0.078 A 
ATOM      5  C3  OXE d   1      -3.011   3.230  -5.936  0.00  0.00     0.003 A 
ATOM      6  C4  OXE d   1      -4.040   4.179  -5.990  0.00  0.00    -0.002 A 
ATOM      7  C5  OXE d   1      -3.744   5.547  -5.992  0.00  0.00    -0.002 A 
ATOM      8  C6  OXE d   1      -2.417   5.957  -5.935  0.00  0.00     0.003 A 
ENDROOT
TORSDOF 0
ENDMDL
