MODEL 1
REMARK minimizedAffinity 2.64998698
REMARK minimizedRMSD -1
REMARK  0 active torsions:
REMARK  status: ('A' for Active; 'I' for Inactive)
ROOT
ATOM      1  C2' OXE d   1      -3.385   3.300  -5.860  0.00  0.00     0.078 C 
ATOM      2  C1' OXE d   1      -2.603   5.996  -5.830  0.00  0.00     0.078 C 
ATOM      3  C1  OXE d   1      -1.519   4.950  -5.907  0.00  0.00    -0.078 A 
ATOM      4  C2  OXE d   1      -1.909   3.632  -5.874  0.00  0.00    -0.078 A 
ATOM      5  C3  OXE d   1      -0.953   2.628  -5.997  0.00  0.00     0.003 A 
ATOM      6  C4  OXE d   1       0.411   2.944  -6.000  0.00  0.00    -0.002 A 
ATOM      7  C5  OXE d   1       0.831   4.278  -5.994  0.00  0.00    -0.002 A 
ATOM      8  C6  OXE d   1      -0.121   5.292  -5.991  0.00  0.00     0.003 A 
ENDROOT
TORSDOF 0
ENDMDL
