MODEL 1
REMARK minimizedAffinity 4.60772085
REMARK minimizedRMSD -1
REMARK  1 active torsions:
REMARK  status: ('A' for Active; 'I' for Inactive)
REMARK    1  A    between atoms: C3_4  and  O_7 
ROOT
ATOM      1  C   UNL d   1       0.176  -1.103   0.834  0.00  0.00    -0.033 A 
ATOM      2  C1  UNL d   1       1.274  -1.131  -0.028  0.00  0.00     0.039 A 
ATOM      3  C2  UNL d   1       1.936  -2.334  -0.279  0.00  0.00    -0.080 A 
ATOM      4  C3  UNL d   1       1.491  -3.501   0.338  0.00  0.00     0.150 A 
ATOM      5  C4  UNL d   1       0.396  -3.480   1.195  0.00  0.00    -0.007 A 
ATOM      6  C5  UNL d   1      -0.264  -2.278   1.444  0.00  0.00     0.039 A 
ENDROOT
BRANCH   4   7
ATOM      7  O   UNL d   1       2.109  -4.698   0.128  0.00  0.00    -0.526 OA
ATOM      8  H5  UNL d   1       2.867  -4.554  -0.463  0.00  0.00     0.418 HD
ENDBRANCH   4   7
TORSDOF 1
ENDMDL
