MODEL 1
REMARK minimizedAffinity 0.326660335
REMARK minimizedRMSD -1
REMARK  1 active torsions:
REMARK  status: ('A' for Active; 'I' for Inactive)
REMARK    1  A    between atoms: C3_4  and  O_7 
ROOT
ATOM      1  C   UNL d   1       1.180  -0.560   0.609  0.00  0.00    -0.033 A 
ATOM      2  C1  UNL d   1       2.293  -0.925  -0.150  0.00  0.00     0.039 A 
ATOM      3  C2  UNL d   1       2.603  -2.274  -0.334  0.00  0.00    -0.080 A 
ATOM      4  C3  UNL d   1       1.791  -3.246   0.244  0.00  0.00     0.150 A 
ATOM      5  C4  UNL d   1       0.677  -2.889   0.998  0.00  0.00    -0.007 A 
ATOM      6  C5  UNL d   1       0.371  -1.542   1.181  0.00  0.00     0.039 A 
ENDROOT
BRANCH   4   7
ATOM      7  O   UNL d   1       2.055  -4.576   0.096  0.00  0.00    -0.526 OA
ATOM      8  H5  UNL d   1       2.870  -4.671  -0.424  0.00  0.00     0.418 HD
ENDBRANCH   4   7
TORSDOF 1
ENDMDL
