MODEL 1
REMARK minimizedAffinity 0.161519468
REMARK minimizedRMSD -1
REMARK  1 active torsions:
REMARK  status: ('A' for Active; 'I' for Inactive)
REMARK    1  A    between atoms: C3_4  and  O_7 
ROOT
ATOM      1  C   UNL d   1      -4.898   1.877   4.877  0.00  0.00    -0.033 A 
ATOM      2  C1  UNL d   1      -5.989   2.396   5.577  0.00  0.00     0.039 A 
ATOM      3  C2  UNL d   1      -5.999   3.738   5.962  0.00  0.00    -0.080 A 
ATOM      4  C3  UNL d   1      -4.915   4.549   5.641  0.00  0.00     0.150 A 
ATOM      5  C4  UNL d   1      -3.827   4.040   4.940  0.00  0.00    -0.007 A 
ATOM      6  C5  UNL d   1      -3.818   2.699   4.557  0.00  0.00     0.039 A 
ENDROOT
BRANCH   4   7
ATOM      7  O   UNL d   1      -4.877   5.864   5.999  0.00  0.00    -0.526 OA
ATOM      8  H5  UNL d   1      -5.683   6.068   6.503  0.00  0.00     0.418 HD
ENDBRANCH   4   7
TORSDOF 1
ENDMDL
