MODEL 1
REMARK minimizedAffinity 6.73243284
REMARK minimizedRMSD -1
REMARK  1 active torsions:
REMARK  status: ('A' for Active; 'I' for Inactive)
REMARK    1  A    between atoms: C3_4  and  O_7 
ROOT
ATOM      1  C   UNL d   1      -0.190  -0.757   1.977  0.00  0.00    -0.033 A 
ATOM      2  C1  UNL d   1       1.141  -0.386   1.777  0.00  0.00     0.039 A 
ATOM      3  C2  UNL d   1       2.005  -1.230   1.076  0.00  0.00    -0.080 A 
ATOM      4  C3  UNL d   1       1.525  -2.440   0.580  0.00  0.00     0.150 A 
ATOM      5  C4  UNL d   1       0.199  -2.813   0.773  0.00  0.00    -0.007 A 
ATOM      6  C5  UNL d   1      -0.661  -1.970   1.474  0.00  0.00     0.039 A 
ENDROOT
BRANCH   4   7
ATOM      7  O   UNL d   1       2.332  -3.298  -0.106  0.00  0.00    -0.526 OA
ATOM      8  H5  UNL d   1       3.227  -2.922  -0.137  0.00  0.00     0.418 HD
ENDBRANCH   4   7
TORSDOF 1
ENDMDL
