MODEL 1
REMARK minimizedAffinity -3.0820117
REMARK minimizedRMSD -1
REMARK  1 active torsions:
REMARK  status: ('A' for Active; 'I' for Inactive)
REMARK    1  A    between atoms: C3_4  and  O_7 
ROOT
ATOM      1  C   UNL d   1       2.645  -3.407  -0.443  0.00  0.00    -0.033 A 
ATOM      2  C1  UNL d   1       2.255  -2.102  -0.748  0.00  0.00     0.039 A 
ATOM      3  C2  UNL d   1       1.322  -1.445   0.056  0.00  0.00    -0.080 A 
ATOM      4  C3  UNL d   1       0.787  -2.103   1.160  0.00  0.00     0.150 A 
ATOM      5  C4  UNL d   1       1.174  -3.402   1.472  0.00  0.00    -0.007 A 
ATOM      6  C5  UNL d   1       2.106  -4.057   0.668  0.00  0.00     0.039 A 
ENDROOT
BRANCH   4   7
ATOM      7  O   UNL d   1      -0.131  -1.504   1.971  0.00  0.00    -0.526 OA
ATOM      8  H5  UNL d   1      -0.324  -0.619   1.617  0.00  0.00     0.418 HD
ENDBRANCH   4   7
TORSDOF 1
ENDMDL
