MODEL 1
REMARK minimizedAffinity -0.412997961
REMARK minimizedRMSD -1
REMARK  1 active torsions:
REMARK  status: ('A' for Active; 'I' for Inactive)
REMARK    1  A    between atoms: C3_4  and  O_7 
ROOT
ATOM      1  C   UNL d   1      -2.834  -2.602  -5.965  0.00  0.00    -0.033 A 
ATOM      2  C1  UNL d   1      -2.559  -1.234  -5.989  0.00  0.00     0.039 A 
ATOM      3  C2  UNL d   1      -3.605  -0.309  -6.000  0.00  0.00    -0.080 A 
ATOM      4  C3  UNL d   1      -4.920  -0.765  -5.985  0.00  0.00     0.150 A 
ATOM      5  C4  UNL d   1      -5.202  -2.127  -5.957  0.00  0.00    -0.007 A 
ATOM      6  C5  UNL d   1      -4.156  -3.049  -5.947  0.00  0.00     0.039 A 
ENDROOT
BRANCH   4   7
ATOM      7  O   UNL d   1      -5.974   0.099  -6.000  0.00  0.00    -0.526 OA
ATOM      8  H5  UNL d   1      -5.628   1.006  -6.048  0.00  0.00     0.418 HD
ENDBRANCH   4   7
TORSDOF 1
ENDMDL
