MODEL 1
REMARK minimizedAffinity -1.5230794
REMARK minimizedRMSD -1
REMARK  0 active torsions:
REMARK  status: ('A' for Active; 'I' for Inactive)
ROOT
ATOM      1  C   UNL d   1       3.871   2.099   3.364  0.00  0.00     0.078 C 
ATOM      2  C1  UNL d   1       4.359   3.461   2.969  0.00  0.00    -0.077 A 
ATOM      3  C2  UNL d   1       4.004   4.597   3.708  0.00  0.00    -0.001 A 
ATOM      4  C3  UNL d   1       4.458   5.859   3.324  0.00  0.00     0.003 A 
ATOM      5  C4  UNL d   1       5.267   5.999   2.199  0.00  0.00    -0.005 A 
ATOM      6  C5  UNL d   1       5.624   4.876   1.456  0.00  0.00     0.003 A 
ATOM      7  C6  UNL d   1       5.171   3.612   1.839  0.00  0.00    -0.001 A 
ENDROOT
TORSDOF 0
ENDMDL
