MODEL 1
REMARK minimizedAffinity -1.5637362
REMARK minimizedRMSD -1
REMARK  0 active torsions:
REMARK  status: ('A' for Active; 'I' for Inactive)
ROOT
ATOM      1  C   UNL d   1       5.755   3.468   3.960  0.00  0.00     0.078 C 
ATOM      2  C1  UNL d   1       5.177   4.029   2.695  0.00  0.00    -0.077 A 
ATOM      3  C2  UNL d   1       4.298   3.276   1.908  0.00  0.00    -0.001 A 
ATOM      4  C3  UNL d   1       3.776   3.808   0.728  0.00  0.00     0.003 A 
ATOM      5  C4  UNL d   1       4.128   5.094   0.324  0.00  0.00    -0.005 A 
ATOM      6  C5  UNL d   1       5.004   5.850   1.099  0.00  0.00     0.003 A 
ATOM      7  C6  UNL d   1       5.527   5.320   2.280  0.00  0.00    -0.001 A 
ENDROOT
TORSDOF 0
ENDMDL
