MODEL 1
REMARK minimizedAffinity 7.13510561
REMARK minimizedRMSD -1
REMARK  0 active torsions:
REMARK  status: ('A' for Active; 'I' for Inactive)
ROOT
ATOM      1  C   UNL d   1      -1.529   4.911  -0.210  0.00  0.00     0.078 C 
ATOM      2  C1  UNL d   1      -2.937   4.899  -0.727  0.00  0.00    -0.077 A 
ATOM      3  C2  UNL d   1      -3.773   3.796  -0.517  0.00  0.00    -0.001 A 
ATOM      4  C3  UNL d   1      -5.078   3.794  -1.011  0.00  0.00     0.003 A 
ATOM      5  C4  UNL d   1      -5.559   4.893  -1.720  0.00  0.00    -0.005 A 
ATOM      6  C5  UNL d   1      -4.734   5.995  -1.936  0.00  0.00     0.003 A 
ATOM      7  C6  UNL d   1      -3.428   5.998  -1.442  0.00  0.00    -0.001 A 
ENDROOT
TORSDOF 0
ENDMDL
