MODEL 1
REMARK minimizedAffinity 6.25017166
REMARK minimizedRMSD -1
REMARK  0 active torsions:
REMARK  status: ('A' for Active; 'I' for Inactive)
ROOT
ATOM      1  C   UNL d   1       2.120  -2.363   4.304  0.00  0.00     0.078 C 
ATOM      2  C1  UNL d   1       1.142  -1.433   3.650  0.00  0.00    -0.077 A 
ATOM      3  C2  UNL d   1       1.433  -0.071   3.498  0.00  0.00    -0.001 A 
ATOM      4  C3  UNL d   1       0.509   0.785   2.896  0.00  0.00     0.003 A 
ATOM      5  C4  UNL d   1      -0.712   0.289   2.443  0.00  0.00    -0.005 A 
ATOM      6  C5  UNL d   1      -1.011  -1.064   2.592  0.00  0.00     0.003 A 
ATOM      7  C6  UNL d   1      -0.088  -1.921   3.193  0.00  0.00    -0.001 A 
ENDROOT
TORSDOF 0
ENDMDL
