MODEL 1
REMARK minimizedAffinity 1.34667575
REMARK minimizedRMSD -1
REMARK  0 active torsions:
REMARK  status: ('A' for Active; 'I' for Inactive)
ROOT
ATOM      1  C   UNL d   1       2.639  -1.757   6.000  0.00  0.00     0.078 C 
ATOM      2  C1  UNL d   1       1.727  -1.125   4.991  0.00  0.00    -0.077 A 
ATOM      3  C2  UNL d   1       1.482  -1.739   3.756  0.00  0.00    -0.001 A 
ATOM      4  C3  UNL d   1       0.639  -1.135   2.822  0.00  0.00     0.003 A 
ATOM      5  C4  UNL d   1       0.034   0.087   3.113  0.00  0.00    -0.005 A 
ATOM      6  C5  UNL d   1       0.273   0.706   4.338  0.00  0.00     0.003 A 
ATOM      7  C6  UNL d   1       1.116   0.103   5.273  0.00  0.00    -0.001 A 
ENDROOT
TORSDOF 0
ENDMDL
