MODEL 1
REMARK minimizedAffinity 15.6830969
REMARK minimizedRMSD -1
REMARK  0 active torsions:
REMARK  status: ('A' for Active; 'I' for Inactive)
ROOT
ATOM      1  C   UNL d   1      -1.374  -2.525  -1.940  0.00  0.00     0.078 C 
ATOM      2  C1  UNL d   1      -0.702  -1.836  -3.090  0.00  0.00    -0.077 A 
ATOM      3  C2  UNL d   1      -1.114  -2.066  -4.409  0.00  0.00    -0.001 A 
ATOM      4  C3  UNL d   1      -0.473  -1.425  -5.470  0.00  0.00     0.003 A 
ATOM      5  C4  UNL d   1       0.584  -0.551  -5.224  0.00  0.00    -0.005 A 
ATOM      6  C5  UNL d   1       1.002  -0.317  -3.915  0.00  0.00     0.003 A 
ATOM      7  C6  UNL d   1       0.362  -0.957  -2.853  0.00  0.00    -0.001 A 
ENDROOT
TORSDOF 0
ENDMDL
