MODEL 1
REMARK minimizedAffinity 10.8686638
REMARK minimizedRMSD -1
REMARK  0 active torsions:
REMARK  status: ('A' for Active; 'I' for Inactive)
ROOT
ATOM      1  C   UNL d   1       2.611  -2.585   4.169  0.00  0.00     0.078 C 
ATOM      2  C1  UNL d   1       1.879  -1.516   3.414  0.00  0.00    -0.077 A 
ATOM      3  C2  UNL d   1       1.776  -0.216   3.923  0.00  0.00    -0.001 A 
ATOM      4  C3  UNL d   1       1.083   0.767   3.214  0.00  0.00     0.003 A 
ATOM      5  C4  UNL d   1       0.487   0.459   1.993  0.00  0.00    -0.005 A 
ATOM      6  C5  UNL d   1       0.582  -0.833   1.479  0.00  0.00     0.003 A 
ATOM      7  C6  UNL d   1       1.275  -1.817   2.187  0.00  0.00    -0.001 A 
ENDROOT
TORSDOF 0
ENDMDL
