MODEL 1
REMARK minimizedAffinity 12.9512405
REMARK minimizedRMSD -1
REMARK  0 active torsions:
REMARK  status: ('A' for Active; 'I' for Inactive)
ROOT
ATOM      1  C   UNL d   1       2.746  -0.186  -3.883  0.00  0.00     0.078 C 
ATOM      2  C1  UNL d   1       1.311  -0.618  -3.840  0.00  0.00    -0.077 A 
ATOM      3  C2  UNL d   1       0.596  -0.863  -5.019  0.00  0.00    -0.001 A 
ATOM      4  C3  UNL d   1      -0.742  -1.256  -4.964  0.00  0.00     0.003 A 
ATOM      5  C4  UNL d   1      -1.378  -1.405  -3.733  0.00  0.00    -0.005 A 
ATOM      6  C5  UNL d   1      -0.675  -1.162  -2.555  0.00  0.00     0.003 A 
ATOM      7  C6  UNL d   1       0.663  -0.769  -2.607  0.00  0.00    -0.001 A 
ENDROOT
TORSDOF 0
ENDMDL
