MODEL 1
REMARK minimizedAffinity 9.19215298
REMARK minimizedRMSD -1
REMARK  0 active torsions:
REMARK  status: ('A' for Active; 'I' for Inactive)
ROOT
ATOM      1  C   UNL d   1      -2.953  -4.945  -5.825  0.00  0.00     0.078 C 
ATOM      2  C1  UNL d   1      -1.456  -4.851  -5.790  0.00  0.00    -0.077 A 
ATOM      3  C2  UNL d   1      -0.805  -3.629  -5.999  0.00  0.00    -0.001 A 
ATOM      4  C3  UNL d   1       0.588  -3.559  -5.974  0.00  0.00     0.003 A 
ATOM      5  C4  UNL d   1       1.343  -4.706  -5.740  0.00  0.00    -0.005 A 
ATOM      6  C5  UNL d   1       0.704  -5.927  -5.532  0.00  0.00     0.003 A 
ATOM      7  C6  UNL d   1      -0.690  -6.000  -5.558  0.00  0.00    -0.001 A 
ENDROOT
TORSDOF 0
ENDMDL
