MODEL 1
REMARK minimizedAffinity 10.5727129
REMARK minimizedRMSD -1
REMARK  0 active torsions:
REMARK  status: ('A' for Active; 'I' for Inactive)
ROOT
ATOM      1  C   UNL d   1       2.425  -0.537  -3.983  0.00  0.00     0.078 C 
ATOM      2  C1  UNL d   1       1.016  -0.853  -3.577  0.00  0.00    -0.077 A 
ATOM      3  C2  UNL d   1      -0.072  -0.374  -4.317  0.00  0.00    -0.001 A 
ATOM      4  C3  UNL d   1      -1.378  -0.668  -3.922  0.00  0.00     0.003 A 
ATOM      5  C4  UNL d   1      -1.608  -1.440  -2.785  0.00  0.00    -0.005 A 
ATOM      6  C5  UNL d   1      -0.532  -1.918  -2.041  0.00  0.00     0.003 A 
ATOM      7  C6  UNL d   1       0.775  -1.626  -2.435  0.00  0.00    -0.001 A 
ENDROOT
TORSDOF 0
ENDMDL
