MODEL 1
REMARK minimizedAffinity 11.0234118
REMARK minimizedRMSD -1
REMARK  0 active torsions:
REMARK  status: ('A' for Active; 'I' for Inactive)
ROOT
ATOM      1  C   UNL d   1       0.675  -0.992  -4.303  0.00  0.00     0.078 C 
ATOM      2  C1  UNL d   1       1.864  -1.882  -4.508  0.00  0.00    -0.077 A 
ATOM      3  C2  UNL d   1       1.732  -3.133  -5.122  0.00  0.00    -0.001 A 
ATOM      4  C3  UNL d   1       2.846  -3.956  -5.297  0.00  0.00     0.003 A 
ATOM      5  C4  UNL d   1       4.101  -3.536  -4.859  0.00  0.00    -0.005 A 
ATOM      6  C5  UNL d   1       4.242  -2.294  -4.244  0.00  0.00     0.003 A 
ATOM      7  C6  UNL d   1       3.129  -1.470  -4.069  0.00  0.00    -0.001 A 
ENDROOT
TORSDOF 0
ENDMDL
