MODEL 1
REMARK minimizedAffinity 10.5708427
REMARK minimizedRMSD -1
REMARK  0 active torsions:
REMARK  status: ('A' for Active; 'I' for Inactive)
ROOT
ATOM      1  C   UNL d   1       1.718  -5.695  -5.947  0.00  0.00     0.078 C 
ATOM      2  C1  UNL d   1       0.382  -5.549  -5.283  0.00  0.00    -0.077 A 
ATOM      3  C2  UNL d   1       0.190  -5.947  -3.954  0.00  0.00    -0.001 A 
ATOM      4  C3  UNL d   1      -1.062  -5.815  -3.351  0.00  0.00     0.003 A 
ATOM      5  C4  UNL d   1      -2.132  -5.286  -4.069  0.00  0.00    -0.005 A 
ATOM      6  C5  UNL d   1      -1.952  -4.890  -5.393  0.00  0.00     0.003 A 
ATOM      7  C6  UNL d   1      -0.701  -5.021  -5.997  0.00  0.00    -0.001 A 
ENDROOT
TORSDOF 0
ENDMDL
