MODEL 1
REMARK minimizedAffinity 5.0531764
REMARK minimizedRMSD -1
REMARK  0 active torsions:
REMARK  status: ('A' for Active; 'I' for Inactive)
ROOT
ATOM      1  C1  BNZ d   1       2.256  -1.290   1.817  0.00  0.00     0.000 A 
ATOM      2  C2  BNZ d   1       3.142  -2.253   1.414  0.00  0.00     0.000 A 
ATOM      3  C3  BNZ d   1       2.706  -3.390   0.792  0.00  0.00     0.000 A 
ATOM      4  C4  BNZ d   1       1.383  -3.580   0.611  0.00  0.00     0.000 A 
ATOM      5  C5  BNZ d   1       0.477  -2.622   1.020  0.00  0.00     0.000 A 
ATOM      6  C6  BNZ d   1       0.922  -1.462   1.610  0.00  0.00     0.000 A 
ENDROOT
TORSDOF 0
ENDMDL
