MODEL 1
REMARK minimizedAffinity 6.19364882
REMARK minimizedRMSD -1
REMARK  0 active torsions:
REMARK  status: ('A' for Active; 'I' for Inactive)
ROOT
ATOM      1  C1  BNZ d   1       3.110  -2.176   0.989  0.00  0.00     0.000 A 
ATOM      2  C2  BNZ d   1       3.430  -3.473   0.692  0.00  0.00     0.000 A 
ATOM      3  C3  BNZ d   1       2.453  -4.399   0.454  0.00  0.00     0.000 A 
ATOM      4  C4  BNZ d   1       1.158  -4.036   0.551  0.00  0.00     0.000 A 
ATOM      5  C5  BNZ d   1       0.818  -2.733   0.859  0.00  0.00     0.000 A 
ATOM      6  C6  BNZ d   1       1.805  -1.795   1.060  0.00  0.00     0.000 A 
ENDROOT
TORSDOF 0
ENDMDL
