MODEL 1
REMARK minimizedAffinity 3.65079284
REMARK minimizedRMSD -1
REMARK  0 active torsions:
REMARK  status: ('A' for Active; 'I' for Inactive)
ROOT
ATOM      1  C1  BNZ d   1       3.016  -3.692   0.751  0.00  0.00     0.000 A 
ATOM      2  C2  BNZ d   1       1.986  -3.173   0.012  0.00  0.00     0.000 A 
ATOM      3  C3  BNZ d   1       1.394  -1.994   0.369  0.00  0.00     0.000 A 
ATOM      4  C4  BNZ d   1       1.804  -1.357   1.485  0.00  0.00     0.000 A 
ATOM      5  C5  BNZ d   1       2.835  -1.872   2.246  0.00  0.00     0.000 A 
ATOM      6  C6  BNZ d   1       3.455  -3.039   1.862  0.00  0.00     0.000 A 
ENDROOT
TORSDOF 0
ENDMDL
