MODEL 1
REMARK minimizedAffinity 9.48880768
REMARK minimizedRMSD -1
REMARK  0 active torsions:
REMARK  status: ('A' for Active; 'I' for Inactive)
ROOT
ATOM      1  C1  BNZ d   1      -3.089   2.892  -3.490  0.00  0.00     0.000 A 
ATOM      2  C2  BNZ d   1      -1.729   2.920  -3.650  0.00  0.00     0.000 A 
ATOM      3  C3  BNZ d   1      -1.140   2.329  -4.732  0.00  0.00     0.000 A 
ATOM      4  C4  BNZ d   1      -1.906   1.677  -5.631  0.00  0.00     0.000 A 
ATOM      5  C5  BNZ d   1      -3.277   1.633  -5.479  0.00  0.00     0.000 A 
ATOM      6  C6  BNZ d   1      -3.870   2.262  -4.408  0.00  0.00     0.000 A 
ENDROOT
TORSDOF 0
ENDMDL
