MODEL 1
REMARK minimizedAffinity 3.03930521
REMARK minimizedRMSD -1
REMARK  0 active torsions:
REMARK  status: ('A' for Active; 'I' for Inactive)
ROOT
ATOM      1  C1  BNZ d   1       5.929   1.144  -0.993  0.00  0.00     0.000 A 
ATOM      2  C2  BNZ d   1       5.925   2.480  -1.293  0.00  0.00     0.000 A 
ATOM      3  C3  BNZ d   1       5.981   3.420  -0.303  0.00  0.00     0.000 A 
ATOM      4  C4  BNZ d   1       6.000   3.024   0.986  0.00  0.00     0.000 A 
ATOM      5  C5  BNZ d   1       5.995   1.681   1.306  0.00  0.00     0.000 A 
ATOM      6  C6  BNZ d   1       5.978   0.737   0.304  0.00  0.00     0.000 A 
ENDROOT
TORSDOF 0
ENDMDL
