MODEL 1
REMARK minimizedAffinity -1.80636263
REMARK minimizedRMSD -1
REMARK  0 active torsions:
REMARK  status: ('A' for Active; 'I' for Inactive)
ROOT
ATOM      1  C   UNL d   1      -1.770   1.499   1.954  0.00  0.00     0.023 A 
ATOM      2  C1  UNL d   1      -1.878   1.994   0.655  0.00  0.00     0.003 A 
ATOM      3  C2  UNL d   1      -1.047   1.500  -0.353  0.00  0.00     0.048 A 
ATOM      4  C3  UNL d   1      -0.111   0.510  -0.055  0.00  0.00     0.023 A 
ATOM      5  C4  UNL d   1      -0.000   0.012   1.244  0.00  0.00     0.048 A 
ATOM      6  C5  UNL d   1      -0.832   0.509   2.249  0.00  0.00     0.003 A 
ATOM      7  I   UNL d   1       1.126  -0.227  -1.553  0.00  0.00    -0.146 I 
ENDROOT
TORSDOF 0
ENDMDL
