MODEL 1
REMARK minimizedAffinity -2.40041494
REMARK minimizedRMSD -1
REMARK  0 active torsions:
REMARK  status: ('A' for Active; 'I' for Inactive)
ROOT
ATOM      1  C   UNL d   1       0.835  -0.978  -0.747  0.00  0.00     0.023 A 
ATOM      2  C1  UNL d   1       0.359  -1.352   0.510  0.00  0.00     0.003 A 
ATOM      3  C2  UNL d   1      -0.526  -0.520   1.199  0.00  0.00     0.048 A 
ATOM      4  C3  UNL d   1      -0.930   0.685   0.625  0.00  0.00     0.023 A 
ATOM      5  C4  UNL d   1      -0.457   1.063  -0.632  0.00  0.00     0.048 A 
ATOM      6  C5  UNL d   1       0.428   0.228  -1.317  0.00  0.00     0.003 A 
ATOM      7  I   UNL d   1      -2.247   1.925   1.649  0.00  0.00    -0.146 I 
ENDROOT
TORSDOF 0
ENDMDL
