MODEL 1
REMARK minimizedAffinity -0.964492142
REMARK minimizedRMSD -1
REMARK  0 active torsions:
REMARK  status: ('A' for Active; 'I' for Inactive)
ROOT
ATOM      1  C   UNL d   1       1.593  -0.146  -1.421  0.00  0.00     0.023 A 
ATOM      2  C1  UNL d   1       1.093   1.141  -1.616  0.00  0.00     0.003 A 
ATOM      3  C2  UNL d   1       0.133   1.658  -0.744  0.00  0.00     0.048 A 
ATOM      4  C3  UNL d   1      -0.322   0.882   0.322  0.00  0.00     0.023 A 
ATOM      5  C4  UNL d   1       0.176  -0.406   0.521  0.00  0.00     0.048 A 
ATOM      6  C5  UNL d   1       1.135  -0.919  -0.354  0.00  0.00     0.003 A 
ATOM      7  I   UNL d   1      -1.752   1.649   1.621  0.00  0.00    -0.146 I 
ENDROOT
TORSDOF 0
ENDMDL
