MODEL 1
REMARK minimizedAffinity -1.54664087
REMARK minimizedRMSD -1
REMARK  0 active torsions:
REMARK  status: ('A' for Active; 'I' for Inactive)
ROOT
ATOM      1  C   UNL d   1      -1.867   1.859   1.221  0.00  0.00     0.023 A 
ATOM      2  C1  UNL d   1      -0.898   1.119   1.900  0.00  0.00     0.003 A 
ATOM      3  C2  UNL d   1      -0.170   0.136   1.227  0.00  0.00     0.048 A 
ATOM      4  C3  UNL d   1      -0.414  -0.101  -0.125  0.00  0.00     0.023 A 
ATOM      5  C4  UNL d   1      -1.382   0.636  -0.809  0.00  0.00     0.048 A 
ATOM      6  C5  UNL d   1      -2.109   1.617  -0.132  0.00  0.00     0.003 A 
ATOM      7  I   UNL d   1       0.669  -1.564  -1.129  0.00  0.00    -0.146 I 
ENDROOT
TORSDOF 0
ENDMDL
