MODEL 1
REMARK minimizedAffinity -2.9779942
REMARK minimizedRMSD -1
REMARK  0 active torsions:
REMARK  status: ('A' for Active; 'I' for Inactive)
ROOT
ATOM      1  C   UNL d   1      -1.858   2.376   1.615  0.00  0.00     0.023 A 
ATOM      2  C1  UNL d   1      -1.780   2.330   0.223  0.00  0.00     0.003 A 
ATOM      3  C2  UNL d   1      -0.871   1.471  -0.399  0.00  0.00     0.048 A 
ATOM      4  C3  UNL d   1      -0.043   0.661   0.378  0.00  0.00     0.023 A 
ATOM      5  C4  UNL d   1      -0.119   0.703   1.771  0.00  0.00     0.048 A 
ATOM      6  C5  UNL d   1      -1.028   1.563   2.388  0.00  0.00     0.003 A 
ATOM      7  I   UNL d   1       1.311  -0.618  -0.545  0.00  0.00    -0.146 I 
ENDROOT
TORSDOF 0
ENDMDL
