MODEL 1
REMARK minimizedAffinity -2.71270394
REMARK minimizedRMSD -1
REMARK  0 active torsions:
REMARK  status: ('A' for Active; 'I' for Inactive)
ROOT
ATOM      1  C   UNL d   1      -1.575   1.974   2.087  0.00  0.00     0.023 A 
ATOM      2  C1  UNL d   1      -1.244   2.273   0.765  0.00  0.00     0.003 A 
ATOM      3  C2  UNL d   1      -0.485   1.373   0.013  0.00  0.00     0.048 A 
ATOM      4  C3  UNL d   1      -0.062   0.176   0.590  0.00  0.00     0.023 A 
ATOM      5  C4  UNL d   1      -0.392  -0.128   1.911  0.00  0.00     0.048 A 
ATOM      6  C5  UNL d   1      -1.149   0.775   2.659  0.00  0.00     0.003 A 
ATOM      7  I   UNL d   1       1.067  -1.166  -0.527  0.00  0.00    -0.146 I 
ENDROOT
TORSDOF 0
ENDMDL
