MODEL 1
REMARK minimizedAffinity -2.55351543
REMARK minimizedRMSD -1
REMARK  0 active torsions:
REMARK  status: ('A' for Active; 'I' for Inactive)
ROOT
ATOM      1  C   UNL d   1      -1.445   3.135   0.407  0.00  0.00     0.023 A 
ATOM      2  C1  UNL d   1      -1.674   2.156   1.373  0.00  0.00     0.003 A 
ATOM      3  C2  UNL d   1      -1.094   0.893   1.240  0.00  0.00     0.048 A 
ATOM      4  C3  UNL d   1      -0.285   0.616   0.138  0.00  0.00     0.023 A 
ATOM      5  C4  UNL d   1      -0.052   1.594  -0.831  0.00  0.00     0.048 A 
ATOM      6  C5  UNL d   1      -0.635   2.855  -0.694  0.00  0.00     0.003 A 
ATOM      7  I   UNL d   1       0.580  -1.263  -0.062  0.00  0.00    -0.146 I 
ENDROOT
TORSDOF 0
ENDMDL
