MODEL 1
REMARK minimizedAffinity -3.80433941
REMARK minimizedRMSD -1
REMARK  0 active torsions:
REMARK  status: ('A' for Active; 'I' for Inactive)
ROOT
ATOM      1  C   UNL d   1       1.612  -0.675  -0.247  0.00  0.00     0.023 A 
ATOM      2  C1  UNL d   1       0.958  -0.995   0.943  0.00  0.00     0.003 A 
ATOM      3  C2  UNL d   1      -0.186  -0.291   1.324  0.00  0.00     0.048 A 
ATOM      4  C3  UNL d   1      -0.671   0.732   0.510  0.00  0.00     0.023 A 
ATOM      5  C4  UNL d   1      -0.020   1.056  -0.682  0.00  0.00     0.048 A 
ATOM      6  C5  UNL d   1       1.124   0.349  -1.058  0.00  0.00     0.003 A 
ATOM      7  I   UNL d   1      -2.373   1.782   1.074  0.00  0.00    -0.146 I 
ENDROOT
TORSDOF 0
ENDMDL
