MODEL 1
REMARK minimizedAffinity 1.6353538
REMARK minimizedRMSD -1
REMARK  0 active torsions:
REMARK  status: ('A' for Active; 'I' for Inactive)
ROOT
ATOM      1  C   UNL d   1      -0.104  -0.355  -0.511  0.00  0.00     0.023 A 
ATOM      2  C1  UNL d   1       0.581  -0.884   0.583  0.00  0.00     0.003 A 
ATOM      3  C2  UNL d   1       0.674  -0.155   1.770  0.00  0.00     0.048 A 
ATOM      4  C3  UNL d   1       0.079   1.103   1.857  0.00  0.00     0.023 A 
ATOM      5  C4  UNL d   1      -0.608   1.637   0.765  0.00  0.00     0.048 A 
ATOM      6  C5  UNL d   1      -0.698   0.904  -0.420  0.00  0.00     0.003 A 
ATOM      7  I   UNL d   1       0.217   2.190   3.623  0.00  0.00    -0.146 I 
ENDROOT
TORSDOF 0
ENDMDL
