MODEL 1
REMARK minimizedAffinity -4.06734419
REMARK minimizedRMSD -1
REMARK  0 active torsions:
REMARK  status: ('A' for Active; 'I' for Inactive)
ROOT
ATOM      1  C   UNL d   1      -1.861   1.334   1.861  0.00  0.00     0.023 A 
ATOM      2  C1  UNL d   1      -2.087   1.243   0.488  0.00  0.00     0.003 A 
ATOM      3  C2  UNL d   1      -1.194   0.540  -0.324  0.00  0.00     0.048 A 
ATOM      4  C3  UNL d   1      -0.078  -0.071   0.245  0.00  0.00     0.023 A 
ATOM      5  C4  UNL d   1       0.153   0.016   1.619  0.00  0.00     0.048 A 
ATOM      6  C5  UNL d   1      -0.743   0.721   2.426  0.00  0.00     0.003 A 
ATOM      7  I   UNL d   1       1.253  -1.118  -0.960  0.00  0.00    -0.146 I 
ENDROOT
TORSDOF 0
ENDMDL
