MODEL 1
REMARK minimizedAffinity -2.10586596
REMARK minimizedRMSD -1
REMARK  0 active torsions:
REMARK  status: ('A' for Active; 'I' for Inactive)
ROOT
ATOM      1  C   UNL d   1      -1.879   2.399   1.516  0.00  0.00     0.023 A 
ATOM      2  C1  UNL d   1      -2.074   2.142   0.159  0.00  0.00     0.003 A 
ATOM      3  C2  UNL d   1      -1.277   1.202  -0.497  0.00  0.00     0.048 A 
ATOM      4  C3  UNL d   1      -0.288   0.520   0.211  0.00  0.00     0.023 A 
ATOM      5  C4  UNL d   1      -0.089   0.773   1.570  0.00  0.00     0.048 A 
ATOM      6  C5  UNL d   1      -0.888   1.715   2.221  0.00  0.00     0.003 A 
ATOM      7  I   UNL d   1       0.900  -0.880  -0.762  0.00  0.00    -0.146 I 
ENDROOT
TORSDOF 0
ENDMDL
