MODEL 1
REMARK minimizedAffinity -3.42869186
REMARK minimizedRMSD -1
REMARK  0 active torsions:
REMARK  status: ('A' for Active; 'I' for Inactive)
ROOT
ATOM      1  C   UNL d   1      -1.722   2.056   1.377  0.00  0.00     0.023 A 
ATOM      2  C1  UNL d   1      -1.661   2.098  -0.016  0.00  0.00     0.003 A 
ATOM      3  C2  UNL d   1      -0.948   1.121  -0.714  0.00  0.00     0.048 A 
ATOM      4  C3  UNL d   1      -0.298   0.106  -0.013  0.00  0.00     0.023 A 
ATOM      5  C4  UNL d   1      -0.358   0.060   1.381  0.00  0.00     0.048 A 
ATOM      6  C5  UNL d   1      -1.071   1.039   2.075  0.00  0.00     0.003 A 
ATOM      7  I   UNL d   1       0.764  -1.349  -1.049  0.00  0.00    -0.146 I 
ENDROOT
TORSDOF 0
ENDMDL
