MODEL 1
REMARK minimizedAffinity -3.71533108
REMARK minimizedRMSD -1
REMARK  0 active torsions:
REMARK  status: ('A' for Active; 'I' for Inactive)
ROOT
ATOM      1  C   UNL d   1      -0.516   1.509   0.868  0.00  0.00     0.023 A 
ATOM      2  C1  UNL d   1      -0.064   1.764  -0.427  0.00  0.00     0.003 A 
ATOM      3  C2  UNL d   1       0.541   0.749  -1.170  0.00  0.00     0.048 A 
ATOM      4  C3  UNL d   1       0.690  -0.521  -0.613  0.00  0.00     0.023 A 
ATOM      5  C4  UNL d   1       0.238  -0.782   0.682  0.00  0.00     0.048 A 
ATOM      6  C5  UNL d   1      -0.366   0.237   1.421  0.00  0.00     0.003 A 
ATOM      7  I   UNL d   1       1.589  -2.035  -1.716  0.00  0.00    -0.146 I 
ENDROOT
TORSDOF 0
ENDMDL
