MODEL 1
REMARK minimizedAffinity -0.294555992
REMARK minimizedRMSD -1
REMARK  0 active torsions:
REMARK  status: ('A' for Active; 'I' for Inactive)
ROOT
ATOM      1  C   UNL d   1       1.478  -2.490  -0.897  0.00  0.00     0.023 A 
ATOM      2  C1  UNL d   1       0.843  -1.827  -1.947  0.00  0.00     0.003 A 
ATOM      3  C2  UNL d   1       0.085  -0.681  -1.694  0.00  0.00     0.048 A 
ATOM      4  C3  UNL d   1      -0.031  -0.203  -0.389  0.00  0.00     0.023 A 
ATOM      5  C4  UNL d   1       0.604  -0.863   0.664  0.00  0.00     0.048 A 
ATOM      6  C5  UNL d   1       1.359  -2.009   0.407  0.00  0.00     0.003 A 
ATOM      7  I   UNL d   1      -1.158   1.502  -0.010  0.00  0.00    -0.146 I 
ENDROOT
TORSDOF 0
ENDMDL
