MODEL 1
REMARK minimizedAffinity -2.5982914
REMARK minimizedRMSD -1
REMARK  0 active torsions:
REMARK  status: ('A' for Active; 'I' for Inactive)
ROOT
ATOM      1  C   UNL d   1       1.006  -0.790  -0.924  0.00  0.00     0.023 A 
ATOM      2  C1  UNL d   1       0.175   0.175  -1.492  0.00  0.00     0.003 A 
ATOM      3  C2  UNL d   1      -0.744   0.864  -0.697  0.00  0.00     0.048 A 
ATOM      4  C3  UNL d   1      -0.825   0.582   0.667  0.00  0.00     0.023 A 
ATOM      5  C4  UNL d   1       0.005  -0.382   1.240  0.00  0.00     0.048 A 
ATOM      6  C5  UNL d   1       0.922  -1.068   0.441  0.00  0.00     0.003 A 
ATOM      7  I   UNL d   1      -2.191   1.606   1.852  0.00  0.00    -0.146 I 
ENDROOT
TORSDOF 0
ENDMDL
