MODEL 1
REMARK minimizedAffinity -1.26299322
REMARK minimizedRMSD -1
REMARK  0 active torsions:
REMARK  status: ('A' for Active; 'I' for Inactive)
ROOT
ATOM      1  C   UNL d   1       0.093  -4.149  -2.529  0.00  0.00     0.023 A 
ATOM      2  C1  UNL d   1      -0.274  -3.008  -3.241  0.00  0.00     0.003 A 
ATOM      3  C2  UNL d   1      -0.024  -1.741  -2.709  0.00  0.00     0.048 A 
ATOM      4  C3  UNL d   1       0.595  -1.623  -1.465  0.00  0.00     0.023 A 
ATOM      5  C4  UNL d   1       0.965  -2.763  -0.749  0.00  0.00     0.048 A 
ATOM      6  C5  UNL d   1       0.711  -4.027  -1.285  0.00  0.00     0.003 A 
ATOM      7  I   UNL d   1       0.969   0.261  -0.672  0.00  0.00    -0.146 I 
ENDROOT
TORSDOF 0
ENDMDL
