MODEL 1
REMARK minimizedAffinity -4.49923992
REMARK minimizedRMSD -1
REMARK  0 active torsions:
REMARK  status: ('A' for Active; 'I' for Inactive)
ROOT
ATOM      1  C   UNL d   1      -1.620   1.776   1.631  0.00  0.00     0.023 A 
ATOM      2  C1  UNL d   1      -2.068   1.540   0.331  0.00  0.00     0.003 A 
ATOM      3  C2  UNL d   1      -1.636   0.408  -0.363  0.00  0.00     0.048 A 
ATOM      4  C3  UNL d   1      -0.756  -0.484   0.248  0.00  0.00     0.023 A 
ATOM      5  C4  UNL d   1      -0.305  -0.253   1.549  0.00  0.00     0.048 A 
ATOM      6  C5  UNL d   1      -0.739   0.881   2.239  0.00  0.00     0.003 A 
ATOM      7  I   UNL d   1      -0.111  -2.169  -0.783  0.00  0.00    -0.146 I 
ENDROOT
TORSDOF 0
ENDMDL
