MODEL 1
REMARK minimizedAffinity -1.71957886
REMARK minimizedRMSD -1
REMARK  0 active torsions:
REMARK  status: ('A' for Active; 'I' for Inactive)
ROOT
ATOM      1  C   UNL d   1      -0.741   3.208  -0.396  0.00  0.00     0.023 A 
ATOM      2  C1  UNL d   1       0.145   2.436  -1.147  0.00  0.00     0.003 A 
ATOM      3  C2  UNL d   1       0.373   1.102  -0.806  0.00  0.00     0.048 A 
ATOM      4  C3  UNL d   1      -0.289   0.545   0.288  0.00  0.00     0.023 A 
ATOM      5  C4  UNL d   1      -1.177   1.313   1.043  0.00  0.00     0.048 A 
ATOM      6  C5  UNL d   1      -1.401   2.647   0.698  0.00  0.00     0.003 A 
ATOM      7  I   UNL d   1       0.050  -1.441   0.799  0.00  0.00    -0.146 I 
ENDROOT
TORSDOF 0
ENDMDL
