MODEL 1
REMARK minimizedAffinity 7.24790955
REMARK minimizedRMSD -1
REMARK  2 active torsions:
REMARK  status: ('A' for Active; 'I' for Inactive)
REMARK    1  A    between atoms: C2'_3  and  C1'_4 
REMARK    2  A    between atoms: C1'_4  and  C1_5 
ROOT
ATOM      1  C1  I4B d   1       5.568  -2.218   4.270  0.00  0.00    -0.075 A 
ATOM      2  C2  I4B d   1       5.872  -2.507   5.577  0.00  0.00     0.003 A 
ATOM      3  C3  I4B d   1       5.999  -3.852   6.000  0.00  0.00     0.002 A 
ATOM      4  C4  I4B d   1       5.765  -4.872   5.100  0.00  0.00    -0.004 A 
ATOM      5  C5  I4B d   1       5.479  -4.578   3.770  0.00  0.00     0.002 A 
ATOM      6  C6  I4B d   1       5.392  -3.243   3.349  0.00  0.00     0.003 A 
ENDROOT
BRANCH   1   7
ATOM      7  C1' I4B d   1       5.409  -0.787   3.866  0.00  0.00     0.060 C 
BRANCH   7   8
ATOM      8  C2' I4B d   1       4.587  -0.750   2.594  0.00  0.00    -0.013 C 
ATOM      9  C4' I4B d   1       3.124  -0.556   2.895  0.00  0.00     0.013 C 
ATOM     10  C3' I4B d   1       5.115   0.360   1.734  0.00  0.00     0.013 C 
ENDBRANCH   7   8
ENDBRANCH   1   7
TORSDOF 2
ENDMDL
