MODEL 1
REMARK minimizedAffinity 16.2064781
REMARK minimizedRMSD -1
REMARK  2 active torsions:
REMARK  status: ('A' for Active; 'I' for Inactive)
REMARK    1  A    between atoms: C2'_3  and  C1'_4 
REMARK    2  A    between atoms: C1'_4  and  C1_5 
ROOT
ATOM      1  C1  I4B d   1       3.343   3.856  -2.506  0.00  0.00    -0.075 A 
ATOM      2  C2  I4B d   1       3.556   2.501  -2.458  0.00  0.00     0.003 A 
ATOM      3  C3  I4B d   1       3.114   1.748  -1.343  0.00  0.00     0.002 A 
ATOM      4  C4  I4B d   1       2.513   2.395  -0.282  0.00  0.00    -0.004 A 
ATOM      5  C5  I4B d   1       2.277   3.765  -0.343  0.00  0.00     0.002 A 
ATOM      6  C6  I4B d   1       2.683   4.499  -1.467  0.00  0.00     0.003 A 
ENDROOT
BRANCH   1   7
ATOM      7  C1' I4B d   1       3.852   4.624  -3.684  0.00  0.00     0.060 C 
BRANCH   7   8
ATOM      8  C2' I4B d   1       4.591   3.658  -4.587  0.00  0.00    -0.013 C 
ATOM      9  C4' I4B d   1       3.913   3.536  -5.926  0.00  0.00     0.013 C 
ATOM     10  C3' I4B d   1       6.000   4.151  -4.737  0.00  0.00     0.013 C 
ENDBRANCH   7   8
ENDBRANCH   1   7
TORSDOF 2
ENDMDL
