MODEL 1
REMARK minimizedAffinity -0.606859505
REMARK minimizedRMSD -1
REMARK  2 active torsions:
REMARK  status: ('A' for Active; 'I' for Inactive)
REMARK    1  A    between atoms: C2'_3  and  C1'_4 
REMARK    2  A    between atoms: C1'_4  and  C1_5 
ROOT
ATOM      1  C1  I4B d   1      -4.193  -3.559  -5.934  0.00  0.00    -0.075 A 
ATOM      2  C2  I4B d   1      -3.181  -2.632  -5.936  0.00  0.00     0.003 A 
ATOM      3  C3  I4B d   1      -1.830  -3.052  -5.984  0.00  0.00     0.002 A 
ATOM      4  C4  I4B d   1      -1.537  -4.400  -5.978  0.00  0.00    -0.004 A 
ATOM      5  C5  I4B d   1      -2.565  -5.338  -5.999  0.00  0.00     0.002 A 
ATOM      6  C6  I4B d   1      -3.902  -4.915  -5.989  0.00  0.00     0.003 A 
ENDROOT
BRANCH   1   7
ATOM      7  C1' I4B d   1      -5.608  -3.081  -5.849  0.00  0.00     0.060 C 
BRANCH   7   8
ATOM      8  C2' I4B d   1      -5.999  -3.037  -4.385  0.00  0.00    -0.013 C 
ATOM      9  C4' I4B d   1      -5.369  -4.169  -3.618  0.00  0.00     0.013 C 
ATOM     10  C3' I4B d   1      -5.577  -1.708  -3.833  0.00  0.00     0.013 C 
ENDBRANCH   7   8
ENDBRANCH   1   7
TORSDOF 2
ENDMDL
