MODEL 1
REMARK minimizedAffinity 12.5022211
REMARK minimizedRMSD -1
REMARK  2 active torsions:
REMARK  status: ('A' for Active; 'I' for Inactive)
REMARK    1  A    between atoms: C2'_3  and  C1'_4 
REMARK    2  A    between atoms: C1'_4  and  C1_5 
ROOT
ATOM      1  C1  I4B d   1      -2.062  -1.227   1.831  0.00  0.00    -0.075 A 
ATOM      2  C2  I4B d   1      -1.153  -2.029   1.188  0.00  0.00     0.003 A 
ATOM      3  C3  I4B d   1      -1.480  -3.371   0.876  0.00  0.00     0.002 A 
ATOM      4  C4  I4B d   1      -2.701  -3.881   1.268  0.00  0.00    -0.004 A 
ATOM      5  C5  I4B d   1      -3.631  -3.060   1.899  0.00  0.00     0.002 A 
ATOM      6  C6  I4B d   1      -3.315  -1.721   2.172  0.00  0.00     0.003 A 
ENDROOT
BRANCH   1   7
ATOM      7  C1' I4B d   1      -1.671   0.175   2.174  0.00  0.00     0.060 C 
BRANCH   7   8
ATOM      8  C2' I4B d   1      -2.225   1.090   1.101  0.00  0.00    -0.013 C 
ATOM      9  C4' I4B d   1      -2.648   2.415   1.679  0.00  0.00     0.013 C 
ATOM     10  C3' I4B d   1      -1.167   1.270   0.054  0.00  0.00     0.013 C 
ENDBRANCH   7   8
ENDBRANCH   1   7
TORSDOF 2
ENDMDL
