MODEL 1
REMARK minimizedAffinity 14.3233051
REMARK minimizedRMSD -1
REMARK  2 active torsions:
REMARK  status: ('A' for Active; 'I' for Inactive)
REMARK    1  A    between atoms: C2'_3  and  C1'_4 
REMARK    2  A    between atoms: C1'_4  and  C1_5 
ROOT
ATOM      1  C1  I4B d   1      -5.076  -4.179  -0.846  0.00  0.00    -0.075 A 
ATOM      2  C2  I4B d   1      -4.839  -3.448   0.291  0.00  0.00     0.003 A 
ATOM      3  C3  I4B d   1      -4.012  -3.971   1.315  0.00  0.00     0.002 A 
ATOM      4  C4  I4B d   1      -3.489  -5.241   1.184  0.00  0.00    -0.004 A 
ATOM      5  C5  I4B d   1      -3.711  -5.971   0.020  0.00  0.00     0.002 A 
ATOM      6  C6  I4B d   1      -4.500  -5.432  -1.007  0.00  0.00     0.003 A 
ENDROOT
BRANCH   1   7
ATOM      7  C1' I4B d   1      -5.980  -3.610  -1.893  0.00  0.00     0.060 C 
BRANCH   7   8
ATOM      8  C2' I4B d   1      -5.248  -2.470  -2.573  0.00  0.00    -0.013 C 
ATOM      9  C4' I4B d   1      -5.123  -2.709  -4.054  0.00  0.00     0.013 C 
ATOM     10  C3' I4B d   1      -5.999  -1.204  -2.290  0.00  0.00     0.013 C 
ENDBRANCH   7   8
ENDBRANCH   1   7
TORSDOF 2
ENDMDL
