MODEL 1
REMARK minimizedAffinity 13.4603682
REMARK minimizedRMSD -1
REMARK  2 active torsions:
REMARK  status: ('A' for Active; 'I' for Inactive)
REMARK    1  A    between atoms: C2'_3  and  C1'_4 
REMARK    2  A    between atoms: C1'_4  and  C1_5 
ROOT
ATOM      1  C1  I4B d   1       0.537  -0.716  -3.483  0.00  0.00    -0.075 A 
ATOM      2  C2  I4B d   1       0.303  -2.068  -3.469  0.00  0.00     0.003 A 
ATOM      3  C3  I4B d   1      -0.569  -2.650  -4.422  0.00  0.00     0.002 A 
ATOM      4  C4  I4B d   1      -1.220  -1.842  -5.331  0.00  0.00    -0.004 A 
ATOM      5  C5  I4B d   1      -0.963  -0.474  -5.358  0.00  0.00     0.002 A 
ATOM      6  C6  I4B d   1      -0.070   0.092  -4.436  0.00  0.00     0.003 A 
ENDROOT
BRANCH   1   7
ATOM      7  C1' I4B d   1       1.437  -0.130  -2.442  0.00  0.00     0.060 C 
BRANCH   7   8
ATOM      8  C2' I4B d   1       0.742   1.079  -1.850  0.00  0.00    -0.013 C 
ATOM      9  C4' I4B d   1      -0.103   0.696  -0.663  0.00  0.00     0.013 C 
ATOM     10  C3' I4B d   1       1.793   2.077  -1.467  0.00  0.00     0.013 C 
ENDBRANCH   7   8
ENDBRANCH   1   7
TORSDOF 2
ENDMDL
