MODEL 1
REMARK minimizedAffinity 11.9760408
REMARK minimizedRMSD -1
REMARK  2 active torsions:
REMARK  status: ('A' for Active; 'I' for Inactive)
REMARK    1  A    between atoms: C2'_3  and  C1'_4 
REMARK    2  A    between atoms: C1'_4  and  C1_5 
ROOT
ATOM      1  C1  I4B d   1       3.089   3.916  -2.415  0.00  0.00    -0.075 A 
ATOM      2  C2  I4B d   1       2.783   4.587  -1.257  0.00  0.00     0.003 A 
ATOM      3  C3  I4B d   1       2.258   3.885  -0.145  0.00  0.00     0.002 A 
ATOM      4  C4  I4B d   1       2.009   2.532  -0.250  0.00  0.00    -0.004 A 
ATOM      5  C5  I4B d   1       2.341   1.850  -1.417  0.00  0.00     0.002 A 
ATOM      6  C6  I4B d   1       2.896   2.544  -2.503  0.00  0.00     0.003 A 
ENDROOT
BRANCH   1   7
ATOM      7  C1' I4B d   1       3.611   4.693  -3.582  0.00  0.00     0.060 C 
BRANCH   7   8
ATOM      8  C2' I4B d   1       4.341   3.730  -4.496  0.00  0.00    -0.013 C 
ATOM      9  C4' I4B d   1       3.740   3.728  -5.877  0.00  0.00     0.013 C 
ATOM     10  C3' I4B d   1       5.785   4.132  -4.534  0.00  0.00     0.013 C 
ENDBRANCH   7   8
ENDBRANCH   1   7
TORSDOF 2
ENDMDL
