MODEL 1
REMARK minimizedAffinity 11.3178883
REMARK minimizedRMSD -1
REMARK  2 active torsions:
REMARK  status: ('A' for Active; 'I' for Inactive)
REMARK    1  A    between atoms: C2'_3  and  C1'_4 
REMARK    2  A    between atoms: C1'_4  and  C1_5 
ROOT
ATOM      1  C1  I4B d   1       2.175   0.309  -3.045  0.00  0.00    -0.075 A 
ATOM      2  C2  I4B d   1       3.375   0.461  -2.397  0.00  0.00     0.003 A 
ATOM      3  C3  I4B d   1       3.432   1.128  -1.149  0.00  0.00     0.002 A 
ATOM      4  C4  I4B d   1       2.280   1.667  -0.614  0.00  0.00    -0.004 A 
ATOM      5  C5  I4B d   1       1.060   1.492  -1.261  0.00  0.00     0.002 A 
ATOM      6  C6  I4B d   1       1.005   0.798  -2.479  0.00  0.00     0.003 A 
ENDROOT
BRANCH   1   7
ATOM      7  C1' I4B d   1       2.157  -0.371  -4.377  0.00  0.00     0.060 C 
BRANCH   7   8
ATOM      8  C2' I4B d   1       3.375   0.090  -5.153  0.00  0.00    -0.013 C 
ATOM      9  C4' I4B d   1       3.935  -1.023  -6.000  0.00  0.00     0.013 C 
ATOM     10  C3' I4B d   1       2.969   1.261  -5.998  0.00  0.00     0.013 C 
ENDBRANCH   7   8
ENDBRANCH   1   7
TORSDOF 2
ENDMDL
