MODEL 1
REMARK minimizedAffinity 7.71916103
REMARK minimizedRMSD -1
REMARK  2 active torsions:
REMARK  status: ('A' for Active; 'I' for Inactive)
REMARK    1  A    between atoms: C2'_3  and  C1'_4 
REMARK    2  A    between atoms: C1'_4  and  C1_5 
ROOT
ATOM      1  C1  I4B d   1      -0.740  -0.337   3.815  0.00  0.00    -0.075 A 
ATOM      2  C2  I4B d   1      -0.567   0.930   3.318  0.00  0.00     0.003 A 
ATOM      3  C3  I4B d   1       0.735   1.425   3.064  0.00  0.00     0.002 A 
ATOM      4  C4  I4B d   1       1.830   0.643   3.368  0.00  0.00    -0.004 A 
ATOM      5  C5  I4B d   1       1.653  -0.650   3.851  0.00  0.00     0.002 A 
ATOM      6  C6  I4B d   1       0.360  -1.149   4.064  0.00  0.00     0.003 A 
ENDROOT
BRANCH   1   7
ATOM      7  C1' I4B d   1      -2.127  -0.816   4.103  0.00  0.00     0.060 C 
BRANCH   7   8
ATOM      8  C2' I4B d   1      -2.344  -0.748   5.601  0.00  0.00    -0.013 C 
ATOM      9  C4' I4B d   1      -2.990   0.553   5.999  0.00  0.00     0.013 C 
ATOM     10  C3' I4B d   1      -3.193  -1.918   6.000  0.00  0.00     0.013 C 
ENDBRANCH   7   8
ENDBRANCH   1   7
TORSDOF 2
ENDMDL
