MODEL 1
REMARK minimizedAffinity 5.55683565
REMARK minimizedRMSD -1
REMARK  2 active torsions:
REMARK  status: ('A' for Active; 'I' for Inactive)
REMARK    1  A    between atoms: C2'_3  and  C1'_4 
REMARK    2  A    between atoms: C1'_4  and  C1_5 
ROOT
ATOM      1  C1  I4B d   1       1.082   0.811  -1.417  0.00  0.00    -0.075 A 
ATOM      2  C2  I4B d   1       0.658   0.822  -0.111  0.00  0.00     0.003 A 
ATOM      3  C3  I4B d   1       0.937   1.935   0.719  0.00  0.00     0.002 A 
ATOM      4  C4  I4B d   1       1.682   2.985   0.221  0.00  0.00    -0.004 A 
ATOM      5  C5  I4B d   1       2.091   2.982  -1.109  0.00  0.00     0.002 A 
ATOM      6  C6  I4B d   1       1.779   1.894  -1.937  0.00  0.00     0.003 A 
ENDROOT
BRANCH   1   7
ATOM      7  C1' I4B d   1       0.798  -0.394  -2.256  0.00  0.00     0.060 C 
BRANCH   7   8
ATOM      8  C2' I4B d   1       0.868   0.023  -3.711  0.00  0.00    -0.013 C 
ATOM      9  C4' I4B d   1       2.023  -0.639  -4.414  0.00  0.00     0.013 C 
ATOM     10  C3' I4B d   1      -0.437  -0.335  -4.358  0.00  0.00     0.013 C 
ENDBRANCH   7   8
ENDBRANCH   1   7
TORSDOF 2
ENDMDL
