MODEL 1
REMARK minimizedAffinity 20.2365761
REMARK minimizedRMSD -1
REMARK  2 active torsions:
REMARK  status: ('A' for Active; 'I' for Inactive)
REMARK    1  A    between atoms: C2'_3  and  C1'_4 
REMARK    2  A    between atoms: C1'_4  and  C1_5 
ROOT
ATOM      1  C1  I4B d   1       2.080   1.418  -2.314  0.00  0.00    -0.075 A 
ATOM      2  C2  I4B d   1       2.900   2.357  -2.889  0.00  0.00     0.003 A 
ATOM      3  C3  I4B d   1       2.599   3.736  -2.768  0.00  0.00     0.002 A 
ATOM      4  C4  I4B d   1       1.449   4.125  -2.111  0.00  0.00    -0.004 A 
ATOM      5  C5  I4B d   1       0.632   3.173  -1.510  0.00  0.00     0.002 A 
ATOM      6  C6  I4B d   1       0.955   1.811  -1.601  0.00  0.00     0.003 A 
ENDROOT
BRANCH   1   7
ATOM      7  C1' I4B d   1       2.410  -0.030  -2.489  0.00  0.00     0.060 C 
BRANCH   7   8
ATOM      8  C2' I4B d   1       2.015  -0.432  -3.896  0.00  0.00    -0.013 C 
ATOM      9  C4' I4B d   1       3.200  -0.944  -4.670  0.00  0.00     0.013 C 
ATOM     10  C3' I4B d   1       0.943  -1.476  -3.795  0.00  0.00     0.013 C 
ENDBRANCH   7   8
ENDBRANCH   1   7
TORSDOF 2
ENDMDL
