MODEL 1
REMARK minimizedAffinity 9.74180984
REMARK minimizedRMSD -1
REMARK  2 active torsions:
REMARK  status: ('A' for Active; 'I' for Inactive)
REMARK    1  A    between atoms: C2'_3  and  C1'_4 
REMARK    2  A    between atoms: C1'_4  and  C1_5 
ROOT
ATOM      1  C1  I4B d   1       1.415   0.564  -1.834  0.00  0.00    -0.075 A 
ATOM      2  C2  I4B d   1       0.703  -0.608  -1.782  0.00  0.00     0.003 A 
ATOM      3  C3  I4B d   1       0.935  -1.627  -2.738  0.00  0.00     0.002 A 
ATOM      4  C4  I4B d   1       1.847  -1.412  -3.751  0.00  0.00    -0.004 A 
ATOM      5  C5  I4B d   1       2.584  -0.232  -3.789  0.00  0.00     0.002 A 
ATOM      6  C6  I4B d   1       2.377   0.757  -2.817  0.00  0.00     0.003 A 
ENDROOT
BRANCH   1   7
ATOM      7  C1' I4B d   1       1.121   1.631  -0.828  0.00  0.00     0.060 C 
BRANCH   7   8
ATOM      8  C2' I4B d   1       2.286   2.600  -0.822  0.00  0.00    -0.013 C 
ATOM      9  C4' I4B d   1       1.995   3.808  -1.674  0.00  0.00     0.013 C 
ATOM     10  C3' I4B d   1       2.554   2.993   0.600  0.00  0.00     0.013 C 
ENDBRANCH   7   8
ENDBRANCH   1   7
TORSDOF 2
ENDMDL
