MODEL 1
REMARK minimizedAffinity -1.9812727
REMARK minimizedRMSD -1
REMARK  0 active torsions:
REMARK  status: ('A' for Active; 'I' for Inactive)
ROOT
ATOM      1  C2' OXE d   1       1.357  -1.178   0.425  0.00  0.00     0.078 C 
ATOM      2  C1' OXE d   1       0.647  -0.818   3.117  0.00  0.00     0.078 C 
ATOM      3  C1  OXE d   1      -0.434  -0.659   2.077  0.00  0.00    -0.078 A 
ATOM      4  C2  OXE d   1      -0.068  -0.791   0.759  0.00  0.00    -0.078 A 
ATOM      5  C3  OXE d   1      -1.036  -0.707  -0.237  0.00  0.00     0.003 A 
ATOM      6  C4  OXE d   1      -2.349  -0.338   0.080  0.00  0.00    -0.002 A 
ATOM      7  C5  OXE d   1      -2.734  -0.160   1.413  0.00  0.00    -0.002 A 
ATOM      8  C6  OXE d   1      -1.801  -0.358   2.424  0.00  0.00     0.003 A 
ENDROOT
TORSDOF 0
ENDMDL
