MODEL 1
REMARK minimizedAffinity 3.22502804
REMARK minimizedRMSD -1
REMARK  0 active torsions:
REMARK  status: ('A' for Active; 'I' for Inactive)
ROOT
ATOM      1  C2' OXE d   1       2.622   1.096   0.580  0.00  0.00     0.078 C 
ATOM      2  C1' OXE d   1       0.145  -0.178   0.934  0.00  0.00     0.078 C 
ATOM      3  C1  OXE d   1       1.170  -0.314   2.033  0.00  0.00    -0.078 A 
ATOM      4  C2  OXE d   1       2.396   0.274   1.830  0.00  0.00    -0.078 A 
ATOM      5  C3  OXE d   1       3.358   0.225   2.835  0.00  0.00     0.003 A 
ATOM      6  C4  OXE d   1       3.144  -0.546   3.984  0.00  0.00    -0.002 A 
ATOM      7  C5  OXE d   1       1.918  -1.186   4.192  0.00  0.00    -0.002 A 
ATOM      8  C6  OXE d   1       0.907  -1.045   3.248  0.00  0.00     0.003 A 
ENDROOT
TORSDOF 0
ENDMDL
