MODEL 1
REMARK minimizedAffinity -2.09057689
REMARK minimizedRMSD -1
REMARK  0 active torsions:
REMARK  status: ('A' for Active; 'I' for Inactive)
ROOT
ATOM      1  C2' OXE d   1       0.937  -0.554   1.121  0.00  0.00     0.078 C 
ATOM      2  C1' OXE d   1      -1.318   0.016   2.693  0.00  0.00     0.078 C 
ATOM      3  C1  OXE d   1      -0.119  -0.592   3.377  0.00  0.00    -0.078 A 
ATOM      4  C2  OXE d   1       0.963  -0.911   2.591  0.00  0.00    -0.078 A 
ATOM      5  C3  OXE d   1       2.115  -1.423   3.180  0.00  0.00     0.003 A 
ATOM      6  C4  OXE d   1       2.127  -1.759   4.539  0.00  0.00    -0.002 A 
ATOM      7  C5  OXE d   1       1.022  -1.479   5.350  0.00  0.00    -0.002 A 
ATOM      8  C6  OXE d   1      -0.091  -0.858   4.794  0.00  0.00     0.003 A 
ENDROOT
TORSDOF 0
ENDMDL
