MODEL 1
REMARK minimizedAffinity 7.96716833
REMARK minimizedRMSD -1
REMARK  0 active torsions:
REMARK  status: ('A' for Active; 'I' for Inactive)
ROOT
ATOM      1  C2' OXE d   1       3.090  -0.863   3.344  0.00  0.00     0.078 C 
ATOM      2  C1' OXE d   1       4.763   1.391   3.324  0.00  0.00     0.078 C 
ATOM      3  C1  OXE d   1       3.914   1.134   2.104  0.00  0.00    -0.078 A 
ATOM      4  C2  OXE d   1       3.133   0.003   2.104  0.00  0.00    -0.078 A 
ATOM      5  C3  OXE d   1       2.290  -0.252   1.026  0.00  0.00     0.003 A 
ATOM      6  C4  OXE d   1       2.344   0.549  -0.121  0.00  0.00    -0.002 A 
ATOM      7  C5  OXE d   1       3.162   1.684  -0.157  0.00  0.00    -0.002 A 
ATOM      8  C6  OXE d   1       3.919   2.013   0.961  0.00  0.00     0.003 A 
ENDROOT
TORSDOF 0
ENDMDL
