MODEL 1
REMARK minimizedAffinity 4.67192125
REMARK minimizedRMSD -1
REMARK  0 active torsions:
REMARK  status: ('A' for Active; 'I' for Inactive)
ROOT
ATOM      1  C2' OXE d   1       1.725  -0.813   1.556  0.00  0.00     0.078 C 
ATOM      2  C1' OXE d   1       0.292  -1.085   3.955  0.00  0.00     0.078 C 
ATOM      3  C1  OXE d   1      -0.463  -0.625   2.733  0.00  0.00    -0.078 A 
ATOM      4  C2  OXE d   1       0.256  -0.449   1.575  0.00  0.00    -0.078 A 
ATOM      5  C3  OXE d   1      -0.401  -0.079   0.405  0.00  0.00     0.003 A 
ATOM      6  C4  OXE d   1      -1.758   0.265   0.433  0.00  0.00    -0.002 A 
ATOM      7  C5  OXE d   1      -2.500   0.131   1.611  0.00  0.00    -0.002 A 
ATOM      8  C6  OXE d   1      -1.878  -0.352   2.757  0.00  0.00     0.003 A 
ENDROOT
TORSDOF 0
ENDMDL
