MODEL 1
REMARK minimizedAffinity 4.42394352
REMARK minimizedRMSD -1
REMARK  0 active torsions:
REMARK  status: ('A' for Active; 'I' for Inactive)
ROOT
ATOM      1  C2' OXE d   1      -0.792   0.405  -1.505  0.00  0.00     0.078 C 
ATOM      2  C1' OXE d   1       1.018   0.917   0.579  0.00  0.00     0.078 C 
ATOM      3  C1  OXE d   1      -0.348   0.392   0.946  0.00  0.00    -0.078 A 
ATOM      4  C2  OXE d   1      -1.243   0.189  -0.076  0.00  0.00    -0.078 A 
ATOM      5  C3  OXE d   1      -2.498  -0.345   0.202  0.00  0.00     0.003 A 
ATOM      6  C4  OXE d   1      -2.911  -0.532   1.527  0.00  0.00    -0.002 A 
ATOM      7  C5  OXE d   1      -2.028  -0.294   2.586  0.00  0.00    -0.002 A 
ATOM      8  C6  OXE d   1      -0.732   0.127   2.311  0.00  0.00     0.003 A 
ENDROOT
TORSDOF 0
ENDMDL
