MODEL 1
REMARK minimizedAffinity 14.0913925
REMARK minimizedRMSD -1
REMARK  0 active torsions:
REMARK  status: ('A' for Active; 'I' for Inactive)
ROOT
ATOM      1  C   UNL d   1       0.899   0.930  -4.261  0.00  0.00     0.124 A 
ATOM      2  C1  UNL d   1       1.519   1.294  -3.073  0.00  0.00     0.062 A 
ATOM      3  C2  UNL d   1       1.804   0.332  -2.109  0.00  0.00     0.162 A 
ATOM      4  C3  UNL d   1       1.471  -1.004  -2.328  0.00  0.00    -0.034 A 
ATOM      5  C4  UNL d   1       0.848  -1.363  -3.524  0.00  0.00     0.162 A 
ATOM      6  C5  UNL d   1       0.565  -0.398  -4.485  0.00  0.00     0.062 A 
ATOM      7  F   UNL d   1      -0.034  -0.752  -5.632  0.00  0.00    -0.097 F 
ATOM      8  F1  UNL d   1       0.514  -2.639  -3.767  0.00  0.00    -0.096 F 
ATOM      9  I   UNL d   1       1.896  -2.446  -0.888  0.00  0.00    -0.060 I 
ATOM     10  F2  UNL d   1       2.403   0.713  -0.970  0.00  0.00    -0.096 F 
ATOM     11  F3  UNL d   1       1.842   2.577  -2.854  0.00  0.00    -0.097 F 
ATOM     12  F4  UNL d   1       0.625   1.857  -5.187  0.00  0.00    -0.092 F 
ENDROOT
TORSDOF 0
ENDMDL
