MODEL 1
REMARK minimizedAffinity 7.40937662
REMARK minimizedRMSD -1
REMARK  0 active torsions:
REMARK  status: ('A' for Active; 'I' for Inactive)
ROOT
ATOM      1  C   UNL d   1       4.765   5.914   1.659  0.00  0.00     0.124 A 
ATOM      2  C1  UNL d   1       4.808   5.910   0.271  0.00  0.00     0.062 A 
ATOM      3  C2  UNL d   1       3.627   5.933  -0.466  0.00  0.00     0.162 A 
ATOM      4  C3  UNL d   1       2.393   5.961   0.184  0.00  0.00    -0.034 A 
ATOM      5  C4  UNL d   1       2.358   5.964   1.579  0.00  0.00     0.162 A 
ATOM      6  C5  UNL d   1       3.540   5.941   2.311  0.00  0.00     0.062 A 
ATOM      7  F   UNL d   1       3.497   5.945   3.651  0.00  0.00    -0.097 F 
ATOM      8  F1  UNL d   1       1.188   5.990   2.235  0.00  0.00    -0.096 F 
ATOM      9  I   UNL d   1       0.625   5.995  -0.914  0.00  0.00    -0.060 I 
ATOM     10  F2  UNL d   1       3.698   5.929  -1.805  0.00  0.00    -0.096 F 
ATOM     11  F3  UNL d   1       5.989   5.884  -0.362  0.00  0.00    -0.097 F 
ATOM     12  F4  UNL d   1       5.902   5.892   2.365  0.00  0.00    -0.092 F 
ENDROOT
TORSDOF 0
ENDMDL
