MODEL 1
REMARK minimizedAffinity 18.1677151
REMARK minimizedRMSD -1
REMARK  0 active torsions:
REMARK  status: ('A' for Active; 'I' for Inactive)
ROOT
ATOM      1  C   UNL d   1       1.975  -2.688  -1.256  0.00  0.00     0.124 A 
ATOM      2  C1  UNL d   1       2.422  -1.507  -0.682  0.00  0.00     0.062 A 
ATOM      3  C2  UNL d   1       2.207  -0.291  -1.324  0.00  0.00     0.162 A 
ATOM      4  C3  UNL d   1       1.540  -0.250  -2.548  0.00  0.00    -0.034 A 
ATOM      5  C4  UNL d   1       1.094  -1.443  -3.120  0.00  0.00     0.162 A 
ATOM      6  C5  UNL d   1       1.312  -2.655  -2.475  0.00  0.00     0.062 A 
ATOM      7  F   UNL d   1       0.879  -3.796  -3.031  0.00  0.00    -0.097 F 
ATOM      8  F1  UNL d   1       0.449  -1.440  -4.297  0.00  0.00    -0.096 F 
ATOM      9  I   UNL d   1       1.216   1.566  -3.512  0.00  0.00    -0.060 I 
ATOM     10  F2  UNL d   1       2.650   0.835  -0.745  0.00  0.00    -0.096 F 
ATOM     11  F3  UNL d   1       3.064  -1.536   0.495  0.00  0.00    -0.097 F 
ATOM     12  F4  UNL d   1       2.185  -3.857  -0.637  0.00  0.00    -0.092 F 
ENDROOT
TORSDOF 0
ENDMDL
