MODEL 1
REMARK minimizedAffinity 24.0448246
REMARK minimizedRMSD -1
REMARK  0 active torsions:
REMARK  status: ('A' for Active; 'I' for Inactive)
ROOT
ATOM      1  C   UNL d   1       1.016  -0.347  -4.548  0.00  0.00     0.124 A 
ATOM      2  C1  UNL d   1       0.978  -1.535  -3.831  0.00  0.00     0.062 A 
ATOM      3  C2  UNL d   1       1.652  -1.642  -2.617  0.00  0.00     0.162 A 
ATOM      4  C3  UNL d   1       2.369  -0.557  -2.113  0.00  0.00    -0.034 A 
ATOM      5  C4  UNL d   1       2.404   0.634  -2.840  0.00  0.00     0.162 A 
ATOM      6  C5  UNL d   1       1.729   0.736  -4.052  0.00  0.00     0.062 A 
ATOM      7  F   UNL d   1       1.767   1.884  -4.744  0.00  0.00    -0.097 F 
ATOM      8  F1  UNL d   1       3.084   1.696  -2.384  0.00  0.00    -0.096 F 
ATOM      9  I   UNL d   1       3.378  -0.713  -0.299  0.00  0.00    -0.060 I 
ATOM     10  F2  UNL d   1       1.597  -2.802  -1.946  0.00  0.00    -0.096 F 
ATOM     11  F3  UNL d   1       0.291  -2.583  -4.308  0.00  0.00    -0.097 F 
ATOM     12  F4  UNL d   1       0.367  -0.247  -5.715  0.00  0.00    -0.092 F 
ENDROOT
TORSDOF 0
ENDMDL
