MODEL 1
REMARK minimizedAffinity 14.6528683
REMARK minimizedRMSD -1
REMARK  0 active torsions:
REMARK  status: ('A' for Active; 'I' for Inactive)
ROOT
ATOM      1  C   UNL d   1       1.695  -0.261  -2.172  0.00  0.00     0.124 A 
ATOM      2  C1  UNL d   1       1.525  -1.515  -1.602  0.00  0.00     0.062 A 
ATOM      3  C2  UNL d   1       0.289  -1.885  -1.079  0.00  0.00     0.162 A 
ATOM      4  C3  UNL d   1      -0.787  -0.999  -1.124  0.00  0.00    -0.034 A 
ATOM      5  C4  UNL d   1      -0.608   0.262  -1.697  0.00  0.00     0.162 A 
ATOM      6  C5  UNL d   1       0.629   0.626  -2.218  0.00  0.00     0.062 A 
ATOM      7  F   UNL d   1       0.792   1.839  -2.768  0.00  0.00    -0.097 F 
ATOM      8  F1  UNL d   1      -1.622   1.138  -1.756  0.00  0.00    -0.096 F 
ATOM      9  I   UNL d   1      -2.637  -1.547  -0.343  0.00  0.00    -0.060 I 
ATOM     10  F2  UNL d   1       0.153  -3.103  -0.535  0.00  0.00    -0.096 F 
ATOM     11  F3  UNL d   1       2.554  -2.374  -1.555  0.00  0.00    -0.097 F 
ATOM     12  F4  UNL d   1       2.886   0.092  -2.673  0.00  0.00    -0.092 F 
ENDROOT
TORSDOF 0
ENDMDL
