MODEL 1
REMARK minimizedAffinity 28.2120132
REMARK minimizedRMSD -1
REMARK  0 active torsions:
REMARK  status: ('A' for Active; 'I' for Inactive)
ROOT
ATOM      1  C   UNL d   1       2.443  -2.190  -1.702  0.00  0.00     0.124 A 
ATOM      2  C1  UNL d   1       1.088  -2.283  -1.989  0.00  0.00     0.062 A 
ATOM      3  C2  UNL d   1       0.247  -3.025  -1.163  0.00  0.00     0.162 A 
ATOM      4  C3  UNL d   1       0.759  -3.678  -0.042  0.00  0.00    -0.034 A 
ATOM      5  C4  UNL d   1       2.123  -3.581   0.239  0.00  0.00     0.162 A 
ATOM      6  C5  UNL d   1       2.959  -2.839  -0.589  0.00  0.00     0.062 A 
ATOM      7  F   UNL d   1       4.268  -2.750  -0.311  0.00  0.00    -0.097 F 
ATOM      8  F1  UNL d   1       2.648  -4.197   1.308  0.00  0.00    -0.096 F 
ATOM      9  I   UNL d   1      -0.494  -4.788   1.194  0.00  0.00    -0.060 I 
ATOM     10  F2  UNL d   1      -1.058  -3.097  -1.464  0.00  0.00    -0.096 F 
ATOM     11  F3  UNL d   1       0.587  -1.658  -3.064  0.00  0.00    -0.097 F 
ATOM     12  F4  UNL d   1       3.250  -1.477  -2.499  0.00  0.00    -0.092 F 
ENDROOT
TORSDOF 0
ENDMDL
