MODEL 1
REMARK minimizedAffinity 7.79754496
REMARK minimizedRMSD -1
REMARK  0 active torsions:
REMARK  status: ('A' for Active; 'I' for Inactive)
ROOT
ATOM      1  C   UNL d   1      -0.264  -2.109  -1.509  0.00  0.00     0.124 A 
ATOM      2  C1  UNL d   1       0.508  -1.158  -0.856  0.00  0.00     0.062 A 
ATOM      3  C2  UNL d   1       0.005  -0.494   0.259  0.00  0.00     0.162 A 
ATOM      4  C3  UNL d   1      -1.277  -0.779   0.729  0.00  0.00    -0.034 A 
ATOM      5  C4  UNL d   1      -2.048  -1.735   0.066  0.00  0.00     0.162 A 
ATOM      6  C5  UNL d   1      -1.541  -2.397  -1.048  0.00  0.00     0.062 A 
ATOM      7  F   UNL d   1      -2.288  -3.315  -1.678  0.00  0.00    -0.097 F 
ATOM      8  F1  UNL d   1      -3.284  -2.033   0.491  0.00  0.00    -0.096 F 
ATOM      9  I   UNL d   1      -2.032   0.212   2.396  0.00  0.00    -0.060 I 
ATOM     10  F2  UNL d   1       0.774   0.420   0.871  0.00  0.00    -0.096 F 
ATOM     11  F3  UNL d   1       1.742  -0.878  -1.300  0.00  0.00    -0.097 F 
ATOM     12  F4  UNL d   1       0.222  -2.746  -2.582  0.00  0.00    -0.092 F 
ENDROOT
TORSDOF 0
ENDMDL
