MODEL 1
REMARK minimizedAffinity 11.5639353
REMARK minimizedRMSD -1
REMARK  0 active torsions:
REMARK  status: ('A' for Active; 'I' for Inactive)
ROOT
ATOM      1  C   UNL d   1      -1.848   0.649   2.011  0.00  0.00     0.124 A 
ATOM      2  C1  UNL d   1      -2.037   0.130   0.738  0.00  0.00     0.062 A 
ATOM      3  C2  UNL d   1      -3.098  -0.735   0.485  0.00  0.00     0.162 A 
ATOM      4  C3  UNL d   1      -3.979  -1.086   1.508  0.00  0.00    -0.034 A 
ATOM      5  C4  UNL d   1      -3.781  -0.562   2.786  0.00  0.00     0.162 A 
ATOM      6  C5  UNL d   1      -2.720   0.302   3.034  0.00  0.00     0.062 A 
ATOM      7  F   UNL d   1      -2.538   0.802   4.265  0.00  0.00    -0.097 F 
ATOM      8  F1  UNL d   1      -4.609  -0.878   3.793  0.00  0.00    -0.096 F 
ATOM      9  I   UNL d   1      -5.566  -2.379   1.134  0.00  0.00    -0.060 I 
ATOM     10  F2  UNL d   1      -3.257  -1.221  -0.755  0.00  0.00    -0.096 F 
ATOM     11  F3  UNL d   1      -1.195   0.462  -0.252  0.00  0.00    -0.097 F 
ATOM     12  F4  UNL d   1      -0.826   1.480   2.252  0.00  0.00    -0.092 F 
ENDROOT
TORSDOF 0
ENDMDL
