MODEL 1
REMARK minimizedAffinity 17.1686878
REMARK minimizedRMSD -1
REMARK  0 active torsions:
REMARK  status: ('A' for Active; 'I' for Inactive)
ROOT
ATOM      1  C   UNL d   1       2.407  -0.150  -2.252  0.00  0.00     0.124 A 
ATOM      2  C1  UNL d   1       3.715  -0.411  -1.868  0.00  0.00     0.062 A 
ATOM      3  C2  UNL d   1       4.742  -0.369  -2.806  0.00  0.00     0.162 A 
ATOM      4  C3  UNL d   1       4.466  -0.063  -4.139  0.00  0.00    -0.034 A 
ATOM      5  C4  UNL d   1       3.148   0.197  -4.518  0.00  0.00     0.162 A 
ATOM      6  C5  UNL d   1       2.125   0.154  -3.577  0.00  0.00     0.062 A 
ATOM      7  F   UNL d   1       0.862   0.406  -3.950  0.00  0.00    -0.097 F 
ATOM      8  F1  UNL d   1       2.848   0.494  -5.791  0.00  0.00    -0.096 F 
ATOM      9  I   UNL d   1       5.999   0.001  -5.544  0.00  0.00    -0.060 I 
ATOM     10  F2  UNL d   1       5.997  -0.625  -2.406  0.00  0.00    -0.096 F 
ATOM     11  F3  UNL d   1       3.990  -0.705  -0.589  0.00  0.00    -0.097 F 
ATOM     12  F4  UNL d   1       1.421  -0.192  -1.348  0.00  0.00    -0.092 F 
ENDROOT
TORSDOF 0
ENDMDL
