MODEL 1
REMARK minimizedAffinity 13.7215652
REMARK minimizedRMSD -1
REMARK  0 active torsions:
REMARK  status: ('A' for Active; 'I' for Inactive)
ROOT
ATOM      1  C   UNL d   1       1.301   1.351  -2.395  0.00  0.00     0.124 A 
ATOM      2  C1  UNL d   1       1.895   0.119  -2.159  0.00  0.00     0.062 A 
ATOM      3  C2  UNL d   1       1.112  -0.983  -1.825  0.00  0.00     0.162 A 
ATOM      4  C3  UNL d   1      -0.274  -0.857  -1.726  0.00  0.00    -0.034 A 
ATOM      5  C4  UNL d   1      -0.863   0.386  -1.963  0.00  0.00     0.162 A 
ATOM      6  C5  UNL d   1      -0.076   1.484  -2.297  0.00  0.00     0.062 A 
ATOM      7  F   UNL d   1      -0.652   2.674  -2.525  0.00  0.00    -0.097 F 
ATOM      8  F1  UNL d   1      -2.193   0.542  -1.876  0.00  0.00    -0.096 F 
ATOM      9  I   UNL d   1      -1.448  -2.501  -1.226  0.00  0.00    -0.060 I 
ATOM     10  F2  UNL d   1       1.712  -2.161  -1.602  0.00  0.00    -0.096 F 
ATOM     11  F3  UNL d   1       3.226  -0.012  -2.252  0.00  0.00    -0.097 F 
ATOM     12  F4  UNL d   1       2.057   2.409  -2.715  0.00  0.00    -0.092 F 
ENDROOT
TORSDOF 0
ENDMDL
