MODEL 1
REMARK minimizedAffinity 16.5127811
REMARK minimizedRMSD -1
REMARK  0 active torsions:
REMARK  status: ('A' for Active; 'I' for Inactive)
ROOT
ATOM      1  C   UNL d   1       0.775  -1.539  -2.093  0.00  0.00     0.124 A 
ATOM      2  C1  UNL d   1       0.246  -2.821  -2.115  0.00  0.00     0.062 A 
ATOM      3  C2  UNL d   1      -1.055  -3.049  -1.677  0.00  0.00     0.162 A 
ATOM      4  C3  UNL d   1      -1.837  -1.991  -1.214  0.00  0.00    -0.034 A 
ATOM      5  C4  UNL d   1      -1.297  -0.704  -1.194  0.00  0.00     0.162 A 
ATOM      6  C5  UNL d   1       0.004  -0.481  -1.633  0.00  0.00     0.062 A 
ATOM      7  F   UNL d   1       0.514   0.759  -1.611  0.00  0.00    -0.097 F 
ATOM      8  F1  UNL d   1      -2.021   0.336  -0.755  0.00  0.00    -0.096 F 
ATOM      9  I   UNL d   1      -3.784  -2.327  -0.558  0.00  0.00    -0.060 I 
ATOM     10  F2  UNL d   1      -1.541  -4.299  -1.710  0.00  0.00    -0.096 F 
ATOM     11  F3  UNL d   1       0.990  -3.845  -2.559  0.00  0.00    -0.097 F 
ATOM     12  F4  UNL d   1       2.028  -1.323  -2.515  0.00  0.00    -0.092 F 
ENDROOT
TORSDOF 0
ENDMDL
