MODEL 1
REMARK minimizedAffinity 17.5354309
REMARK minimizedRMSD -1
REMARK  0 active torsions:
REMARK  status: ('A' for Active; 'I' for Inactive)
ROOT
ATOM      1  C   UNL d   1       0.814  -1.418  -2.561  0.00  0.00     0.124 A 
ATOM      2  C1  UNL d   1       1.347  -2.635  -2.160  0.00  0.00     0.062 A 
ATOM      3  C2  UNL d   1       2.164  -2.705  -1.035  0.00  0.00     0.162 A 
ATOM      4  C3  UNL d   1       2.451  -1.555  -0.302  0.00  0.00    -0.034 A 
ATOM      5  C4  UNL d   1       1.912  -0.334  -0.711  0.00  0.00     0.162 A 
ATOM      6  C5  UNL d   1       1.096  -0.269  -1.836  0.00  0.00     0.062 A 
ATOM      7  F   UNL d   1       0.582   0.908  -2.221  0.00  0.00    -0.097 F 
ATOM      8  F1  UNL d   1       2.168   0.792  -0.028  0.00  0.00    -0.096 F 
ATOM      9  I   UNL d   1       3.672  -1.656   1.381  0.00  0.00    -0.060 I 
ATOM     10  F2  UNL d   1       2.666  -3.895  -0.672  0.00  0.00    -0.096 F 
ATOM     11  F3  UNL d   1       1.076  -3.747  -2.860  0.00  0.00    -0.097 F 
ATOM     12  F4  UNL d   1       0.029  -1.353  -3.644  0.00  0.00    -0.092 F 
ENDROOT
TORSDOF 0
ENDMDL
