MODEL 1
REMARK minimizedAffinity 20.4611111
REMARK minimizedRMSD -1
REMARK  0 active torsions:
REMARK  status: ('A' for Active; 'I' for Inactive)
ROOT
ATOM      1  C   UNL d   1      -2.512   2.042   2.985  0.00  0.00     0.124 A 
ATOM      2  C1  UNL d   1      -2.225   0.710   3.246  0.00  0.00     0.062 A 
ATOM      3  C2  UNL d   1      -3.212  -0.261   3.097  0.00  0.00     0.162 A 
ATOM      4  C3  UNL d   1      -4.495   0.098   2.682  0.00  0.00    -0.034 A 
ATOM      5  C4  UNL d   1      -4.775   1.440   2.422  0.00  0.00     0.162 A 
ATOM      6  C5  UNL d   1      -3.786   2.406   2.573  0.00  0.00     0.062 A 
ATOM      7  F   UNL d   1      -4.065   3.693   2.320  0.00  0.00    -0.097 F 
ATOM      8  F1  UNL d   1      -5.998   1.820   2.022  0.00  0.00    -0.096 F 
ATOM      9  I   UNL d   1      -5.972  -1.350   2.458  0.00  0.00    -0.060 I 
ATOM     10  F2  UNL d   1      -2.907  -1.541   3.356  0.00  0.00    -0.096 F 
ATOM     11  F3  UNL d   1      -0.995   0.355   3.645  0.00  0.00    -0.097 F 
ATOM     12  F4  UNL d   1      -1.561   2.974   3.131  0.00  0.00    -0.092 F 
ENDROOT
TORSDOF 0
ENDMDL
