MODEL 1
REMARK minimizedAffinity 20.5084305
REMARK minimizedRMSD -1
REMARK  0 active torsions:
REMARK  status: ('A' for Active; 'I' for Inactive)
ROOT
ATOM      1  C   UNL d   1      -1.345  -2.584  -0.811  0.00  0.00     0.124 A 
ATOM      2  C1  UNL d   1      -0.076  -2.843  -1.310  0.00  0.00     0.062 A 
ATOM      3  C2  UNL d   1       0.803  -3.655  -0.601  0.00  0.00     0.162 A 
ATOM      4  C3  UNL d   1       0.417  -4.217   0.616  0.00  0.00    -0.034 A 
ATOM      5  C4  UNL d   1      -0.861  -3.952   1.113  0.00  0.00     0.162 A 
ATOM      6  C5  UNL d   1      -1.736  -3.139   0.400  0.00  0.00     0.062 A 
ATOM      7  F   UNL d   1      -2.962  -2.890   0.884  0.00  0.00    -0.097 F 
ATOM      8  F1  UNL d   1      -1.265  -4.475   2.279  0.00  0.00    -0.096 F 
ATOM      9  I   UNL d   1       1.729  -5.432   1.680  0.00  0.00    -0.060 I 
ATOM     10  F2  UNL d   1       2.024  -3.888  -1.107  0.00  0.00    -0.096 F 
ATOM     11  F3  UNL d   1       0.305  -2.307  -2.479  0.00  0.00    -0.097 F 
ATOM     12  F4  UNL d   1      -2.189  -1.801  -1.495  0.00  0.00    -0.092 F 
ENDROOT
TORSDOF 0
ENDMDL
