MODEL 1
REMARK minimizedAffinity 4.24111176
REMARK minimizedRMSD -1
REMARK  0 active torsions:
REMARK  status: ('A' for Active; 'I' for Inactive)
ROOT
ATOM      1  C   UNL d   1       2.144   2.049  -2.260  0.00  0.00     0.124 A 
ATOM      2  C1  UNL d   1       0.966   1.315  -2.278  0.00  0.00     0.062 A 
ATOM      3  C2  UNL d   1       0.975  -0.033  -1.929  0.00  0.00     0.162 A 
ATOM      4  C3  UNL d   1       2.167  -0.656  -1.559  0.00  0.00    -0.034 A 
ATOM      5  C4  UNL d   1       3.348   0.089  -1.545  0.00  0.00     0.162 A 
ATOM      6  C5  UNL d   1       3.334   1.435  -1.894  0.00  0.00     0.062 A 
ATOM      7  F   UNL d   1       4.473   2.142  -1.877  0.00  0.00    -0.097 F 
ATOM      8  F1  UNL d   1       4.512  -0.479  -1.194  0.00  0.00    -0.096 F 
ATOM      9  I   UNL d   1       2.185  -2.670  -1.037  0.00  0.00    -0.060 I 
ATOM     10  F2  UNL d   1      -0.178  -0.717  -1.955  0.00  0.00    -0.096 F 
ATOM     11  F3  UNL d   1      -0.185   1.905  -2.632  0.00  0.00    -0.097 F 
ATOM     12  F4  UNL d   1       2.132   3.345  -2.597  0.00  0.00    -0.092 F 
ENDROOT
TORSDOF 0
ENDMDL
