MODEL 1
REMARK minimizedAffinity 19.369669
REMARK minimizedRMSD -1
REMARK  0 active torsions:
REMARK  status: ('A' for Active; 'I' for Inactive)
ROOT
ATOM      1  C   UNL d   1      -0.590  -2.536  -1.724  0.00  0.00     0.124 A 
ATOM      2  C1  UNL d   1      -1.410  -1.469  -1.386  0.00  0.00     0.062 A 
ATOM      3  C2  UNL d   1      -0.950  -0.162  -1.521  0.00  0.00     0.162 A 
ATOM      4  C3  UNL d   1       0.338   0.085  -1.997  0.00  0.00    -0.034 A 
ATOM      5  C4  UNL d   1       1.158  -0.994  -2.333  0.00  0.00     0.162 A 
ATOM      6  C5  UNL d   1       0.693  -2.298  -2.197  0.00  0.00     0.062 A 
ATOM      7  F   UNL d   1       1.487  -3.328  -2.523  0.00  0.00    -0.097 F 
ATOM      8  F1  UNL d   1       2.401  -0.792  -2.793  0.00  0.00    -0.096 F 
ATOM      9  I   UNL d   1       1.030   2.037  -2.200  0.00  0.00    -0.060 I 
ATOM     10  F2  UNL d   1      -1.765   0.850  -1.187  0.00  0.00    -0.096 F 
ATOM     11  F3  UNL d   1      -2.650  -1.696  -0.928  0.00  0.00    -0.097 F 
ATOM     12  F4  UNL d   1      -1.035  -3.792  -1.592  0.00  0.00    -0.092 F 
ENDROOT
TORSDOF 0
ENDMDL
