MODEL 1
REMARK minimizedAffinity 0.519113004
REMARK minimizedRMSD -1
REMARK  0 active torsions:
REMARK  status: ('A' for Active; 'I' for Inactive)
ROOT
ATOM      1  C   UNL d   1       0.355  -2.714  -3.811  0.00  0.00     0.078 C 
ATOM      2  C1  UNL d   1      -0.118  -1.503  -4.558  0.00  0.00    -0.077 A 
ATOM      3  C2  UNL d   1      -1.467  -1.130  -4.548  0.00  0.00    -0.001 A 
ATOM      4  C3  UNL d   1      -1.895  -0.005  -5.256  0.00  0.00     0.003 A 
ATOM      5  C4  UNL d   1      -0.979   0.754  -5.981  0.00  0.00    -0.005 A 
ATOM      6  C5  UNL d   1       0.366   0.390  -5.999  0.00  0.00     0.003 A 
ATOM      7  C6  UNL d   1       0.795  -0.734  -5.292  0.00  0.00    -0.001 A 
ENDROOT
TORSDOF 0
ENDMDL
