MODEL 1
REMARK minimizedAffinity 2.75901222
REMARK minimizedRMSD -1
REMARK  0 active torsions:
REMARK  status: ('A' for Active; 'I' for Inactive)
ROOT
ATOM      1  C   UNL d   1      -3.881   0.806   2.168  0.00  0.00     0.078 C 
ATOM      2  C1  UNL d   1      -2.492   0.247   2.261  0.00  0.00    -0.077 A 
ATOM      3  C2  UNL d   1      -1.680   0.513   3.370  0.00  0.00    -0.001 A 
ATOM      4  C3  UNL d   1      -0.386  -0.006   3.438  0.00  0.00     0.003 A 
ATOM      5  C4  UNL d   1       0.107  -0.793   2.400  0.00  0.00    -0.005 A 
ATOM      6  C5  UNL d   1      -0.692  -1.061   1.291  0.00  0.00     0.003 A 
ATOM      7  C6  UNL d   1      -1.986  -0.543   1.221  0.00  0.00    -0.001 A 
ENDROOT
TORSDOF 0
ENDMDL
