MODEL 1
REMARK minimizedAffinity -2.34670496
REMARK minimizedRMSD -1
REMARK  0 active torsions:
REMARK  status: ('A' for Active; 'I' for Inactive)
ROOT
ATOM      1  C   UNL d   1      -5.977   0.777  -0.195  0.00  0.00     0.078 C 
ATOM      2  C1  UNL d   1      -4.626   0.511   0.398  0.00  0.00    -0.077 A 
ATOM      3  C2  UNL d   1      -3.744  -0.398  -0.199  0.00  0.00    -0.001 A 
ATOM      4  C3  UNL d   1      -2.492  -0.644   0.369  0.00  0.00     0.003 A 
ATOM      5  C4  UNL d   1      -2.113   0.014   1.537  0.00  0.00    -0.005 A 
ATOM      6  C5  UNL d   1      -2.985   0.919   2.140  0.00  0.00     0.003 A 
ATOM      7  C6  UNL d   1      -4.237   1.166   1.573  0.00  0.00    -0.001 A 
ENDROOT
TORSDOF 0
ENDMDL
