MODEL 1
REMARK minimizedAffinity -0.386926949
REMARK minimizedRMSD -1
REMARK  0 active torsions:
REMARK  status: ('A' for Active; 'I' for Inactive)
ROOT
ATOM      1  C   UNL d   1       0.001  -2.211  -2.419  0.00  0.00     0.078 C 
ATOM      2  C1  UNL d   1      -0.371  -1.377  -3.608  0.00  0.00    -0.077 A 
ATOM      3  C2  UNL d   1      -0.348  -1.913  -4.902  0.00  0.00    -0.001 A 
ATOM      4  C3  UNL d   1      -0.688  -1.121  -6.000  0.00  0.00     0.003 A 
ATOM      5  C4  UNL d   1      -1.051   0.211  -5.817  0.00  0.00    -0.005 A 
ATOM      6  C5  UNL d   1      -1.074   0.754  -4.534  0.00  0.00     0.003 A 
ATOM      7  C6  UNL d   1      -0.735  -0.036  -3.434  0.00  0.00    -0.001 A 
ENDROOT
TORSDOF 0
ENDMDL
