MODEL 1
REMARK minimizedAffinity -3.14404249
REMARK minimizedRMSD -1
REMARK  0 active torsions:
REMARK  status: ('A' for Active; 'I' for Inactive)
ROOT
ATOM      1  C   UNL d   1       2.827   0.019  -5.847  0.00  0.00     0.078 C 
ATOM      2  C1  UNL d   1       1.447   0.265  -5.315  0.00  0.00    -0.077 A 
ATOM      3  C2  UNL d   1       0.317  -0.201  -5.998  0.00  0.00    -0.001 A 
ATOM      4  C3  UNL d   1      -0.962   0.044  -5.496  0.00  0.00     0.003 A 
ATOM      5  C4  UNL d   1      -1.123   0.757  -4.310  0.00  0.00    -0.005 A 
ATOM      6  C5  UNL d   1      -0.005   1.226  -3.624  0.00  0.00     0.003 A 
ATOM      7  C6  UNL d   1       1.275   0.982  -4.125  0.00  0.00    -0.001 A 
ENDROOT
TORSDOF 0
ENDMDL
