MODEL 1
REMARK minimizedAffinity 0.160976812
REMARK minimizedRMSD -1
REMARK  0 active torsions:
REMARK  status: ('A' for Active; 'I' for Inactive)
ROOT
ATOM      1  C   UNL d   1      -1.138   0.834  -4.934  0.00  0.00     0.078 C 
ATOM      2  C1  UNL d   1      -0.659  -0.394  -4.220  0.00  0.00    -0.077 A 
ATOM      3  C2  UNL d   1      -0.773  -0.510  -2.829  0.00  0.00    -0.001 A 
ATOM      4  C3  UNL d   1      -0.314  -1.655  -2.176  0.00  0.00     0.003 A 
ATOM      5  C4  UNL d   1       0.264  -2.692  -2.906  0.00  0.00    -0.005 A 
ATOM      6  C5  UNL d   1       0.384  -2.584  -4.290  0.00  0.00     0.003 A 
ATOM      7  C6  UNL d   1      -0.074  -1.440  -4.944  0.00  0.00    -0.001 A 
ENDROOT
TORSDOF 0
ENDMDL
