MODEL 1
REMARK minimizedAffinity -2.52283239
REMARK minimizedRMSD -1
REMARK  0 active torsions:
REMARK  status: ('A' for Active; 'I' for Inactive)
ROOT
ATOM      1  C   UNL d   1       0.376  -2.148  -2.637  0.00  0.00     0.078 C 
ATOM      2  C1  UNL d   1       0.054  -1.274  -3.812  0.00  0.00    -0.077 A 
ATOM      3  C2  UNL d   1       0.911  -1.206  -4.917  0.00  0.00    -0.001 A 
ATOM      4  C3  UNL d   1       0.604  -0.381  -6.000  0.00  0.00     0.003 A 
ATOM      5  C4  UNL d   1      -0.561   0.384  -5.988  0.00  0.00    -0.005 A 
ATOM      6  C5  UNL d   1      -1.420   0.325  -4.892  0.00  0.00     0.003 A 
ATOM      7  C6  UNL d   1      -1.114  -0.500  -3.808  0.00  0.00    -0.001 A 
ENDROOT
TORSDOF 0
ENDMDL
