MODEL 1
REMARK minimizedAffinity -2.30822754
REMARK minimizedRMSD -1
REMARK  0 active torsions:
REMARK  status: ('A' for Active; 'I' for Inactive)
ROOT
ATOM      1  C   UNL d   1      -5.279   0.747   0.055  0.00  0.00     0.078 C 
ATOM      2  C1  UNL d   1      -3.950   0.377   0.644  0.00  0.00    -0.077 A 
ATOM      3  C2  UNL d   1      -3.508   0.951   1.842  0.00  0.00    -0.001 A 
ATOM      4  C3  UNL d   1      -2.265   0.605   2.374  0.00  0.00     0.003 A 
ATOM      5  C4  UNL d   1      -1.453  -0.316   1.714  0.00  0.00    -0.005 A 
ATOM      6  C5  UNL d   1      -1.884  -0.891   0.520  0.00  0.00     0.003 A 
ATOM      7  C6  UNL d   1      -3.127  -0.546  -0.013  0.00  0.00    -0.001 A 
ENDROOT
TORSDOF 0
ENDMDL
