MODEL 1
REMARK minimizedAffinity -2.88420892
REMARK minimizedRMSD -1
REMARK  0 active torsions:
REMARK  status: ('A' for Active; 'I' for Inactive)
ROOT
ATOM      1  C   UNL d   1       2.834   0.430  -5.998  0.00  0.00     0.078 C 
ATOM      2  C1  UNL d   1       1.454   0.218  -5.451  0.00  0.00    -0.077 A 
ATOM      3  C2  UNL d   1       0.669  -0.862  -5.873  0.00  0.00    -0.001 A 
ATOM      4  C3  UNL d   1      -0.617  -1.042  -5.363  0.00  0.00     0.003 A 
ATOM      5  C4  UNL d   1      -1.131  -0.145  -4.428  0.00  0.00    -0.005 A 
ATOM      6  C5  UNL d   1      -0.358   0.933  -4.002  0.00  0.00     0.003 A 
ATOM      7  C6  UNL d   1       0.929   1.115  -4.512  0.00  0.00    -0.001 A 
ENDROOT
TORSDOF 0
ENDMDL
