MODEL 1
REMARK minimizedAffinity -0.151920512
REMARK minimizedRMSD -1
REMARK  0 active torsions:
REMARK  status: ('A' for Active; 'I' for Inactive)
ROOT
ATOM      1  C   UNL d   1      -4.648   1.486   1.247  0.00  0.00     0.078 C 
ATOM      2  C1  UNL d   1      -3.437   0.641   1.503  0.00  0.00    -0.077 A 
ATOM      3  C2  UNL d   1      -2.730   0.740   2.708  0.00  0.00    -0.001 A 
ATOM      4  C3  UNL d   1      -1.598  -0.047   2.928  0.00  0.00     0.003 A 
ATOM      5  C4  UNL d   1      -1.162  -0.936   1.949  0.00  0.00    -0.005 A 
ATOM      6  C5  UNL d   1      -1.858  -1.040   0.746  0.00  0.00     0.003 A 
ATOM      7  C6  UNL d   1      -2.990  -0.255   0.523  0.00  0.00    -0.001 A 
ENDROOT
TORSDOF 0
ENDMDL
