MODEL 1
REMARK minimizedAffinity -4.36180067
REMARK minimizedRMSD -1
REMARK  0 active torsions:
REMARK  status: ('A' for Active; 'I' for Inactive)
ROOT
ATOM      1  C   UNL d   1       2.666   2.129   1.452  0.00  0.00    -0.002 A 
ATOM      2  C1  UNL d   1       3.385   1.208   0.702  0.00  0.00     0.010 A 
ATOM      3  C2  UNL d   1       2.734   0.156   0.055  0.00  0.00     0.041 A 
ATOM      4  C3  UNL d   1       1.335   0.045   0.173  0.00  0.00    -0.075 A 
ATOM      5  S   UNL d   1       0.325  -1.161  -0.533  0.00  0.00     0.015 SA
ATOM      6  C4  UNL d   1      -1.085  -0.482   0.143  0.00  0.00     0.022 A 
ATOM      7  C5  UNL d   1      -0.810   0.638   0.892  0.00  0.00     0.026 A 
ATOM      8  C6  UNL d   1       0.589   0.960   0.921  0.00  0.00    -0.082 A 
ATOM      9  C7  UNL d   1       1.278   2.015   1.567  0.00  0.00     0.045 A 
ENDROOT
TORSDOF 0
ENDMDL
