MODEL 1
REMARK minimizedAffinity -4.91068316
REMARK minimizedRMSD -1
REMARK  0 active torsions:
REMARK  status: ('A' for Active; 'I' for Inactive)
ROOT
ATOM      1  C   UNL d   1       2.065   2.959   1.131  0.00  0.00    -0.002 A 
ATOM      2  C1  UNL d   1       3.156   2.353   0.523  0.00  0.00     0.010 A 
ATOM      3  C2  UNL d   1       3.014   1.128  -0.132  0.00  0.00     0.041 A 
ATOM      4  C3  UNL d   1       1.745   0.517  -0.167  0.00  0.00    -0.075 A 
ATOM      5  S   UNL d   1       1.333  -0.982  -0.912  0.00  0.00     0.015 SA
ATOM      6  C4  UNL d   1      -0.300  -0.853  -0.441  0.00  0.00     0.022 A 
ATOM      7  C5  UNL d   1      -0.543   0.299   0.268  0.00  0.00     0.026 A 
ATOM      8  C6  UNL d   1       0.631   1.108   0.437  0.00  0.00    -0.082 A 
ATOM      9  C7  UNL d   1       0.808   2.350   1.094  0.00  0.00     0.045 A 
ENDROOT
TORSDOF 0
ENDMDL
