MODEL 1
REMARK minimizedAffinity -3.91833854
REMARK minimizedRMSD -1
REMARK  0 active torsions:
REMARK  status: ('A' for Active; 'I' for Inactive)
ROOT
ATOM      1  C   UNL d   1       2.088   2.784   1.188  0.00  0.00    -0.002 A 
ATOM      2  C1  UNL d   1       3.034   2.047   0.489  0.00  0.00     0.010 A 
ATOM      3  C2  UNL d   1       2.694   0.822  -0.088  0.00  0.00     0.041 A 
ATOM      4  C3  UNL d   1       1.375   0.346   0.048  0.00  0.00    -0.075 A 
ATOM      5  S   UNL d   1       0.731  -1.126  -0.575  0.00  0.00     0.015 SA
ATOM      6  C4  UNL d   1      -0.814  -0.811   0.071  0.00  0.00     0.022 A 
ATOM      7  C5  UNL d   1      -0.856   0.384   0.749  0.00  0.00     0.026 A 
ATOM      8  C6  UNL d   1       0.405   1.071   0.747  0.00  0.00    -0.082 A 
ATOM      9  C7  UNL d   1       0.781   2.309   1.322  0.00  0.00     0.045 A 
ENDROOT
TORSDOF 0
ENDMDL
