MODEL 1
REMARK minimizedAffinity -1.76702225
REMARK minimizedRMSD -1
REMARK  0 active torsions:
REMARK  status: ('A' for Active; 'I' for Inactive)
ROOT
ATOM      1  C   UNL d   1       3.401   1.532   1.466  0.00  0.00    -0.002 A 
ATOM      2  C1  UNL d   1       3.564   0.532   0.518  0.00  0.00     0.010 A 
ATOM      3  C2  UNL d   1       2.457  -0.025  -0.125  0.00  0.00     0.041 A 
ATOM      4  C3  UNL d   1       1.170   0.445   0.204  0.00  0.00    -0.075 A 
ATOM      5  S   UNL d   1      -0.331  -0.089  -0.454  0.00  0.00     0.015 SA
ATOM      6  C4  UNL d   1      -1.224   0.998   0.507  0.00  0.00     0.022 A 
ATOM      7  C5  UNL d   1      -0.413   1.758   1.317  0.00  0.00     0.026 A 
ATOM      8  C6  UNL d   1       0.981   1.452   1.155  0.00  0.00    -0.082 A 
ATOM      9  C7  UNL d   1       2.123   1.996   1.789  0.00  0.00     0.045 A 
ENDROOT
TORSDOF 0
ENDMDL
