MODEL 1
REMARK minimizedAffinity -2.7014029
REMARK minimizedRMSD -1
REMARK  0 active torsions:
REMARK  status: ('A' for Active; 'I' for Inactive)
ROOT
ATOM      1  C   UNL d   1       2.175   3.007   1.969  0.00  0.00    -0.002 A 
ATOM      2  C1  UNL d   1       3.102   2.391   1.142  0.00  0.00     0.010 A 
ATOM      3  C2  UNL d   1       2.708   1.382   0.260  0.00  0.00     0.041 A 
ATOM      4  C3  UNL d   1       1.352   1.001   0.223  0.00  0.00    -0.075 A 
ATOM      5  S   UNL d   1       0.639  -0.209  -0.777  0.00  0.00     0.015 SA
ATOM      6  C4  UNL d   1      -0.913   0.064  -0.129  0.00  0.00     0.022 A 
ATOM      7  C5  UNL d   1      -0.906   1.051   0.828  0.00  0.00     0.026 A 
ATOM      8  C6  UNL d   1       0.399   1.608   1.046  0.00  0.00    -0.082 A 
ATOM      9  C7  UNL d   1       0.831   2.626   1.930  0.00  0.00     0.045 A 
ENDROOT
TORSDOF 0
ENDMDL
