MODEL 1
REMARK minimizedAffinity 0.821903288
REMARK minimizedRMSD -1
REMARK  0 active torsions:
REMARK  status: ('A' for Active; 'I' for Inactive)
ROOT
ATOM      1  C   UNL d   1       0.659  -0.025   0.430  0.00  0.00    -0.002 A 
ATOM      2  C1  UNL d   1      -0.359   0.880   0.697  0.00  0.00     0.010 A 
ATOM      3  C2  UNL d   1      -1.545   0.852  -0.040  0.00  0.00     0.041 A 
ATOM      4  C3  UNL d   1      -1.693  -0.110  -1.058  0.00  0.00    -0.075 A 
ATOM      5  S   UNL d   1      -3.057  -0.332  -2.089  0.00  0.00     0.015 SA
ATOM      6  C4  UNL d   1      -2.321  -1.634  -2.907  0.00  0.00     0.022 A 
ATOM      7  C5  UNL d   1      -1.065  -1.906  -2.419  0.00  0.00     0.026 A 
ATOM      8  C6  UNL d   1      -0.682  -1.032  -1.345  0.00  0.00    -0.082 A 
ATOM      9  C7  UNL d   1       0.509  -0.978  -0.581  0.00  0.00     0.045 A 
ENDROOT
TORSDOF 0
ENDMDL
