MODEL 1
REMARK minimizedAffinity -1.06614304
REMARK minimizedRMSD -1
REMARK  0 active torsions:
REMARK  status: ('A' for Active; 'I' for Inactive)
ROOT
ATOM      1  C   UNL d   1      -2.649  -2.505  -2.365  0.00  0.00    -0.002 A 
ATOM      2  C1  UNL d   1      -3.382  -1.328  -2.292  0.00  0.00     0.010 A 
ATOM      3  C2  UNL d   1      -2.879  -0.219  -1.608  0.00  0.00     0.041 A 
ATOM      4  C3  UNL d   1      -1.615  -0.314  -0.994  0.00  0.00    -0.075 A 
ATOM      5  S   UNL d   1      -0.798   0.915  -0.102  0.00  0.00     0.015 SA
ATOM      6  C4  UNL d   1       0.543  -0.092   0.202  0.00  0.00     0.022 A 
ATOM      7  C5  UNL d   1       0.387  -1.339  -0.354  0.00  0.00     0.026 A 
ATOM      8  C6  UNL d   1      -0.858  -1.488  -1.053  0.00  0.00    -0.082 A 
ATOM      9  C7  UNL d   1      -1.396  -2.594  -1.754  0.00  0.00     0.045 A 
ENDROOT
TORSDOF 0
ENDMDL
