MODEL 1
REMARK minimizedAffinity 2.88814616
REMARK minimizedRMSD -1
REMARK  0 active torsions:
REMARK  status: ('A' for Active; 'I' for Inactive)
ROOT
ATOM      1  C   UNL d   1       0.917   1.905   0.725  0.00  0.00     0.124 A 
ATOM      2  C1  UNL d   1      -0.403   1.686   0.356  0.00  0.00     0.062 A 
ATOM      3  C2  UNL d   1      -0.821   0.415  -0.025  0.00  0.00     0.162 A 
ATOM      4  C3  UNL d   1       0.082  -0.649  -0.038  0.00  0.00    -0.034 A 
ATOM      5  C4  UNL d   1       1.408  -0.420   0.333  0.00  0.00     0.162 A 
ATOM      6  C5  UNL d   1       1.821   0.852   0.714  0.00  0.00     0.062 A 
ATOM      7  F   UNL d   1       3.097   1.062   1.070  0.00  0.00    -0.097 F 
ATOM      8  F1  UNL d   1       2.302  -1.420   0.332  0.00  0.00    -0.096 F 
ATOM      9  I   UNL d   1      -0.540  -2.552  -0.607  0.00  0.00    -0.060 I 
ATOM     10  F2  UNL d   1      -2.102   0.232  -0.377  0.00  0.00    -0.096 F 
ATOM     11  F3  UNL d   1      -1.277   2.702   0.366  0.00  0.00    -0.097 F 
ATOM     12  F4  UNL d   1       1.317   3.130   1.091  0.00  0.00    -0.092 F 
ENDROOT
TORSDOF 0
ENDMDL
