MODEL 1
REMARK minimizedAffinity -4.79247904
REMARK minimizedRMSD -1
REMARK  0 active torsions:
REMARK  status: ('A' for Active; 'I' for Inactive)
ROOT
ATOM      1  C   UNL d   1      -0.098   0.969  -0.604  0.00  0.00     0.124 A 
ATOM      2  C1  UNL d   1      -1.024   0.409  -1.473  0.00  0.00     0.062 A 
ATOM      3  C2  UNL d   1      -1.141  -0.974  -1.576  0.00  0.00     0.162 A 
ATOM      4  C3  UNL d   1      -0.329  -1.808  -0.806  0.00  0.00    -0.034 A 
ATOM      5  C4  UNL d   1       0.600  -1.237   0.066  0.00  0.00     0.162 A 
ATOM      6  C5  UNL d   1       0.713   0.146   0.164  0.00  0.00     0.062 A 
ATOM      7  F   UNL d   1       1.608   0.685   1.005  0.00  0.00    -0.097 F 
ATOM      8  F1  UNL d   1       1.396  -2.009   0.821  0.00  0.00    -0.096 F 
ATOM      9  I   UNL d   1      -0.501  -3.876  -0.956  0.00  0.00    -0.060 I 
ATOM     10  F2  UNL d   1      -2.044  -1.488  -2.424  0.00  0.00    -0.096 F 
ATOM     11  F3  UNL d   1      -1.808   1.202  -2.217  0.00  0.00    -0.097 F 
ATOM     12  F4  UNL d   1       0.013   2.300  -0.508  0.00  0.00    -0.092 F 
ENDROOT
TORSDOF 0
ENDMDL
