MODEL 1
REMARK minimizedAffinity -3.61782312
REMARK minimizedRMSD -1
REMARK  0 active torsions:
REMARK  status: ('A' for Active; 'I' for Inactive)
ROOT
ATOM      1  C   UNL d   1       1.319   2.525   0.555  0.00  0.00     0.124 A 
ATOM      2  C1  UNL d   1       2.156   1.418   0.571  0.00  0.00     0.062 A 
ATOM      3  C2  UNL d   1       1.632   0.142   0.383  0.00  0.00     0.162 A 
ATOM      4  C3  UNL d   1       0.263  -0.033   0.176  0.00  0.00    -0.034 A 
ATOM      5  C4  UNL d   1      -0.572   1.085   0.163  0.00  0.00     0.162 A 
ATOM      6  C5  UNL d   1      -0.043   2.358   0.351  0.00  0.00     0.062 A 
ATOM      7  F   UNL d   1      -0.853   3.427   0.336  0.00  0.00    -0.097 F 
ATOM      8  F1  UNL d   1      -1.892   0.952  -0.033  0.00  0.00    -0.096 F 
ATOM      9  I   UNL d   1      -0.524  -1.939  -0.106  0.00  0.00    -0.060 I 
ATOM     10  F2  UNL d   1       2.464  -0.910   0.403  0.00  0.00    -0.096 F 
ATOM     11  F3  UNL d   1       3.472   1.577   0.769  0.00  0.00    -0.097 F 
ATOM     12  F4  UNL d   1       1.826   3.752   0.738  0.00  0.00    -0.092 F 
ENDROOT
TORSDOF 0
ENDMDL
