MODEL 1
REMARK minimizedAffinity -1.83697295
REMARK minimizedRMSD -1
REMARK  0 active torsions:
REMARK  status: ('A' for Active; 'I' for Inactive)
ROOT
ATOM      1  C   UNL d   1       0.110  -1.852  -0.791  0.00  0.00     0.124 A 
ATOM      2  C1  UNL d   1      -0.857  -1.096  -1.440  0.00  0.00     0.062 A 
ATOM      3  C2  UNL d   1      -0.938   0.275  -1.218  0.00  0.00     0.162 A 
ATOM      4  C3  UNL d   1      -0.049   0.901  -0.344  0.00  0.00    -0.034 A 
ATOM      5  C4  UNL d   1       0.920   0.134   0.305  0.00  0.00     0.162 A 
ATOM      6  C5  UNL d   1       0.997  -1.237   0.080  0.00  0.00     0.062 A 
ATOM      7  F   UNL d   1       1.932  -1.965   0.708  0.00  0.00    -0.097 F 
ATOM      8  F1  UNL d   1       1.790   0.703   1.152  0.00  0.00    -0.096 F 
ATOM      9  I   UNL d   1      -0.168   2.952  -0.010  0.00  0.00    -0.060 I 
ATOM     10  F2  UNL d   1      -1.882   0.981  -1.858  0.00  0.00    -0.096 F 
ATOM     11  F3  UNL d   1      -1.715  -1.689  -2.282  0.00  0.00    -0.097 F 
ATOM     12  F4  UNL d   1       0.186  -3.172  -1.006  0.00  0.00    -0.092 F 
ENDROOT
TORSDOF 0
ENDMDL
