MODEL 1
REMARK minimizedAffinity -2.11979008
REMARK minimizedRMSD -1
REMARK  0 active torsions:
REMARK  status: ('A' for Active; 'I' for Inactive)
ROOT
ATOM      1  C   UNL d   1       0.843   2.006   0.609  0.00  0.00     0.124 A 
ATOM      2  C1  UNL d   1      -0.529   1.816   0.509  0.00  0.00     0.062 A 
ATOM      3  C2  UNL d   1      -1.040   0.558   0.200  0.00  0.00     0.162 A 
ATOM      4  C3  UNL d   1      -0.179  -0.519  -0.009  0.00  0.00    -0.034 A 
ATOM      5  C4  UNL d   1       1.199  -0.319   0.092  0.00  0.00     0.162 A 
ATOM      6  C5  UNL d   1       1.705   0.939   0.401  0.00  0.00     0.062 A 
ATOM      7  F   UNL d   1       3.030   1.122   0.497  0.00  0.00    -0.097 F 
ATOM      8  F1  UNL d   1       2.055  -1.334  -0.103  0.00  0.00    -0.096 F 
ATOM      9  I   UNL d   1      -0.939  -2.401  -0.470  0.00  0.00    -0.060 I 
ATOM     10  F2  UNL d   1      -2.369   0.403   0.110  0.00  0.00    -0.096 F 
ATOM     11  F3  UNL d   1      -1.364   2.845   0.708  0.00  0.00    -0.097 F 
ATOM     12  F4  UNL d   1       1.332   3.218   0.904  0.00  0.00    -0.092 F 
ENDROOT
TORSDOF 0
ENDMDL
