MODEL 1
REMARK minimizedAffinity -2.08751965
REMARK minimizedRMSD -1
REMARK  0 active torsions:
REMARK  status: ('A' for Active; 'I' for Inactive)
ROOT
ATOM      1  C   UNL d   1      -0.034   1.904   0.695  0.00  0.00     0.124 A 
ATOM      2  C1  UNL d   1      -1.385   1.612   0.824  0.00  0.00     0.062 A 
ATOM      3  C2  UNL d   1      -1.850   0.325   0.572  0.00  0.00     0.162 A 
ATOM      4  C3  UNL d   1      -0.964  -0.681   0.188  0.00  0.00    -0.034 A 
ATOM      5  C4  UNL d   1       0.393  -0.380   0.059  0.00  0.00     0.162 A 
ATOM      6  C5  UNL d   1       0.853   0.908   0.313  0.00  0.00     0.062 A 
ATOM      7  F   UNL d   1       2.159   1.189   0.187  0.00  0.00    -0.097 F 
ATOM      8  F1  UNL d   1       1.273  -1.323  -0.308  0.00  0.00    -0.096 F 
ATOM      9  I   UNL d   1      -1.655  -2.608  -0.191  0.00  0.00    -0.060 I 
ATOM     10  F2  UNL d   1      -3.161   0.071   0.704  0.00  0.00    -0.096 F 
ATOM     11  F3  UNL d   1      -2.245   2.573   1.192  0.00  0.00    -0.097 F 
ATOM     12  F4  UNL d   1       0.410   3.144   0.937  0.00  0.00    -0.092 F 
ENDROOT
TORSDOF 0
ENDMDL
