MODEL 1
REMARK minimizedAffinity -0.53022927
REMARK minimizedRMSD -1
REMARK  0 active torsions:
REMARK  status: ('A' for Active; 'I' for Inactive)
ROOT
ATOM      1  C   UNL d   1      -0.890  -2.981  -2.403  0.00  0.00     0.124 A 
ATOM      2  C1  UNL d   1      -1.120  -2.716  -1.060  0.00  0.00     0.062 A 
ATOM      3  C2  UNL d   1      -0.816  -1.465  -0.531  0.00  0.00     0.162 A 
ATOM      4  C3  UNL d   1      -0.281  -0.468  -1.346  0.00  0.00    -0.034 A 
ATOM      5  C4  UNL d   1      -0.052  -0.741  -2.696  0.00  0.00     0.162 A 
ATOM      6  C5  UNL d   1      -0.357  -1.993  -3.219  0.00  0.00     0.062 A 
ATOM      7  F   UNL d   1      -0.135  -2.247  -4.517  0.00  0.00    -0.097 F 
ATOM      8  F1  UNL d   1       0.462   0.195  -3.507  0.00  0.00    -0.096 F 
ATOM      9  I   UNL d   1       0.175   1.404  -0.559  0.00  0.00    -0.060 I 
ATOM     10  F2  UNL d   1      -1.048  -1.238   0.770  0.00  0.00    -0.096 F 
ATOM     11  F3  UNL d   1      -1.634  -3.669  -0.269  0.00  0.00    -0.097 F 
ATOM     12  F4  UNL d   1      -1.183  -4.186  -2.909  0.00  0.00    -0.092 F 
ENDROOT
TORSDOF 0
ENDMDL
