MODEL 1
REMARK minimizedAffinity -2.15547729
REMARK minimizedRMSD -1
REMARK  0 active torsions:
REMARK  status: ('A' for Active; 'I' for Inactive)
ROOT
ATOM      1  C   UNL d   1       0.135   2.892   0.306  0.00  0.00     0.124 A 
ATOM      2  C1  UNL d   1       0.961   2.033  -0.406  0.00  0.00     0.062 A 
ATOM      3  C2  UNL d   1       0.633   0.686  -0.527  0.00  0.00     0.162 A 
ATOM      4  C3  UNL d   1      -0.528   0.189   0.065  0.00  0.00    -0.034 A 
ATOM      5  C4  UNL d   1      -1.354   1.058   0.780  0.00  0.00     0.162 A 
ATOM      6  C5  UNL d   1      -1.021   2.403   0.898  0.00  0.00     0.062 A 
ATOM      7  F   UNL d   1      -1.821   3.231   1.587  0.00  0.00    -0.097 F 
ATOM      8  F1  UNL d   1      -2.477   0.613   1.362  0.00  0.00    -0.096 F 
ATOM      9  I   UNL d   1      -1.022  -1.825  -0.114  0.00  0.00    -0.060 I 
ATOM     10  F2  UNL d   1       1.450  -0.120  -1.221  0.00  0.00    -0.096 F 
ATOM     11  F3  UNL d   1       2.079   2.502  -0.978  0.00  0.00    -0.097 F 
ATOM     12  F4  UNL d   1       0.453   4.187   0.422  0.00  0.00    -0.092 F 
ENDROOT
TORSDOF 0
ENDMDL
