MODEL 1
REMARK minimizedAffinity -1.83621633
REMARK minimizedRMSD -1
REMARK  0 active torsions:
REMARK  status: ('A' for Active; 'I' for Inactive)
ROOT
ATOM      1  C   UNL d   1      -1.305   1.718   0.583  0.00  0.00     0.124 A 
ATOM      2  C1  UNL d   1      -0.624   1.939  -0.606  0.00  0.00     0.062 A 
ATOM      3  C2  UNL d   1      -0.164   0.864  -1.361  0.00  0.00     0.162 A 
ATOM      4  C3  UNL d   1      -0.385  -0.444  -0.929  0.00  0.00    -0.034 A 
ATOM      5  C4  UNL d   1      -1.070  -0.659   0.268  0.00  0.00     0.162 A 
ATOM      6  C5  UNL d   1      -1.528   0.419   1.019  0.00  0.00     0.062 A 
ATOM      7  F   UNL d   1      -2.186   0.203   2.167  0.00  0.00    -0.097 F 
ATOM      8  F1  UNL d   1      -1.299  -1.904   0.713  0.00  0.00    -0.096 F 
ATOM      9  I   UNL d   1       0.301  -2.055  -2.054  0.00  0.00    -0.060 I 
ATOM     10  F2  UNL d   1       0.491   1.107  -2.505  0.00  0.00    -0.096 F 
ATOM     11  F3  UNL d   1      -0.407   3.193  -1.029  0.00  0.00    -0.097 F 
ATOM     12  F4  UNL d   1      -1.746   2.754   1.307  0.00  0.00    -0.092 F 
ENDROOT
TORSDOF 0
ENDMDL
