MODEL 1
REMARK minimizedAffinity -4.16891003
REMARK minimizedRMSD -1
REMARK  0 active torsions:
REMARK  status: ('A' for Active; 'I' for Inactive)
ROOT
ATOM      1  C   UNL d   1       1.202   2.466   0.824  0.00  0.00     0.124 A 
ATOM      2  C1  UNL d   1       2.173   1.475   0.772  0.00  0.00     0.062 A 
ATOM      3  C2  UNL d   1       1.819   0.163   0.471  0.00  0.00     0.162 A 
ATOM      4  C3  UNL d   1       0.487  -0.166   0.219  0.00  0.00    -0.034 A 
ATOM      5  C4  UNL d   1      -0.484   0.835   0.274  0.00  0.00     0.162 A 
ATOM      6  C5  UNL d   1      -0.125   2.145   0.576  0.00  0.00     0.062 A 
ATOM      7  F   UNL d   1      -1.065   3.101   0.626  0.00  0.00    -0.097 F 
ATOM      8  F1  UNL d   1      -1.774   0.553   0.037  0.00  0.00    -0.096 F 
ATOM      9  I   UNL d   1      -0.046  -2.127  -0.232  0.00  0.00    -0.060 I 
ATOM     10  F2  UNL d   1       2.778  -0.773   0.427  0.00  0.00    -0.096 F 
ATOM     11  F3  UNL d   1       3.456   1.783   1.012  0.00  0.00    -0.097 F 
ATOM     12  F4  UNL d   1       1.545   3.727   1.115  0.00  0.00    -0.092 F 
ENDROOT
TORSDOF 0
ENDMDL
