MODEL 1
REMARK minimizedAffinity 5.22705603
REMARK minimizedRMSD -1
REMARK  0 active torsions:
REMARK  status: ('A' for Active; 'I' for Inactive)
ROOT
ATOM      1  C   UNL d   1       0.379  -2.068  -0.173  0.00  0.00     0.124 A 
ATOM      2  C1  UNL d   1       1.335  -1.303   0.479  0.00  0.00     0.062 A 
ATOM      3  C2  UNL d   1       1.196   0.080   0.550  0.00  0.00     0.162 A 
ATOM      4  C3  UNL d   1       0.094   0.707  -0.033  0.00  0.00    -0.034 A 
ATOM      5  C4  UNL d   1      -0.863  -0.069  -0.688  0.00  0.00     0.162 A 
ATOM      6  C5  UNL d   1      -0.719  -1.451  -0.756  0.00  0.00     0.062 A 
ATOM      7  F   UNL d   1      -1.644  -2.189  -1.387  0.00  0.00    -0.097 F 
ATOM      8  F1  UNL d   1      -1.934   0.501  -1.260  0.00  0.00    -0.096 F 
ATOM      9  I   UNL d   1      -0.118   2.775   0.071  0.00  0.00    -0.060 I 
ATOM     10  F2  UNL d   1       2.135   0.795   1.187  0.00  0.00    -0.096 F 
ATOM     11  F3  UNL d   1       2.397  -1.897   1.043  0.00  0.00    -0.097 F 
ATOM     12  F4  UNL d   1       0.516  -3.399  -0.241  0.00  0.00    -0.092 F 
ENDROOT
TORSDOF 0
ENDMDL
