MODEL 1
REMARK minimizedAffinity 10.8246946
REMARK minimizedRMSD -1
REMARK  0 active torsions:
REMARK  status: ('A' for Active; 'I' for Inactive)
ROOT
ATOM      1  C   UNL d   1      -1.581  -3.804  -1.341  0.00  0.00     0.124 A 
ATOM      2  C1  UNL d   1      -1.397  -3.425  -0.019  0.00  0.00     0.062 A 
ATOM      3  C2  UNL d   1      -0.402  -2.511   0.315  0.00  0.00     0.162 A 
ATOM      4  C3  UNL d   1       0.417  -1.968  -0.675  0.00  0.00    -0.034 A 
ATOM      5  C4  UNL d   1       0.226  -2.355  -2.003  0.00  0.00     0.162 A 
ATOM      6  C5  UNL d   1      -0.770  -3.269  -2.332  0.00  0.00     0.062 A 
ATOM      7  F   UNL d   1      -0.946  -3.634  -3.610  0.00  0.00    -0.097 F 
ATOM      8  F1  UNL d   1       0.996  -1.853  -2.980  0.00  0.00    -0.096 F 
ATOM      9  I   UNL d   1       1.906  -0.601  -0.179  0.00  0.00    -0.060 I 
ATOM     10  F2  UNL d   1      -0.247  -2.163   1.601  0.00  0.00    -0.096 F 
ATOM     11  F3  UNL d   1      -2.179  -3.941   0.940  0.00  0.00    -0.097 F 
ATOM     12  F4  UNL d   1      -2.539  -4.684  -1.660  0.00  0.00    -0.092 F 
ENDROOT
TORSDOF 0
ENDMDL
