MODEL 1
REMARK minimizedAffinity 4.60306692
REMARK minimizedRMSD -1
REMARK  0 active torsions:
REMARK  status: ('A' for Active; 'I' for Inactive)
ROOT
ATOM      1  C   UNL d   1       0.253   1.763   0.221  0.00  0.00     0.124 A 
ATOM      2  C1  UNL d   1       1.113   0.743   0.605  0.00  0.00     0.062 A 
ATOM      3  C2  UNL d   1       0.796  -0.582   0.324  0.00  0.00     0.162 A 
ATOM      4  C3  UNL d   1      -0.387  -0.897  -0.345  0.00  0.00    -0.034 A 
ATOM      5  C4  UNL d   1      -1.247   0.134  -0.728  0.00  0.00     0.162 A 
ATOM      6  C5  UNL d   1      -0.925   1.458  -0.445  0.00  0.00     0.062 A 
ATOM      7  F   UNL d   1      -1.757   2.442  -0.817  0.00  0.00    -0.097 F 
ATOM      8  F1  UNL d   1      -2.392  -0.132  -1.373  0.00  0.00    -0.096 F 
ATOM      9  I   UNL d   1      -0.865  -2.878  -0.767  0.00  0.00    -0.060 I 
ATOM     10  F2  UNL d   1       1.645  -1.547   0.707  0.00  0.00    -0.096 F 
ATOM     11  F3  UNL d   1       2.252   1.036   1.249  0.00  0.00    -0.097 F 
ATOM     12  F4  UNL d   1       0.561   3.038   0.493  0.00  0.00    -0.092 F 
ENDROOT
TORSDOF 0
ENDMDL
