MODEL 1
REMARK minimizedAffinity -4.65704966
REMARK minimizedRMSD -1
REMARK  0 active torsions:
REMARK  status: ('A' for Active; 'I' for Inactive)
ROOT
ATOM      1  C4' PXY d   1      -2.708   2.048  -1.922  0.00  0.00     0.077 C 
ATOM      2  C1' PXY d   1       1.487  -1.256   0.292  0.00  0.00     0.077 C 
ATOM      3  C1  PXY d   1       0.387  -0.382  -0.278  0.00  0.00    -0.082 A 
ATOM      4  C2  PXY d   1      -0.443  -0.880  -1.180  0.00  0.00     0.003 A 
ATOM      5  C3  PXY d   1      -1.423  -0.094  -1.730  0.00  0.00     0.003 A 
ATOM      6  C4  PXY d   1      -1.589   1.199  -1.312  0.00  0.00    -0.082 A 
ATOM      7  C5  PXY d   1      -0.753   1.711  -0.384  0.00  0.00     0.003 A 
ATOM      8  C6  PXY d   1       0.261   0.910   0.131  0.00  0.00     0.003 A 
ENDROOT
TORSDOF 0
ENDMDL
