MODEL 1
REMARK minimizedAffinity -4.38362026
REMARK minimizedRMSD -1
REMARK  0 active torsions:
REMARK  status: ('A' for Active; 'I' for Inactive)
ROOT
ATOM      1  C4' PXY d   1      -1.389   2.569  -1.415  0.00  0.00     0.077 C 
ATOM      2  C1' PXY d   1       1.885  -1.596   0.896  0.00  0.00     0.077 C 
ATOM      3  C1  PXY d   1       1.017  -0.512   0.288  0.00  0.00    -0.082 A 
ATOM      4  C2  PXY d   1       1.585   0.535  -0.287  0.00  0.00     0.003 A 
ATOM      5  C3  PXY d   1       0.814   1.540  -0.813  0.00  0.00     0.003 A 
ATOM      6  C4  PXY d   1      -0.552   1.446  -0.797  0.00  0.00    -0.082 A 
ATOM      7  C5  PXY d   1      -1.139   0.376  -0.221  0.00  0.00     0.003 A 
ATOM      8  C6  PXY d   1      -0.339  -0.614   0.343  0.00  0.00     0.003 A 
ENDROOT
TORSDOF 0
ENDMDL
