MODEL 1
REMARK minimizedAffinity 0.560487032
REMARK minimizedRMSD -1
REMARK  0 active torsions:
REMARK  status: ('A' for Active; 'I' for Inactive)
ROOT
ATOM      1  C4' PXY d   1       2.967  -0.663  -1.178  0.00  0.00     0.077 C 
ATOM      2  C1' PXY d   1      -1.835  -1.617   1.897  0.00  0.00     0.077 C 
ATOM      3  C1  PXY d   1      -0.569  -1.375   1.098  0.00  0.00    -0.082 A 
ATOM      4  C2  PXY d   1      -0.402  -0.223   0.470  0.00  0.00     0.003 A 
ATOM      5  C3  PXY d   1       0.722   0.000  -0.283  0.00  0.00     0.003 A 
ATOM      6  C4  PXY d   1       1.709  -0.946  -0.351  0.00  0.00    -0.082 A 
ATOM      7  C5  PXY d   1       1.550  -2.121   0.295  0.00  0.00     0.003 A 
ATOM      8  C6  PXY d   1       0.384  -2.343   1.020  0.00  0.00     0.003 A 
ENDROOT
TORSDOF 0
ENDMDL
