MODEL 1
REMARK minimizedAffinity -3.8668344
REMARK minimizedRMSD -1
REMARK  0 active torsions:
REMARK  status: ('A' for Active; 'I' for Inactive)
ROOT
ATOM      1  C4' PXY d   1      -2.013   1.498  -1.827  0.00  0.00     0.077 C 
ATOM      2  C1' PXY d   1       1.546  -2.108   0.958  0.00  0.00     0.077 C 
ATOM      3  C1  PXY d   1       0.604  -1.163   0.238  0.00  0.00    -0.082 A 
ATOM      4  C2  PXY d   1       0.666  -1.056  -1.080  0.00  0.00     0.003 A 
ATOM      5  C3  PXY d   1      -0.156  -0.183  -1.744  0.00  0.00     0.003 A 
ATOM      6  C4  PXY d   1      -1.088   0.550  -1.058  0.00  0.00    -0.082 A 
ATOM      7  C5  PXY d   1      -1.165   0.438   0.285  0.00  0.00     0.003 A 
ATOM      8  C6  PXY d   1      -0.293  -0.423   0.945  0.00  0.00     0.003 A 
ENDROOT
TORSDOF 0
ENDMDL
