MODEL 1
REMARK minimizedAffinity -3.97479153
REMARK minimizedRMSD -1
REMARK  0 active torsions:
REMARK  status: ('A' for Active; 'I' for Inactive)
ROOT
ATOM      1  C4' PXY d   1      -0.768   1.528  -1.249  0.00  0.00     0.077 C 
ATOM      2  C1' PXY d   1       1.674  -2.945   1.480  0.00  0.00     0.077 C 
ATOM      3  C1  PXY d   1       1.044  -1.765   0.766  0.00  0.00    -0.082 A 
ATOM      4  C2  PXY d   1      -0.273  -1.670   0.697  0.00  0.00     0.003 A 
ATOM      5  C3  PXY d   1      -0.859  -0.626   0.028  0.00  0.00     0.003 A 
ATOM      6  C4  PXY d   1      -0.089   0.359  -0.530  0.00  0.00    -0.082 A 
ATOM      7  C5  PXY d   1       1.256   0.275  -0.454  0.00  0.00     0.003 A 
ATOM      8  C6  PXY d   1       1.832  -0.814   0.194  0.00  0.00     0.003 A 
ENDROOT
TORSDOF 0
ENDMDL
