MODEL 1
REMARK minimizedAffinity -3.30138254
REMARK minimizedRMSD -1
REMARK  0 active torsions:
REMARK  status: ('A' for Active; 'I' for Inactive)
ROOT
ATOM      1  C4' PXY d   1      -1.500   1.472  -1.553  0.00  0.00     0.077 C 
ATOM      2  C1' PXY d   1       1.847  -2.288   1.289  0.00  0.00     0.077 C 
ATOM      3  C1  PXY d   1       0.958  -1.308   0.549  0.00  0.00    -0.082 A 
ATOM      4  C2  PXY d   1       1.399  -0.733  -0.558  0.00  0.00     0.003 A 
ATOM      5  C3  PXY d   1       0.621   0.180  -1.223  0.00  0.00     0.003 A 
ATOM      6  C4  PXY d   1      -0.641   0.468  -0.778  0.00  0.00    -0.082 A 
ATOM      7  C5  PXY d   1      -1.102  -0.121   0.346  0.00  0.00     0.003 A 
ATOM      8  C6  PXY d   1      -0.281  -1.014   1.028  0.00  0.00     0.003 A 
ENDROOT
TORSDOF 0
ENDMDL
