MODEL 1
REMARK minimizedAffinity -3.59905863
REMARK minimizedRMSD -1
REMARK  0 active torsions:
REMARK  status: ('A' for Active; 'I' for Inactive)
ROOT
ATOM      1  C4' PXY d   1       1.938  -2.818   1.555  0.00  0.00     0.077 C 
ATOM      2  C1' PXY d   1      -1.163   1.347  -0.986  0.00  0.00     0.077 C 
ATOM      3  C1  PXY d   1      -0.345   0.251  -0.331  0.00  0.00    -0.082 A 
ATOM      4  C2  PXY d   1      -0.718  -0.230   0.843  0.00  0.00     0.003 A 
ATOM      5  C3  PXY d   1       0.028  -1.199   1.464  0.00  0.00     0.003 A 
ATOM      6  C4  PXY d   1       1.137  -1.718   0.852  0.00  0.00    -0.082 A 
ATOM      7  C5  PXY d   1       1.518  -1.239  -0.351  0.00  0.00     0.003 A 
ATOM      8  C6  PXY d   1       0.771  -0.227  -0.946  0.00  0.00     0.003 A 
ENDROOT
TORSDOF 0
ENDMDL
