MODEL 1
REMARK minimizedAffinity -3.34024835
REMARK minimizedRMSD -1
REMARK  0 active torsions:
REMARK  status: ('A' for Active; 'I' for Inactive)
ROOT
ATOM      1  C4' PXY d   1      -1.062   1.788  -0.772  0.00  0.00     0.077 C 
ATOM      2  C1' PXY d   1       1.511  -2.976   1.251  0.00  0.00     0.077 C 
ATOM      3  C1  PXY d   1       0.825  -1.732   0.724  0.00  0.00    -0.082 A 
ATOM      4  C2  PXY d   1       1.412  -1.010  -0.216  0.00  0.00     0.003 A 
ATOM      5  C3  PXY d   1       0.820   0.137  -0.681  0.00  0.00     0.003 A 
ATOM      6  C4  PXY d   1      -0.410   0.519  -0.217  0.00  0.00    -0.082 A 
ATOM      7  C5  PXY d   1      -1.020  -0.218   0.735  0.00  0.00     0.003 A 
ATOM      8  C6  PXY d   1      -0.384  -1.356   1.223  0.00  0.00     0.003 A 
ENDROOT
TORSDOF 0
ENDMDL
