MODEL 1
REMARK minimizedAffinity -4.01893568
REMARK minimizedRMSD -1
REMARK  0 active torsions:
REMARK  status: ('A' for Active; 'I' for Inactive)
ROOT
ATOM      1  C4' PXY d   1      -1.659   1.127  -2.143  0.00  0.00     0.077 C 
ATOM      2  C1' PXY d   1       2.269  -1.546   1.150  0.00  0.00     0.077 C 
ATOM      3  C1  PXY d   1       1.232  -0.842   0.297  0.00  0.00    -0.082 A 
ATOM      4  C2  PXY d   1       1.108  -1.164  -0.981  0.00  0.00     0.003 A 
ATOM      5  C3  PXY d   1       0.197  -0.515  -1.774  0.00  0.00     0.003 A 
ATOM      6  C4  PXY d   1      -0.632   0.436  -1.242  0.00  0.00    -0.082 A 
ATOM      7  C5  PXY d   1      -0.519   0.762   0.063  0.00  0.00     0.003 A 
ATOM      8  C6  PXY d   1       0.440   0.121   0.842  0.00  0.00     0.003 A 
ENDROOT
TORSDOF 0
ENDMDL
