MODEL 1
REMARK minimizedAffinity -3.05855727
REMARK minimizedRMSD -1
REMARK  0 active torsions:
REMARK  status: ('A' for Active; 'I' for Inactive)
ROOT
ATOM      1  C4' PXY d   1      -1.836   1.059  -1.856  0.00  0.00     0.077 C 
ATOM      2  C1' PXY d   1       2.027  -2.334   0.787  0.00  0.00     0.077 C 
ATOM      3  C1  PXY d   1       1.006  -1.445   0.104  0.00  0.00    -0.082 A 
ATOM      4  C2  PXY d   1       0.974  -1.380  -1.217  0.00  0.00     0.003 A 
ATOM      5  C3  PXY d   1       0.078  -0.557  -1.850  0.00  0.00     0.003 A 
ATOM      6  C4  PXY d   1      -0.829   0.167  -1.124  0.00  0.00    -0.082 A 
ATOM      7  C5  PXY d   1      -0.810   0.098   0.224  0.00  0.00     0.003 A 
ATOM      8  C6  PXY d   1       0.134  -0.712   0.848  0.00  0.00     0.003 A 
ENDROOT
TORSDOF 0
ENDMDL
