MODEL 1
REMARK minimizedAffinity -3.98539853
REMARK minimizedRMSD -1
REMARK  0 active torsions:
REMARK  status: ('A' for Active; 'I' for Inactive)
ROOT
ATOM      1  C4' PXY d   1       4.103  -0.388   2.614  0.00  0.00     0.077 C 
ATOM      2  C1' PXY d   1       0.100  -0.732  -1.541  0.00  0.00     0.077 C 
ATOM      3  C1  PXY d   1       1.145  -0.652  -0.445  0.00  0.00    -0.082 A 
ATOM      4  C2  PXY d   1       1.767   0.493  -0.218  0.00  0.00     0.003 A 
ATOM      5  C3  PXY d   1       2.737   0.575   0.748  0.00  0.00     0.003 A 
ATOM      6  C4  PXY d   1       3.035  -0.512   1.525  0.00  0.00    -0.082 A 
ATOM      7  C5  PXY d   1       2.397  -1.681   1.306  0.00  0.00     0.003 A 
ATOM      8  C6  PXY d   1       1.445  -1.755   0.293  0.00  0.00     0.003 A 
ENDROOT
TORSDOF 0
ENDMDL
