MODEL 1
REMARK minimizedAffinity -3.13081098
REMARK minimizedRMSD -1
REMARK  0 active torsions:
REMARK  status: ('A' for Active; 'I' for Inactive)
ROOT
ATOM      1  C4' PXY d   1       1.118  -3.963   2.996  0.00  0.00     0.077 C 
ATOM      2  C1' PXY d   1       0.191   0.410  -0.670  0.00  0.00     0.077 C 
ATOM      3  C1  PXY d   1       0.428  -0.730   0.301  0.00  0.00    -0.082 A 
ATOM      4  C2  PXY d   1       1.418  -1.580   0.083  0.00  0.00     0.003 A 
ATOM      5  C3  PXY d   1       1.627  -2.635   0.933  0.00  0.00     0.003 A 
ATOM      6  C4  PXY d   1       0.847  -2.791   2.048  0.00  0.00    -0.082 A 
ATOM      7  C5  PXY d   1      -0.158  -1.922   2.283  0.00  0.00     0.003 A 
ATOM      8  C6  PXY d   1      -0.380  -0.882   1.385  0.00  0.00     0.003 A 
ENDROOT
TORSDOF 0
ENDMDL
