MODEL 1
REMARK minimizedAffinity -4.92577076
REMARK minimizedRMSD -1
REMARK  0 active torsions:
REMARK  status: ('A' for Active; 'I' for Inactive)
ROOT
ATOM      1  C4' PXY d   1      -1.597   1.786  -1.208  0.00  0.00     0.077 C 
ATOM      2  C1' PXY d   1       1.481  -2.690   0.767  0.00  0.00     0.077 C 
ATOM      3  C1  PXY d   1       0.666  -1.517   0.259  0.00  0.00    -0.082 A 
ATOM      4  C2  PXY d   1       0.713  -1.194  -1.023  0.00  0.00     0.003 A 
ATOM      5  C3  PXY d   1       0.007  -0.117  -1.493  0.00  0.00     0.003 A 
ATOM      6  C4  PXY d   1      -0.798   0.604  -0.652  0.00  0.00    -0.082 A 
ATOM      7  C5  PXY d   1      -0.859   0.275   0.655  0.00  0.00     0.003 A 
ATOM      8  C6  PXY d   1      -0.103  -0.797   1.121  0.00  0.00     0.003 A 
ENDROOT
TORSDOF 0
ENDMDL
