MODEL 1
REMARK minimizedAffinity -4.09802914
REMARK minimizedRMSD -1
REMARK  0 active torsions:
REMARK  status: ('A' for Active; 'I' for Inactive)
ROOT
ATOM      1  C4' PXY d   1       1.549  -3.009   1.926  0.00  0.00     0.077 C 
ATOM      2  C1' PXY d   1      -1.204   1.211  -0.906  0.00  0.00     0.077 C 
ATOM      3  C1  PXY d   1      -0.492   0.103  -0.155  0.00  0.00    -0.082 A 
ATOM      4  C2  PXY d   1       0.828   0.033  -0.190  0.00  0.00     0.003 A 
ATOM      5  C3  PXY d   1       1.487  -0.981   0.457  0.00  0.00     0.003 A 
ATOM      6  C4  PXY d   1       0.789  -1.902   1.191  0.00  0.00    -0.082 A 
ATOM      7  C5  PXY d   1      -0.558  -1.831   1.241  0.00  0.00     0.003 A 
ATOM      8  C6  PXY d   1      -1.210  -0.818   0.543  0.00  0.00     0.003 A 
ENDROOT
TORSDOF 0
ENDMDL
