MODEL 1
REMARK minimizedAffinity -4.89690018
REMARK minimizedRMSD -1
REMARK  0 active torsions:
REMARK  status: ('A' for Active; 'I' for Inactive)
ROOT
ATOM      1  C4' PXY d   1      -1.027   1.374  -0.896  0.00  0.00     0.077 C 
ATOM      2  C1' PXY d   1       1.698  -3.197   1.361  0.00  0.00     0.077 C 
ATOM      3  C1  PXY d   1       0.995  -1.993   0.766  0.00  0.00    -0.082 A 
ATOM      4  C2  PXY d   1      -0.208  -1.657   1.201  0.00  0.00     0.003 A 
ATOM      5  C3  PXY d   1      -0.872  -0.590   0.651  0.00  0.00     0.003 A 
ATOM      6  C4  PXY d   1      -0.276   0.172  -0.317  0.00  0.00    -0.082 A 
ATOM      7  C5  PXY d   1       0.956  -0.158  -0.759  0.00  0.00     0.003 A 
ATOM      8  C6  PXY d   1       1.596  -1.269  -0.217  0.00  0.00     0.003 A 
ENDROOT
TORSDOF 0
ENDMDL
