MODEL 1
REMARK minimizedAffinity -1.7754159
REMARK minimizedRMSD -1
REMARK  0 active torsions:
REMARK  status: ('A' for Active; 'I' for Inactive)
ROOT
ATOM      1  C4' PXY d   1      -1.150   1.864  -0.931  0.00  0.00     0.077 C 
ATOM      2  C1' PXY d   1       1.907  -2.581   1.143  0.00  0.00     0.077 C 
ATOM      3  C1  PXY d   1       1.094  -1.421   0.604  0.00  0.00    -0.082 A 
ATOM      4  C2  PXY d   1       1.571  -0.697  -0.396  0.00  0.00     0.003 A 
ATOM      5  C3  PXY d   1       0.864   0.375  -0.875  0.00  0.00     0.003 A 
ATOM      6  C4  PXY d   1      -0.369   0.678  -0.361  0.00  0.00    -0.082 A 
ATOM      7  C5  PXY d   1      -0.867  -0.062   0.653  0.00  0.00     0.003 A 
ATOM      8  C6  PXY d   1      -0.115  -1.121   1.152  0.00  0.00     0.003 A 
ENDROOT
TORSDOF 0
ENDMDL
