MODEL 1
REMARK minimizedAffinity -0.822274923
REMARK minimizedRMSD -1
REMARK  0 active torsions:
REMARK  status: ('A' for Active; 'I' for Inactive)
ROOT
ATOM      1  C4' PXY d   1       3.280   1.551  -1.108  0.00  0.00     0.077 C 
ATOM      2  C1' PXY d   1      -1.602  -0.246   1.414  0.00  0.00     0.077 C 
ATOM      3  C1  PXY d   1      -0.315   0.217   0.760  0.00  0.00    -0.082 A 
ATOM      4  C2  PXY d   1      -0.274   1.395   0.159  0.00  0.00     0.003 A 
ATOM      5  C3  PXY d   1       0.873   1.816  -0.465  0.00  0.00     0.003 A 
ATOM      6  C4  PXY d   1       2.005   1.046  -0.426  0.00  0.00    -0.082 A 
ATOM      7  C5  PXY d   1       1.974  -0.152   0.194  0.00  0.00     0.003 A 
ATOM      8  C6  PXY d   1       0.789  -0.579   0.786  0.00  0.00     0.003 A 
ENDROOT
TORSDOF 0
ENDMDL
