MODEL 1
REMARK minimizedAffinity 0.917007387
REMARK minimizedRMSD -1
REMARK  0 active torsions:
REMARK  status: ('A' for Active; 'I' for Inactive)
ROOT
ATOM      1  C4' PXY d   1       1.510  -2.973   1.438  0.00  0.00     0.077 C 
ATOM      2  C1' PXY d   1      -1.135   1.771  -0.541  0.00  0.00     0.077 C 
ATOM      3  C1  PXY d   1      -0.448   0.528  -0.010  0.00  0.00    -0.082 A 
ATOM      4  C2  PXY d   1       0.706   0.145  -0.533  0.00  0.00     0.003 A 
ATOM      5  C3  PXY d   1       1.325  -0.994  -0.087  0.00  0.00     0.003 A 
ATOM      6  C4  PXY d   1       0.785  -1.720   0.941  0.00  0.00    -0.082 A 
ATOM      7  C5  PXY d   1      -0.386  -1.329   1.487  0.00  0.00     0.003 A 
ATOM      8  C6  PXY d   1      -1.020  -0.193   0.992  0.00  0.00     0.003 A 
ENDROOT
TORSDOF 0
ENDMDL
