MODEL 1
REMARK minimizedAffinity -5.30449867
REMARK minimizedRMSD -1
REMARK  0 active torsions:
REMARK  status: ('A' for Active; 'I' for Inactive)
ROOT
ATOM      1  C4' PXY d   1      -2.100   2.306  -3.757  0.00  0.00     0.077 C 
ATOM      2  C1' PXY d   1      -0.397  -1.406   0.333  0.00  0.00     0.077 C 
ATOM      3  C1  PXY d   1      -0.847  -0.443  -0.747  0.00  0.00    -0.082 A 
ATOM      4  C2  PXY d   1      -0.365   0.790  -0.766  0.00  0.00     0.003 A 
ATOM      5  C3  PXY d   1      -0.785   1.684  -1.717  0.00  0.00     0.003 A 
ATOM      6  C4  PXY d   1      -1.667   1.297  -2.690  0.00  0.00    -0.082 A 
ATOM      7  C5  PXY d   1      -2.155   0.038  -2.684  0.00  0.00     0.003 A 
ATOM      8  C6  PXY d   1      -1.747  -0.842  -1.686  0.00  0.00     0.003 A 
ENDROOT
TORSDOF 0
ENDMDL
