MODEL 1
REMARK minimizedAffinity -2.13151383
REMARK minimizedRMSD -1
REMARK  0 active torsions:
REMARK  status: ('A' for Active; 'I' for Inactive)
ROOT
ATOM      1  C   UNL d   1       0.664   0.206  -2.478  0.00  0.00     0.172 C 
ATOM      2  N   UNL d   1       0.706   0.172  -1.035  0.00  0.00    -0.070 N 
ATOM      3  C1  UNL d   1       1.235  -0.837  -0.275  0.00  0.00    -0.004 A 
ATOM      4  C2  UNL d   1       1.082  -0.492   1.051  0.00  0.00    -0.047 A 
ATOM      5  C3  UNL d   1       0.438   0.768   1.089  0.00  0.00    -0.047 A 
ATOM      6  C4  UNL d   1       0.217   1.156  -0.216  0.00  0.00    -0.004 A 
ENDROOT
TORSDOF 0
ENDMDL
