MODEL 1
REMARK minimizedAffinity -2.40472722
REMARK minimizedRMSD -1
REMARK  0 active torsions:
REMARK  status: ('A' for Active; 'I' for Inactive)
ROOT
ATOM      1  C   UNL d   1       5.969   3.722   5.418  0.00  0.00     0.172 C 
ATOM      2  N   UNL d   1       5.406   2.782   4.477  0.00  0.00    -0.070 N 
ATOM      3  C1  UNL d   1       4.206   2.921   3.832  0.00  0.00    -0.004 A 
ATOM      4  C2  UNL d   1       4.031   1.818   3.025  0.00  0.00    -0.047 A 
ATOM      5  C3  UNL d   1       5.164   0.987   3.191  0.00  0.00    -0.047 A 
ATOM      6  C4  UNL d   1       5.999   1.608   4.096  0.00  0.00    -0.004 A 
ENDROOT
TORSDOF 0
ENDMDL
