MODEL 1
REMARK minimizedAffinity -3.38208961
REMARK minimizedRMSD -1
REMARK  0 active torsions:
REMARK  status: ('A' for Active; 'I' for Inactive)
ROOT
ATOM      1  C   UNL d   1       0.282  -0.326  -0.688  0.00  0.00     0.172 C 
ATOM      2  N   UNL d   1      -0.319   0.333   0.448  0.00  0.00    -0.070 N 
ATOM      3  C1  UNL d   1      -1.591   0.836   0.498  0.00  0.00    -0.004 A 
ATOM      4  C2  UNL d   1      -1.780   1.382   1.749  0.00  0.00    -0.047 A 
ATOM      5  C3  UNL d   1      -0.580   1.201   2.476  0.00  0.00    -0.047 A 
ATOM      6  C4  UNL d   1       0.308   0.549   1.646  0.00  0.00    -0.004 A 
ENDROOT
TORSDOF 0
ENDMDL
