MODEL 1
REMARK minimizedAffinity 1.05197608
REMARK minimizedRMSD -1
REMARK  0 active torsions:
REMARK  status: ('A' for Active; 'I' for Inactive)
ROOT
ATOM      1  N1  IND d   1      -1.168  -0.158   1.116  0.00  0.00    -0.196 N 
ATOM      2  C2  IND d   1      -0.993  -0.748   2.337  0.00  0.00     0.054 A 
ATOM      3  C3  IND d   1       0.229  -1.322   2.411  0.00  0.00    -0.031 A 
ATOM      4  C4  IND d   1       2.140  -1.328   0.686  0.00  0.00     0.051 A 
ATOM      5  C5  IND d   1       2.438  -0.949  -0.593  0.00  0.00    -0.031 A 
ATOM      6  C6  IND d   1       1.532  -0.272  -1.383  0.00  0.00     0.015 A 
ATOM      7  C7  IND d   1       0.292   0.064  -0.916  0.00  0.00    -0.016 A 
ATOM      8  C8  IND d   1      -0.016  -0.325   0.379  0.00  0.00    -0.047 A 
ATOM      9  C9  IND d   1       0.884  -1.050   1.171  0.00  0.00    -0.096 A 
ATOM     10  HN1 IND d   1      -1.879   0.249   0.853  0.00  0.00     0.298 HD
ENDROOT
TORSDOF 0
ENDMDL
