MODEL 1
REMARK minimizedAffinity -0.434406638
REMARK minimizedRMSD -1
REMARK  0 active torsions:
REMARK  status: ('A' for Active; 'I' for Inactive)
ROOT
ATOM      1  N1  IND d   1       1.923  -2.061   1.480  0.00  0.00    -0.196 N 
ATOM      2  C2  IND d   1       2.247  -1.438   0.307  0.00  0.00     0.054 A 
ATOM      3  C3  IND d   1       1.235  -0.638  -0.096  0.00  0.00    -0.031 A 
ATOM      4  C4  IND d   1      -1.003  -0.120   1.067  0.00  0.00     0.051 A 
ATOM      5  C5  IND d   1      -1.765  -0.477   2.144  0.00  0.00    -0.031 A 
ATOM      6  C6  IND d   1      -1.327  -1.397   3.074  0.00  0.00     0.015 A 
ATOM      7  C7  IND d   1      -0.100  -1.988   2.969  0.00  0.00    -0.016 A 
ATOM      8  C8  IND d   1       0.674  -1.633   1.873  0.00  0.00    -0.047 A 
ATOM      9  C9  IND d   1       0.217  -0.732   0.903  0.00  0.00    -0.096 A 
ATOM     10  HN1 IND d   1       2.417  -2.625   1.902  0.00  0.00     0.298 HD
ENDROOT
TORSDOF 0
ENDMDL
