MODEL 1
REMARK minimizedAffinity 1.69073391
REMARK minimizedRMSD -1
REMARK  0 active torsions:
REMARK  status: ('A' for Active; 'I' for Inactive)
ROOT
ATOM      1  N1  IND d   1      -1.437   0.014   0.318  0.00  0.00    -0.196 N 
ATOM      2  C2  IND d   1      -0.256   0.583   0.704  0.00  0.00     0.054 A 
ATOM      3  C3  IND d   1       0.182   1.445  -0.241  0.00  0.00    -0.031 A 
ATOM      4  C4  IND d   1      -0.931   2.152  -2.452  0.00  0.00     0.051 A 
ATOM      5  C5  IND d   1      -2.003   1.877  -3.255  0.00  0.00    -0.031 A 
ATOM      6  C6  IND d   1      -2.962   0.950  -2.899  0.00  0.00     0.015 A 
ATOM      7  C7  IND d   1      -2.890   0.269  -1.717  0.00  0.00    -0.016 A 
ATOM      8  C8  IND d   1      -1.799   0.541  -0.903  0.00  0.00    -0.047 A 
ATOM      9  C9  IND d   1      -0.801   1.449  -1.278  0.00  0.00    -0.096 A 
ATOM     10  HN1 IND d   1      -1.880  -0.573   0.763  0.00  0.00     0.298 HD
ENDROOT
TORSDOF 0
ENDMDL
