MODEL 1
REMARK minimizedAffinity -1.72944081
REMARK minimizedRMSD -1
REMARK  0 active torsions:
REMARK  status: ('A' for Active; 'I' for Inactive)
ROOT
ATOM      1  N1  IND d   1      -0.808   2.407   0.893  0.00  0.00    -0.196 N 
ATOM      2  C2  IND d   1      -1.265   1.209   1.367  0.00  0.00     0.054 A 
ATOM      3  C3  IND d   1      -1.938   0.546   0.399  0.00  0.00    -0.031 A 
ATOM      4  C4  IND d   1      -2.324   1.195  -2.062  0.00  0.00     0.051 A 
ATOM      5  C5  IND d   1      -2.128   2.214  -2.951  0.00  0.00    -0.031 A 
ATOM      6  C6  IND d   1      -1.466   3.372  -2.598  0.00  0.00     0.015 A 
ATOM      7  C7  IND d   1      -0.963   3.550  -1.340  0.00  0.00    -0.016 A 
ATOM      8  C8  IND d   1      -1.167   2.520  -0.432  0.00  0.00    -0.047 A 
ATOM      9  C9  IND d   1      -1.875   1.360  -0.773  0.00  0.00    -0.096 A 
ATOM     10  HN1 IND d   1      -0.371   2.992   1.346  0.00  0.00     0.298 HD
ENDROOT
TORSDOF 0
ENDMDL
