MODEL 1
REMARK minimizedAffinity -5.10063457
REMARK minimizedRMSD -1
REMARK  0 active torsions:
REMARK  status: ('A' for Active; 'I' for Inactive)
ROOT
ATOM      1  N1  IND d   1      -1.223   0.951   1.342  0.00  0.00    -0.196 N 
ATOM      2  C2  IND d   1      -1.269   1.574   0.126  0.00  0.00     0.054 A 
ATOM      3  C3  IND d   1      -0.714   0.790  -0.825  0.00  0.00    -0.031 A 
ATOM      4  C4  IND d   1       0.242  -1.593  -0.628  0.00  0.00     0.051 A 
ATOM      5  C5  IND d   1       0.535  -2.563   0.288  0.00  0.00    -0.031 A 
ATOM      6  C6  IND d   1       0.249  -2.410   1.629  0.00  0.00     0.015 A 
ATOM      7  C7  IND d   1      -0.354  -1.280   2.105  0.00  0.00    -0.016 A 
ATOM      8  C8  IND d   1      -0.647  -0.289   1.178  0.00  0.00    -0.047 A 
ATOM      9  C9  IND d   1      -0.320  -0.422  -0.178  0.00  0.00    -0.096 A 
ATOM     10  HN1 IND d   1      -1.506   1.280   2.084  0.00  0.00     0.298 HD
ENDROOT
TORSDOF 0
ENDMDL
