MODEL 1
REMARK minimizedAffinity 6.90386105
REMARK minimizedRMSD -1
REMARK  0 active torsions:
REMARK  status: ('A' for Active; 'I' for Inactive)
ROOT
ATOM      1  N1  IND d   1      -1.894   1.648   0.604  0.00  0.00    -0.196 N 
ATOM      2  C2  IND d   1      -2.976   1.017   1.152  0.00  0.00     0.054 A 
ATOM      3  C3  IND d   1      -3.917   0.793   0.209  0.00  0.00    -0.031 A 
ATOM      4  C4  IND d   1      -3.852   1.285  -2.317  0.00  0.00     0.051 A 
ATOM      5  C5  IND d   1      -3.088   1.886  -3.278  0.00  0.00    -0.031 A 
ATOM      6  C6  IND d   1      -1.861   2.447  -2.989  0.00  0.00     0.015 A 
ATOM      7  C7  IND d   1      -1.345   2.418  -1.724  0.00  0.00    -0.016 A 
ATOM      8  C8  IND d   1      -2.121   1.815  -0.745  0.00  0.00    -0.047 A 
ATOM      9  C9  IND d   1      -3.386   1.281  -1.024  0.00  0.00    -0.096 A 
ATOM     10  HN1 IND d   1      -1.190   1.898   1.030  0.00  0.00     0.298 HD
ENDROOT
TORSDOF 0
ENDMDL
