MODEL 1
REMARK minimizedAffinity 5.68820572
REMARK minimizedRMSD -1
REMARK  0 active torsions:
REMARK  status: ('A' for Active; 'I' for Inactive)
ROOT
ATOM      1  N1  IND d   1       3.723  -0.833  -2.031  0.00  0.00    -0.196 N 
ATOM      2  C2  IND d   1       3.647   0.529  -2.131  0.00  0.00     0.054 A 
ATOM      3  C3  IND d   1       2.881   1.031  -1.137  0.00  0.00    -0.031 A 
ATOM      4  C4  IND d   1       1.737  -0.186   0.821  0.00  0.00     0.051 A 
ATOM      5  C5  IND d   1       1.491  -1.436   1.317  0.00  0.00    -0.031 A 
ATOM      6  C6  IND d   1       1.989  -2.571   0.711  0.00  0.00     0.015 A 
ATOM      7  C7  IND d   1       2.764  -2.498  -0.412  0.00  0.00    -0.016 A 
ATOM      8  C8  IND d   1       3.010  -1.231  -0.921  0.00  0.00    -0.047 A 
ATOM      9  C9  IND d   1       2.473  -0.078  -0.335  0.00  0.00    -0.096 A 
ATOM     10  HN1 IND d   1       4.145  -1.353  -2.570  0.00  0.00     0.298 HD
ENDROOT
TORSDOF 0
ENDMDL
