MODEL 1
REMARK minimizedAffinity 2.64142799
REMARK minimizedRMSD -1
REMARK  0 active torsions:
REMARK  status: ('A' for Active; 'I' for Inactive)
ROOT
ATOM      1  N1  IND d   1      -0.410   1.479   0.588  0.00  0.00    -0.196 N 
ATOM      2  C2  IND d   1      -1.415   0.988   1.374  0.00  0.00     0.054 A 
ATOM      3  C3  IND d   1      -1.162  -0.296   1.713  0.00  0.00    -0.031 A 
ATOM      4  C4  IND d   1       0.888  -1.756   1.174  0.00  0.00     0.051 A 
ATOM      5  C5  IND d   1       2.051  -1.758   0.456  0.00  0.00    -0.031 A 
ATOM      6  C6  IND d   1       2.462  -0.657  -0.268  0.00  0.00     0.015 A 
ATOM      7  C7  IND d   1       1.728   0.495  -0.291  0.00  0.00    -0.016 A 
ATOM      8  C8  IND d   1       0.544   0.498   0.432  0.00  0.00    -0.047 A 
ATOM      9  C9  IND d   1       0.100  -0.630   1.134  0.00  0.00    -0.096 A 
ATOM     10  HN1 IND d   1      -0.380   2.268   0.248  0.00  0.00     0.298 HD
ENDROOT
TORSDOF 0
ENDMDL
