MODEL 1
REMARK minimizedAffinity 4.17957544
REMARK minimizedRMSD -1
REMARK  0 active torsions:
REMARK  status: ('A' for Active; 'I' for Inactive)
ROOT
ATOM      1  N1  IND d   1       3.089  -1.306  -2.141  0.00  0.00    -0.196 N 
ATOM      2  C2  IND d   1       3.567  -0.062  -1.838  0.00  0.00     0.054 A 
ATOM      3  C3  IND d   1       3.344   0.223  -0.535  0.00  0.00    -0.031 A 
ATOM      4  C4  IND d   1       2.305  -1.247   1.305  0.00  0.00     0.051 A 
ATOM      5  C5  IND d   1       1.687  -2.450   1.502  0.00  0.00    -0.031 A 
ATOM      6  C6  IND d   1       1.503  -3.352   0.475  0.00  0.00     0.015 A 
ATOM      7  C7  IND d   1       1.943  -3.089  -0.792  0.00  0.00    -0.016 A 
ATOM      8  C8  IND d   1       2.565  -1.865  -0.997  0.00  0.00    -0.047 A 
ATOM      9  C9  IND d   1       2.716  -0.928   0.033  0.00  0.00    -0.096 A 
ATOM     10  HN1 IND d   1       3.112  -1.677  -2.917  0.00  0.00     0.298 HD
ENDROOT
TORSDOF 0
ENDMDL
