MODEL 1
REMARK minimizedAffinity 5.44900942
REMARK minimizedRMSD -1
REMARK  0 active torsions:
REMARK  status: ('A' for Active; 'I' for Inactive)
ROOT
ATOM      1  N1  IND d   1      -2.740   1.133   0.954  0.00  0.00    -0.196 N 
ATOM      2  C2  IND d   1      -2.392   0.717   2.209  0.00  0.00     0.054 A 
ATOM      3  C3  IND d   1      -2.140  -0.611   2.211  0.00  0.00    -0.031 A 
ATOM      4  C4  IND d   1      -2.137  -2.278   0.250  0.00  0.00     0.051 A 
ATOM      5  C5  IND d   1      -2.426  -2.375  -1.082  0.00  0.00    -0.031 A 
ATOM      6  C6  IND d   1      -2.841  -1.285  -1.819  0.00  0.00     0.015 A 
ATOM      7  C7  IND d   1      -2.971  -0.049  -1.252  0.00  0.00    -0.016 A 
ATOM      8  C8  IND d   1      -2.685   0.052   0.102  0.00  0.00    -0.047 A 
ATOM      9  C9  IND d   1      -2.304  -1.060   0.865  0.00  0.00    -0.096 A 
ATOM     10  HN1 IND d   1      -2.956   1.936   0.733  0.00  0.00     0.298 HD
ENDROOT
TORSDOF 0
ENDMDL
