MODEL 1
REMARK minimizedAffinity 2.94818139
REMARK minimizedRMSD -1
REMARK  0 active torsions:
REMARK  status: ('A' for Active; 'I' for Inactive)
ROOT
ATOM      1  N1  IND d   1      -2.383   0.995  -1.916  0.00  0.00    -0.196 N 
ATOM      2  C2  IND d   1      -3.672   1.200  -2.322  0.00  0.00     0.054 A 
ATOM      3  C3  IND d   1      -4.508   1.184  -1.259  0.00  0.00    -0.031 A 
ATOM      4  C4  IND d   1      -3.964   0.937   1.245  0.00  0.00     0.051 A 
ATOM      5  C5  IND d   1      -2.930   0.690   2.104  0.00  0.00    -0.031 A 
ATOM      6  C6  IND d   1      -1.634   0.531   1.657  0.00  0.00     0.015 A 
ATOM      7  C7  IND d   1      -1.321   0.625   0.331  0.00  0.00    -0.016 A 
ATOM      8  C8  IND d   1      -2.370   0.869  -0.544  0.00  0.00    -0.047 A 
ATOM      9  C9  IND d   1      -3.693   0.989  -0.102  0.00  0.00    -0.096 A 
ATOM     10  HN1 IND d   1      -1.696   0.951  -2.431  0.00  0.00     0.298 HD
ENDROOT
TORSDOF 0
ENDMDL
