MODEL 1
REMARK minimizedAffinity 7.12730408
REMARK minimizedRMSD -1
REMARK  0 active torsions:
REMARK  status: ('A' for Active; 'I' for Inactive)
ROOT
ATOM      1  N1  IND d   1      -2.742   1.534  -2.688  0.00  0.00    -0.196 N 
ATOM      2  C2  IND d   1      -1.934   2.584  -3.026  0.00  0.00     0.054 A 
ATOM      3  C3  IND d   1      -1.365   3.114  -1.921  0.00  0.00    -0.031 A 
ATOM      4  C4  IND d   1      -1.536   2.353   0.533  0.00  0.00     0.051 A 
ATOM      5  C5  IND d   1      -2.183   1.462   1.341  0.00  0.00    -0.031 A 
ATOM      6  C6  IND d   1      -3.066   0.528   0.837  0.00  0.00     0.015 A 
ATOM      7  C7  IND d   1      -3.326   0.443  -0.501  0.00  0.00    -0.016 A 
ATOM      8  C8  IND d   1      -2.676   1.352  -1.324  0.00  0.00    -0.047 A 
ATOM      9  C9  IND d   1      -1.812   2.329  -0.814  0.00  0.00    -0.096 A 
ATOM     10  HN1 IND d   1      -3.212   1.066  -3.235  0.00  0.00     0.298 HD
ENDROOT
TORSDOF 0
ENDMDL
