MODEL 1
REMARK minimizedAffinity 5.37136698
REMARK minimizedRMSD -1
REMARK  0 active torsions:
REMARK  status: ('A' for Active; 'I' for Inactive)
ROOT
ATOM      1  N1  IND d   1      -2.209  -2.501  -0.697  0.00  0.00    -0.196 N 
ATOM      2  C2  IND d   1      -2.559  -1.368  -1.377  0.00  0.00     0.054 A 
ATOM      3  C3  IND d   1      -2.252  -0.270  -0.651  0.00  0.00    -0.031 A 
ATOM      4  C4  IND d   1      -1.078  -0.095   1.633  0.00  0.00     0.051 A 
ATOM      5  C5  IND d   1      -0.602  -0.859   2.661  0.00  0.00    -0.031 A 
ATOM      6  C6  IND d   1      -0.635  -2.238   2.620  0.00  0.00     0.015 A 
ATOM      7  C7  IND d   1      -1.137  -2.907   1.539  0.00  0.00    -0.016 A 
ATOM      8  C8  IND d   1      -1.629  -2.133   0.497  0.00  0.00    -0.047 A 
ATOM      9  C9  IND d   1      -1.637  -0.734   0.552  0.00  0.00    -0.096 A 
ATOM     10  HN1 IND d   1      -2.331  -3.307  -0.969  0.00  0.00     0.298 HD
ENDROOT
TORSDOF 0
ENDMDL
