MODEL 1
REMARK minimizedAffinity 3.21201992
REMARK minimizedRMSD -1
REMARK  0 active torsions:
REMARK  status: ('A' for Active; 'I' for Inactive)
ROOT
ATOM      1  N1  IND d   1      -0.995   0.826   1.457  0.00  0.00    -0.196 N 
ATOM      2  C2  IND d   1      -1.791  -0.107   2.060  0.00  0.00     0.054 A 
ATOM      3  C3  IND d   1      -1.222  -1.331   1.985  0.00  0.00    -0.031 A 
ATOM      4  C4  IND d   1       1.059  -2.016   1.008  0.00  0.00     0.051 A 
ATOM      5  C5  IND d   1       2.127  -1.520   0.315  0.00  0.00    -0.031 A 
ATOM      6  C6  IND d   1       2.213  -0.188  -0.037  0.00  0.00     0.015 A 
ATOM      7  C7  IND d   1       1.234   0.702   0.302  0.00  0.00    -0.016 A 
ATOM      8  C8  IND d   1       0.144   0.200   0.999  0.00  0.00    -0.047 A 
ATOM      9  C9  IND d   1       0.032  -1.158   1.322  0.00  0.00    -0.096 A 
ATOM     10  HN1 IND d   1      -1.175   1.663   1.377  0.00  0.00     0.298 HD
ENDROOT
TORSDOF 0
ENDMDL
