MODEL 1
REMARK minimizedAffinity 9.23552513
REMARK minimizedRMSD -1
REMARK  0 active torsions:
REMARK  status: ('A' for Active; 'I' for Inactive)
ROOT
ATOM      1  N1  IND d   1      -1.690  -0.180   2.661  0.00  0.00    -0.196 N 
ATOM      2  C2  IND d   1      -1.101  -1.364   3.005  0.00  0.00     0.054 A 
ATOM      3  C3  IND d   1      -1.289  -2.283   2.032  0.00  0.00    -0.031 A 
ATOM      4  C4  IND d   1      -2.446  -2.031  -0.254  0.00  0.00     0.051 A 
ATOM      5  C5  IND d   1      -3.169  -1.146  -1.004  0.00  0.00    -0.031 A 
ATOM      6  C6  IND d   1      -3.438   0.134  -0.563  0.00  0.00     0.015 A 
ATOM      7  C7  IND d   1      -2.984   0.581   0.646  0.00  0.00    -0.016 A 
ATOM      8  C8  IND d   1      -2.256  -0.317   1.413  0.00  0.00    -0.047 A 
ATOM      9  C9  IND d   1      -2.015  -1.631   0.989  0.00  0.00    -0.096 A 
ATOM     10  HN1 IND d   1      -1.705   0.532   3.144  0.00  0.00     0.298 HD
ENDROOT
TORSDOF 0
ENDMDL
