MODEL 1
REMARK minimizedAffinity 0.632083476
REMARK minimizedRMSD -1
REMARK  0 active torsions:
REMARK  status: ('A' for Active; 'I' for Inactive)
ROOT
ATOM      1  N1  IND d   1       1.927  -3.735  -0.425  0.00  0.00    -0.196 N 
ATOM      2  C2  IND d   1       1.300  -4.079   0.741  0.00  0.00     0.054 A 
ATOM      3  C3  IND d   1       1.009  -2.973   1.462  0.00  0.00    -0.031 A 
ATOM      4  C4  IND d   1       1.377  -0.493   0.876  0.00  0.00     0.051 A 
ATOM      5  C5  IND d   1       1.947   0.318  -0.065  0.00  0.00    -0.031 A 
ATOM      6  C6  IND d   1       2.548  -0.190  -1.198  0.00  0.00     0.015 A 
ATOM      7  C7  IND d   1       2.593  -1.534  -1.439  0.00  0.00    -0.016 A 
ATOM      8  C8  IND d   1       2.022  -2.362  -0.482  0.00  0.00    -0.047 A 
ATOM      9  C9  IND d   1       1.448  -1.854   0.690  0.00  0.00    -0.096 A 
ATOM     10  HN1 IND d   1       2.213  -4.284  -1.021  0.00  0.00     0.298 HD
ENDROOT
TORSDOF 0
ENDMDL
