MODEL 1
REMARK minimizedAffinity 1.72837424
REMARK minimizedRMSD -1
REMARK  0 active torsions:
REMARK  status: ('A' for Active; 'I' for Inactive)
ROOT
ATOM      1  N1  IND d   1       2.555  -2.471  -0.048  0.00  0.00    -0.196 N 
ATOM      2  C2  IND d   1       1.801  -2.153   1.047  0.00  0.00     0.054 A 
ATOM      3  C3  IND d   1       1.596  -0.818   1.105  0.00  0.00    -0.031 A 
ATOM      4  C4  IND d   1       2.318   1.021  -0.546  0.00  0.00     0.051 A 
ATOM      5  C5  IND d   1       3.057   1.223  -1.678  0.00  0.00    -0.031 A 
ATOM      6  C6  IND d   1       3.676   0.182  -2.339  0.00  0.00     0.015 A 
ATOM      7  C7  IND d   1       3.570  -1.106  -1.898  0.00  0.00    -0.016 A 
ATOM      8  C8  IND d   1       2.826  -1.314  -0.745  0.00  0.00    -0.047 A 
ATOM      9  C9  IND d   1       2.231  -0.257  -0.045  0.00  0.00    -0.096 A 
ATOM     10  HN1 IND d   1       2.815  -3.261  -0.266  0.00  0.00     0.298 HD
ENDROOT
TORSDOF 0
ENDMDL
