MODEL 1
REMARK minimizedAffinity -1.64024937
REMARK minimizedRMSD -1
REMARK  0 active torsions:
REMARK  status: ('A' for Active; 'I' for Inactive)
ROOT
ATOM      1  O1  BZF d   1      -1.296   1.396   1.643  0.00  0.00    -0.204 OA
ATOM      2  C2  BZF d   1      -1.865   2.168   0.649  0.00  0.00     0.174 A 
ATOM      3  C3  BZF d   1      -1.314   1.885  -0.550  0.00  0.00    -0.012 A 
ATOM      4  C3A BZF d   1      -0.406   0.808  -0.302  0.00  0.00    -0.107 A 
ATOM      5  C4  BZF d   1       0.428   0.080  -1.102  0.00  0.00     0.055 A 
ATOM      6  C5  BZF d   1       1.237  -0.853  -0.536  0.00  0.00    -0.016 A 
ATOM      7  C6  BZF d   1       1.243  -1.081   0.825  0.00  0.00     0.022 A 
ATOM      8  C7  BZF d   1       0.431  -0.387   1.658  0.00  0.00     0.029 A 
ATOM      9  C7A BZF d   1      -0.413   0.534   1.085  0.00  0.00     0.058 A 
ENDROOT
TORSDOF 0
ENDMDL
