MODEL 1
REMARK minimizedAffinity -1.69735682
REMARK minimizedRMSD -1
REMARK  0 active torsions:
REMARK  status: ('A' for Active; 'I' for Inactive)
ROOT
ATOM      1  O1  BZF d   1      -1.943   1.194   2.245  0.00  0.00    -0.204 OA
ATOM      2  C2  BZF d   1      -2.448   2.180   1.420  0.00  0.00     0.174 A 
ATOM      3  C3  BZF d   1      -1.812   2.179   0.230  0.00  0.00    -0.012 A 
ATOM      4  C3A BZF d   1      -0.913   1.067   0.284  0.00  0.00    -0.107 A 
ATOM      5  C4  BZF d   1      -0.020   0.539  -0.603  0.00  0.00     0.055 A 
ATOM      6  C5  BZF d   1       0.757  -0.507  -0.215  0.00  0.00    -0.016 A 
ATOM      7  C6  BZF d   1       0.670  -1.044   1.053  0.00  0.00     0.022 A 
ATOM      8  C7  BZF d   1      -0.205  -0.557   1.966  0.00  0.00     0.029 A 
ATOM      9  C7A BZF d   1      -1.015   0.478   1.565  0.00  0.00     0.058 A 
ENDROOT
TORSDOF 0
ENDMDL
