MODEL 1
REMARK minimizedAffinity -4.49016714
REMARK minimizedRMSD -1
REMARK  0 active torsions:
REMARK  status: ('A' for Active; 'I' for Inactive)
ROOT
ATOM      1  O1  BZF d   1       0.803  -1.485   0.820  0.00  0.00    -0.204 OA
ATOM      2  C2  BZF d   1       1.487  -1.385  -0.376  0.00  0.00     0.174 A 
ATOM      3  C3  BZF d   1       1.129  -0.267  -1.039  0.00  0.00    -0.012 A 
ATOM      4  C3A BZF d   1       0.231   0.420  -0.163  0.00  0.00    -0.107 A 
ATOM      5  C4  BZF d   1      -0.450   1.600  -0.252  0.00  0.00     0.055 A 
ATOM      6  C5  BZF d   1      -1.302   1.949   0.747  0.00  0.00    -0.016 A 
ATOM      7  C6  BZF d   1      -1.502   1.139   1.846  0.00  0.00     0.022 A 
ATOM      8  C7  BZF d   1      -0.846  -0.038   1.982  0.00  0.00     0.029 A 
ATOM      9  C7A BZF d   1       0.041  -0.378   0.990  0.00  0.00     0.058 A 
ENDROOT
TORSDOF 0
ENDMDL
