MODEL 1
REMARK minimizedAffinity -5.58879852
REMARK minimizedRMSD -1
REMARK  0 active torsions:
REMARK  status: ('A' for Active; 'I' for Inactive)
ROOT
ATOM      1  O1  BZF d   1       0.359  -1.440   0.499  0.00  0.00    -0.204 OA
ATOM      2  C2  BZF d   1       0.927  -1.232  -0.743  0.00  0.00     0.174 A 
ATOM      3  C3  BZF d   1       0.671   0.017  -1.182  0.00  0.00    -0.012 A 
ATOM      4  C3A BZF d   1      -0.027   0.658  -0.111  0.00  0.00    -0.107 A 
ATOM      5  C4  BZF d   1      -0.536   1.914   0.061  0.00  0.00     0.055 A 
ATOM      6  C5  BZF d   1      -1.226   2.198   1.196  0.00  0.00    -0.016 A 
ATOM      7  C6  BZF d   1      -1.430   1.250   2.178  0.00  0.00     0.022 A 
ATOM      8  C7  BZF d   1      -0.941  -0.008   2.055  0.00  0.00     0.029 A 
ATOM      9  C7A BZF d   1      -0.215  -0.288   0.923  0.00  0.00     0.058 A 
ENDROOT
TORSDOF 0
ENDMDL
