MODEL 1
REMARK minimizedAffinity -3.09813476
REMARK minimizedRMSD -1
REMARK  0 active torsions:
REMARK  status: ('A' for Active; 'I' for Inactive)
ROOT
ATOM      1  O1  BZF d   1      -0.181  -0.247  -0.595  0.00  0.00    -0.204 OA
ATOM      2  C2  BZF d   1       0.684  -0.897   0.264  0.00  0.00     0.174 A 
ATOM      3  C3  BZF d   1       0.641  -0.347   1.494  0.00  0.00    -0.012 A 
ATOM      4  C3A BZF d   1      -0.379   0.654   1.423  0.00  0.00    -0.107 A 
ATOM      5  C4  BZF d   1      -0.898   1.532   2.332  0.00  0.00     0.055 A 
ATOM      6  C5  BZF d   1      -1.834   2.428   1.923  0.00  0.00    -0.016 A 
ATOM      7  C6  BZF d   1      -2.270   2.479   0.615  0.00  0.00     0.022 A 
ATOM      8  C7  BZF d   1      -1.787   1.625  -0.321  0.00  0.00     0.029 A 
ATOM      9  C7A BZF d   1      -0.865   0.696   0.096  0.00  0.00     0.058 A 
ENDROOT
TORSDOF 0
ENDMDL
