MODEL 1
REMARK minimizedAffinity -4.79811001
REMARK minimizedRMSD -1
REMARK  0 active torsions:
REMARK  status: ('A' for Active; 'I' for Inactive)
ROOT
ATOM      1  O1  BZF d   1      -1.458   1.213   2.270  0.00  0.00    -0.204 OA
ATOM      2  C2  BZF d   1      -2.310   1.983   1.503  0.00  0.00     0.174 A 
ATOM      3  C3  BZF d   1      -1.995   1.885   0.195  0.00  0.00    -0.012 A 
ATOM      4  C3A BZF d   1      -0.935   0.927   0.133  0.00  0.00    -0.107 A 
ATOM      5  C4  BZF d   1      -0.210   0.393  -0.894  0.00  0.00     0.055 A 
ATOM      6  C5  BZF d   1       0.805  -0.465  -0.609  0.00  0.00    -0.016 A 
ATOM      7  C6  BZF d   1       1.124  -0.808   0.688  0.00  0.00     0.022 A 
ATOM      8  C7  BZF d   1       0.430  -0.308   1.739  0.00  0.00     0.029 A 
ATOM      9  C7A BZF d   1      -0.617   0.534   1.454  0.00  0.00     0.058 A 
ENDROOT
TORSDOF 0
ENDMDL
