MODEL 1
REMARK minimizedAffinity -5.20857525
REMARK minimizedRMSD -1
REMARK  0 active torsions:
REMARK  status: ('A' for Active; 'I' for Inactive)
ROOT
ATOM      1  O1  BZF d   1      -1.542   1.212   2.339  0.00  0.00    -0.204 OA
ATOM      2  C2  BZF d   1      -1.964   2.312   1.619  0.00  0.00     0.174 A 
ATOM      3  C3  BZF d   1      -1.392   2.332   0.397  0.00  0.00    -0.012 A 
ATOM      4  C3A BZF d   1      -0.632   1.123   0.318  0.00  0.00    -0.107 A 
ATOM      5  C4  BZF d   1       0.148   0.566  -0.656  0.00  0.00     0.055 A 
ATOM      6  C5  BZF d   1       0.811  -0.590  -0.390  0.00  0.00    -0.016 A 
ATOM      7  C6  BZF d   1       0.721  -1.213   0.838  0.00  0.00     0.022 A 
ATOM      8  C7  BZF d   1      -0.043  -0.701   1.833  0.00  0.00     0.029 A 
ATOM      9  C7A BZF d   1      -0.741   0.449   1.557  0.00  0.00     0.058 A 
ENDROOT
TORSDOF 0
ENDMDL
