MODEL 1
REMARK minimizedAffinity -3.47112942
REMARK minimizedRMSD -1
REMARK  0 active torsions:
REMARK  status: ('A' for Active; 'I' for Inactive)
ROOT
ATOM      1  O1  BZF d   1       2.089  -0.699  -1.994  0.00  0.00    -0.204 OA
ATOM      2  C2  BZF d   1       1.425  -0.164  -0.907  0.00  0.00     0.174 A 
ATOM      3  C3  BZF d   1       0.520  -1.038  -0.422  0.00  0.00    -0.012 A 
ATOM      4  C3A BZF d   1       0.690  -2.226  -1.200  0.00  0.00    -0.107 A 
ATOM      5  C4  BZF d   1       0.090  -3.453  -1.184  0.00  0.00     0.055 A 
ATOM      6  C5  BZF d   1       0.435  -4.369  -2.126  0.00  0.00    -0.016 A 
ATOM      7  C6  BZF d   1       1.371  -4.092  -3.101  0.00  0.00     0.022 A 
ATOM      8  C7  BZF d   1       1.997  -2.891  -3.154  0.00  0.00     0.029 A 
ATOM      9  C7A BZF d   1       1.675  -1.974  -2.183  0.00  0.00     0.058 A 
ENDROOT
TORSDOF 0
ENDMDL
