MODEL 1
REMARK minimizedAffinity -3.94245291
REMARK minimizedRMSD -1
REMARK  0 active torsions:
REMARK  status: ('A' for Active; 'I' for Inactive)
ROOT
ATOM      1  O1  BZF d   1       0.544   0.529  -1.101  0.00  0.00    -0.204 OA
ATOM      2  C2  BZF d   1       1.301  -0.556  -0.705  0.00  0.00     0.174 A 
ATOM      3  C3  BZF d   1       1.083  -0.842   0.595  0.00  0.00    -0.012 A 
ATOM      4  C3A BZF d   1       0.061   0.067   1.014  0.00  0.00    -0.107 A 
ATOM      5  C4  BZF d   1      -0.592   0.264   2.197  0.00  0.00     0.055 A 
ATOM      6  C5  BZF d   1      -1.485   1.284   2.297  0.00  0.00    -0.016 A 
ATOM      7  C6  BZF d   1      -1.743   2.129   1.237  0.00  0.00     0.022 A 
ATOM      8  C7  BZF d   1      -1.123   1.969   0.042  0.00  0.00     0.029 A 
ATOM      9  C7A BZF d   1      -0.246   0.919  -0.072  0.00  0.00     0.058 A 
ENDROOT
TORSDOF 0
ENDMDL
