MODEL 1
REMARK minimizedAffinity -3.09628224
REMARK minimizedRMSD -1
REMARK  0 active torsions:
REMARK  status: ('A' for Active; 'I' for Inactive)
ROOT
ATOM      1  O1  BZF d   1       0.428  -1.749  -2.388  0.00  0.00    -0.204 OA
ATOM      2  C2  BZF d   1       1.070  -0.872  -1.535  0.00  0.00     0.174 A 
ATOM      3  C3  BZF d   1       1.770  -1.542  -0.597  0.00  0.00    -0.012 A 
ATOM      4  C3A BZF d   1       1.626  -2.925  -0.937  0.00  0.00    -0.107 A 
ATOM      5  C4  BZF d   1       2.104  -4.081  -0.390  0.00  0.00     0.055 A 
ATOM      6  C5  BZF d   1       1.717  -5.271  -0.919  0.00  0.00    -0.016 A 
ATOM      7  C6  BZF d   1       0.851  -5.343  -1.990  0.00  0.00     0.022 A 
ATOM      8  C7  BZF d   1       0.355  -4.223  -2.570  0.00  0.00     0.029 A 
ATOM      9  C7A BZF d   1       0.770  -3.018  -2.059  0.00  0.00     0.058 A 
ENDROOT
TORSDOF 0
ENDMDL
