MODEL 1
REMARK minimizedAffinity -5.37936687
REMARK minimizedRMSD -1
REMARK  0 active torsions:
REMARK  status: ('A' for Active; 'I' for Inactive)
ROOT
ATOM      1  O1  BZF d   1       0.497   0.345  -0.617  0.00  0.00    -0.204 OA
ATOM      2  C2  BZF d   1       0.488  -0.792   0.167  0.00  0.00     0.174 A 
ATOM      3  C3  BZF d   1      -0.313  -0.627   1.240  0.00  0.00    -0.012 A 
ATOM      4  C3A BZF d   1      -0.910   0.662   1.069  0.00  0.00    -0.107 A 
ATOM      5  C4  BZF d   1      -1.810   1.383   1.799  0.00  0.00     0.055 A 
ATOM      6  C5  BZF d   1      -2.131   2.641   1.396  0.00  0.00    -0.016 A 
ATOM      7  C6  BZF d   1      -1.567   3.209   0.272  0.00  0.00     0.022 A 
ATOM      8  C7  BZF d   1      -0.673   2.530  -0.487  0.00  0.00     0.029 A 
ATOM      9  C7A BZF d   1      -0.372   1.247  -0.101  0.00  0.00     0.058 A 
ENDROOT
TORSDOF 0
ENDMDL
