MODEL 1
REMARK minimizedAffinity -3.33301616
REMARK minimizedRMSD -1
REMARK  0 active torsions:
REMARK  status: ('A' for Active; 'I' for Inactive)
ROOT
ATOM      1  O1  BZF d   1       0.061   2.643  -0.781  0.00  0.00    -0.204 OA
ATOM      2  C2  BZF d   1      -0.428   3.833  -0.276  0.00  0.00     0.174 A 
ATOM      3  C3  BZF d   1      -1.106   3.623   0.871  0.00  0.00    -0.012 A 
ATOM      4  C3A BZF d   1      -0.957   2.226   1.146  0.00  0.00    -0.107 A 
ATOM      5  C4  BZF d   1      -1.391   1.417   2.156  0.00  0.00     0.055 A 
ATOM      6  C5  BZF d   1      -1.137   0.083   2.090  0.00  0.00    -0.016 A 
ATOM      7  C6  BZF d   1      -0.457  -0.474   1.027  0.00  0.00     0.022 A 
ATOM      8  C7  BZF d   1      -0.002   0.290   0.004  0.00  0.00     0.029 A 
ATOM      9  C7A BZF d   1      -0.228   1.642   0.084  0.00  0.00     0.058 A 
ENDROOT
TORSDOF 0
ENDMDL
