MODEL 1
REMARK minimizedAffinity -4.76205969
REMARK minimizedRMSD -1
REMARK  0 active torsions:
REMARK  status: ('A' for Active; 'I' for Inactive)
ROOT
ATOM      1  O1  BZF d   1       0.772   0.449  -0.415  0.00  0.00    -0.204 OA
ATOM      2  C2  BZF d   1       0.903  -0.805   0.150  0.00  0.00     0.174 A 
ATOM      3  C3  BZF d   1       0.045  -0.958   1.179  0.00  0.00    -0.012 A 
ATOM      4  C3A BZF d   1      -0.731   0.243   1.204  0.00  0.00    -0.107 A 
ATOM      5  C4  BZF d   1      -1.758   0.682   1.991  0.00  0.00     0.055 A 
ATOM      6  C5  BZF d   1      -2.248   1.935   1.800  0.00  0.00    -0.016 A 
ATOM      7  C6  BZF d   1      -1.732   2.777   0.837  0.00  0.00     0.022 A 
ATOM      8  C7  BZF d   1      -0.717   2.385   0.029  0.00  0.00     0.029 A 
ATOM      9  C7A BZF d   1      -0.242   1.107   0.197  0.00  0.00     0.058 A 
ENDROOT
TORSDOF 0
ENDMDL
