MODEL 1
REMARK minimizedAffinity -0.956125855
REMARK minimizedRMSD -1
REMARK  0 active torsions:
REMARK  status: ('A' for Active; 'I' for Inactive)
ROOT
ATOM      1  O1  BZF d   1      -0.619  -0.035   1.191  0.00  0.00    -0.204 OA
ATOM      2  C2  BZF d   1      -1.329   0.362   2.308  0.00  0.00     0.174 A 
ATOM      3  C3  BZF d   1      -1.518   1.697   2.304  0.00  0.00    -0.012 A 
ATOM      4  C3A BZF d   1      -0.968   2.152   1.064  0.00  0.00    -0.107 A 
ATOM      5  C4  BZF d   1      -0.868   3.380   0.476  0.00  0.00     0.055 A 
ATOM      6  C5  BZF d   1      -0.208   3.495  -0.706  0.00  0.00    -0.016 A 
ATOM      7  C6  BZF d   1       0.368   2.404  -1.325  0.00  0.00     0.022 A 
ATOM      8  C7  BZF d   1       0.291   1.165  -0.782  0.00  0.00     0.029 A 
ATOM      9  C7A BZF d   1      -0.404   1.041   0.396  0.00  0.00     0.058 A 
ENDROOT
TORSDOF 0
ENDMDL
