MODEL 1
REMARK minimizedAffinity -2.0794096
REMARK minimizedRMSD -1
REMARK  0 active torsions:
REMARK  status: ('A' for Active; 'I' for Inactive)
ROOT
ATOM      1  O1  BZF d   1       1.499  -2.923  -0.252  0.00  0.00    -0.204 OA
ATOM      2  C2  BZF d   1       1.549  -3.497  -1.508  0.00  0.00     0.174 A 
ATOM      3  C3  BZF d   1       1.021  -2.670  -2.433  0.00  0.00    -0.012 A 
ATOM      4  C3A BZF d   1       0.700  -1.469  -1.725  0.00  0.00    -0.107 A 
ATOM      5  C4  BZF d   1       0.160  -0.273  -2.102  0.00  0.00     0.055 A 
ATOM      6  C5  BZF d   1      -0.093   0.666  -1.153  0.00  0.00    -0.016 A 
ATOM      7  C6  BZF d   1       0.176   0.441   0.181  0.00  0.00     0.022 A 
ATOM      8  C7  BZF d   1       0.716  -0.729   0.603  0.00  0.00     0.029 A 
ATOM      9  C7A BZF d   1       1.003  -1.667  -0.358  0.00  0.00     0.058 A 
ENDROOT
TORSDOF 0
ENDMDL
