MODEL 1
REMARK minimizedAffinity -6.14511347
REMARK minimizedRMSD -1
REMARK  0 active torsions:
REMARK  status: ('A' for Active; 'I' for Inactive)
ROOT
ATOM      1  O1  BZF d   1       1.671   0.470  -0.594  0.00  0.00    -0.204 OA
ATOM      2  C2  BZF d   1       1.511   1.593  -1.382  0.00  0.00     0.174 A 
ATOM      3  C3  BZF d   1       0.402   2.274  -1.026  0.00  0.00    -0.012 A 
ATOM      4  C3A BZF d   1      -0.116   1.579   0.112  0.00  0.00    -0.107 A 
ATOM      5  C4  BZF d   1      -1.195   1.782   0.924  0.00  0.00     0.055 A 
ATOM      6  C5  BZF d   1      -1.464   0.879   1.904  0.00  0.00    -0.016 A 
ATOM      7  C6  BZF d   1      -0.679  -0.239   2.095  0.00  0.00     0.022 A 
ATOM      8  C7  BZF d   1       0.405  -0.480   1.318  0.00  0.00     0.029 A 
ATOM      9  C7A BZF d   1       0.698   0.448   0.349  0.00  0.00     0.058 A 
ENDROOT
TORSDOF 0
ENDMDL
