MODEL 1
REMARK minimizedAffinity -2.62619758
REMARK minimizedRMSD -1
REMARK  0 active torsions:
REMARK  status: ('A' for Active; 'I' for Inactive)
ROOT
ATOM      1  O1  BZF d   1       1.117  -5.889  -2.017  0.00  0.00    -0.204 OA
ATOM      2  C2  BZF d   1       1.666  -5.999  -0.754  0.00  0.00     0.174 A 
ATOM      3  C3  BZF d   1       1.867  -4.781  -0.211  0.00  0.00    -0.012 A 
ATOM      4  C3A BZF d   1       1.330  -3.854  -1.160  0.00  0.00    -0.107 A 
ATOM      5  C4  BZF d   1       1.219  -2.493  -1.183  0.00  0.00     0.055 A 
ATOM      6  C5  BZF d   1       0.711  -1.890  -2.289  0.00  0.00    -0.016 A 
ATOM      7  C6  BZF d   1       0.310  -2.616  -3.392  0.00  0.00     0.022 A 
ATOM      8  C7  BZF d   1       0.395  -3.968  -3.414  0.00  0.00     0.029 A 
ATOM      9  C7A BZF d   1       0.878  -4.583  -2.284  0.00  0.00     0.058 A 
ENDROOT
TORSDOF 0
ENDMDL
