MODEL 1
REMARK minimizedAffinity -2.51960516
REMARK minimizedRMSD -1
REMARK  0 active torsions:
REMARK  status: ('A' for Active; 'I' for Inactive)
ROOT
ATOM      1  O1  BZF d   1      -0.635  -0.789  -1.638  0.00  0.00    -0.204 OA
ATOM      2  C2  BZF d   1       0.081  -0.086  -0.689  0.00  0.00     0.174 A 
ATOM      3  C3  BZF d   1       1.097  -0.831  -0.208  0.00  0.00    -0.012 A 
ATOM      4  C3A BZF d   1       1.067  -2.044  -0.967  0.00  0.00    -0.107 A 
ATOM      5  C4  BZF d   1       1.836  -3.172  -0.966  0.00  0.00     0.055 A 
ATOM      6  C5  BZF d   1       1.496  -4.205  -1.782  0.00  0.00    -0.016 A 
ATOM      7  C6  BZF d   1       0.392  -4.145  -2.607  0.00  0.00     0.022 A 
ATOM      8  C7  BZF d   1      -0.398  -3.044  -2.647  0.00  0.00     0.029 A 
ATOM      9  C7A BZF d   1      -0.038  -1.987  -1.848  0.00  0.00     0.058 A 
ENDROOT
TORSDOF 0
ENDMDL
