MODEL 1
REMARK minimizedAffinity -2.13121653
REMARK minimizedRMSD -1
REMARK  0 active torsions:
REMARK  status: ('A' for Active; 'I' for Inactive)
ROOT
ATOM      1  O1  BZF d   1      -0.472  -0.555  -1.465  0.00  0.00    -0.204 OA
ATOM      2  C2  BZF d   1       0.618  -1.389  -1.307  0.00  0.00     0.174 A 
ATOM      3  C3  BZF d   1       1.174  -1.225  -0.090  0.00  0.00    -0.012 A 
ATOM      4  C3A BZF d   1       0.326  -0.293   0.589  0.00  0.00    -0.107 A 
ATOM      5  C4  BZF d   1       0.346   0.257   1.839  0.00  0.00     0.055 A 
ATOM      6  C5  BZF d   1      -0.586   1.190   2.164  0.00  0.00    -0.016 A 
ATOM      7  C6  BZF d   1      -1.548   1.602   1.265  0.00  0.00     0.022 A 
ATOM      8  C7  BZF d   1      -1.610   1.082   0.014  0.00  0.00     0.029 A 
ATOM      9  C7A BZF d   1      -0.690   0.114  -0.307  0.00  0.00     0.058 A 
ENDROOT
TORSDOF 0
ENDMDL
