MODEL 1
REMARK minimizedAffinity -4.19271708
REMARK minimizedRMSD -1
REMARK  1 active torsions:
REMARK  status: ('A' for Active; 'I' for Inactive)
REMARK    1  A    between atoms: C3_4  and  O_7 
ROOT
ATOM      1  C   UNL d   1       1.398  -0.501  -0.106  0.00  0.00    -0.033 A 
ATOM      2  C1  UNL d   1       0.333   0.023   0.629  0.00  0.00     0.039 A 
ATOM      3  C2  UNL d   1      -0.795   0.517  -0.029  0.00  0.00    -0.080 A 
ATOM      4  C3  UNL d   1      -0.847   0.479  -1.420  0.00  0.00     0.150 A 
ATOM      5  C4  UNL d   1       0.209  -0.045  -2.158  0.00  0.00    -0.007 A 
ATOM      6  C5  UNL d   1       1.336  -0.537  -1.499  0.00  0.00     0.039 A 
ENDROOT
BRANCH   4   7
ATOM      7  O   UNL d   1      -1.925   0.953  -2.106  0.00  0.00    -0.526 OA
ATOM      8  H5  UNL d   1      -2.564   1.311  -1.467  0.00  0.00     0.418 HD
ENDBRANCH   4   7
TORSDOF 1
ENDMDL
