MODEL 1
REMARK minimizedAffinity -3.36252427
REMARK minimizedRMSD -1
REMARK  1 active torsions:
REMARK  status: ('A' for Active; 'I' for Inactive)
REMARK    1  A    between atoms: C3_4  and  O_7 
ROOT
ATOM      1  C   UNL d   1       1.559  -1.728   0.916  0.00  0.00    -0.033 A 
ATOM      2  C1  UNL d   1       1.826  -1.565  -0.445  0.00  0.00     0.039 A 
ATOM      3  C2  UNL d   1       0.956  -0.821  -1.245  0.00  0.00    -0.080 A 
ATOM      4  C3  UNL d   1      -0.175  -0.245  -0.672  0.00  0.00     0.150 A 
ATOM      5  C4  UNL d   1      -0.444  -0.400   0.684  0.00  0.00    -0.007 A 
ATOM      6  C5  UNL d   1       0.425  -1.144   1.481  0.00  0.00     0.039 A 
ENDROOT
BRANCH   4   7
ATOM      7  O   UNL d   1      -1.056   0.485  -1.412  0.00  0.00    -0.526 OA
ATOM      8  H5  UNL d   1      -0.756   0.483  -2.337  0.00  0.00     0.418 HD
ENDBRANCH   4   7
TORSDOF 1
ENDMDL
