MODEL 1
REMARK minimizedAffinity -3.27737093
REMARK minimizedRMSD -1
REMARK  1 active torsions:
REMARK  status: ('A' for Active; 'I' for Inactive)
REMARK    1  A    between atoms: C3_4  and  O_7 
ROOT
ATOM      1  C   UNL d   1       1.294  -0.200  -0.126  0.00  0.00    -0.033 A 
ATOM      2  C1  UNL d   1       1.992  -1.187   0.573  0.00  0.00     0.039 A 
ATOM      3  C2  UNL d   1       1.509  -1.650   1.798  0.00  0.00    -0.080 A 
ATOM      4  C3  UNL d   1       0.329  -1.121   2.313  0.00  0.00     0.150 A 
ATOM      5  C4  UNL d   1      -0.374  -0.140   1.620  0.00  0.00    -0.007 A 
ATOM      6  C5  UNL d   1       0.110   0.323   0.397  0.00  0.00     0.039 A 
ENDROOT
BRANCH   4   7
ATOM      7  O   UNL d   1      -0.179  -1.538   3.507  0.00  0.00    -0.526 OA
ATOM      8  H5  UNL d   1       0.427  -2.197   3.885  0.00  0.00     0.418 HD
ENDBRANCH   4   7
TORSDOF 1
ENDMDL
