MODEL 1
REMARK minimizedAffinity -1.59205544
REMARK minimizedRMSD -1
REMARK  1 active torsions:
REMARK  status: ('A' for Active; 'I' for Inactive)
REMARK    1  A    between atoms: C3_4  and  O_7 
ROOT
ATOM      1  C   UNL d   1       0.364  -0.661  -0.138  0.00  0.00    -0.033 A 
ATOM      2  C1  UNL d   1      -0.604   0.233   0.323  0.00  0.00     0.039 A 
ATOM      3  C2  UNL d   1      -1.450   0.876  -0.583  0.00  0.00    -0.080 A 
ATOM      4  C3  UNL d   1      -1.319   0.616  -1.944  0.00  0.00     0.150 A 
ATOM      5  C4  UNL d   1      -0.358  -0.277  -2.410  0.00  0.00    -0.007 A 
ATOM      6  C5  UNL d   1       0.486  -0.917  -1.504  0.00  0.00     0.039 A 
ENDROOT
BRANCH   4   7
ATOM      7  O   UNL d   1      -2.118   1.222  -2.867  0.00  0.00    -0.526 OA
ATOM      8  H5  UNL d   1      -2.714   1.834  -2.403  0.00  0.00     0.418 HD
ENDBRANCH   4   7
TORSDOF 1
ENDMDL
