MODEL 1
REMARK minimizedAffinity -4.06759405
REMARK minimizedRMSD -1
REMARK  1 active torsions:
REMARK  status: ('A' for Active; 'I' for Inactive)
REMARK    1  A    between atoms: C3_4  and  O_7 
ROOT
ATOM      1  C   UNL d   1       0.654  -0.255  -0.793  0.00  0.00    -0.033 A 
ATOM      2  C1  UNL d   1      -0.032   0.623   0.048  0.00  0.00     0.039 A 
ATOM      3  C2  UNL d   1      -1.242   1.185  -0.364  0.00  0.00    -0.080 A 
ATOM      4  C3  UNL d   1      -1.755   0.859  -1.617  0.00  0.00     0.150 A 
ATOM      5  C4  UNL d   1      -1.078  -0.018  -2.458  0.00  0.00    -0.007 A 
ATOM      6  C5  UNL d   1       0.130  -0.577  -2.045  0.00  0.00     0.039 A 
ENDROOT
BRANCH   4   7
ATOM      7  O   UNL d   1      -2.930   1.386  -2.065  0.00  0.00    -0.526 OA
ATOM      8  H5  UNL d   1      -3.270   1.997  -1.390  0.00  0.00     0.418 HD
ENDBRANCH   4   7
TORSDOF 1
ENDMDL
