MODEL 1
REMARK minimizedAffinity 5.54548597
REMARK minimizedRMSD -1
REMARK  1 active torsions:
REMARK  status: ('A' for Active; 'I' for Inactive)
REMARK    1  A    between atoms: C3_4  and  O_7 
ROOT
ATOM      1  C   UNL d   1      -4.703   1.518  -1.516  0.00  0.00    -0.033 A 
ATOM      2  C1  UNL d   1      -3.616   1.593  -2.389  0.00  0.00     0.039 A 
ATOM      3  C2  UNL d   1      -3.010   2.824  -2.649  0.00  0.00    -0.080 A 
ATOM      4  C3  UNL d   1      -3.499   3.971  -2.029  0.00  0.00     0.150 A 
ATOM      5  C4  UNL d   1      -4.580   3.903  -1.156  0.00  0.00    -0.007 A 
ATOM      6  C5  UNL d   1      -5.184   2.673  -0.898  0.00  0.00     0.039 A 
ENDROOT
BRANCH   4   7
ATOM      7  O   UNL d   1      -2.944   5.195  -2.255  0.00  0.00    -0.526 OA
ATOM      8  H5  UNL d   1      -2.226   5.093  -2.902  0.00  0.00     0.418 HD
ENDBRANCH   4   7
TORSDOF 1
ENDMDL
