MODEL 1
REMARK minimizedAffinity 2.67526126
REMARK minimizedRMSD -1
REMARK  1 active torsions:
REMARK  status: ('A' for Active; 'I' for Inactive)
REMARK    1  A    between atoms: C3_4  and  O_7 
ROOT
ATOM      1  C   UNL d   1      -3.923   0.269  -1.462  0.00  0.00    -0.033 A 
ATOM      2  C1  UNL d   1      -4.342   1.446  -2.084  0.00  0.00     0.039 A 
ATOM      3  C2  UNL d   1      -3.450   2.180  -2.869  0.00  0.00    -0.080 A 
ATOM      4  C3  UNL d   1      -2.144   1.725  -3.024  0.00  0.00     0.150 A 
ATOM      5  C4  UNL d   1      -1.720   0.550  -2.411  0.00  0.00    -0.007 A 
ATOM      6  C5  UNL d   1      -2.612  -0.180  -1.627  0.00  0.00     0.039 A 
ENDROOT
BRANCH   4   7
ATOM      7  O   UNL d   1      -1.236   2.409  -3.777  0.00  0.00    -0.526 OA
ATOM      8  H5  UNL d   1      -1.661   3.214  -4.115  0.00  0.00     0.418 HD
ENDBRANCH   4   7
TORSDOF 1
ENDMDL
