MODEL 1
REMARK minimizedAffinity 2.86225343
REMARK minimizedRMSD -1
REMARK  1 active torsions:
REMARK  status: ('A' for Active; 'I' for Inactive)
REMARK    1  A    between atoms: C3_4  and  O_7 
ROOT
ATOM      1  C   UNL d   1      -0.636  -0.562  -0.105  0.00  0.00    -0.033 A 
ATOM      2  C1  UNL d   1      -0.079   0.103   0.989  0.00  0.00     0.039 A 
ATOM      3  C2  UNL d   1       1.180   0.697   0.880  0.00  0.00    -0.080 A 
ATOM      4  C3  UNL d   1       1.868   0.621  -0.327  0.00  0.00     0.150 A 
ATOM      5  C4  UNL d   1       1.317  -0.036  -1.422  0.00  0.00    -0.007 A 
ATOM      6  C5  UNL d   1       0.061  -0.630  -1.311  0.00  0.00     0.039 A 
ENDROOT
BRANCH   4   7
ATOM      7  O   UNL d   1       3.102   1.182  -0.481  0.00  0.00    -0.526 OA
ATOM      8  H5  UNL d   1       3.368   1.577   0.367  0.00  0.00     0.418 HD
ENDBRANCH   4   7
TORSDOF 1
ENDMDL
