MODEL 1
REMARK minimizedAffinity -2.48037267
REMARK minimizedRMSD -1
REMARK  1 active torsions:
REMARK  status: ('A' for Active; 'I' for Inactive)
REMARK    1  A    between atoms: C3_4  and  O_7 
ROOT
ATOM      1  C   UNL d   1      -4.266  -5.715   1.891  0.00  0.00    -0.033 A 
ATOM      2  C1  UNL d   1      -3.010  -5.585   1.295  0.00  0.00     0.039 A 
ATOM      3  C2  UNL d   1      -2.882  -5.665  -0.093  0.00  0.00    -0.080 A 
ATOM      4  C3  UNL d   1      -4.016  -5.874  -0.872  0.00  0.00     0.150 A 
ATOM      5  C4  UNL d   1      -5.271  -6.000  -0.286  0.00  0.00    -0.007 A 
ATOM      6  C5  UNL d   1      -5.397  -5.920   1.101  0.00  0.00     0.039 A 
ENDROOT
BRANCH   4   7
ATOM      7  O   UNL d   1      -3.940  -5.964  -2.230  0.00  0.00    -0.526 OA
ATOM      8  H5  UNL d   1      -3.008  -5.887  -2.493  0.00  0.00     0.418 HD
ENDBRANCH   4   7
TORSDOF 1
ENDMDL
