MODEL 1
REMARK minimizedAffinity -3.81557894
REMARK minimizedRMSD -1
REMARK  1 active torsions:
REMARK  status: ('A' for Active; 'I' for Inactive)
REMARK    1  A    between atoms: C3_4  and  O_7 
ROOT
ATOM      1  C   UNL d   1       1.753  -1.685   1.186  0.00  0.00    -0.033 A 
ATOM      2  C1  UNL d   1       2.318  -0.923   0.161  0.00  0.00     0.039 A 
ATOM      3  C2  UNL d   1       1.566   0.070  -0.469  0.00  0.00    -0.080 A 
ATOM      4  C3  UNL d   1       0.252   0.291  -0.066  0.00  0.00     0.150 A 
ATOM      5  C4  UNL d   1      -0.316  -0.462   0.956  0.00  0.00    -0.007 A 
ATOM      6  C5  UNL d   1       0.436  -1.453   1.584  0.00  0.00     0.039 A 
ENDROOT
BRANCH   4   7
ATOM      7  O   UNL d   1      -0.523   1.246  -0.655  0.00  0.00    -0.526 OA
ATOM      8  H5  UNL d   1      -0.008   1.666  -1.364  0.00  0.00     0.418 HD
ENDBRANCH   4   7
TORSDOF 1
ENDMDL
