MODEL 1
REMARK minimizedAffinity -1.32553744
REMARK minimizedRMSD -1
REMARK  1 active torsions:
REMARK  status: ('A' for Active; 'I' for Inactive)
REMARK    1  A    between atoms: C3_4  and  O_7 
ROOT
ATOM      1  C   UNL d   1       0.975   0.863  -0.532  0.00  0.00    -0.033 A 
ATOM      2  C1  UNL d   1       2.164   0.640   0.164  0.00  0.00     0.039 A 
ATOM      3  C2  UNL d   1       2.554  -0.663   0.484  0.00  0.00    -0.080 A 
ATOM      4  C3  UNL d   1       1.747  -1.731   0.102  0.00  0.00     0.150 A 
ATOM      5  C4  UNL d   1       0.562  -1.515  -0.595  0.00  0.00    -0.007 A 
ATOM      6  C5  UNL d   1       0.174  -0.214  -0.913  0.00  0.00     0.039 A 
ENDROOT
BRANCH   4   7
ATOM      7  O   UNL d   1       2.083  -3.019   0.396  0.00  0.00    -0.526 OA
ATOM      8  H5  UNL d   1       2.911  -3.012   0.905  0.00  0.00     0.418 HD
ENDBRANCH   4   7
TORSDOF 1
ENDMDL
