MODEL 1
REMARK minimizedAffinity -2.72203302
REMARK minimizedRMSD -1
REMARK  1 active torsions:
REMARK  status: ('A' for Active; 'I' for Inactive)
REMARK    1  A    between atoms: C3_4  and  O_7 
ROOT
ATOM      1  C   UNL d   1       1.754  -0.404  -0.750  0.00  0.00    -0.033 A 
ATOM      2  C1  UNL d   1       1.253   0.668  -0.010  0.00  0.00     0.039 A 
ATOM      3  C2  UNL d   1       0.037   1.256  -0.365  0.00  0.00    -0.080 A 
ATOM      4  C3  UNL d   1      -0.667   0.762  -1.459  0.00  0.00     0.150 A 
ATOM      5  C4  UNL d   1      -0.176  -0.309  -2.199  0.00  0.00    -0.007 A 
ATOM      6  C5  UNL d   1       1.039  -0.894  -1.844  0.00  0.00     0.039 A 
ENDROOT
BRANCH   4   7
ATOM      7  O   UNL d   1      -1.856   1.306  -1.846  0.00  0.00    -0.526 OA
ATOM      8  H5  UNL d   1      -2.056   2.055  -1.261  0.00  0.00     0.418 HD
ENDBRANCH   4   7
TORSDOF 1
ENDMDL
