MODEL 1
REMARK minimizedAffinity -2.6031034
REMARK minimizedRMSD -1
REMARK  1 active torsions:
REMARK  status: ('A' for Active; 'I' for Inactive)
REMARK    1  A    between atoms: C3_4  and  O_7 
ROOT
ATOM      1  C   UNL d   1       2.422  -1.748   0.606  0.00  0.00    -0.033 A 
ATOM      2  C1  UNL d   1       1.556  -1.302   1.607  0.00  0.00     0.039 A 
ATOM      3  C2  UNL d   1       0.516  -0.426   1.292  0.00  0.00    -0.080 A 
ATOM      4  C3  UNL d   1       0.351  -0.005  -0.024  0.00  0.00     0.150 A 
ATOM      5  C4  UNL d   1       1.207  -0.448  -1.027  0.00  0.00    -0.007 A 
ATOM      6  C5  UNL d   1       2.247  -1.323  -0.711  0.00  0.00     0.039 A 
ENDROOT
BRANCH   4   7
ATOM      7  O   UNL d   1      -0.647   0.853  -0.379  0.00  0.00    -0.526 OA
ATOM      8  H5  UNL d   1      -1.141   1.098   0.422  0.00  0.00     0.418 HD
ENDBRANCH   4   7
TORSDOF 1
ENDMDL
