MODEL 1
REMARK minimizedAffinity 4.04330444
REMARK minimizedRMSD -1
REMARK  1 active torsions:
REMARK  status: ('A' for Active; 'I' for Inactive)
REMARK    1  A    between atoms: C3_4  and  O_7 
ROOT
ATOM      1  C   UNL d   1      -2.096   1.135   1.066  0.00  0.00    -0.033 A 
ATOM      2  C1  UNL d   1      -1.474  -0.041   1.491  0.00  0.00     0.039 A 
ATOM      3  C2  UNL d   1      -1.553  -1.196   0.710  0.00  0.00    -0.080 A 
ATOM      4  C3  UNL d   1      -2.254  -1.162  -0.492  0.00  0.00     0.150 A 
ATOM      5  C4  UNL d   1      -2.873   0.007  -0.923  0.00  0.00    -0.007 A 
ATOM      6  C5  UNL d   1      -2.794   1.159  -0.142  0.00  0.00     0.039 A 
ENDROOT
BRANCH   4   7
ATOM      7  O   UNL d   1      -2.362  -2.265  -1.285  0.00  0.00    -0.526 OA
ATOM      8  H5  UNL d   1      -1.910  -3.005  -0.847  0.00  0.00     0.418 HD
ENDBRANCH   4   7
TORSDOF 1
ENDMDL
