MODEL 1
REMARK minimizedAffinity 12.3483725
REMARK minimizedRMSD -1
REMARK  1 active torsions:
REMARK  status: ('A' for Active; 'I' for Inactive)
REMARK    1  A    between atoms: C1_2  and  C2_3 
ROOT
ATOM      1  C2  UNL d   1       2.577   0.833  -0.378  0.00  0.00    -0.077 A 
ATOM      2  C3  UNL d   1       2.307   1.709  -1.438  0.00  0.00     0.002 A 
ATOM      3  C4  UNL d   1       1.625   1.258  -2.570  0.00  0.00     0.002 A 
ATOM      4  C5  UNL d   1       1.204  -0.068  -2.651  0.00  0.00    -0.004 A 
ATOM      5  C6  UNL d   1       1.470  -0.947  -1.602  0.00  0.00     0.002 A 
ATOM      6  C7  UNL d   1       2.152  -0.499  -0.470  0.00  0.00     0.002 A 
ENDROOT
BRANCH   1   7
ATOM      7  C1  UNL d   1       3.269   1.329   0.865  0.00  0.00     0.055 C 
ATOM      8  C   UNL d   1       2.362   2.244   1.675  0.00  0.00     0.019 C 
ENDBRANCH   1   7
TORSDOF 1
ENDMDL
