MODEL 1
REMARK minimizedAffinity 8.96236992
REMARK minimizedRMSD -1
REMARK  1 active torsions:
REMARK  status: ('A' for Active; 'I' for Inactive)
REMARK    1  A    between atoms: C1_2  and  C2_3 
ROOT
ATOM      1  C2  UNL d   1       2.918   2.448   3.263  0.00  0.00    -0.077 A 
ATOM      2  C3  UNL d   1       2.501   1.190   3.719  0.00  0.00     0.002 A 
ATOM      3  C4  UNL d   1       2.526   0.888   5.082  0.00  0.00     0.002 A 
ATOM      4  C5  UNL d   1       2.964   1.840   6.000  0.00  0.00    -0.004 A 
ATOM      5  C6  UNL d   1       3.383   3.094   5.556  0.00  0.00     0.002 A 
ATOM      6  C7  UNL d   1       3.359   3.397   4.194  0.00  0.00     0.002 A 
ENDROOT
BRANCH   1   7
ATOM      7  C1  UNL d   1       2.844   2.793   1.799  0.00  0.00     0.055 C 
ATOM      8  C   UNL d   1       3.607   1.783   0.953  0.00  0.00     0.019 C 
ENDBRANCH   1   7
TORSDOF 1
ENDMDL
