MODEL 1
REMARK minimizedAffinity 10.015831
REMARK minimizedRMSD -1
REMARK  1 active torsions:
REMARK  status: ('A' for Active; 'I' for Inactive)
REMARK    1  A    between atoms: C1_2  and  C2_3 
ROOT
ATOM      1  C2  UNL d   1       4.557  -4.872  -1.775  0.00  0.00    -0.077 A 
ATOM      2  C3  UNL d   1       3.736  -5.999  -1.925  0.00  0.00     0.002 A 
ATOM      3  C4  UNL d   1       2.415  -5.975  -1.473  0.00  0.00     0.002 A 
ATOM      4  C5  UNL d   1       1.903  -4.828  -0.872  0.00  0.00    -0.004 A 
ATOM      5  C6  UNL d   1       2.712  -3.703  -0.716  0.00  0.00     0.002 A 
ATOM      6  C7  UNL d   1       4.033  -3.725  -1.167  0.00  0.00     0.002 A 
ENDROOT
BRANCH   1   7
ATOM      7  C1  UNL d   1       5.966  -4.879  -2.306  0.00  0.00     0.055 C 
ATOM      8  C   UNL d   1       6.000  -5.246  -3.783  0.00  0.00     0.019 C 
ENDBRANCH   1   7
TORSDOF 1
ENDMDL
