MODEL 1
REMARK minimizedAffinity 1.38060153
REMARK minimizedRMSD -1
REMARK  1 active torsions:
REMARK  status: ('A' for Active; 'I' for Inactive)
REMARK    1  A    between atoms: C1_2  and  C2_3 
ROOT
ATOM      1  C2  UNL d   1       1.336  -1.371  -1.257  0.00  0.00    -0.077 A 
ATOM      2  C3  UNL d   1       2.419  -0.937  -0.480  0.00  0.00     0.002 A 
ATOM      3  C4  UNL d   1       3.045   0.280  -0.757  0.00  0.00     0.002 A 
ATOM      4  C5  UNL d   1       2.592   1.074  -1.809  0.00  0.00    -0.004 A 
ATOM      5  C6  UNL d   1       1.517   0.650  -2.588  0.00  0.00     0.002 A 
ATOM      6  C7  UNL d   1       0.891  -0.566  -2.313  0.00  0.00     0.002 A 
ENDROOT
BRANCH   1   7
ATOM      7  C1  UNL d   1       0.629  -2.660  -0.928  0.00  0.00     0.055 C 
ATOM      8  C   UNL d   1      -0.501  -2.936  -1.909  0.00  0.00     0.019 C 
ENDBRANCH   1   7
TORSDOF 1
ENDMDL
