MODEL 1
REMARK minimizedAffinity 6.9341197
REMARK minimizedRMSD -1
REMARK  1 active torsions:
REMARK  status: ('A' for Active; 'I' for Inactive)
REMARK    1  A    between atoms: C1_2  and  C2_3 
ROOT
ATOM      1  C2  UNL d   1       3.336   1.106   0.810  0.00  0.00    -0.077 A 
ATOM      2  C3  UNL d   1       2.370   1.328   1.803  0.00  0.00     0.002 A 
ATOM      3  C4  UNL d   1       2.381   2.509   2.547  0.00  0.00     0.002 A 
ATOM      4  C5  UNL d   1       3.352   3.479   2.304  0.00  0.00    -0.004 A 
ATOM      5  C6  UNL d   1       4.317   3.266   1.321  0.00  0.00     0.002 A 
ATOM      6  C7  UNL d   1       4.309   2.086   0.577  0.00  0.00     0.002 A 
ENDROOT
BRANCH   1   7
ATOM      7  C1  UNL d   1       3.296  -0.146  -0.027  0.00  0.00     0.055 C 
ATOM      8  C   UNL d   1       2.141  -0.114  -1.017  0.00  0.00     0.019 C 
ENDBRANCH   1   7
TORSDOF 1
ENDMDL
