MODEL 1
REMARK minimizedAffinity 6.32640171
REMARK minimizedRMSD -1
REMARK  1 active torsions:
REMARK  status: ('A' for Active; 'I' for Inactive)
REMARK    1  A    between atoms: C1_2  and  C2_3 
ROOT
ATOM      1  C2  UNL d   1       1.099   1.891   1.736  0.00  0.00    -0.077 A 
ATOM      2  C3  UNL d   1       0.501   0.634   1.899  0.00  0.00     0.002 A 
ATOM      3  C4  UNL d   1      -0.842   0.533   2.266  0.00  0.00     0.002 A 
ATOM      4  C5  UNL d   1      -1.599   1.685   2.469  0.00  0.00    -0.004 A 
ATOM      5  C6  UNL d   1      -1.013   2.940   2.312  0.00  0.00     0.002 A 
ATOM      6  C7  UNL d   1       0.330   3.043   1.946  0.00  0.00     0.002 A 
ENDROOT
BRANCH   1   7
ATOM      7  C1  UNL d   1       2.534   2.002   1.292  0.00  0.00     0.055 C 
ATOM      8  C   UNL d   1       2.831   1.057   0.137  0.00  0.00     0.019 C 
ENDBRANCH   1   7
TORSDOF 1
ENDMDL
