MODEL 1
REMARK minimizedAffinity 11.6613073
REMARK minimizedRMSD -1
REMARK  1 active torsions:
REMARK  status: ('A' for Active; 'I' for Inactive)
REMARK    1  A    between atoms: C1_2  and  C2_3 
ROOT
ATOM      1  C2  UNL d   1       2.041   1.171  -1.741  0.00  0.00    -0.077 A 
ATOM      2  C3  UNL d   1       1.637  -0.152  -1.512  0.00  0.00     0.002 A 
ATOM      3  C4  UNL d   1       2.383  -0.984  -0.674  0.00  0.00     0.002 A 
ATOM      4  C5  UNL d   1       3.535  -0.501  -0.057  0.00  0.00    -0.004 A 
ATOM      5  C6  UNL d   1       3.946   0.813  -0.280  0.00  0.00     0.002 A 
ATOM      6  C7  UNL d   1       3.202   1.645  -1.118  0.00  0.00     0.002 A 
ENDROOT
BRANCH   1   7
ATOM      7  C1  UNL d   1       1.210   2.084  -2.605  0.00  0.00     0.055 C 
ATOM      8  C   UNL d   1       1.278   3.523  -2.114  0.00  0.00     0.019 C 
ENDBRANCH   1   7
TORSDOF 1
ENDMDL
