MODEL 1
REMARK minimizedAffinity 7.16872692
REMARK minimizedRMSD -1
REMARK  1 active torsions:
REMARK  status: ('A' for Active; 'I' for Inactive)
REMARK    1  A    between atoms: C1_2  and  C2_3 
ROOT
ATOM      1  C2  UNL d   1       1.055  -2.241  -2.021  0.00  0.00    -0.077 A 
ATOM      2  C3  UNL d   1       1.936  -1.879  -0.993  0.00  0.00     0.002 A 
ATOM      3  C4  UNL d   1       2.522  -0.612  -0.979  0.00  0.00     0.002 A 
ATOM      4  C5  UNL d   1       2.231   0.304  -1.988  0.00  0.00    -0.004 A 
ATOM      5  C6  UNL d   1       1.358  -0.048  -3.017  0.00  0.00     0.002 A 
ATOM      6  C7  UNL d   1       0.772  -1.315  -3.033  0.00  0.00     0.002 A 
ENDROOT
BRANCH   1   7
ATOM      7  C1  UNL d   1       0.384  -3.590  -2.011  0.00  0.00     0.055 C 
ATOM      8  C   UNL d   1      -0.669  -3.692  -3.105  0.00  0.00     0.019 C 
ENDBRANCH   1   7
TORSDOF 1
ENDMDL
