MODEL 1
REMARK minimizedAffinity 1.82889032
REMARK minimizedRMSD -1
REMARK  1 active torsions:
REMARK  status: ('A' for Active; 'I' for Inactive)
REMARK    1  A    between atoms: C1_2  and  C2_3 
ROOT
ATOM      1  C2  UNL d   1       2.382   1.902   2.928  0.00  0.00    -0.077 A 
ATOM      2  C3  UNL d   1       2.777   2.531   4.117  0.00  0.00     0.002 A 
ATOM      3  C4  UNL d   1       2.443   1.977   5.354  0.00  0.00     0.002 A 
ATOM      4  C5  UNL d   1       1.717   0.790   5.414  0.00  0.00    -0.004 A 
ATOM      5  C6  UNL d   1       1.317   0.157   4.238  0.00  0.00     0.002 A 
ATOM      6  C7  UNL d   1       1.649   0.710   3.000  0.00  0.00     0.002 A 
ENDROOT
BRANCH   1   7
ATOM      7  C1  UNL d   1       2.784   2.472   1.593  0.00  0.00     0.055 C 
ATOM      8  C   UNL d   1       3.391   1.403   0.695  0.00  0.00     0.019 C 
ENDBRANCH   1   7
TORSDOF 1
ENDMDL
