MODEL 1
REMARK minimizedAffinity 10.7625542
REMARK minimizedRMSD -1
REMARK  1 active torsions:
REMARK  status: ('A' for Active; 'I' for Inactive)
REMARK    1  A    between atoms: C1_2  and  C2_3 
ROOT
ATOM      1  C2  UNL d   1       1.491   1.375  -2.366  0.00  0.00    -0.077 A 
ATOM      2  C3  UNL d   1       1.038   0.124  -2.810  0.00  0.00     0.002 A 
ATOM      3  C4  UNL d   1       1.428  -1.043  -2.151  0.00  0.00     0.002 A 
ATOM      4  C5  UNL d   1       2.268  -0.971  -1.042  0.00  0.00    -0.004 A 
ATOM      5  C6  UNL d   1       2.726   0.267  -0.594  0.00  0.00     0.002 A 
ATOM      6  C7  UNL d   1       2.338   1.435  -1.252  0.00  0.00     0.002 A 
ENDROOT
BRANCH   1   7
ATOM      7  C1  UNL d   1       1.032   2.638  -3.046  0.00  0.00     0.055 C 
ATOM      8  C   UNL d   1       1.231   3.852  -2.150  0.00  0.00     0.019 C 
ENDBRANCH   1   7
TORSDOF 1
ENDMDL
