MODEL 1
REMARK minimizedAffinity 14.5470905
REMARK minimizedRMSD -1
REMARK  1 active torsions:
REMARK  status: ('A' for Active; 'I' for Inactive)
REMARK    1  A    between atoms: C1_2  and  C2_3 
ROOT
ATOM      1  C2  UNL d   1       1.849   0.139   0.009  0.00  0.00    -0.077 A 
ATOM      2  C3  UNL d   1       1.431   0.774   1.187  0.00  0.00     0.002 A 
ATOM      3  C4  UNL d   1       2.049   1.952   1.611  0.00  0.00     0.002 A 
ATOM      4  C5  UNL d   1       3.083   2.508   0.862  0.00  0.00    -0.004 A 
ATOM      5  C6  UNL d   1       3.507   1.883  -0.311  0.00  0.00     0.002 A 
ATOM      6  C7  UNL d   1       2.892   0.704  -0.736  0.00  0.00     0.002 A 
ENDROOT
BRANCH   1   7
ATOM      7  C1  UNL d   1       1.151  -1.105  -0.476  0.00  0.00     0.055 C 
ATOM      8  C   UNL d   1       1.536  -1.431  -1.912  0.00  0.00     0.019 C 
ENDBRANCH   1   7
TORSDOF 1
ENDMDL
