MODEL 1
REMARK minimizedAffinity 1.98584831
REMARK minimizedRMSD -1
REMARK  1 active torsions:
REMARK  status: ('A' for Active; 'I' for Inactive)
REMARK    1  A    between atoms: C1_2  and  C2_3 
ROOT
ATOM      1  C2  UNL d   1       0.054  -2.738  -2.089  0.00  0.00    -0.077 A 
ATOM      2  C3  UNL d   1       0.734  -2.760  -0.863  0.00  0.00     0.002 A 
ATOM      3  C4  UNL d   1       1.915  -2.035  -0.696  0.00  0.00     0.002 A 
ATOM      4  C5  UNL d   1       2.424  -1.279  -1.750  0.00  0.00    -0.004 A 
ATOM      5  C6  UNL d   1       1.757  -1.253  -2.974  0.00  0.00     0.002 A 
ATOM      6  C7  UNL d   1       0.577  -1.978  -3.143  0.00  0.00     0.002 A 
ENDROOT
BRANCH   1   7
ATOM      7  C1  UNL d   1      -1.246  -3.481  -2.255  0.00  0.00     0.055 C 
ATOM      8  C   UNL d   1      -2.368  -2.544  -2.680  0.00  0.00     0.019 C 
ENDBRANCH   1   7
TORSDOF 1
ENDMDL
