MODEL 1
REMARK minimizedAffinity 6.74337912
REMARK minimizedRMSD -1
REMARK  1 active torsions:
REMARK  status: ('A' for Active; 'I' for Inactive)
REMARK    1  A    between atoms: C1_2  and  C2_3 
ROOT
ATOM      1  C2  UNL d   1       2.476   2.465   1.917  0.00  0.00    -0.077 A 
ATOM      2  C3  UNL d   1       3.613   2.194   1.142  0.00  0.00     0.002 A 
ATOM      3  C4  UNL d   1       3.712   1.000   0.426  0.00  0.00     0.002 A 
ATOM      4  C5  UNL d   1       2.676   0.069   0.474  0.00  0.00    -0.004 A 
ATOM      5  C6  UNL d   1       1.542   0.328   1.243  0.00  0.00     0.002 A 
ATOM      6  C7  UNL d   1       1.442   1.521   1.960  0.00  0.00     0.002 A 
ENDROOT
BRANCH   1   7
ATOM      7  C1  UNL d   1       2.346   3.774   2.650  0.00  0.00     0.055 C 
ATOM      8  C   UNL d   1       3.028   4.904   1.892  0.00  0.00     0.019 C 
ENDBRANCH   1   7
TORSDOF 1
ENDMDL
