MODEL 1
REMARK minimizedAffinity 0.238439128
REMARK minimizedRMSD -1
REMARK  1 active torsions:
REMARK  status: ('A' for Active; 'I' for Inactive)
REMARK    1  A    between atoms: C1_2  and  C2_3 
ROOT
ATOM      1  C2  UNL d   1      -0.333  -3.069  -2.038  0.00  0.00    -0.077 A 
ATOM      2  C3  UNL d   1      -1.362  -2.130  -2.200  0.00  0.00     0.002 A 
ATOM      3  C4  UNL d   1      -2.423  -2.389  -3.069  0.00  0.00     0.002 A 
ATOM      4  C5  UNL d   1      -2.469  -3.587  -3.778  0.00  0.00    -0.004 A 
ATOM      5  C6  UNL d   1      -1.450  -4.526  -3.625  0.00  0.00     0.002 A 
ATOM      6  C7  UNL d   1      -0.387  -4.268  -2.758  0.00  0.00     0.002 A 
ENDROOT
BRANCH   1   7
ATOM      7  C1  UNL d   1       0.788  -2.812  -1.064  0.00  0.00     0.055 C 
ATOM      8  C   UNL d   1       1.866  -1.932  -1.680  0.00  0.00     0.019 C 
ENDBRANCH   1   7
TORSDOF 1
ENDMDL
