MODEL 1
REMARK minimizedAffinity 15.0295496
REMARK minimizedRMSD -1
REMARK  1 active torsions:
REMARK  status: ('A' for Active; 'I' for Inactive)
REMARK    1  A    between atoms: C1_2  and  C2_3 
ROOT
ATOM      1  C2  UNL d   1       2.639   1.137  -1.425  0.00  0.00    -0.077 A 
ATOM      2  C3  UNL d   1       2.203  -0.112  -1.891  0.00  0.00     0.002 A 
ATOM      3  C4  UNL d   1       1.338  -0.194  -2.984  0.00  0.00     0.002 A 
ATOM      4  C5  UNL d   1       0.906   0.966  -3.622  0.00  0.00    -0.004 A 
ATOM      5  C6  UNL d   1       1.333   2.212  -3.165  0.00  0.00     0.002 A 
ATOM      6  C7  UNL d   1       2.196   2.297  -2.072  0.00  0.00     0.002 A 
ENDROOT
BRANCH   1   7
ATOM      7  C1  UNL d   1       3.611   1.226  -0.277  0.00  0.00     0.055 C 
ATOM      8  C   UNL d   1       5.043   1.362  -0.773  0.00  0.00     0.019 C 
ENDBRANCH   1   7
TORSDOF 1
ENDMDL
