MODEL 1
REMARK minimizedAffinity 5.01452017
REMARK minimizedRMSD -1
REMARK  0 active torsions:
REMARK  status: ('A' for Active; 'I' for Inactive)
ROOT
ATOM      1  C   UNL d   1       0.784  -1.120   2.469  0.00  0.00     0.020 A 
ATOM      2  C1  UNL d   1       1.067  -1.840   1.309  0.00  0.00     0.020 A 
ATOM      3  C2  UNL d   1       1.884  -1.283   0.323  0.00  0.00     0.034 A 
ATOM      4  C3  UNL d   1       2.421  -0.003   0.495  0.00  0.00     0.017 A 
ATOM      5  C4  UNL d   1       2.137   0.719   1.660  0.00  0.00     0.017 A 
ATOM      6  C5  UNL d   1       1.318   0.157   2.644  0.00  0.00     0.034 A 
ATOM      7 Cl   UNL d   1       2.764   2.305   1.943  0.00  0.00    -0.070 Cl
ATOM      8 Cl1  UNL d   1       3.424   0.624  -0.765  0.00  0.00    -0.070 Cl
ENDROOT
TORSDOF 0
ENDMDL
