MODEL 1
REMARK minimizedAffinity 2.9792788
REMARK minimizedRMSD -1
REMARK  0 active torsions:
REMARK  status: ('A' for Active; 'I' for Inactive)
ROOT
ATOM      1  C   UNL d   1      -3.854   1.385  -6.000  0.00  0.00     0.020 A 
ATOM      2  C1  UNL d   1      -4.990   1.341  -5.192  0.00  0.00     0.020 A 
ATOM      3  C2  UNL d   1      -5.164   0.289  -4.290  0.00  0.00     0.034 A 
ATOM      4  C3  UNL d   1      -4.201  -0.723  -4.194  0.00  0.00     0.017 A 
ATOM      5  C4  UNL d   1      -3.061  -0.677  -5.005  0.00  0.00     0.017 A 
ATOM      6  C5  UNL d   1      -2.892   0.379  -5.906  0.00  0.00     0.034 A 
ATOM      7 Cl   UNL d   1      -1.830  -1.888  -4.942  0.00  0.00    -0.070 Cl
ATOM      8 Cl1  UNL d   1      -4.482  -1.993  -3.057  0.00  0.00    -0.070 Cl
ENDROOT
TORSDOF 0
ENDMDL
