MODEL 1
REMARK minimizedAffinity 3.50769591
REMARK minimizedRMSD -1
REMARK  0 active torsions:
REMARK  status: ('A' for Active; 'I' for Inactive)
ROOT
ATOM      1  C   UNL d   1      -3.751   1.817  -5.152  0.00  0.00     0.020 A 
ATOM      2  C1  UNL d   1      -4.665   1.720  -4.104  0.00  0.00     0.020 A 
ATOM      3  C2  UNL d   1      -4.852   0.499  -3.452  0.00  0.00     0.034 A 
ATOM      4  C3  UNL d   1      -4.123  -0.629  -3.848  0.00  0.00     0.017 A 
ATOM      5  C4  UNL d   1      -3.206  -0.530  -4.900  0.00  0.00     0.017 A 
ATOM      6  C5  UNL d   1      -3.023   0.695  -5.549  0.00  0.00     0.034 A 
ATOM      7 Cl   UNL d   1      -2.270  -1.877  -5.444  0.00  0.00    -0.070 Cl
ATOM      8 Cl1  UNL d   1      -4.404  -2.106  -2.997  0.00  0.00    -0.070 Cl
ENDROOT
TORSDOF 0
ENDMDL
