MODEL 1
REMARK minimizedAffinity 4.14015007
REMARK minimizedRMSD -1
REMARK  0 active torsions:
REMARK  status: ('A' for Active; 'I' for Inactive)
ROOT
ATOM      1  C   UNL d   1      -4.936   0.681  -6.000  0.00  0.00     0.020 A 
ATOM      2  C1  UNL d   1      -5.295   1.343  -4.826  0.00  0.00     0.020 A 
ATOM      3  C2  UNL d   1      -4.585   1.110  -3.647  0.00  0.00     0.034 A 
ATOM      4  C3  UNL d   1      -3.511   0.212  -3.639  0.00  0.00     0.017 A 
ATOM      5  C4  UNL d   1      -3.151  -0.452  -4.817  0.00  0.00     0.017 A 
ATOM      6  C5  UNL d   1      -3.866  -0.214  -5.995  0.00  0.00     0.034 A 
ATOM      7 Cl   UNL d   1      -1.837  -1.573  -4.885  0.00  0.00    -0.070 Cl
ATOM      8 Cl1  UNL d   1      -2.676  -0.028  -2.145  0.00  0.00    -0.070 Cl
ENDROOT
TORSDOF 0
ENDMDL
