MODEL 1
REMARK minimizedAffinity -1.11626673
REMARK minimizedRMSD -1
REMARK  0 active torsions:
REMARK  status: ('A' for Active; 'I' for Inactive)
ROOT
ATOM      1  C   UNL d   1      -5.758   0.651  -4.813  0.00  0.00     0.020 A 
ATOM      2  C1  UNL d   1      -5.048   0.475  -6.000  0.00  0.00     0.020 A 
ATOM      3  C2  UNL d   1      -3.824  -0.196  -5.988  0.00  0.00     0.034 A 
ATOM      4  C3  UNL d   1      -3.305  -0.694  -4.787  0.00  0.00     0.017 A 
ATOM      5  C4  UNL d   1      -4.018  -0.516  -3.596  0.00  0.00     0.017 A 
ATOM      6  C5  UNL d   1      -5.244   0.156  -3.613  0.00  0.00     0.034 A 
ATOM      7 Cl   UNL d   1      -3.442  -1.102  -2.075  0.00  0.00    -0.070 Cl
ATOM      8 Cl1  UNL d   1      -1.785  -1.514  -4.847  0.00  0.00    -0.070 Cl
ENDROOT
TORSDOF 0
ENDMDL
