MODEL 1
REMARK minimizedAffinity 3.76885962
REMARK minimizedRMSD -1
REMARK  0 active torsions:
REMARK  status: ('A' for Active; 'I' for Inactive)
ROOT
ATOM      1  C   UNL d   1      -5.550   0.903  -5.054  0.00  0.00     0.020 A 
ATOM      2  C1  UNL d   1      -4.339   1.109  -5.714  0.00  0.00     0.020 A 
ATOM      3  C2  UNL d   1      -3.229   0.323  -5.399  0.00  0.00     0.034 A 
ATOM      4  C3  UNL d   1      -3.328  -0.674  -4.421  0.00  0.00     0.017 A 
ATOM      5  C4  UNL d   1      -4.543  -0.881  -3.759  0.00  0.00     0.017 A 
ATOM      6  C5  UNL d   1      -5.652  -0.090  -4.079  0.00  0.00     0.034 A 
ATOM      7 Cl   UNL d   1      -4.742  -2.092  -2.542  0.00  0.00    -0.070 Cl
ATOM      8 Cl1  UNL d   1      -1.915  -1.610  -4.083  0.00  0.00    -0.070 Cl
ENDROOT
TORSDOF 0
ENDMDL
