MODEL 1
REMARK minimizedAffinity 0.826546907
REMARK minimizedRMSD -1
REMARK  0 active torsions:
REMARK  status: ('A' for Active; 'I' for Inactive)
ROOT
ATOM      1  C   UNL d   1       5.467  -5.531   5.978  0.00  0.00     0.020 A 
ATOM      2  C1  UNL d   1       4.592  -6.000   4.999  0.00  0.00     0.020 A 
ATOM      3  C2  UNL d   1       4.078  -5.122   4.043  0.00  0.00     0.034 A 
ATOM      4  C3  UNL d   1       4.440  -3.770   4.062  0.00  0.00     0.017 A 
ATOM      5  C4  UNL d   1       5.319  -3.300   5.045  0.00  0.00     0.017 A 
ATOM      6  C5  UNL d   1       5.830  -4.184   6.000  0.00  0.00     0.034 A 
ATOM      7 Cl   UNL d   1       5.812  -1.646   5.133  0.00  0.00    -0.070 Cl
ATOM      8 Cl1  UNL d   1       3.768  -2.740   2.848  0.00  0.00    -0.070 Cl
ENDROOT
TORSDOF 0
ENDMDL
