MODEL 1
REMARK minimizedAffinity 1.6494453
REMARK minimizedRMSD -1
REMARK  0 active torsions:
REMARK  status: ('A' for Active; 'I' for Inactive)
ROOT
ATOM      1  C   UNL d   1      -3.856  -1.182  -3.342  0.00  0.00     0.020 A 
ATOM      2  C1  UNL d   1      -5.069  -1.312  -4.019  0.00  0.00     0.020 A 
ATOM      3  C2  UNL d   1      -5.713  -0.179  -4.521  0.00  0.00     0.034 A 
ATOM      4  C3  UNL d   1      -5.144   1.088  -4.348  0.00  0.00     0.017 A 
ATOM      5  C4  UNL d   1      -3.927   1.217  -3.669  0.00  0.00     0.017 A 
ATOM      6  C5  UNL d   1      -3.287   0.080  -3.168  0.00  0.00     0.034 A 
ATOM      7 Cl   UNL d   1      -3.165   2.748  -3.416  0.00  0.00    -0.070 Cl
ATOM      8 Cl1  UNL d   1      -5.995   2.445  -4.996  0.00  0.00    -0.070 Cl
ENDROOT
TORSDOF 0
ENDMDL
