MODEL 1
REMARK minimizedAffinity 2.09716558
REMARK minimizedRMSD -1
REMARK  0 active torsions:
REMARK  status: ('A' for Active; 'I' for Inactive)
ROOT
ATOM      1  C   UNL d   1      -1.872  -1.814   0.286  0.00  0.00     0.124 A 
ATOM      2  C1  UNL d   1      -0.759  -2.049   1.081  0.00  0.00     0.062 A 
ATOM      3  C2  UNL d   1       0.357  -1.222   0.987  0.00  0.00     0.162 A 
ATOM      4  C3  UNL d   1       0.364  -0.150   0.094  0.00  0.00    -0.034 A 
ATOM      5  C4  UNL d   1      -0.758   0.080  -0.703  0.00  0.00     0.162 A 
ATOM      6  C5  UNL d   1      -1.871  -0.750  -0.605  0.00  0.00     0.062 A 
ATOM      7  F   UNL d   1      -2.945  -0.521  -1.374  0.00  0.00    -0.097 F 
ATOM      8  F1  UNL d   1      -0.785   1.101  -1.572  0.00  0.00    -0.096 F 
ATOM      9  I   UNL d   1       2.030   1.089  -0.050  0.00  0.00    -0.060 I 
ATOM     10  F2  UNL d   1       1.418  -1.473   1.767  0.00  0.00    -0.096 F 
ATOM     11  F3  UNL d   1      -0.757  -3.077   1.942  0.00  0.00    -0.097 F 
ATOM     12  F4  UNL d   1      -2.943  -2.612   0.378  0.00  0.00    -0.092 F 
ENDROOT
TORSDOF 0
ENDMDL
