MODEL 1
REMARK minimizedAffinity 0.779940605
REMARK minimizedRMSD -1
REMARK  0 active torsions:
REMARK  status: ('A' for Active; 'I' for Inactive)
ROOT
ATOM      1  C   UNL d   1      -1.546  -1.918   0.064  0.00  0.00     0.124 A 
ATOM      2  C1  UNL d   1      -1.576  -0.814  -0.777  0.00  0.00     0.062 A 
ATOM      3  C2  UNL d   1      -0.532   0.106  -0.762  0.00  0.00     0.162 A 
ATOM      4  C3  UNL d   1       0.553  -0.075   0.096  0.00  0.00    -0.034 A 
ATOM      5  C4  UNL d   1       0.575  -1.187   0.940  0.00  0.00     0.162 A 
ATOM      6  C5  UNL d   1      -0.471  -2.103   0.921  0.00  0.00     0.062 A 
ATOM      7  F   UNL d   1      -0.441  -3.169   1.735  0.00  0.00    -0.097 F 
ATOM      8  F1  UNL d   1       1.603  -1.391   1.778  0.00  0.00    -0.096 F 
ATOM      9  I   UNL d   1       2.117   1.298   0.121  0.00  0.00    -0.060 I 
ATOM     10  F2  UNL d   1      -0.587   1.163  -1.586  0.00  0.00    -0.096 F 
ATOM     11  F3  UNL d   1      -2.614  -0.632  -1.606  0.00  0.00    -0.097 F 
ATOM     12  F4  UNL d   1      -2.553  -2.800   0.048  0.00  0.00    -0.092 F 
ENDROOT
TORSDOF 0
ENDMDL
