MODEL 1
REMARK minimizedAffinity -0.895771265
REMARK minimizedRMSD -1
REMARK  0 active torsions:
REMARK  status: ('A' for Active; 'I' for Inactive)
ROOT
ATOM      1  C   UNL d   1      -1.450  -1.010  -0.462  0.00  0.00     0.124 A 
ATOM      2  C1  UNL d   1      -1.243  -0.046  -1.439  0.00  0.00     0.062 A 
ATOM      3  C2  UNL d   1      -0.035   0.644  -1.497  0.00  0.00     0.162 A 
ATOM      4  C3  UNL d   1       0.975   0.372  -0.574  0.00  0.00    -0.034 A 
ATOM      5  C4  UNL d   1       0.759  -0.598   0.406  0.00  0.00     0.162 A 
ATOM      6  C5  UNL d   1      -0.450  -1.285   0.459  0.00  0.00     0.062 A 
ATOM      7  F   UNL d   1      -0.648  -2.215   1.404  0.00  0.00    -0.097 F 
ATOM      8  F1  UNL d   1       1.709  -0.884   1.309  0.00  0.00    -0.096 F 
ATOM      9  I   UNL d   1       2.782   1.402  -0.657  0.00  0.00    -0.060 I 
ATOM     10  F2  UNL d   1       0.138   1.570  -2.452  0.00  0.00    -0.096 F 
ATOM     11  F3  UNL d   1      -2.208   0.222  -2.330  0.00  0.00    -0.097 F 
ATOM     12  F4  UNL d   1      -2.613  -1.672  -0.409  0.00  0.00    -0.092 F 
ENDROOT
TORSDOF 0
ENDMDL
