MODEL 1
REMARK minimizedAffinity -0.745634496
REMARK minimizedRMSD -1
REMARK  0 active torsions:
REMARK  status: ('A' for Active; 'I' for Inactive)
ROOT
ATOM      1  C   UNL d   1      -0.473   0.283  -1.479  0.00  0.00     0.124 A 
ATOM      2  C1  UNL d   1      -1.683  -0.328  -1.178  0.00  0.00     0.062 A 
ATOM      3  C2  UNL d   1      -1.780  -1.190  -0.090  0.00  0.00     0.162 A 
ATOM      4  C3  UNL d   1      -0.664  -1.446   0.707  0.00  0.00    -0.034 A 
ATOM      5  C4  UNL d   1       0.549  -0.829   0.398  0.00  0.00     0.162 A 
ATOM      6  C5  UNL d   1       0.641   0.032  -0.691  0.00  0.00     0.062 A 
ATOM      7  F   UNL d   1       1.811   0.621  -0.980  0.00  0.00    -0.097 F 
ATOM      8  F1  UNL d   1       1.641  -1.053   1.143  0.00  0.00    -0.096 F 
ATOM      9  I   UNL d   1      -0.806  -2.735   2.335  0.00  0.00    -0.060 I 
ATOM     10  F2  UNL d   1      -2.961  -1.767   0.177  0.00  0.00    -0.096 F 
ATOM     11  F3  UNL d   1      -2.760  -0.088  -1.939  0.00  0.00    -0.097 F 
ATOM     12  F4  UNL d   1      -0.382   1.111  -2.527  0.00  0.00    -0.092 F 
ENDROOT
TORSDOF 0
ENDMDL
