MODEL 1
REMARK minimizedAffinity 4.83927774
REMARK minimizedRMSD -1
REMARK  0 active torsions:
REMARK  status: ('A' for Active; 'I' for Inactive)
ROOT
ATOM      1  C   UNL d   1      -1.682  -1.426  -0.413  0.00  0.00     0.124 A 
ATOM      2  C1  UNL d   1      -1.603  -0.472  -1.418  0.00  0.00     0.062 A 
ATOM      3  C2  UNL d   1      -0.512   0.391  -1.481  0.00  0.00     0.162 A 
ATOM      4  C3  UNL d   1       0.509   0.303  -0.535  0.00  0.00    -0.034 A 
ATOM      5  C4  UNL d   1       0.422  -0.658   0.474  0.00  0.00     0.162 A 
ATOM      6  C5  UNL d   1      -0.669  -1.518   0.532  0.00  0.00     0.062 A 
ATOM      7  F   UNL d   1      -0.744  -2.439   1.504  0.00  0.00    -0.097 F 
ATOM      8  F1  UNL d   1       1.387  -0.769   1.399  0.00  0.00    -0.096 F 
ATOM      9  I   UNL d   1       2.141   1.592  -0.625  0.00  0.00    -0.060 I 
ATOM     10  F2  UNL d   1      -0.462   1.303  -2.463  0.00  0.00    -0.096 F 
ATOM     11  F3  UNL d   1      -2.580  -0.381  -2.332  0.00  0.00    -0.097 F 
ATOM     12  F4  UNL d   1      -2.732  -2.254  -0.355  0.00  0.00    -0.092 F 
ENDROOT
TORSDOF 0
ENDMDL
