MODEL 1
REMARK minimizedAffinity 0.132792503
REMARK minimizedRMSD -1
REMARK  0 active torsions:
REMARK  status: ('A' for Active; 'I' for Inactive)
ROOT
ATOM      1  C   UNL d   1       3.123   2.885   0.980  0.00  0.00     0.124 A 
ATOM      2  C1  UNL d   1       3.264   2.659  -0.382  0.00  0.00     0.062 A 
ATOM      3  C2  UNL d   1       2.315   1.908  -1.069  0.00  0.00     0.162 A 
ATOM      4  C3  UNL d   1       1.214   1.378  -0.395  0.00  0.00    -0.034 A 
ATOM      5  C4  UNL d   1       1.079   1.609   0.975  0.00  0.00     0.162 A 
ATOM      6  C5  UNL d   1       2.031   2.360   1.657  0.00  0.00     0.062 A 
ATOM      7  F   UNL d   1       1.893   2.578   2.973  0.00  0.00    -0.097 F 
ATOM      8  F1  UNL d   1       0.033   1.115   1.654  0.00  0.00    -0.096 F 
ATOM      9  I   UNL d   1      -0.208   0.255  -1.419  0.00  0.00    -0.060 I 
ATOM     10  F2  UNL d   1       2.477   1.705  -2.385  0.00  0.00    -0.096 F 
ATOM     11  F3  UNL d   1       4.319   3.164  -1.038  0.00  0.00    -0.097 F 
ATOM     12  F4  UNL d   1       4.038   3.607   1.639  0.00  0.00    -0.092 F 
ENDROOT
TORSDOF 0
ENDMDL
