MODEL 1
REMARK minimizedAffinity 0.386749119
REMARK minimizedRMSD -1
REMARK  0 active torsions:
REMARK  status: ('A' for Active; 'I' for Inactive)
ROOT
ATOM      1  C   UNL d   1      -1.635  -1.626  -0.207  0.00  0.00     0.124 A 
ATOM      2  C1  UNL d   1      -0.540  -1.849   0.616  0.00  0.00     0.062 A 
ATOM      3  C2  UNL d   1       0.515  -0.942   0.638  0.00  0.00     0.162 A 
ATOM      4  C3  UNL d   1       0.479   0.199  -0.165  0.00  0.00    -0.034 A 
ATOM      5  C4  UNL d   1      -0.625   0.416  -0.990  0.00  0.00     0.162 A 
ATOM      6  C5  UNL d   1      -1.677  -0.495  -1.009  0.00  0.00     0.062 A 
ATOM      7  F   UNL d   1      -2.735  -0.277  -1.805  0.00  0.00    -0.097 F 
ATOM      8  F1  UNL d   1      -0.692   1.502  -1.775  0.00  0.00    -0.096 F 
ATOM      9  I   UNL d   1       2.055   1.558  -0.134  0.00  0.00    -0.060 I 
ATOM     10  F2  UNL d   1       1.561  -1.183   1.443  0.00  0.00    -0.096 F 
ATOM     11  F3  UNL d   1      -0.497  -2.943   1.391  0.00  0.00    -0.097 F 
ATOM     12  F4  UNL d   1      -2.649  -2.502  -0.227  0.00  0.00    -0.092 F 
ENDROOT
TORSDOF 0
ENDMDL
