MODEL 1
REMARK minimizedAffinity -0.503671408
REMARK minimizedRMSD -1
REMARK  0 active torsions:
REMARK  status: ('A' for Active; 'I' for Inactive)
ROOT
ATOM      1  C   UNL d   1      -1.381  -1.318  -0.516  0.00  0.00     0.124 A 
ATOM      2  C1  UNL d   1      -1.364  -0.155  -1.273  0.00  0.00     0.062 A 
ATOM      3  C2  UNL d   1      -0.372   0.800  -1.067  0.00  0.00     0.162 A 
ATOM      4  C3  UNL d   1       0.612   0.595  -0.100  0.00  0.00    -0.034 A 
ATOM      5  C4  UNL d   1       0.588  -0.577   0.657  0.00  0.00     0.162 A 
ATOM      6  C5  UNL d   1      -0.405  -1.529   0.448  0.00  0.00     0.062 A 
ATOM      7  F   UNL d   1      -0.419  -2.652   1.180  0.00  0.00    -0.097 F 
ATOM      8  F1  UNL d   1       1.520  -0.807   1.595  0.00  0.00    -0.096 F 
ATOM      9  I   UNL d   1       2.097   2.020   0.210  0.00  0.00    -0.060 I 
ATOM     10  F2  UNL d   1      -0.381   1.915  -1.813  0.00  0.00    -0.096 F 
ATOM     11  F3  UNL d   1      -2.306   0.051  -2.204  0.00  0.00    -0.097 F 
ATOM     12  F4  UNL d   1      -2.336  -2.235  -0.716  0.00  0.00    -0.092 F 
ENDROOT
TORSDOF 0
ENDMDL
