MODEL 1
REMARK minimizedAffinity 0.0598721653
REMARK minimizedRMSD -1
REMARK  0 active torsions:
REMARK  status: ('A' for Active; 'I' for Inactive)
ROOT
ATOM      1  C   UNL d   1      -1.516  -1.478  -0.068  0.00  0.00     0.124 A 
ATOM      2  C1  UNL d   1      -0.537  -1.606   0.907  0.00  0.00     0.062 A 
ATOM      3  C2  UNL d   1       0.589  -0.788   0.881  0.00  0.00     0.162 A 
ATOM      4  C3  UNL d   1       0.741   0.168  -0.124  0.00  0.00    -0.034 A 
ATOM      5  C4  UNL d   1      -0.248   0.290  -1.102  0.00  0.00     0.162 A 
ATOM      6  C5  UNL d   1      -1.371  -0.531  -1.072  0.00  0.00     0.062 A 
ATOM      7  F   UNL d   1      -2.316  -0.406  -2.015  0.00  0.00    -0.097 F 
ATOM      8  F1  UNL d   1      -0.133   1.198  -2.083  0.00  0.00    -0.096 F 
ATOM      9  I   UNL d   1       2.422   1.393  -0.167  0.00  0.00    -0.060 I 
ATOM     10  F2  UNL d   1       1.519  -0.933   1.836  0.00  0.00    -0.096 F 
ATOM     11  F3  UNL d   1      -0.674  -2.522   1.877  0.00  0.00    -0.097 F 
ATOM     12  F4  UNL d   1      -2.597  -2.268  -0.041  0.00  0.00    -0.092 F 
ENDROOT
TORSDOF 0
ENDMDL
