MODEL 1
REMARK minimizedAffinity 14.4602976
REMARK minimizedRMSD -1
REMARK  0 active torsions:
REMARK  status: ('A' for Active; 'I' for Inactive)
ROOT
ATOM      1  C   UNL d   1      -2.840  -1.501  -0.973  0.00  0.00     0.124 A 
ATOM      2  C1  UNL d   1      -1.849  -1.930  -1.846  0.00  0.00     0.062 A 
ATOM      3  C2  UNL d   1      -1.177  -1.011  -2.647  0.00  0.00     0.162 A 
ATOM      4  C3  UNL d   1      -1.493   0.346  -2.579  0.00  0.00    -0.034 A 
ATOM      5  C4  UNL d   1      -2.491   0.769  -1.699  0.00  0.00     0.162 A 
ATOM      6  C5  UNL d   1      -3.160  -0.153  -0.900  0.00  0.00     0.062 A 
ATOM      7  F   UNL d   1      -4.116   0.263  -0.058  0.00  0.00    -0.097 F 
ATOM      8  F1  UNL d   1      -2.819   2.066  -1.608  0.00  0.00    -0.096 F 
ATOM      9  I   UNL d   1      -0.490   1.722  -3.775  0.00  0.00    -0.060 I 
ATOM     10  F2  UNL d   1      -0.225  -1.453  -3.482  0.00  0.00    -0.096 F 
ATOM     11  F3  UNL d   1      -1.539  -3.232  -1.919  0.00  0.00    -0.097 F 
ATOM     12  F4  UNL d   1      -3.486  -2.388  -0.204  0.00  0.00    -0.092 F 
ENDROOT
TORSDOF 0
ENDMDL
