MODEL 1
REMARK minimizedAffinity 0.563088179
REMARK minimizedRMSD -1
REMARK  0 active torsions:
REMARK  status: ('A' for Active; 'I' for Inactive)
ROOT
ATOM      1  C   UNL d   1      -0.619  -1.220   0.199  0.00  0.00     0.124 A 
ATOM      2  C1  UNL d   1       0.380  -1.453   1.134  0.00  0.00     0.062 A 
ATOM      3  C2  UNL d   1       1.440  -0.560   1.263  0.00  0.00     0.162 A 
ATOM      4  C3  UNL d   1       1.506   0.575   0.455  0.00  0.00    -0.034 A 
ATOM      5  C4  UNL d   1       0.498   0.801  -0.485  0.00  0.00     0.162 A 
ATOM      6  C5  UNL d   1      -0.559  -0.094  -0.610  0.00  0.00     0.062 A 
ATOM      7  F   UNL d   1      -1.523   0.132  -1.514  0.00  0.00    -0.097 F 
ATOM      8  F1  UNL d   1       0.531   1.882  -1.278  0.00  0.00    -0.096 F 
ATOM      9  I   UNL d   1       3.089   1.913   0.644  0.00  0.00    -0.060 I 
ATOM     10  F2  UNL d   1       2.391  -0.809   2.175  0.00  0.00    -0.096 F 
ATOM     11  F3  UNL d   1       0.325  -2.541   1.916  0.00  0.00    -0.097 F 
ATOM     12  F4  UNL d   1      -1.637  -2.082   0.076  0.00  0.00    -0.092 F 
ENDROOT
TORSDOF 0
ENDMDL
