MODEL 1
REMARK minimizedAffinity 0.503503323
REMARK minimizedRMSD -1
REMARK  0 active torsions:
REMARK  status: ('A' for Active; 'I' for Inactive)
ROOT
ATOM      1  C   UNL d   1       3.323   3.474   0.565  0.00  0.00     0.124 A 
ATOM      2  C1  UNL d   1       3.570   2.316  -0.159  0.00  0.00     0.062 A 
ATOM      3  C2  UNL d   1       3.017   1.105   0.247  0.00  0.00     0.162 A 
ATOM      4  C3  UNL d   1       2.210   1.046   1.383  0.00  0.00    -0.034 A 
ATOM      5  C4  UNL d   1       1.967   2.214   2.107  0.00  0.00     0.162 A 
ATOM      6  C5  UNL d   1       2.522   3.422   1.698  0.00  0.00     0.062 A 
ATOM      7  F   UNL d   1       2.283   4.540   2.399  0.00  0.00    -0.097 F 
ATOM      8  F1  UNL d   1       1.196   2.193   3.205  0.00  0.00    -0.096 F 
ATOM      9  I   UNL d   1       1.380  -0.763   1.994  0.00  0.00    -0.060 I 
ATOM     10  F2  UNL d   1       3.272   0.002  -0.472  0.00  0.00    -0.096 F 
ATOM     11  F3  UNL d   1       4.344   2.363  -1.253  0.00  0.00    -0.097 F 
ATOM     12  F4  UNL d   1       3.858   4.637   0.173  0.00  0.00    -0.092 F 
ENDROOT
TORSDOF 0
ENDMDL
