MODEL 1
REMARK minimizedAffinity 0.484023333
REMARK minimizedRMSD -1
REMARK  0 active torsions:
REMARK  status: ('A' for Active; 'I' for Inactive)
ROOT
ATOM      1  C   UNL d   1      -1.742  -1.413  -0.440  0.00  0.00     0.124 A 
ATOM      2  C1  UNL d   1      -0.743  -1.583   0.509  0.00  0.00     0.062 A 
ATOM      3  C2  UNL d   1       0.354  -0.726   0.531  0.00  0.00     0.162 A 
ATOM      4  C3  UNL d   1       0.457   0.310  -0.397  0.00  0.00    -0.034 A 
ATOM      5  C4  UNL d   1      -0.551   0.474  -1.349  0.00  0.00     0.162 A 
ATOM      6  C5  UNL d   1      -1.645  -0.385  -1.368  0.00  0.00     0.062 A 
ATOM      7  F   UNL d   1      -2.609  -0.220  -2.285  0.00  0.00    -0.097 F 
ATOM      8  F1  UNL d   1      -0.483   1.459  -2.257  0.00  0.00    -0.096 F 
ATOM      9  I   UNL d   1       2.095   1.593  -0.367  0.00  0.00    -0.060 I 
ATOM     10  F2  UNL d   1       1.304  -0.913   1.459  0.00  0.00    -0.096 F 
ATOM     11  F3  UNL d   1      -0.834  -2.575   1.405  0.00  0.00    -0.097 F 
ATOM     12  F4  UNL d   1      -2.796  -2.239  -0.460  0.00  0.00    -0.092 F 
ENDROOT
TORSDOF 0
ENDMDL
