MODEL 1
REMARK minimizedAffinity -2.11860132
REMARK minimizedRMSD -1
REMARK  0 active torsions:
REMARK  status: ('A' for Active; 'I' for Inactive)
ROOT
ATOM      1  C   UNL d   1      -2.069  -1.936  -0.034  0.00  0.00     0.124 A 
ATOM      2  C1  UNL d   1      -2.040  -0.744  -0.746  0.00  0.00     0.062 A 
ATOM      3  C2  UNL d   1      -0.942   0.105  -0.645  0.00  0.00     0.162 A 
ATOM      4  C3  UNL d   1       0.138  -0.234   0.169  0.00  0.00    -0.034 A 
ATOM      5  C4  UNL d   1       0.102  -1.434   0.882  0.00  0.00     0.162 A 
ATOM      6  C5  UNL d   1      -0.998  -2.279   0.779  0.00  0.00     0.062 A 
ATOM      7  F   UNL d   1      -1.023  -3.430   1.467  0.00  0.00    -0.097 F 
ATOM      8  F1  UNL d   1       1.123  -1.791   1.675  0.00  0.00    -0.096 F 
ATOM      9  I   UNL d   1       1.781   1.033   0.322  0.00  0.00    -0.060 I 
ATOM     10  F2  UNL d   1      -0.942   1.250  -1.344  0.00  0.00    -0.096 F 
ATOM     11  F3  UNL d   1      -3.074  -0.409  -1.531  0.00  0.00    -0.097 F 
ATOM     12  F4  UNL d   1      -3.127  -2.751  -0.132  0.00  0.00    -0.092 F 
ENDROOT
TORSDOF 0
ENDMDL
