MODEL 1
REMARK minimizedAffinity -3.59955096
REMARK minimizedRMSD -1
REMARK  0 active torsions:
REMARK  status: ('A' for Active; 'I' for Inactive)
ROOT
ATOM      1  C   UNL d   1      -1.395  -1.241  -0.265  0.00  0.00     0.124 A 
ATOM      2  C1  UNL d   1      -0.395  -1.464   0.671  0.00  0.00     0.062 A 
ATOM      3  C2  UNL d   1       0.738  -0.656   0.691  0.00  0.00     0.162 A 
ATOM      4  C3  UNL d   1       0.876   0.384  -0.228  0.00  0.00    -0.034 A 
ATOM      5  C4  UNL d   1      -0.133   0.602  -1.167  0.00  0.00     0.162 A 
ATOM      6  C5  UNL d   1      -1.264  -0.208  -1.183  0.00  0.00     0.062 A 
ATOM      7  F   UNL d   1      -2.229   0.009  -2.088  0.00  0.00    -0.097 F 
ATOM      8  F1  UNL d   1      -0.032   1.594  -2.064  0.00  0.00    -0.096 F 
ATOM      9  I   UNL d   1       2.569   1.595  -0.201  0.00  0.00    -0.060 I 
ATOM     10  F2  UNL d   1       1.688  -0.895   1.607  0.00  0.00    -0.096 F 
ATOM     11  F3  UNL d   1      -0.520  -2.462   1.558  0.00  0.00    -0.097 F 
ATOM     12  F4  UNL d   1      -2.484  -2.021  -0.283  0.00  0.00    -0.092 F 
ENDROOT
TORSDOF 0
ENDMDL
