MODEL 1
REMARK minimizedAffinity -1.86683583
REMARK minimizedRMSD -1
REMARK  0 active torsions:
REMARK  status: ('A' for Active; 'I' for Inactive)
ROOT
ATOM      1  C   UNL d   1      -1.704  -1.012  -0.244  0.00  0.00     0.124 A 
ATOM      2  C1  UNL d   1      -1.618   0.096  -1.075  0.00  0.00     0.062 A 
ATOM      3  C2  UNL d   1      -0.533   0.962  -0.977  0.00  0.00     0.162 A 
ATOM      4  C3  UNL d   1       0.477   0.722  -0.044  0.00  0.00    -0.034 A 
ATOM      5  C4  UNL d   1       0.383  -0.394   0.789  0.00  0.00     0.162 A 
ATOM      6  C5  UNL d   1      -0.704  -1.256   0.687  0.00  0.00     0.062 A 
ATOM      7  F   UNL d   1      -0.786  -2.327   1.490  0.00  0.00    -0.097 F 
ATOM      8  F1  UNL d   1       1.335  -0.654   1.696  0.00  0.00    -0.096 F 
ATOM      9  I   UNL d   1       2.101   2.015   0.106  0.00  0.00    -0.060 I 
ATOM     10  F2  UNL d   1      -0.475   2.025  -1.793  0.00  0.00    -0.096 F 
ATOM     11  F3  UNL d   1      -2.583   0.334  -1.975  0.00  0.00    -0.097 F 
ATOM     12  F4  UNL d   1      -2.750  -1.843  -0.340  0.00  0.00    -0.092 F 
ENDROOT
TORSDOF 0
ENDMDL
