MODEL 1
REMARK minimizedAffinity -0.247252911
REMARK minimizedRMSD -1
REMARK  0 active torsions:
REMARK  status: ('A' for Active; 'I' for Inactive)
ROOT
ATOM      1  C   UNL d   1      -1.471  -1.243  -0.410  0.00  0.00     0.124 A 
ATOM      2  C1  UNL d   1      -0.481  -1.436   0.544  0.00  0.00     0.062 A 
ATOM      3  C2  UNL d   1       0.600  -0.563   0.617  0.00  0.00     0.162 A 
ATOM      4  C3  UNL d   1       0.698   0.512  -0.266  0.00  0.00    -0.034 A 
ATOM      5  C4  UNL d   1      -0.301   0.699  -1.223  0.00  0.00     0.162 A 
ATOM      6  C5  UNL d   1      -1.380  -0.176  -1.292  0.00  0.00     0.062 A 
ATOM      7  F   UNL d   1      -2.335   0.012  -2.214  0.00  0.00    -0.097 F 
ATOM      8  F1  UNL d   1      -0.239   1.723  -2.087  0.00  0.00    -0.096 F 
ATOM      9  I   UNL d   1       2.313   1.820  -0.160  0.00  0.00    -0.060 I 
ATOM     10  F2  UNL d   1       1.542  -0.774   1.549  0.00  0.00    -0.096 F 
ATOM     11  F3  UNL d   1      -0.566  -2.467   1.397  0.00  0.00    -0.097 F 
ATOM     12  F4  UNL d   1      -2.510  -2.085  -0.479  0.00  0.00    -0.092 F 
ENDROOT
TORSDOF 0
ENDMDL
