MODEL 1
REMARK minimizedAffinity 2.90175915
REMARK minimizedRMSD -1
REMARK  0 active torsions:
REMARK  status: ('A' for Active; 'I' for Inactive)
ROOT
ATOM      1  C   UNL d   1      -1.545  -1.013  -0.898  0.00  0.00     0.124 A 
ATOM      2  C1  UNL d   1      -1.504   0.207  -1.560  0.00  0.00     0.062 A 
ATOM      3  C2  UNL d   1      -0.403   1.046  -1.413  0.00  0.00     0.162 A 
ATOM      4  C3  UNL d   1       0.667   0.667  -0.602  0.00  0.00    -0.034 A 
ATOM      5  C4  UNL d   1       0.618  -0.560   0.061  0.00  0.00     0.162 A 
ATOM      6  C5  UNL d   1      -0.485  -1.395  -0.089  0.00  0.00     0.062 A 
ATOM      7  F   UNL d   1      -0.523  -2.573   0.551  0.00  0.00    -0.097 F 
ATOM      8  F1  UNL d   1       1.629  -0.955   0.848  0.00  0.00    -0.096 F 
ATOM      9  I   UNL d   1       2.315   1.918  -0.381  0.00  0.00    -0.060 I 
ATOM     10  F2  UNL d   1      -0.390   2.218  -2.065  0.00  0.00    -0.096 F 
ATOM     11  F3  UNL d   1      -2.528   0.579  -2.341  0.00  0.00    -0.097 F 
ATOM     12  F4  UNL d   1      -2.607  -1.817  -1.040  0.00  0.00    -0.092 F 
ENDROOT
TORSDOF 0
ENDMDL
