MODEL 1
REMARK minimizedAffinity 3.15058446
REMARK minimizedRMSD -1
REMARK  0 active torsions:
REMARK  status: ('A' for Active; 'I' for Inactive)
ROOT
ATOM      1  C   UNL d   1      -2.112  -2.034   0.123  0.00  0.00     0.124 A 
ATOM      2  C1  UNL d   1      -2.031  -0.877  -0.641  0.00  0.00     0.062 A 
ATOM      3  C2  UNL d   1      -0.902  -0.068  -0.568  0.00  0.00     0.162 A 
ATOM      4  C3  UNL d   1       0.158  -0.412   0.271  0.00  0.00    -0.034 A 
ATOM      5  C4  UNL d   1       0.070  -1.576   1.036  0.00  0.00     0.162 A 
ATOM      6  C5  UNL d   1      -1.062  -2.382   0.960  0.00  0.00     0.062 A 
ATOM      7  F   UNL d   1      -1.138  -3.499   1.699  0.00  0.00    -0.097 F 
ATOM      8  F1  UNL d   1       1.070  -1.937   1.854  0.00  0.00    -0.096 F 
ATOM      9  I   UNL d   1       1.849   0.796   0.383  0.00  0.00    -0.060 I 
ATOM     10  F2  UNL d   1      -0.851   1.044  -1.317  0.00  0.00    -0.096 F 
ATOM     11  F3  UNL d   1      -3.045  -0.538  -1.450  0.00  0.00    -0.097 F 
ATOM     12  F4  UNL d   1      -3.201  -2.810   0.051  0.00  0.00    -0.092 F 
ENDROOT
TORSDOF 0
ENDMDL
