MODEL 1
REMARK minimizedAffinity -3.18814635
REMARK minimizedRMSD -1
REMARK  1 active torsions:
REMARK  status: ('A' for Active; 'I' for Inactive)
REMARK    1  A    between atoms: C1_2  and  C2_3 
ROOT
ATOM      1  C2  UNL d   1      -0.403   0.976   0.231  0.00  0.00    -0.076 A 
ATOM      2  C3  UNL d   1      -0.950   0.589   1.467  0.00  0.00     0.004 A 
ATOM      3  C4  UNL d   1      -1.273   1.537   2.436  0.00  0.00    -0.003 A 
ATOM      4  C5  UNL d   1      -1.054   2.887   2.185  0.00  0.00     0.000 A 
ATOM      5  C6  UNL d   1      -0.529   3.290   0.958  0.00  0.00     0.000 A 
ATOM      6  C7  UNL d   1      -0.213   2.348  -0.036  0.00  0.00    -0.073 A 
ATOM      7  C8  UNL d   1       0.356   2.838  -1.340  0.00  0.00     0.078 C 
ENDROOT
BRANCH   1   8
ATOM      8  C1  UNL d   1      -0.048  -0.099  -0.772  0.00  0.00     0.053 C 
ATOM      9  C   UNL d   1       1.326  -0.700  -0.519  0.00  0.00     0.018 C 
ENDBRANCH   1   8
TORSDOF 1
ENDMDL
