MODEL 1
REMARK minimizedAffinity -4.35656214
REMARK minimizedRMSD -1
REMARK  1 active torsions:
REMARK  status: ('A' for Active; 'I' for Inactive)
REMARK    1  A    between atoms: C1_2  and  C2_3 
ROOT
ATOM      1  C2  UNL d   1      -0.749  -0.856  -0.617  0.00  0.00    -0.076 A 
ATOM      2  C3  UNL d   1      -1.886  -0.655   0.185  0.00  0.00     0.004 A 
ATOM      3  C4  UNL d   1      -1.773  -0.121   1.468  0.00  0.00    -0.003 A 
ATOM      4  C5  UNL d   1      -0.522   0.220   1.969  0.00  0.00     0.000 A 
ATOM      5  C6  UNL d   1       0.615   0.044   1.180  0.00  0.00     0.000 A 
ATOM      6  C7  UNL d   1       0.516  -0.477  -0.121  0.00  0.00    -0.073 A 
ATOM      7  C8  UNL d   1       1.775  -0.651  -0.926  0.00  0.00     0.078 C 
ENDROOT
BRANCH   1   8
ATOM      8  C1  UNL d   1      -0.931  -1.463  -1.990  0.00  0.00     0.053 C 
ATOM      9  C   UNL d   1      -0.774  -2.976  -1.984  0.00  0.00     0.018 C 
ENDBRANCH   1   8
TORSDOF 1
ENDMDL
