MODEL 1
REMARK minimizedAffinity -4.25588655
REMARK minimizedRMSD -1
REMARK  1 active torsions:
REMARK  status: ('A' for Active; 'I' for Inactive)
REMARK    1  A    between atoms: C1_2  and  C2_3 
ROOT
ATOM      1  C2  UNL d   1      -0.265   1.246   0.435  0.00  0.00    -0.076 A 
ATOM      2  C3  UNL d   1       0.267   1.859  -0.713  0.00  0.00     0.004 A 
ATOM      3  C4  UNL d   1       0.224   3.243  -0.873  0.00  0.00    -0.003 A 
ATOM      4  C5  UNL d   1      -0.353   4.037   0.112  0.00  0.00     0.000 A 
ATOM      5  C6  UNL d   1      -0.870   3.448   1.265  0.00  0.00     0.000 A 
ATOM      6  C7  UNL d   1      -0.819   2.055   1.450  0.00  0.00    -0.073 A 
ATOM      7  C8  UNL d   1      -1.398   1.473   2.710  0.00  0.00     0.078 C 
ENDROOT
BRANCH   1   8
ATOM      8  C1  UNL d   1      -0.214  -0.261   0.541  0.00  0.00     0.053 C 
ATOM      9  C   UNL d   1       0.867  -0.871  -0.338  0.00  0.00     0.018 C 
ENDBRANCH   1   8
TORSDOF 1
ENDMDL
