MODEL 1
REMARK minimizedAffinity -6.60511303
REMARK minimizedRMSD -1
REMARK  1 active torsions:
REMARK  status: ('A' for Active; 'I' for Inactive)
REMARK    1  A    between atoms: C1_2  and  C2_3 
ROOT
ATOM      1  C2  UNL d   1      -0.140   0.835   0.119  0.00  0.00    -0.076 A 
ATOM      2  C3  UNL d   1      -0.456   1.986  -0.624  0.00  0.00     0.004 A 
ATOM      3  C4  UNL d   1      -1.482   2.839  -0.223  0.00  0.00    -0.003 A 
ATOM      4  C5  UNL d   1      -2.209   2.556   0.928  0.00  0.00     0.000 A 
ATOM      5  C6  UNL d   1      -1.897   1.429   1.687  0.00  0.00     0.000 A 
ATOM      6  C7  UNL d   1      -0.855   0.567   1.306  0.00  0.00    -0.073 A 
ATOM      7  C8  UNL d   1      -0.566  -0.638   2.158  0.00  0.00     0.078 C 
ENDROOT
BRANCH   1   8
ATOM      8  C1  UNL d   1       0.966  -0.068  -0.379  0.00  0.00     0.053 C 
ATOM      9  C   UNL d   1       0.481  -1.058  -1.427  0.00  0.00     0.018 C 
ENDBRANCH   1   8
TORSDOF 1
ENDMDL
