MODEL 1
REMARK minimizedAffinity -4.49936914
REMARK minimizedRMSD -1
REMARK  1 active torsions:
REMARK  status: ('A' for Active; 'I' for Inactive)
REMARK    1  A    between atoms: C1_2  and  C2_3 
ROOT
ATOM      1  C2  UNL d   1      -0.592   1.386  -0.038  0.00  0.00    -0.076 A 
ATOM      2  C3  UNL d   1      -1.261   1.245   1.190  0.00  0.00     0.004 A 
ATOM      3  C4  UNL d   1      -1.619   2.362   1.944  0.00  0.00    -0.003 A 
ATOM      4  C5  UNL d   1      -1.316   3.637   1.481  0.00  0.00     0.000 A 
ATOM      5  C6  UNL d   1      -0.668   3.796   0.256  0.00  0.00     0.000 A 
ATOM      6  C7  UNL d   1      -0.314   2.681  -0.524  0.00  0.00    -0.073 A 
ATOM      7  C8  UNL d   1       0.388   2.910  -1.834  0.00  0.00     0.078 C 
ENDROOT
BRANCH   1   8
ATOM      8  C1  UNL d   1      -0.204   0.137  -0.798  0.00  0.00     0.053 C 
ATOM      9  C   UNL d   1       1.216  -0.313  -0.493  0.00  0.00     0.018 C 
ENDBRANCH   1   8
TORSDOF 1
ENDMDL
