MODEL 1
REMARK minimizedAffinity -4.76041222
REMARK minimizedRMSD -1
REMARK  1 active torsions:
REMARK  status: ('A' for Active; 'I' for Inactive)
REMARK    1  A    between atoms: C1_2  and  C2_3 
ROOT
ATOM      1  C2  UNL d   1      -0.036   0.164   0.402  0.00  0.00    -0.076 A 
ATOM      2  C3  UNL d   1      -0.228   1.429  -0.180  0.00  0.00     0.004 A 
ATOM      3  C4  UNL d   1      -1.231   2.283   0.274  0.00  0.00    -0.003 A 
ATOM      4  C5  UNL d   1      -2.059   1.886   1.318  0.00  0.00     0.000 A 
ATOM      5  C6  UNL d   1      -1.872   0.642   1.919  0.00  0.00     0.000 A 
ATOM      6  C7  UNL d   1      -0.854  -0.224   1.485  0.00  0.00    -0.073 A 
ATOM      7  C8  UNL d   1      -0.701  -1.557   2.165  0.00  0.00     0.078 C 
ENDROOT
BRANCH   1   8
ATOM      8  C1  UNL d   1       1.051  -0.730  -0.150  0.00  0.00     0.053 C 
ATOM      9  C   UNL d   1       0.523  -1.726  -1.171  0.00  0.00     0.018 C 
ENDBRANCH   1   8
TORSDOF 1
ENDMDL
