MODEL 1
REMARK minimizedAffinity -1.94998264
REMARK minimizedRMSD -1
REMARK  1 active torsions:
REMARK  status: ('A' for Active; 'I' for Inactive)
REMARK    1  A    between atoms: C1_2  and  C2_3 
ROOT
ATOM      1  C2  UNL d   1      -0.258   0.540   0.768  0.00  0.00    -0.076 A 
ATOM      2  C3  UNL d   1      -0.117   1.176  -0.478  0.00  0.00     0.004 A 
ATOM      3  C4  UNL d   1       0.708   0.642  -1.467  0.00  0.00    -0.003 A 
ATOM      4  C5  UNL d   1       1.405  -0.536  -1.226  0.00  0.00     0.000 A 
ATOM      5  C6  UNL d   1       1.264  -1.190  -0.002  0.00  0.00     0.000 A 
ATOM      6  C7  UNL d   1       0.424  -0.674   0.999  0.00  0.00    -0.073 A 
ATOM      7  C8  UNL d   1       0.313  -1.417   2.303  0.00  0.00     0.078 C 
ENDROOT
BRANCH   1   8
ATOM      8  C1  UNL d   1      -1.145   1.180   1.811  0.00  0.00     0.053 C 
ATOM      9  C   UNL d   1      -1.048   2.698   1.808  0.00  0.00     0.018 C 
ENDBRANCH   1   8
TORSDOF 1
ENDMDL
