MODEL 1
REMARK minimizedAffinity -5.12552643
REMARK minimizedRMSD -1
REMARK  1 active torsions:
REMARK  status: ('A' for Active; 'I' for Inactive)
REMARK    1  A    between atoms: C1_2  and  C2_3 
ROOT
ATOM      1  C2  UNL d   1      -0.522   0.759   0.172  0.00  0.00    -0.076 A 
ATOM      2  C3  UNL d   1      -0.255  -0.583   0.496  0.00  0.00     0.004 A 
ATOM      3  C4  UNL d   1       0.768  -1.284  -0.141  0.00  0.00    -0.003 A 
ATOM      4  C5  UNL d   1       1.540  -0.655  -1.111  0.00  0.00     0.000 A 
ATOM      5  C6  UNL d   1       1.300   0.680  -1.432  0.00  0.00     0.000 A 
ATOM      6  C7  UNL d   1       0.284   1.407  -0.788  0.00  0.00    -0.073 A 
ATOM      7  C8  UNL d   1       0.066   2.843  -1.178  0.00  0.00     0.078 C 
ENDROOT
BRANCH   1   8
ATOM      8  C1  UNL d   1      -1.661   1.460   0.876  0.00  0.00     0.053 C 
ATOM      9  C   UNL d   1      -1.217   2.156   2.154  0.00  0.00     0.018 C 
ENDBRANCH   1   8
TORSDOF 1
ENDMDL
