MODEL 1
REMARK minimizedAffinity -5.7693882
REMARK minimizedRMSD -1
REMARK  1 active torsions:
REMARK  status: ('A' for Active; 'I' for Inactive)
REMARK    1  A    between atoms: C1_2  and  C2_3 
ROOT
ATOM      1  C2  UNL d   1      -0.634   1.133   0.039  0.00  0.00    -0.076 A 
ATOM      2  C3  UNL d   1      -1.381   0.586   1.096  0.00  0.00     0.004 A 
ATOM      3  C4  UNL d   1      -2.212   1.387   1.877  0.00  0.00    -0.003 A 
ATOM      4  C5  UNL d   1      -2.310   2.749   1.613  0.00  0.00     0.000 A 
ATOM      5  C6  UNL d   1      -1.589   3.305   0.557  0.00  0.00     0.000 A 
ATOM      6  C7  UNL d   1      -0.759   2.508  -0.250  0.00  0.00    -0.073 A 
ATOM      7  C8  UNL d   1       0.001   3.162  -1.372  0.00  0.00     0.078 C 
ENDROOT
BRANCH   1   8
ATOM      8  C1  UNL d   1       0.272   0.219  -0.756  0.00  0.00     0.053 C 
ATOM      9  C   UNL d   1       0.428  -1.150  -0.113  0.00  0.00     0.018 C 
ENDBRANCH   1   8
TORSDOF 1
ENDMDL
