MODEL 1
REMARK minimizedAffinity 8.40951443
REMARK minimizedRMSD -1
REMARK  0 active torsions:
REMARK  status: ('A' for Active; 'I' for Inactive)
ROOT
ATOM      1  C   UNL d   1       5.150  -2.470   5.129  0.00  0.00     0.023 A 
ATOM      2  C1  UNL d   1       5.993  -1.766   5.989  0.00  0.00     0.003 A 
ATOM      3  C2  UNL d   1       5.974  -0.370   5.999  0.00  0.00     0.048 A 
ATOM      4  C3  UNL d   1       5.108   0.316   5.147  0.00  0.00     0.023 A 
ATOM      5  C4  UNL d   1       4.262  -0.384   4.286  0.00  0.00     0.048 A 
ATOM      6  C5  UNL d   1       4.286  -1.780   4.279  0.00  0.00     0.003 A 
ATOM      7  I   UNL d   1       5.077   2.394   5.161  0.00  0.00    -0.146 I 
ENDROOT
TORSDOF 0
ENDMDL
