MODEL 1
REMARK minimizedAffinity -2.48662782
REMARK minimizedRMSD -1
REMARK  0 active torsions:
REMARK  status: ('A' for Active; 'I' for Inactive)
ROOT
ATOM      1  C   UNL d   1       1.805  -1.581  -3.736  0.00  0.00     0.023 A 
ATOM      2  C1  UNL d   1       1.512  -0.317  -4.247  0.00  0.00     0.003 A 
ATOM      3  C2  UNL d   1       1.082   0.701  -3.393  0.00  0.00     0.048 A 
ATOM      4  C3  UNL d   1       0.948   0.447  -2.028  0.00  0.00     0.023 A 
ATOM      5  C4  UNL d   1       1.241  -0.816  -1.512  0.00  0.00     0.048 A 
ATOM      6  C5  UNL d   1       1.670  -1.830  -2.370  0.00  0.00     0.003 A 
ATOM      7  I   UNL d   1       0.308   1.960  -0.755  0.00  0.00    -0.146 I 
ENDROOT
TORSDOF 0
ENDMDL
