MODEL 1
REMARK minimizedAffinity 8.98882103
REMARK minimizedRMSD -1
REMARK  0 active torsions:
REMARK  status: ('A' for Active; 'I' for Inactive)
ROOT
ATOM      1  C   UNL d   1       0.627  -3.154  -0.415  0.00  0.00     0.023 A 
ATOM      2  C1  UNL d   1      -0.521  -2.503   0.036  0.00  0.00     0.003 A 
ATOM      3  C2  UNL d   1      -0.626  -1.115  -0.070  0.00  0.00     0.048 A 
ATOM      4  C3  UNL d   1       0.421  -0.383  -0.631  0.00  0.00     0.023 A 
ATOM      5  C4  UNL d   1       1.571  -1.031  -1.085  0.00  0.00     0.048 A 
ATOM      6  C5  UNL d   1       1.672  -2.419  -0.975  0.00  0.00     0.003 A 
ATOM      7  I   UNL d   1       0.268   1.683  -0.791  0.00  0.00    -0.146 I 
ENDROOT
TORSDOF 0
ENDMDL
