MODEL 1
REMARK minimizedAffinity 3.83130217
REMARK minimizedRMSD -1
REMARK  0 active torsions:
REMARK  status: ('A' for Active; 'I' for Inactive)
ROOT
ATOM      1  C   UNL d   1       5.515  -0.543   4.059  0.00  0.00     0.023 A 
ATOM      2  C1  UNL d   1       5.512   0.576   3.225  0.00  0.00     0.003 A 
ATOM      3  C2  UNL d   1       5.524   1.859   3.777  0.00  0.00     0.048 A 
ATOM      4  C3  UNL d   1       5.540   2.016   5.162  0.00  0.00     0.023 A 
ATOM      5  C4  UNL d   1       5.544   0.899   6.000  0.00  0.00     0.048 A 
ATOM      6  C5  UNL d   1       5.531  -0.381   5.444  0.00  0.00     0.003 A 
ATOM      7  I   UNL d   1       5.558   3.924   5.985  0.00  0.00    -0.146 I 
ENDROOT
TORSDOF 0
ENDMDL
