MODEL 1
REMARK minimizedAffinity -1.57774436
REMARK minimizedRMSD -1
REMARK  0 active torsions:
REMARK  status: ('A' for Active; 'I' for Inactive)
ROOT
ATOM      1  C   UNL d   1       5.468  -2.237   4.830  0.00  0.00     0.023 A 
ATOM      2  C1  UNL d   1       5.999  -1.473   3.790  0.00  0.00     0.003 A 
ATOM      3  C2  UNL d   1       5.952  -0.079   3.851  0.00  0.00     0.048 A 
ATOM      4  C3  UNL d   1       5.373   0.545   4.955  0.00  0.00     0.023 A 
ATOM      5  C4  UNL d   1       4.841  -0.214   5.998  0.00  0.00     0.048 A 
ATOM      6  C5  UNL d   1       4.890  -1.608   5.933  0.00  0.00     0.003 A 
ATOM      7  I   UNL d   1       5.301   2.621   5.048  0.00  0.00    -0.146 I 
ENDROOT
TORSDOF 0
ENDMDL
