MODEL 1
REMARK minimizedAffinity 3.54996204
REMARK minimizedRMSD -1
REMARK  0 active torsions:
REMARK  status: ('A' for Active; 'I' for Inactive)
ROOT
ATOM      1  C   UNL d   1       5.378  -0.277   4.372  0.00  0.00     0.023 A 
ATOM      2  C1  UNL d   1       5.849   0.097   5.631  0.00  0.00     0.003 A 
ATOM      3  C2  UNL d   1       5.865   1.444   6.000  0.00  0.00     0.048 A 
ATOM      4  C3  UNL d   1       5.409   2.411   5.105  0.00  0.00     0.023 A 
ATOM      5  C4  UNL d   1       4.936   2.042   3.845  0.00  0.00     0.048 A 
ATOM      6  C5  UNL d   1       4.922   0.694   3.480  0.00  0.00     0.003 A 
ATOM      7  I   UNL d   1       5.432   4.416   5.652  0.00  0.00    -0.146 I 
ENDROOT
TORSDOF 0
ENDMDL
