MODEL 1
REMARK minimizedAffinity 3.38652515
REMARK minimizedRMSD -1
REMARK  0 active torsions:
REMARK  status: ('A' for Active; 'I' for Inactive)
ROOT
ATOM      1  C   UNL d   1       1.054  -2.652  -2.597  0.00  0.00     0.023 A 
ATOM      2  C1  UNL d   1       1.676  -1.643  -1.861  0.00  0.00     0.003 A 
ATOM      3  C2  UNL d   1       1.909  -0.395  -2.443  0.00  0.00     0.048 A 
ATOM      4  C3  UNL d   1       1.518  -0.163  -3.761  0.00  0.00     0.023 A 
ATOM      5  C4  UNL d   1       0.895  -1.169  -4.501  0.00  0.00     0.048 A 
ATOM      6  C5  UNL d   1       0.664  -2.415  -3.915  0.00  0.00     0.003 A 
ATOM      7  I   UNL d   1       1.864   1.694  -4.629  0.00  0.00    -0.146 I 
ENDROOT
TORSDOF 0
ENDMDL
