MODEL 1
REMARK minimizedAffinity -2.17454457
REMARK minimizedRMSD -1
REMARK  0 active torsions:
REMARK  status: ('A' for Active; 'I' for Inactive)
ROOT
ATOM      1  C   UNL d   1       0.809  -2.104   0.005  0.00  0.00     0.023 A 
ATOM      2  C1  UNL d   1       1.600  -2.550  -1.055  0.00  0.00     0.003 A 
ATOM      3  C2  UNL d   1       1.754  -1.758  -2.194  0.00  0.00     0.048 A 
ATOM      4  C3  UNL d   1       1.117  -0.520  -2.267  0.00  0.00     0.023 A 
ATOM      5  C4  UNL d   1       0.326  -0.069  -1.208  0.00  0.00     0.048 A 
ATOM      6  C5  UNL d   1       0.173  -0.865  -0.072  0.00  0.00     0.003 A 
ATOM      7  I   UNL d   1       1.346   0.662  -3.961  0.00  0.00    -0.146 I 
ENDROOT
TORSDOF 0
ENDMDL
