MODEL 1
REMARK minimizedAffinity -0.663504124
REMARK minimizedRMSD -1
REMARK  0 active torsions:
REMARK  status: ('A' for Active; 'I' for Inactive)
ROOT
ATOM      1  C   UNL d   1       5.605   4.455   4.286  0.00  0.00     0.023 A 
ATOM      2  C1  UNL d   1       5.987   4.128   5.587  0.00  0.00     0.003 A 
ATOM      3  C2  UNL d   1       5.997   2.795   6.000  0.00  0.00     0.048 A 
ATOM      4  C3  UNL d   1       5.623   1.792   5.106  0.00  0.00     0.023 A 
ATOM      5  C4  UNL d   1       5.240   2.113   3.803  0.00  0.00     0.048 A 
ATOM      6  C5  UNL d   1       5.232   3.448   3.395  0.00  0.00     0.003 A 
ATOM      7  I   UNL d   1       5.636  -0.195   5.718  0.00  0.00    -0.146 I 
ENDROOT
TORSDOF 0
ENDMDL
