MODEL 1
REMARK minimizedAffinity 3.88907599
REMARK minimizedRMSD -1
REMARK  0 active torsions:
REMARK  status: ('A' for Active; 'I' for Inactive)
ROOT
ATOM      1  C   UNL d   1       4.989   3.834   4.647  0.00  0.00     0.023 A 
ATOM      2  C1  UNL d   1       5.918   3.442   5.610  0.00  0.00     0.003 A 
ATOM      3  C2  UNL d   1       5.999   2.104   6.000  0.00  0.00     0.048 A 
ATOM      4  C3  UNL d   1       5.148   1.162   5.421  0.00  0.00     0.023 A 
ATOM      5  C4  UNL d   1       4.217   1.550   4.456  0.00  0.00     0.048 A 
ATOM      6  C5  UNL d   1       4.139   2.890   4.070  0.00  0.00     0.003 A 
ATOM      7  I   UNL d   1       5.266  -0.830   6.000  0.00  0.00    -0.146 I 
ENDROOT
TORSDOF 0
ENDMDL
