MODEL 1
REMARK minimizedAffinity -0.0163871814
REMARK minimizedRMSD -1
REMARK  0 active torsions:
REMARK  status: ('A' for Active; 'I' for Inactive)
ROOT
ATOM      1  C   UNL d   1      -2.056   0.537   1.691  0.00  0.00     0.124 A 
ATOM      2  C1  UNL d   1      -0.756   0.807   2.094  0.00  0.00     0.062 A 
ATOM      3  C2  UNL d   1       0.305   0.609   1.215  0.00  0.00     0.162 A 
ATOM      4  C3  UNL d   1       0.069   0.139  -0.077  0.00  0.00    -0.034 A 
ATOM      5  C4  UNL d   1      -1.241  -0.131  -0.475  0.00  0.00     0.162 A 
ATOM      6  C5  UNL d   1      -2.298   0.068   0.407  0.00  0.00     0.062 A 
ATOM      7  F   UNL d   1      -3.554  -0.193   0.016  0.00  0.00    -0.097 F 
ATOM      8  F1  UNL d   1      -1.503  -0.584  -1.710  0.00  0.00    -0.096 F 
ATOM      9  I   UNL d   1       1.653  -0.159  -1.395  0.00  0.00    -0.060 I 
ATOM     10  F2  UNL d   1       1.551   0.878   1.631  0.00  0.00    -0.096 F 
ATOM     11  F3  UNL d   1      -0.520   1.259   3.334  0.00  0.00    -0.097 F 
ATOM     12  F4  UNL d   1      -3.075   0.728   2.539  0.00  0.00    -0.092 F 
ENDROOT
TORSDOF 0
ENDMDL
