MODEL 1
REMARK minimizedAffinity 0.490687549
REMARK minimizedRMSD -1
REMARK  0 active torsions:
REMARK  status: ('A' for Active; 'I' for Inactive)
ROOT
ATOM      1  C   UNL d   1      -0.072   0.882   2.043  0.00  0.00     0.124 A 
ATOM      2  C1  UNL d   1      -1.308   0.823   2.672  0.00  0.00     0.062 A 
ATOM      3  C2  UNL d   1      -2.365   0.141   2.076  0.00  0.00     0.162 A 
ATOM      4  C3  UNL d   1      -2.191  -0.489   0.844  0.00  0.00    -0.034 A 
ATOM      5  C4  UNL d   1      -0.945  -0.425   0.217  0.00  0.00     0.162 A 
ATOM      6  C5  UNL d   1       0.108   0.258   0.816  0.00  0.00     0.062 A 
ATOM      7  F   UNL d   1       1.301   0.313   0.207  0.00  0.00    -0.097 F 
ATOM      8  F1  UNL d   1      -0.743  -1.020  -0.968  0.00  0.00    -0.096 F 
ATOM      9  I   UNL d   1      -3.769  -1.510  -0.051  0.00  0.00    -0.060 I 
ATOM     10  F2  UNL d   1      -3.549   0.101   2.706  0.00  0.00    -0.096 F 
ATOM     11  F3  UNL d   1      -1.485   1.426   3.856  0.00  0.00    -0.097 F 
ATOM     12  F4  UNL d   1       0.943   1.539   2.618  0.00  0.00    -0.092 F 
ENDROOT
TORSDOF 0
ENDMDL
