MODEL 1
REMARK minimizedAffinity 0.634259284
REMARK minimizedRMSD -1
REMARK  0 active torsions:
REMARK  status: ('A' for Active; 'I' for Inactive)
ROOT
ATOM      1  C   UNL d   1       0.464   0.613   1.820  0.00  0.00     0.124 A 
ATOM      2  C1  UNL d   1      -0.396   1.284   0.962  0.00  0.00     0.062 A 
ATOM      3  C2  UNL d   1      -0.407   0.980  -0.396  0.00  0.00     0.162 A 
ATOM      4  C3  UNL d   1       0.444  -0.002  -0.905  0.00  0.00    -0.034 A 
ATOM      5  C4  UNL d   1       1.306  -0.672  -0.035  0.00  0.00     0.162 A 
ATOM      6  C5  UNL d   1       1.314  -0.364   1.321  0.00  0.00     0.062 A 
ATOM      7  F   UNL d   1       2.145  -1.013   2.149  0.00  0.00    -0.097 F 
ATOM      8  F1  UNL d   1       2.137  -1.621  -0.490  0.00  0.00    -0.096 F 
ATOM      9  I   UNL d   1       0.430  -0.460  -2.935  0.00  0.00    -0.060 I 
ATOM     10  F2  UNL d   1      -1.248   1.644  -1.203  0.00  0.00    -0.096 F 
ATOM     11  F3  UNL d   1      -1.217   2.229   1.441  0.00  0.00    -0.097 F 
ATOM     12  F4  UNL d   1       0.473   0.909   3.127  0.00  0.00    -0.092 F 
ENDROOT
TORSDOF 0
ENDMDL
