MODEL 1
REMARK minimizedAffinity -1.61069763
REMARK minimizedRMSD -1
REMARK  0 active torsions:
REMARK  status: ('A' for Active; 'I' for Inactive)
ROOT
ATOM      1  C   UNL d   1       0.733  -0.301  -2.577  0.00  0.00     0.124 A 
ATOM      2  C1  UNL d   1      -0.472   0.385  -2.522  0.00  0.00     0.062 A 
ATOM      3  C2  UNL d   1      -1.025   0.732  -1.293  0.00  0.00     0.162 A 
ATOM      4  C3  UNL d   1      -0.371   0.395  -0.107  0.00  0.00    -0.034 A 
ATOM      5  C4  UNL d   1       0.840  -0.296  -0.171  0.00  0.00     0.162 A 
ATOM      6  C5  UNL d   1       1.388  -0.641  -1.402  0.00  0.00     0.062 A 
ATOM      7  F   UNL d   1       2.553  -1.303  -1.453  0.00  0.00    -0.097 F 
ATOM      8  F1  UNL d   1       1.495  -0.636   0.949  0.00  0.00    -0.096 F 
ATOM      9  I   UNL d   1      -1.194   0.911   1.733  0.00  0.00    -0.060 I 
ATOM     10  F2  UNL d   1      -2.191   1.395  -1.269  0.00  0.00    -0.096 F 
ATOM     11  F3  UNL d   1      -1.107   0.714  -3.656  0.00  0.00    -0.097 F 
ATOM     12  F4  UNL d   1       1.262  -0.634  -3.762  0.00  0.00    -0.092 F 
ENDROOT
TORSDOF 0
ENDMDL
