MODEL 1
REMARK minimizedAffinity 4.93856478
REMARK minimizedRMSD -1
REMARK  0 active torsions:
REMARK  status: ('A' for Active; 'I' for Inactive)
ROOT
ATOM      1  C   UNL d   1       0.166  -0.111  -4.017  0.00  0.00     0.124 A 
ATOM      2  C1  UNL d   1      -0.111  -1.237  -3.255  0.00  0.00     0.062 A 
ATOM      3  C2  UNL d   1       0.323  -1.312  -1.934  0.00  0.00     0.162 A 
ATOM      4  C3  UNL d   1       1.037  -0.257  -1.367  0.00  0.00    -0.034 A 
ATOM      5  C4  UNL d   1       1.312   0.872  -2.140  0.00  0.00     0.162 A 
ATOM      6  C5  UNL d   1       0.877   0.942  -3.459  0.00  0.00     0.062 A 
ATOM      7  F   UNL d   1       1.146   2.031  -4.195  0.00  0.00    -0.097 F 
ATOM      8  F1  UNL d   1       1.997   1.905  -1.626  0.00  0.00    -0.096 F 
ATOM      9  I   UNL d   1       1.686  -0.365   0.608  0.00  0.00    -0.060 I 
ATOM     10  F2  UNL d   1       0.041  -2.413  -1.221  0.00  0.00    -0.096 F 
ATOM     11  F3  UNL d   1      -0.797  -2.256  -3.792  0.00  0.00    -0.097 F 
ATOM     12  F4  UNL d   1      -0.251  -0.041  -5.288  0.00  0.00    -0.092 F 
ENDROOT
TORSDOF 0
ENDMDL
