MODEL 1
REMARK minimizedAffinity -1.53708732
REMARK minimizedRMSD -1
REMARK  0 active torsions:
REMARK  status: ('A' for Active; 'I' for Inactive)
ROOT
ATOM      1  C   UNL d   1      -2.023   0.344   1.643  0.00  0.00     0.124 A 
ATOM      2  C1  UNL d   1      -2.437   0.142   0.333  0.00  0.00     0.062 A 
ATOM      3  C2  UNL d   1      -1.499   0.060  -0.692  0.00  0.00     0.162 A 
ATOM      4  C3  UNL d   1      -0.138   0.178  -0.412  0.00  0.00    -0.034 A 
ATOM      5  C4  UNL d   1       0.270   0.382   0.907  0.00  0.00     0.162 A 
ATOM      6  C5  UNL d   1      -0.671   0.464   1.928  0.00  0.00     0.062 A 
ATOM      7  F   UNL d   1      -0.269   0.659   3.193  0.00  0.00    -0.097 F 
ATOM      8  F1  UNL d   1       1.571   0.500   1.212  0.00  0.00    -0.096 F 
ATOM      9  I   UNL d   1       1.268   0.056  -1.942  0.00  0.00    -0.060 I 
ATOM     10  F2  UNL d   1      -1.927  -0.136  -1.948  0.00  0.00    -0.096 F 
ATOM     11  F3  UNL d   1      -3.743   0.027   0.054  0.00  0.00    -0.097 F 
ATOM     12  F4  UNL d   1      -2.928   0.424   2.627  0.00  0.00    -0.092 F 
ENDROOT
TORSDOF 0
ENDMDL
