MODEL 1
REMARK minimizedAffinity 0.291924775
REMARK minimizedRMSD -1
REMARK  0 active torsions:
REMARK  status: ('A' for Active; 'I' for Inactive)
ROOT
ATOM      1  C   UNL d   1      -0.580   0.502   2.568  0.00  0.00     0.124 A 
ATOM      2  C1  UNL d   1       0.747   0.597   2.171  0.00  0.00     0.062 A 
ATOM      3  C2  UNL d   1       1.073   0.628   0.818  0.00  0.00     0.162 A 
ATOM      4  C3  UNL d   1       0.069   0.566  -0.149  0.00  0.00    -0.034 A 
ATOM      5  C4  UNL d   1      -1.263   0.470   0.258  0.00  0.00     0.162 A 
ATOM      6  C5  UNL d   1      -1.583   0.439   1.611  0.00  0.00     0.062 A 
ATOM      7  F   UNL d   1      -2.865   0.348   1.993  0.00  0.00    -0.097 F 
ATOM      8  F1  UNL d   1      -2.252   0.408  -0.645  0.00  0.00    -0.096 F 
ATOM      9  I   UNL d   1       0.552   0.612  -2.173  0.00  0.00    -0.060 I 
ATOM     10  F2  UNL d   1       2.363   0.720   0.464  0.00  0.00    -0.096 F 
ATOM     11  F3  UNL d   1       1.718   0.657   3.093  0.00  0.00    -0.097 F 
ATOM     12  F4  UNL d   1      -0.890   0.472   3.870  0.00  0.00    -0.092 F 
ENDROOT
TORSDOF 0
ENDMDL
