MODEL 1
REMARK minimizedAffinity -0.0234230682
REMARK minimizedRMSD -1
REMARK  0 active torsions:
REMARK  status: ('A' for Active; 'I' for Inactive)
ROOT
ATOM      1  C   UNL d   1      -1.229   0.549   2.961  0.00  0.00     0.124 A 
ATOM      2  C1  UNL d   1       0.060   0.808   2.518  0.00  0.00     0.062 A 
ATOM      3  C2  UNL d   1       0.407   0.563   1.192  0.00  0.00     0.162 A 
ATOM      4  C3  UNL d   1      -0.538   0.058   0.299  0.00  0.00    -0.034 A 
ATOM      5  C4  UNL d   1      -1.833  -0.201   0.753  0.00  0.00     0.162 A 
ATOM      6  C5  UNL d   1      -2.174   0.045   2.079  0.00  0.00     0.062 A 
ATOM      7  F   UNL d   1      -3.420  -0.206   2.506  0.00  0.00    -0.097 F 
ATOM      8  F1  UNL d   1      -2.766  -0.688  -0.079  0.00  0.00    -0.096 F 
ATOM      9  I   UNL d   1      -0.024  -0.309  -1.684  0.00  0.00    -0.060 I 
ATOM     10  F2  UNL d   1       1.660   0.823   0.791  0.00  0.00    -0.096 F 
ATOM     11  F3  UNL d   1       0.976   1.294   3.369  0.00  0.00    -0.097 F 
ATOM     12  F4  UNL d   1      -1.560   0.784   4.238  0.00  0.00    -0.092 F 
ENDROOT
TORSDOF 0
ENDMDL
