MODEL 1
REMARK minimizedAffinity -0.463455468
REMARK minimizedRMSD -1
REMARK  0 active torsions:
REMARK  status: ('A' for Active; 'I' for Inactive)
ROOT
ATOM      1  C   UNL d   1      -2.370   0.528   1.441  0.00  0.00     0.124 A 
ATOM      2  C1  UNL d   1      -2.524   0.065   0.142  0.00  0.00     0.062 A 
ATOM      3  C2  UNL d   1      -1.413  -0.332  -0.597  0.00  0.00     0.162 A 
ATOM      4  C3  UNL d   1      -0.137  -0.269  -0.036  0.00  0.00    -0.034 A 
ATOM      5  C4  UNL d   1       0.010   0.198   1.271  0.00  0.00     0.162 A 
ATOM      6  C5  UNL d   1      -1.104   0.593   2.005  0.00  0.00     0.062 A 
ATOM      7  F   UNL d   1      -0.953   1.040   3.260  0.00  0.00    -0.097 F 
ATOM      8  F1  UNL d   1       1.222   0.271   1.840  0.00  0.00    -0.096 F 
ATOM      9  I   UNL d   1       1.527  -0.862  -1.137  0.00  0.00    -0.060 I 
ATOM     10  F2  UNL d   1      -1.591  -0.774  -1.850  0.00  0.00    -0.096 F 
ATOM     11  F3  UNL d   1      -3.747   0.002  -0.405  0.00  0.00    -0.097 F 
ATOM     12  F4  UNL d   1      -3.441   0.910   2.149  0.00  0.00    -0.092 F 
ENDROOT
TORSDOF 0
ENDMDL
