MODEL 1
REMARK minimizedAffinity -3.04443288
REMARK minimizedRMSD -1
REMARK  0 active torsions:
REMARK  status: ('A' for Active; 'I' for Inactive)
ROOT
ATOM      1  C   UNL d   1       1.221  -0.535  -2.514  0.00  0.00     0.124 A 
ATOM      2  C1  UNL d   1       1.477  -0.985  -1.226  0.00  0.00     0.062 A 
ATOM      3  C2  UNL d   1       0.649  -0.605  -0.174  0.00  0.00     0.162 A 
ATOM      4  C3  UNL d   1      -0.444   0.230  -0.405  0.00  0.00    -0.034 A 
ATOM      5  C4  UNL d   1      -0.695   0.680  -1.702  0.00  0.00     0.162 A 
ATOM      6  C5  UNL d   1       0.135   0.297  -2.751  0.00  0.00     0.062 A 
ATOM      7  F   UNL d   1      -0.114   0.733  -3.994  0.00  0.00    -0.097 F 
ATOM      8  F1  UNL d   1      -1.738   1.483  -1.960  0.00  0.00    -0.096 F 
ATOM      9  I   UNL d   1      -1.685   0.801   1.166  0.00  0.00    -0.060 I 
ATOM     10  F2  UNL d   1       0.921  -1.055   1.060  0.00  0.00    -0.096 F 
ATOM     11  F3  UNL d   1       2.526  -1.788  -0.994  0.00  0.00    -0.097 F 
ATOM     12  F4  UNL d   1       2.019  -0.901  -3.524  0.00  0.00    -0.092 F 
ENDROOT
TORSDOF 0
ENDMDL
