MODEL 1
REMARK minimizedAffinity -4.85026979
REMARK minimizedRMSD -1
REMARK  0 active torsions:
REMARK  status: ('A' for Active; 'I' for Inactive)
ROOT
ATOM      1  C4' PXY d   1      -1.543   1.073  -0.728  0.00  0.00     0.077 C 
ATOM      2  C1' PXY d   1       3.963  -0.587  -1.320  0.00  0.00     0.077 C 
ATOM      3  C1  PXY d   1       2.521  -0.142  -1.173  0.00  0.00    -0.082 A 
ATOM      4  C2  PXY d   1       1.838  -0.482  -0.092  0.00  0.00     0.003 A 
ATOM      5  C3  PXY d   1       0.524  -0.115   0.043  0.00  0.00     0.003 A 
ATOM      6  C4  PXY d   1      -0.082   0.653  -0.915  0.00  0.00    -0.082 A 
ATOM      7  C5  PXY d   1       0.611   1.014  -2.016  0.00  0.00     0.003 A 
ATOM      8  C6  PXY d   1       1.932   0.596  -2.152  0.00  0.00     0.003 A 
ENDROOT
TORSDOF 0
ENDMDL
