MODEL 1
REMARK minimizedAffinity -2.69888568
REMARK minimizedRMSD -1
REMARK  0 active torsions:
REMARK  status: ('A' for Active; 'I' for Inactive)
ROOT
ATOM      1  C4' PXY d   1      -1.399   1.639   2.247  0.00  0.00     0.077 C 
ATOM      2  C1' PXY d   1       1.477  -1.973  -1.231  0.00  0.00     0.077 C 
ATOM      3  C1  PXY d   1       0.714  -1.024  -0.328  0.00  0.00    -0.082 A 
ATOM      4  C2  PXY d   1       1.352  -0.390   0.643  0.00  0.00     0.003 A 
ATOM      5  C3  PXY d   1       0.671   0.447   1.489  0.00  0.00     0.003 A 
ATOM      6  C4  PXY d   1      -0.667   0.679   1.306  0.00  0.00    -0.082 A 
ATOM      7  C5  PXY d   1      -1.322   0.044   0.311  0.00  0.00     0.003 A 
ATOM      8  C6  PXY d   1      -0.621  -0.834  -0.511  0.00  0.00     0.003 A 
ENDROOT
TORSDOF 0
ENDMDL
