MODEL 1
REMARK minimizedAffinity -5.7111516
REMARK minimizedRMSD -1
REMARK  0 active torsions:
REMARK  status: ('A' for Active; 'I' for Inactive)
ROOT
ATOM      1  C4' PXY d   1      -2.056   0.016   1.088  0.00  0.00     0.077 C 
ATOM      2  C1' PXY d   1       3.149  -0.509  -1.372  0.00  0.00     0.077 C 
ATOM      3  C1  PXY d   1       1.779  -0.380  -0.735  0.00  0.00    -0.082 A 
ATOM      4  C2  PXY d   1       1.453   0.737  -0.106  0.00  0.00     0.003 A 
ATOM      5  C3  PXY d   1       0.230   0.858   0.503  0.00  0.00     0.003 A 
ATOM      6  C4  PXY d   1      -0.687  -0.154   0.422  0.00  0.00    -0.082 A 
ATOM      7  C5  PXY d   1      -0.366  -1.293  -0.227  0.00  0.00     0.003 A 
ATOM      8  C6  PXY d   1       0.895  -1.412  -0.804  0.00  0.00     0.003 A 
ENDROOT
TORSDOF 0
ENDMDL
