MODEL 1
REMARK minimizedAffinity -4.34694052
REMARK minimizedRMSD -1
REMARK  0 active torsions:
REMARK  status: ('A' for Active; 'I' for Inactive)
ROOT
ATOM      1  C4' PXY d   1       1.900  -1.465  -1.886  0.00  0.00     0.077 C 
ATOM      2  C1' PXY d   1      -1.386   0.768   2.313  0.00  0.00     0.077 C 
ATOM      3  C1  PXY d   1      -0.518   0.194   1.211  0.00  0.00    -0.082 A 
ATOM      4  C2  PXY d   1      -0.966  -0.818   0.485  0.00  0.00     0.003 A 
ATOM      5  C3  PXY d   1      -0.181  -1.370  -0.494  0.00  0.00     0.003 A 
ATOM      6  C4  PXY d   1       1.054  -0.847  -0.769  0.00  0.00    -0.082 A 
ATOM      7  C5  PXY d   1       1.514   0.192  -0.041  0.00  0.00     0.003 A 
ATOM      8  C6  PXY d   1       0.719   0.711   0.977  0.00  0.00     0.003 A 
ENDROOT
TORSDOF 0
ENDMDL
