MODEL 1
REMARK minimizedAffinity -2.79089141
REMARK minimizedRMSD -1
REMARK  0 active torsions:
REMARK  status: ('A' for Active; 'I' for Inactive)
ROOT
ATOM      1  C4' PXY d   1       3.821  -0.606  -0.811  0.00  0.00     0.077 C 
ATOM      2  C1' PXY d   1      -1.801   0.162   0.293  0.00  0.00     0.077 C 
ATOM      3  C1  PXY d   1      -0.328  -0.052   0.007  0.00  0.00    -0.082 A 
ATOM      4  C2  PXY d   1       0.513   0.964   0.108  0.00  0.00     0.003 A 
ATOM      5  C3  PXY d   1       1.843   0.796  -0.179  0.00  0.00     0.003 A 
ATOM      6  C4  PXY d   1       2.327  -0.439  -0.521  0.00  0.00    -0.082 A 
ATOM      7  C5  PXY d   1       1.477  -1.483  -0.616  0.00  0.00     0.003 A 
ATOM      8  C6  PXY d   1       0.124  -1.282  -0.361  0.00  0.00     0.003 A 
ENDROOT
TORSDOF 0
ENDMDL
