MODEL 1
REMARK minimizedAffinity -1.38767052
REMARK minimizedRMSD -1
REMARK  0 active torsions:
REMARK  status: ('A' for Active; 'I' for Inactive)
ROOT
ATOM      1  C4' PXY d   1       2.214  -1.494  -2.080  0.00  0.00     0.077 C 
ATOM      2  C1' PXY d   1      -1.488   0.854   1.688  0.00  0.00     0.077 C 
ATOM      3  C1  PXY d   1      -0.512   0.250   0.698  0.00  0.00    -0.082 A 
ATOM      4  C2  PXY d   1      -0.833  -0.863   0.058  0.00  0.00     0.003 A 
ATOM      5  C3  PXY d   1       0.052  -1.440  -0.816  0.00  0.00     0.003 A 
ATOM      6  C4  PXY d   1       1.256  -0.843  -1.079  0.00  0.00    -0.082 A 
ATOM      7  C5  PXY d   1       1.586   0.298  -0.439  0.00  0.00     0.003 A 
ATOM      8  C6  PXY d   1       0.691   0.846   0.476  0.00  0.00     0.003 A 
ENDROOT
TORSDOF 0
ENDMDL
