MODEL 1
REMARK minimizedAffinity -2.1346972
REMARK minimizedRMSD -1
REMARK  0 active torsions:
REMARK  status: ('A' for Active; 'I' for Inactive)
ROOT
ATOM      1  C4' PXY d   1       3.723  -0.670  -1.253  0.00  0.00     0.077 C 
ATOM      2  C1' PXY d   1      -1.630   0.360   0.670  0.00  0.00     0.077 C 
ATOM      3  C1  PXY d   1      -0.222   0.100   0.173  0.00  0.00    -0.082 A 
ATOM      4  C2  PXY d   1      -0.040  -0.523  -0.980  0.00  0.00     0.003 A 
ATOM      5  C3  PXY d   1       1.227  -0.795  -1.429  0.00  0.00     0.003 A 
ATOM      6  C4  PXY d   1       2.319  -0.377  -0.717  0.00  0.00    -0.082 A 
ATOM      7  C5  PXY d   1       2.141   0.269   0.455  0.00  0.00     0.003 A 
ATOM      8  C6  PXY d   1       0.848   0.498   0.914  0.00  0.00     0.003 A 
ENDROOT
TORSDOF 0
ENDMDL
