MODEL 1
REMARK minimizedAffinity -5.02142668
REMARK minimizedRMSD -1
REMARK  0 active torsions:
REMARK  status: ('A' for Active; 'I' for Inactive)
ROOT
ATOM      1  C4' PXY d   1       3.199  -0.806  -1.619  0.00  0.00     0.077 C 
ATOM      2  C1' PXY d   1      -1.805   1.063   0.591  0.00  0.00     0.077 C 
ATOM      3  C1  PXY d   1      -0.494   0.581   0.001  0.00  0.00    -0.082 A 
ATOM      4  C2  PXY d   1      -0.010  -0.597   0.359  0.00  0.00     0.003 A 
ATOM      5  C3  PXY d   1       1.190  -1.035  -0.141  0.00  0.00     0.003 A 
ATOM      6  C4  PXY d   1       1.875  -0.282  -1.056  0.00  0.00    -0.082 A 
ATOM      7  C5  PXY d   1       1.382   0.916  -1.435  0.00  0.00     0.003 A 
ATOM      8  C6  PXY d   1       0.183   1.361  -0.885  0.00  0.00     0.003 A 
ENDROOT
TORSDOF 0
ENDMDL
