MODEL 1
REMARK minimizedAffinity 0.282398254
REMARK minimizedRMSD -1
REMARK  0 active torsions:
REMARK  status: ('A' for Active; 'I' for Inactive)
ROOT
ATOM      1  C4' PXY d   1      -2.732   0.127   1.622  0.00  0.00     0.077 C 
ATOM      2  C1' PXY d   1       2.334   0.923  -1.045  0.00  0.00     0.077 C 
ATOM      3  C1  PXY d   1       1.000   0.722  -0.354  0.00  0.00    -0.082 A 
ATOM      4  C2  PXY d   1       0.968   0.438   0.937  0.00  0.00     0.003 A 
ATOM      5  C3  PXY d   1      -0.229   0.221   1.571  0.00  0.00     0.003 A 
ATOM      6  C4  PXY d   1      -1.408   0.348   0.886  0.00  0.00    -0.082 A 
ATOM      7  C5  PXY d   1      -1.384   0.648  -0.430  0.00  0.00     0.003 A 
ATOM      8  C6  PXY d   1      -0.157   0.824  -1.063  0.00  0.00     0.003 A 
ENDROOT
TORSDOF 0
ENDMDL
