MODEL 1
REMARK minimizedAffinity -4.3032937
REMARK minimizedRMSD -1
REMARK  0 active torsions:
REMARK  status: ('A' for Active; 'I' for Inactive)
ROOT
ATOM      1  C4' PXY d   1      -1.519   0.497   2.192  0.00  0.00     0.077 C 
ATOM      2  C1' PXY d   1       1.663  -1.832  -2.035  0.00  0.00     0.077 C 
ATOM      3  C1  PXY d   1       0.838  -1.212  -0.924  0.00  0.00    -0.082 A 
ATOM      4  C2  PXY d   1      -0.059  -1.947  -0.287  0.00  0.00     0.003 A 
ATOM      5  C3  PXY d   1      -0.836  -1.394   0.698  0.00  0.00     0.003 A 
ATOM      6  C4  PXY d   1      -0.657  -0.089   1.071  0.00  0.00    -0.082 A 
ATOM      7  C5  PXY d   1       0.263   0.665   0.432  0.00  0.00     0.003 A 
ATOM      8  C6  PXY d   1       1.013   0.096  -0.593  0.00  0.00     0.003 A 
ENDROOT
TORSDOF 0
ENDMDL
