MODEL 1
REMARK minimizedAffinity -5.08037186
REMARK minimizedRMSD -1
REMARK  0 active torsions:
REMARK  status: ('A' for Active; 'I' for Inactive)
ROOT
ATOM      1  C4' PXY d   1      -1.580   0.089   0.754  0.00  0.00     0.077 C 
ATOM      2  C1' PXY d   1       3.425  -0.437  -2.091  0.00  0.00     0.077 C 
ATOM      3  C1  PXY d   1       2.107  -0.309  -1.352  0.00  0.00    -0.082 A 
ATOM      4  C2  PXY d   1       1.766   0.853  -0.819  0.00  0.00     0.003 A 
ATOM      5  C3  PXY d   1       0.594   0.978  -0.119  0.00  0.00     0.003 A 
ATOM      6  C4  PXY d   1      -0.264  -0.084  -0.009  0.00  0.00    -0.082 A 
ATOM      7  C5  PXY d   1       0.072  -1.270  -0.559  0.00  0.00     0.003 A 
ATOM      8  C6  PXY d   1       1.286  -1.387  -1.230  0.00  0.00     0.003 A 
ENDROOT
TORSDOF 0
ENDMDL
