MODEL 1
REMARK minimizedAffinity -4.51885033
REMARK minimizedRMSD -1
REMARK  0 active torsions:
REMARK  status: ('A' for Active; 'I' for Inactive)
ROOT
ATOM      1  C4' PXY d   1      -1.826   1.364   2.482  0.00  0.00     0.077 C 
ATOM      2  C1' PXY d   1       1.851  -1.082  -1.249  0.00  0.00     0.077 C 
ATOM      3  C1  PXY d   1       0.878  -0.438  -0.280  0.00  0.00    -0.082 A 
ATOM      4  C2  PXY d   1       1.332   0.107   0.837  0.00  0.00     0.003 A 
ATOM      5  C3  PXY d   1       0.463   0.665   1.739  0.00  0.00     0.003 A 
ATOM      6  C4  PXY d   1      -0.879   0.712   1.470  0.00  0.00    -0.082 A 
ATOM      7  C5  PXY d   1      -1.349   0.167   0.328  0.00  0.00     0.003 A 
ATOM      8  C6  PXY d   1      -0.454  -0.431  -0.556  0.00  0.00     0.003 A 
ENDROOT
TORSDOF 0
ENDMDL
