MODEL 1
REMARK minimizedAffinity -4.06797218
REMARK minimizedRMSD -1
REMARK  0 active torsions:
REMARK  status: ('A' for Active; 'I' for Inactive)
ROOT
ATOM      1  C4' PXY d   1       3.566  -0.697  -1.641  0.00  0.00     0.077 C 
ATOM      2  C1' PXY d   1      -1.704   0.004   0.629  0.00  0.00     0.077 C 
ATOM      3  C1  PXY d   1      -0.321  -0.192   0.038  0.00  0.00    -0.082 A 
ATOM      4  C2  PXY d   1       0.447   0.861  -0.193  0.00  0.00     0.003 A 
ATOM      5  C3  PXY d   1       1.687   0.704  -0.757  0.00  0.00     0.003 A 
ATOM      6  C4  PXY d   1       2.167  -0.547  -1.037  0.00  0.00    -0.082 A 
ATOM      7  C5  PXY d   1       1.394  -1.627  -0.794  0.00  0.00     0.003 A 
ATOM      8  C6  PXY d   1       0.122  -1.443  -0.260  0.00  0.00     0.003 A 
ENDROOT
TORSDOF 0
ENDMDL
