MODEL 1
REMARK minimizedAffinity -1.6389389
REMARK minimizedRMSD -1
REMARK  0 active torsions:
REMARK  status: ('A' for Active; 'I' for Inactive)
ROOT
ATOM      1  C4' PXY d   1       1.773  -1.491  -2.104  0.00  0.00     0.077 C 
ATOM      2  C1' PXY d   1      -1.559   0.815   2.019  0.00  0.00     0.077 C 
ATOM      3  C1  PXY d   1      -0.681   0.222   0.935  0.00  0.00    -0.082 A 
ATOM      4  C2  PXY d   1      -0.996  -0.949   0.405  0.00  0.00     0.003 A 
ATOM      5  C3  PXY d   1      -0.195  -1.514  -0.554  0.00  0.00     0.003 A 
ATOM      6  C4  PXY d   1       0.910  -0.850  -1.013  0.00  0.00    -0.082 A 
ATOM      7  C5  PXY d   1       1.232   0.350  -0.486  0.00  0.00     0.003 A 
ATOM      8  C6  PXY d   1       0.429   0.888   0.516  0.00  0.00     0.003 A 
ENDROOT
TORSDOF 0
ENDMDL
