MODEL 1
REMARK minimizedAffinity -3.04415965
REMARK minimizedRMSD -1
REMARK  0 active torsions:
REMARK  status: ('A' for Active; 'I' for Inactive)
ROOT
ATOM      1  C4' PXY d   1       2.991   0.019  -2.622  0.00  0.00     0.077 C 
ATOM      2  C1' PXY d   1      -1.434  -0.485   1.064  0.00  0.00     0.077 C 
ATOM      3  C1  PXY d   1      -0.275  -0.340   0.097  0.00  0.00    -0.082 A 
ATOM      4  C2  PXY d   1       0.068  -1.361  -0.671  0.00  0.00     0.003 A 
ATOM      5  C3  PXY d   1       1.133  -1.258  -1.528  0.00  0.00     0.003 A 
ATOM      6  C4  PXY d   1       1.821  -0.079  -1.638  0.00  0.00    -0.082 A 
ATOM      7  C5  PXY d   1       1.471   0.971  -0.865  0.00  0.00     0.003 A 
ATOM      8  C6  PXY d   1       0.412   0.832   0.028  0.00  0.00     0.003 A 
ENDROOT
TORSDOF 0
ENDMDL
