MODEL 1
REMARK minimizedAffinity -4.50709677
REMARK minimizedRMSD -1
REMARK  0 active torsions:
REMARK  status: ('A' for Active; 'I' for Inactive)
ROOT
ATOM      1  C4' PXY d   1      -1.631   0.657   2.077  0.00  0.00     0.077 C 
ATOM      2  C1' PXY d   1       2.352  -1.189  -1.685  0.00  0.00     0.077 C 
ATOM      3  C1  PXY d   1       1.301  -0.716  -0.699  0.00  0.00    -0.082 A 
ATOM      4  C2  PXY d   1       1.098   0.580  -0.532  0.00  0.00     0.003 A 
ATOM      5  C3  PXY d   1       0.174   1.026   0.378  0.00  0.00     0.003 A 
ATOM      6  C4  PXY d   1      -0.587   0.134   1.086  0.00  0.00    -0.082 A 
ATOM      7  C5  PXY d   1      -0.393  -1.190   0.913  0.00  0.00     0.003 A 
ATOM      8  C6  PXY d   1       0.578  -1.622   0.014  0.00  0.00     0.003 A 
ENDROOT
TORSDOF 0
ENDMDL
