MODEL 1
REMARK minimizedAffinity 1.07041335
REMARK minimizedRMSD -1
REMARK  0 active torsions:
REMARK  status: ('A' for Active; 'I' for Inactive)
ROOT
ATOM      1  C4' PXY d   1      -1.172   1.156   1.802  0.00  0.00     0.077 C 
ATOM      2  C1' PXY d   1       2.473  -1.217  -2.005  0.00  0.00     0.077 C 
ATOM      3  C1  PXY d   1       1.507  -0.599  -1.014  0.00  0.00    -0.082 A 
ATOM      4  C2  PXY d   1       1.907   0.404  -0.249  0.00  0.00     0.003 A 
ATOM      5  C3  PXY d   1       1.056   0.954   0.676  0.00  0.00     0.003 A 
ATOM      6  C4  PXY d   1      -0.234   0.508   0.781  0.00  0.00    -0.082 A 
ATOM      7  C5  PXY d   1      -0.653  -0.508  -0.004  0.00  0.00     0.003 A 
ATOM      8  C6  PXY d   1       0.238  -1.079  -0.907  0.00  0.00     0.003 A 
ENDROOT
TORSDOF 0
ENDMDL
