MODEL 1
REMARK minimizedAffinity -3.49061894
REMARK minimizedRMSD -1
REMARK  0 active torsions:
REMARK  status: ('A' for Active; 'I' for Inactive)
ROOT
ATOM      1  C4' PXY d   1      -1.912   0.848   1.515  0.00  0.00     0.077 C 
ATOM      2  C1' PXY d   1       2.552  -0.971  -1.676  0.00  0.00     0.077 C 
ATOM      3  C1  PXY d   1       1.375  -0.505  -0.842  0.00  0.00    -0.082 A 
ATOM      4  C2  PXY d   1       1.192   0.789  -0.634  0.00  0.00     0.003 A 
ATOM      5  C3  PXY d   1       0.151   1.226   0.144  0.00  0.00     0.003 A 
ATOM      6  C4  PXY d   1      -0.742   0.332   0.672  0.00  0.00    -0.082 A 
ATOM      7  C5  PXY d   1      -0.568  -0.989   0.456  0.00  0.00     0.003 A 
ATOM      8  C6  PXY d   1       0.519  -1.414  -0.303  0.00  0.00     0.003 A 
ENDROOT
TORSDOF 0
ENDMDL
