MODEL 1
REMARK minimizedAffinity -2.97719622
REMARK minimizedRMSD -1
REMARK  0 active torsions:
REMARK  status: ('A' for Active; 'I' for Inactive)
ROOT
ATOM      1  O1  BZF d   1      -0.131   1.389  -0.109  0.00  0.00    -0.204 OA
ATOM      2  C2  BZF d   1      -1.253   0.904   0.535  0.00  0.00     0.174 A 
ATOM      3  C3  BZF d   1      -1.208  -0.441   0.627  0.00  0.00    -0.012 A 
ATOM      4  C3A BZF d   1       0.062  -0.813   0.084  0.00  0.00    -0.107 A 
ATOM      5  C4  BZF d   1       0.696  -2.011  -0.087  0.00  0.00     0.055 A 
ATOM      6  C5  BZF d   1       1.900  -2.037  -0.717  0.00  0.00    -0.016 A 
ATOM      7  C6  BZF d   1       2.495  -0.888  -1.193  0.00  0.00     0.022 A 
ATOM      8  C7  BZF d   1       1.907   0.324  -1.043  0.00  0.00     0.029 A 
ATOM      9  C7A BZF d   1       0.706   0.358  -0.378  0.00  0.00     0.058 A 
ENDROOT
TORSDOF 0
ENDMDL
