MODEL 1
REMARK minimizedAffinity -5.63202
REMARK minimizedRMSD -1
REMARK  0 active torsions:
REMARK  status: ('A' for Active; 'I' for Inactive)
ROOT
ATOM      1  O1  BZF d   1      -0.239   0.730  -0.650  0.00  0.00    -0.204 OA
ATOM      2  C2  BZF d   1      -0.199  -0.521  -0.066  0.00  0.00     0.174 A 
ATOM      3  C3  BZF d   1       0.846  -1.235  -0.533  0.00  0.00    -0.012 A 
ATOM      4  C3A BZF d   1       1.554  -0.342  -1.399  0.00  0.00    -0.107 A 
ATOM      5  C4  BZF d   1       2.690  -0.463  -2.147  0.00  0.00     0.055 A 
ATOM      6  C5  BZF d   1       3.073   0.572  -2.939  0.00  0.00    -0.016 A 
ATOM      7  C6  BZF d   1       2.343   1.741  -3.010  0.00  0.00     0.022 A 
ATOM      8  C7  BZF d   1       1.212   1.910  -2.282  0.00  0.00     0.029 A 
ATOM      9  C7A BZF d   1       0.840   0.878  -1.456  0.00  0.00     0.058 A 
ENDROOT
TORSDOF 0
ENDMDL
