MODEL 1
REMARK minimizedAffinity -5.09079552
REMARK minimizedRMSD -1
REMARK  0 active torsions:
REMARK  status: ('A' for Active; 'I' for Inactive)
ROOT
ATOM      1  O1  BZF d   1      -0.633   1.189  -0.436  0.00  0.00    -0.204 OA
ATOM      2  C2  BZF d   1      -0.814   0.283   0.591  0.00  0.00     0.174 A 
ATOM      3  C3  BZF d   1       0.271  -0.505   0.731  0.00  0.00    -0.012 A 
ATOM      4  C3A BZF d   1       1.225  -0.003  -0.211  0.00  0.00    -0.107 A 
ATOM      5  C4  BZF d   1       2.503  -0.359  -0.534  0.00  0.00     0.055 A 
ATOM      6  C5  BZF d   1       3.132   0.287  -1.550  0.00  0.00    -0.016 A 
ATOM      7  C6  BZF d   1       2.512   1.289  -2.267  0.00  0.00     0.022 A 
ATOM      8  C7  BZF d   1       1.247   1.681  -1.980  0.00  0.00     0.029 A 
ATOM      9  C7A BZF d   1       0.620   1.053  -0.932  0.00  0.00     0.058 A 
ENDROOT
TORSDOF 0
ENDMDL
