MODEL 1
REMARK minimizedAffinity -4.19518518
REMARK minimizedRMSD -1
REMARK  0 active torsions:
REMARK  status: ('A' for Active; 'I' for Inactive)
ROOT
ATOM      1  O1  BZF d   1      -0.658  -0.648   0.120  0.00  0.00    -0.204 OA
ATOM      2  C2  BZF d   1      -1.212   0.617   0.095  0.00  0.00     0.174 A 
ATOM      3  C3  BZF d   1      -0.415   1.476  -0.572  0.00  0.00    -0.012 A 
ATOM      4  C3A BZF d   1       0.664   0.679  -1.070  0.00  0.00    -0.107 A 
ATOM      5  C4  BZF d   1       1.768   0.958  -1.823  0.00  0.00     0.055 A 
ATOM      6  C5  BZF d   1       2.664  -0.032  -2.074  0.00  0.00    -0.016 A 
ATOM      7  C6  BZF d   1       2.491  -1.310  -1.583  0.00  0.00     0.022 A 
ATOM      8  C7  BZF d   1       1.409  -1.636  -0.836  0.00  0.00     0.029 A 
ATOM      9  C7A BZF d   1       0.485  -0.646  -0.608  0.00  0.00     0.058 A 
ENDROOT
TORSDOF 0
ENDMDL
