MODEL 1
REMARK minimizedAffinity -3.54026437
REMARK minimizedRMSD -1
REMARK  0 active torsions:
REMARK  status: ('A' for Active; 'I' for Inactive)
ROOT
ATOM      1  O1  BZF d   1      -0.957  -0.225  -0.532  0.00  0.00    -0.204 OA
ATOM      2  C2  BZF d   1       0.301  -0.751  -0.310  0.00  0.00     0.174 A 
ATOM      3  C3  BZF d   1       0.753  -0.409   0.914  0.00  0.00    -0.012 A 
ATOM      4  C3A BZF d   1      -0.326   0.302   1.529  0.00  0.00    -0.107 A 
ATOM      5  C4  BZF d   1      -0.491   0.882   2.754  0.00  0.00     0.055 A 
ATOM      6  C5  BZF d   1      -1.639   1.561   3.014  0.00  0.00    -0.016 A 
ATOM      7  C6  BZF d   1      -2.639   1.684   2.072  0.00  0.00     0.022 A 
ATOM      8  C7  BZF d   1      -2.523   1.122   0.844  0.00  0.00     0.029 A 
ATOM      9  C7A BZF d   1      -1.378   0.407   0.590  0.00  0.00     0.058 A 
ENDROOT
TORSDOF 0
ENDMDL
