MODEL 1
REMARK minimizedAffinity -6.00498152
REMARK minimizedRMSD -1
REMARK  0 active torsions:
REMARK  status: ('A' for Active; 'I' for Inactive)
ROOT
ATOM      1  O1  BZF d   1      -0.566   1.144  -0.319  0.00  0.00    -0.204 OA
ATOM      2  C2  BZF d   1      -0.785   0.083   0.539  0.00  0.00     0.174 A 
ATOM      3  C3  BZF d   1       0.115  -0.898   0.327  0.00  0.00    -0.012 A 
ATOM      4  C3A BZF d   1       1.007  -0.382  -0.666  0.00  0.00    -0.107 A 
ATOM      5  C4  BZF d   1       2.118  -0.883  -1.281  0.00  0.00     0.055 A 
ATOM      6  C5  BZF d   1       2.717  -0.155  -2.260  0.00  0.00    -0.016 A 
ATOM      7  C6  BZF d   1       2.228   1.074  -2.652  0.00  0.00     0.022 A 
ATOM      8  C7  BZF d   1       1.131   1.615  -2.068  0.00  0.00     0.029 A 
ATOM      9  C7A BZF d   1       0.544   0.896  -1.055  0.00  0.00     0.058 A 
ENDROOT
TORSDOF 0
ENDMDL
