MODEL 1
REMARK minimizedAffinity -5.19083834
REMARK minimizedRMSD -1
REMARK  0 active torsions:
REMARK  status: ('A' for Active; 'I' for Inactive)
ROOT
ATOM      1  O1  BZF d   1      -0.512   0.798  -0.538  0.00  0.00    -0.204 OA
ATOM      2  C2  BZF d   1      -0.682  -0.236   0.362  0.00  0.00     0.174 A 
ATOM      3  C3  BZF d   1       0.355  -1.097   0.301  0.00  0.00    -0.012 A 
ATOM      4  C3A BZF d   1       1.271  -0.518  -0.633  0.00  0.00    -0.107 A 
ATOM      5  C4  BZF d   1       2.495  -0.897  -1.104  0.00  0.00     0.055 A 
ATOM      6  C5  BZF d   1       3.093  -0.146  -2.066  0.00  0.00    -0.016 A 
ATOM      7  C6  BZF d   1       2.494   0.984  -2.583  0.00  0.00     0.022 A 
ATOM      8  C7  BZF d   1       1.282   1.402  -2.143  0.00  0.00     0.029 A 
ATOM      9  C7A BZF d   1       0.690   0.664  -1.147  0.00  0.00     0.058 A 
ENDROOT
TORSDOF 0
ENDMDL
