MODEL 1
REMARK minimizedAffinity -5.93188429
REMARK minimizedRMSD -1
REMARK  0 active torsions:
REMARK  status: ('A' for Active; 'I' for Inactive)
ROOT
ATOM      1  O1  BZF d   1      -0.884   1.007  -0.614  0.00  0.00    -0.204 OA
ATOM      2  C2  BZF d   1      -1.075   0.025   0.339  0.00  0.00     0.174 A 
ATOM      3  C3  BZF d   1      -0.036  -0.834   0.354  0.00  0.00    -0.012 A 
ATOM      4  C3A BZF d   1       0.903  -0.307  -0.588  0.00  0.00    -0.107 A 
ATOM      5  C4  BZF d   1       2.140  -0.708  -1.005  0.00  0.00     0.055 A 
ATOM      6  C5  BZF d   1       2.762  -0.012  -1.993  0.00  0.00    -0.016 A 
ATOM      7  C6  BZF d   1       2.174   1.086  -2.588  0.00  0.00     0.022 A 
ATOM      8  C7  BZF d   1       0.951   1.524  -2.204  0.00  0.00     0.029 A 
ATOM      9  C7A BZF d   1       0.334   0.842  -1.184  0.00  0.00     0.058 A 
ENDROOT
TORSDOF 0
ENDMDL
