MODEL 1
REMARK minimizedAffinity -2.72086048
REMARK minimizedRMSD -1
REMARK  0 active torsions:
REMARK  status: ('A' for Active; 'I' for Inactive)
ROOT
ATOM      1  O1  BZF d   1      -0.388   0.853  -0.866  0.00  0.00    -0.204 OA
ATOM      2  C2  BZF d   1      -1.426   0.668   0.026  0.00  0.00     0.174 A 
ATOM      3  C3  BZF d   1      -1.275  -0.490   0.702  0.00  0.00    -0.012 A 
ATOM      4  C3A BZF d   1      -0.019  -1.019   0.267  0.00  0.00    -0.107 A 
ATOM      5  C4  BZF d   1       0.690  -2.140   0.589  0.00  0.00     0.055 A 
ATOM      6  C5  BZF d   1       1.848  -2.402  -0.071  0.00  0.00    -0.016 A 
ATOM      7  C6  BZF d   1       2.324  -1.568  -1.061  0.00  0.00     0.022 A 
ATOM      8  C7  BZF d   1       1.659  -0.440  -1.412  0.00  0.00     0.029 A 
ATOM      9  C7A BZF d   1       0.504  -0.156  -0.724  0.00  0.00     0.058 A 
ENDROOT
TORSDOF 0
ENDMDL
