MODEL 1
REMARK minimizedAffinity -2.97761846
REMARK minimizedRMSD -1
REMARK  0 active torsions:
REMARK  status: ('A' for Active; 'I' for Inactive)
ROOT
ATOM      1  O1  BZF d   1       0.349   0.265   1.113  0.00  0.00    -0.204 OA
ATOM      2  C2  BZF d   1      -0.750  -0.312   0.507  0.00  0.00     0.174 A 
ATOM      3  C3  BZF d   1      -0.404  -0.888  -0.662  0.00  0.00    -0.012 A 
ATOM      4  C3A BZF d   1       1.016  -0.737  -0.751  0.00  0.00    -0.107 A 
ATOM      5  C4  BZF d   1       1.945  -1.118  -1.676  0.00  0.00     0.055 A 
ATOM      6  C5  BZF d   1       3.241  -0.751  -1.500  0.00  0.00    -0.016 A 
ATOM      7  C6  BZF d   1       3.643   0.000  -0.415  0.00  0.00     0.022 A 
ATOM      8  C7  BZF d   1       2.758   0.397   0.532  0.00  0.00     0.029 A 
ATOM      9  C7A BZF d   1       1.453   0.000   0.374  0.00  0.00     0.058 A 
ENDROOT
TORSDOF 0
ENDMDL
