MODEL 1
REMARK minimizedAffinity -4.96487999
REMARK minimizedRMSD -1
REMARK  0 active torsions:
REMARK  status: ('A' for Active; 'I' for Inactive)
ROOT
ATOM      1  O1  BZF d   1      -0.692   1.824  -1.357  0.00  0.00    -0.204 OA
ATOM      2  C2  BZF d   1      -1.632   1.493  -0.401  0.00  0.00     0.174 A 
ATOM      3  C3  BZF d   1      -1.281   0.361   0.243  0.00  0.00    -0.012 A 
ATOM      4  C3A BZF d   1       0.002   0.011  -0.284  0.00  0.00    -0.107 A 
ATOM      5  C4  BZF d   1       0.876  -1.007  -0.029  0.00  0.00     0.055 A 
ATOM      6  C5  BZF d   1       2.012  -1.104  -0.769  0.00  0.00    -0.016 A 
ATOM      7  C6  BZF d   1       2.302  -0.204  -1.774  0.00  0.00     0.022 A 
ATOM      8  C7  BZF d   1       1.468   0.825  -2.061  0.00  0.00     0.029 A 
ATOM      9  C7A BZF d   1       0.336   0.945  -1.292  0.00  0.00     0.058 A 
ENDROOT
TORSDOF 0
ENDMDL
