MODEL 1
REMARK minimizedAffinity -6.03208399
REMARK minimizedRMSD -1
REMARK  0 active torsions:
REMARK  status: ('A' for Active; 'I' for Inactive)
ROOT
ATOM      1  O1  BZF d   1      -0.141   1.205  -0.194  0.00  0.00    -0.204 OA
ATOM      2  C2  BZF d   1      -0.239   0.270   0.818  0.00  0.00     0.174 A 
ATOM      3  C3  BZF d   1       0.715  -0.675   0.690  0.00  0.00    -0.012 A 
ATOM      4  C3A BZF d   1       1.512  -0.257  -0.422  0.00  0.00    -0.107 A 
ATOM      5  C4  BZF d   1       2.620  -0.774  -1.030  0.00  0.00     0.055 A 
ATOM      6  C5  BZF d   1       3.111  -0.161  -2.139  0.00  0.00    -0.016 A 
ATOM      7  C6  BZF d   1       2.518   0.965  -2.669  0.00  0.00     0.022 A 
ATOM      8  C7  BZF d   1       1.420   1.518  -2.098  0.00  0.00     0.029 A 
ATOM      9  C7A BZF d   1       0.941   0.920  -0.958  0.00  0.00     0.058 A 
ENDROOT
TORSDOF 0
ENDMDL
