MODEL 1
REMARK minimizedAffinity -4.12854624
REMARK minimizedRMSD -1
REMARK  0 active torsions:
REMARK  status: ('A' for Active; 'I' for Inactive)
ROOT
ATOM      1  O1  BZF d   1       0.560   1.773  -1.694  0.00  0.00    -0.204 OA
ATOM      2  C2  BZF d   1       1.592   1.884  -2.605  0.00  0.00     0.174 A 
ATOM      3  C3  BZF d   1       2.398   0.804  -2.549  0.00  0.00    -0.012 A 
ATOM      4  C3A BZF d   1       1.782  -0.077  -1.605  0.00  0.00    -0.107 A 
ATOM      5  C4  BZF d   1       2.100  -1.318  -1.132  0.00  0.00     0.055 A 
ATOM      6  C5  BZF d   1       1.329  -1.872  -0.159  0.00  0.00    -0.016 A 
ATOM      7  C6  BZF d   1       0.238  -1.212   0.366  0.00  0.00     0.022 A 
ATOM      8  C7  BZF d   1      -0.121   0.019  -0.075  0.00  0.00     0.029 A 
ATOM      9  C7A BZF d   1       0.637   0.567  -1.081  0.00  0.00     0.058 A 
ENDROOT
TORSDOF 0
ENDMDL
