MODEL 1
REMARK minimizedAffinity -6.38197517
REMARK minimizedRMSD -1
REMARK  0 active torsions:
REMARK  status: ('A' for Active; 'I' for Inactive)
ROOT
ATOM      1  O1  BZF d   1      -0.326   0.792  -0.402  0.00  0.00    -0.204 OA
ATOM      2  C2  BZF d   1      -0.658  -0.318   0.350  0.00  0.00     0.174 A 
ATOM      3  C3  BZF d   1       0.313  -1.251   0.281  0.00  0.00    -0.012 A 
ATOM      4  C3A BZF d   1       1.356  -0.651  -0.493  0.00  0.00    -0.107 A 
ATOM      5  C4  BZF d   1       2.590  -1.076  -0.895  0.00  0.00     0.055 A 
ATOM      6  C5  BZF d   1       3.333  -0.277  -1.704  0.00  0.00    -0.016 A 
ATOM      7  C6  BZF d   1       2.872   0.951  -2.134  0.00  0.00     0.022 A 
ATOM      8  C7  BZF d   1       1.657   1.418  -1.757  0.00  0.00     0.029 A 
ATOM      9  C7A BZF d   1       0.917   0.626  -0.913  0.00  0.00     0.058 A 
ENDROOT
TORSDOF 0
ENDMDL
