MODEL 1
REMARK minimizedAffinity -3.59677696
REMARK minimizedRMSD -1
REMARK  0 active torsions:
REMARK  status: ('A' for Active; 'I' for Inactive)
ROOT
ATOM      1  O1  BZF d   1       0.654   0.626   0.987  0.00  0.00    -0.204 OA
ATOM      2  C2  BZF d   1       0.490  -0.242  -0.075  0.00  0.00     0.174 A 
ATOM      3  C3  BZF d   1      -0.755  -0.760  -0.082  0.00  0.00    -0.012 A 
ATOM      4  C3A BZF d   1      -1.440  -0.109   0.993  0.00  0.00    -0.107 A 
ATOM      5  C4  BZF d   1      -2.713  -0.189   1.480  0.00  0.00     0.055 A 
ATOM      6  C5  BZF d   1      -3.042   0.526   2.588  0.00  0.00    -0.016 A 
ATOM      7  C6  BZF d   1      -2.123   1.326   3.235  0.00  0.00     0.022 A 
ATOM      8  C7  BZF d   1      -0.850   1.441   2.786  0.00  0.00     0.029 A 
ATOM      9  C7A BZF d   1      -0.523   0.746   1.648  0.00  0.00     0.058 A 
ENDROOT
TORSDOF 0
ENDMDL
