MODEL 1
REMARK minimizedAffinity -5.13226175
REMARK minimizedRMSD -1
REMARK  0 active torsions:
REMARK  status: ('A' for Active; 'I' for Inactive)
ROOT
ATOM      1  O1  BZF d   1       0.270   2.122  -1.507  0.00  0.00    -0.204 OA
ATOM      2  C2  BZF d   1       0.970   2.679  -2.560  0.00  0.00     0.174 A 
ATOM      3  C3  BZF d   1       2.026   1.909  -2.892  0.00  0.00    -0.012 A 
ATOM      4  C3A BZF d   1       1.931   0.756  -2.050  0.00  0.00    -0.107 A 
ATOM      5  C4  BZF d   1       2.683  -0.376  -1.921  0.00  0.00     0.055 A 
ATOM      6  C5  BZF d   1       2.362  -1.275  -0.954  0.00  0.00    -0.016 A 
ATOM      7  C6  BZF d   1       1.300  -1.072  -0.097  0.00  0.00     0.022 A 
ATOM      8  C7  BZF d   1       0.522   0.033  -0.190  0.00  0.00     0.029 A 
ATOM      9  C7A BZF d   1       0.824   0.928  -1.188  0.00  0.00     0.058 A 
ENDROOT
TORSDOF 0
ENDMDL
