MODEL 1
REMARK minimizedAffinity -6.04069996
REMARK minimizedRMSD -1
REMARK  0 active torsions:
REMARK  status: ('A' for Active; 'I' for Inactive)
ROOT
ATOM      1  O1  BZF d   1      -0.361   1.009  -0.723  0.00  0.00    -0.204 OA
ATOM      2  C2  BZF d   1      -0.919  -0.072  -0.069  0.00  0.00     0.174 A 
ATOM      3  C3  BZF d   1      -0.129  -1.160  -0.182  0.00  0.00    -0.012 A 
ATOM      4  C3A BZF d   1       1.037  -0.707  -0.876  0.00  0.00    -0.107 A 
ATOM      5  C4  BZF d   1       2.191  -1.320  -1.274  0.00  0.00     0.055 A 
ATOM      6  C5  BZF d   1       3.099  -0.614  -1.996  0.00  0.00    -0.016 A 
ATOM      7  C6  BZF d   1       2.885   0.704  -2.343  0.00  0.00     0.022 A 
ATOM      8  C7  BZF d   1       1.758   1.357  -1.968  0.00  0.00     0.029 A 
ATOM      9  C7A BZF d   1       0.853   0.655  -1.209  0.00  0.00     0.058 A 
ENDROOT
TORSDOF 0
ENDMDL
