MODEL 1
REMARK minimizedAffinity -5.15313053
REMARK minimizedRMSD -1
REMARK  0 active torsions:
REMARK  status: ('A' for Active; 'I' for Inactive)
ROOT
ATOM      1  O1  BZF d   1       0.947   1.830  -2.312  0.00  0.00    -0.204 OA
ATOM      2  C2  BZF d   1       2.204   1.700  -2.870  0.00  0.00     0.174 A 
ATOM      3  C3  BZF d   1       2.820   0.592  -2.408  0.00  0.00    -0.012 A 
ATOM      4  C3A BZF d   1       1.854  -0.056  -1.575  0.00  0.00    -0.107 A 
ATOM      5  C4  BZF d   1       1.866  -1.210  -0.846  0.00  0.00     0.055 A 
ATOM      6  C5  BZF d   1       0.786  -1.522  -0.083  0.00  0.00    -0.016 A 
ATOM      7  C6  BZF d   1      -0.321  -0.700  -0.023  0.00  0.00     0.022 A 
ATOM      8  C7  BZF d   1      -0.382   0.453  -0.733  0.00  0.00     0.029 A 
ATOM      9  C7A BZF d   1       0.695   0.753  -1.530  0.00  0.00     0.058 A 
ENDROOT
TORSDOF 0
ENDMDL
