MODEL 1
REMARK minimizedAffinity -3.62423229
REMARK minimizedRMSD -1
REMARK  0 active torsions:
REMARK  status: ('A' for Active; 'I' for Inactive)
ROOT
ATOM      1  N1  IND d   1      -1.021   2.224  -0.471  0.00  0.00    -0.196 N 
ATOM      2  C2  IND d   1      -1.805   2.115   0.643  0.00  0.00     0.054 A 
ATOM      3  C3  IND d   1      -1.456   1.023   1.359  0.00  0.00    -0.031 A 
ATOM      4  C4  IND d   1       0.439  -0.668   0.943  0.00  0.00     0.051 A 
ATOM      5  C5  IND d   1       1.402  -1.005   0.033  0.00  0.00    -0.031 A 
ATOM      6  C6  IND d   1       1.612  -0.266  -1.114  0.00  0.00     0.015 A 
ATOM      7  C7  IND d   1       0.872   0.849  -1.388  0.00  0.00    -0.016 A 
ATOM      8  C8  IND d   1      -0.111   1.190  -0.470  0.00  0.00    -0.047 A 
ATOM      9  C9  IND d   1      -0.358   0.419   0.674  0.00  0.00    -0.096 A 
ATOM     10  HN1 IND d   1      -1.085   2.836  -1.072  0.00  0.00     0.298 HD
ENDROOT
TORSDOF 0
ENDMDL
