MODEL 1
REMARK minimizedAffinity 1.35861528
REMARK minimizedRMSD -1
REMARK  0 active torsions:
REMARK  status: ('A' for Active; 'I' for Inactive)
ROOT
ATOM      1  N1  IND d   1      -1.031   1.933   1.099  0.00  0.00    -0.196 N 
ATOM      2  C2  IND d   1      -1.602   1.240   2.130  0.00  0.00     0.054 A 
ATOM      3  C3  IND d   1      -1.263  -0.067   2.063  0.00  0.00    -0.031 A 
ATOM      4  C4  IND d   1       0.297  -1.269   0.405  0.00  0.00     0.051 A 
ATOM      5  C5  IND d   1       1.024  -1.062  -0.734  0.00  0.00    -0.031 A 
ATOM      6  C6  IND d   1       1.107   0.180  -1.330  0.00  0.00     0.015 A 
ATOM      7  C7  IND d   1       0.472   1.268  -0.801  0.00  0.00    -0.016 A 
ATOM      8  C8  IND d   1      -0.272   1.060   0.351  0.00  0.00    -0.047 A 
ATOM      9  C9  IND d   1      -0.395  -0.207   0.937  0.00  0.00    -0.096 A 
ATOM     10  HN1 IND d   1      -1.130   2.773   0.944  0.00  0.00     0.298 HD
ENDROOT
TORSDOF 0
ENDMDL
