MODEL 1
REMARK minimizedAffinity -4.28743505
REMARK minimizedRMSD -1
REMARK  0 active torsions:
REMARK  status: ('A' for Active; 'I' for Inactive)
ROOT
ATOM      1  N1  IND d   1      -1.109   0.063   1.856  0.00  0.00    -0.196 N 
ATOM      2  C2  IND d   1      -1.877   1.152   2.163  0.00  0.00     0.054 A 
ATOM      3  C3  IND d   1      -1.636   2.158   1.293  0.00  0.00    -0.031 A 
ATOM      4  C4  IND d   1      -0.099   2.201  -0.772  0.00  0.00     0.051 A 
ATOM      5  C5  IND d   1       0.833   1.454  -1.437  0.00  0.00    -0.031 A 
ATOM      6  C6  IND d   1       1.169   0.179  -1.032  0.00  0.00     0.015 A 
ATOM      7  C7  IND d   1       0.576  -0.404   0.051  0.00  0.00    -0.016 A 
ATOM      8  C8  IND d   1      -0.365   0.354   0.734  0.00  0.00    -0.047 A 
ATOM      9  C9  IND d   1      -0.680   1.665   0.353  0.00  0.00    -0.096 A 
ATOM     10  HN1 IND d   1      -1.093  -0.678   2.291  0.00  0.00     0.298 HD
ENDROOT
TORSDOF 0
ENDMDL
