MODEL 1
REMARK minimizedAffinity -1.67776632
REMARK minimizedRMSD -1
REMARK  0 active torsions:
REMARK  status: ('A' for Active; 'I' for Inactive)
ROOT
ATOM      1  N1  IND d   1       0.508   0.600  -0.981  0.00  0.00    -0.196 N 
ATOM      2  C2  IND d   1       0.964  -0.628  -0.589  0.00  0.00     0.054 A 
ATOM      3  C3  IND d   1       0.454  -0.955   0.620  0.00  0.00    -0.031 A 
ATOM      4  C4  IND d   1      -1.227   0.328   2.087  0.00  0.00     0.051 A 
ATOM      5  C5  IND d   1      -1.902   1.514   2.167  0.00  0.00    -0.031 A 
ATOM      6  C6  IND d   1      -1.808   2.474   1.180  0.00  0.00     0.015 A 
ATOM      7  C7  IND d   1      -1.041   2.278   0.066  0.00  0.00    -0.016 A 
ATOM      8  C8  IND d   1      -0.349   1.078  -0.015  0.00  0.00    -0.047 A 
ATOM      9  C9  IND d   1      -0.407   0.118   1.004  0.00  0.00    -0.096 A 
ATOM     10  HN1 IND d   1       0.721   1.005  -1.709  0.00  0.00     0.298 HD
ENDROOT
TORSDOF 0
ENDMDL
