MODEL 1
REMARK minimizedAffinity -1.85416186
REMARK minimizedRMSD -1
REMARK  0 active torsions:
REMARK  status: ('A' for Active; 'I' for Inactive)
ROOT
ATOM      1  N1  IND d   1      -0.894   0.194  -1.047  0.00  0.00    -0.196 N 
ATOM      2  C2  IND d   1      -0.177   0.654   0.022  0.00  0.00     0.054 A 
ATOM      3  C3  IND d   1       0.693  -0.290   0.446  0.00  0.00    -0.031 A 
ATOM      4  C4  IND d   1       1.181  -2.622  -0.530  0.00  0.00     0.051 A 
ATOM      5  C5  IND d   1       0.752  -3.501  -1.485  0.00  0.00    -0.031 A 
ATOM      6  C6  IND d   1      -0.265  -3.186  -2.362  0.00  0.00     0.015 A 
ATOM      7  C7  IND d   1      -0.887  -1.971  -2.324  0.00  0.00    -0.016 A 
ATOM      8  C8  IND d   1      -0.460  -1.078  -1.352  0.00  0.00    -0.047 A 
ATOM      9  C9  IND d   1       0.543  -1.408  -0.431  0.00  0.00    -0.096 A 
ATOM     10  HN1 IND d   1      -1.511   0.626  -1.461  0.00  0.00     0.298 HD
ENDROOT
TORSDOF 0
ENDMDL
