MODEL 1
REMARK minimizedAffinity -3.75907302
REMARK minimizedRMSD -1
REMARK  0 active torsions:
REMARK  status: ('A' for Active; 'I' for Inactive)
ROOT
ATOM      1  N1  IND d   1      -1.388   2.390  -0.193  0.00  0.00    -0.196 N 
ATOM      2  C2  IND d   1      -2.167   2.549   0.918  0.00  0.00     0.054 A 
ATOM      3  C3  IND d   1      -1.977   1.523   1.777  0.00  0.00    -0.031 A 
ATOM      4  C4  IND d   1      -0.361  -0.474   1.608  0.00  0.00     0.051 A 
ATOM      5  C5  IND d   1       0.530  -1.069   0.760  0.00  0.00    -0.031 A 
ATOM      6  C6  IND d   1       0.836  -0.530  -0.473  0.00  0.00     0.015 A 
ATOM      7  C7  IND d   1       0.268   0.637  -0.901  0.00  0.00    -0.016 A 
ATOM      8  C8  IND d   1      -0.643   1.240  -0.046  0.00  0.00    -0.047 A 
ATOM      9  C9  IND d   1      -0.989   0.675   1.189  0.00  0.00    -0.096 A 
ATOM     10  HN1 IND d   1      -1.366   2.919  -0.871  0.00  0.00     0.298 HD
ENDROOT
TORSDOF 0
ENDMDL
