MODEL 1
REMARK minimizedAffinity 0.348707318
REMARK minimizedRMSD -1
REMARK  0 active torsions:
REMARK  status: ('A' for Active; 'I' for Inactive)
ROOT
ATOM      1  N1  IND d   1      -0.129   2.036  -1.484  0.00  0.00    -0.196 N 
ATOM      2  C2  IND d   1      -1.091   2.486  -0.623  0.00  0.00     0.054 A 
ATOM      3  C3  IND d   1      -1.316   1.574   0.349  0.00  0.00    -0.031 A 
ATOM      4  C4  IND d   1      -0.148  -0.680   0.779  0.00  0.00     0.051 A 
ATOM      5  C5  IND d   1       0.771  -1.537   0.241  0.00  0.00    -0.031 A 
ATOM      6  C6  IND d   1       1.452  -1.239  -0.921  0.00  0.00     0.015 A 
ATOM      7  C7  IND d   1       1.248  -0.063  -1.586  0.00  0.00    -0.016 A 
ATOM      8  C8  IND d   1       0.310   0.806  -1.046  0.00  0.00    -0.047 A 
ATOM      9  C9  IND d   1      -0.416   0.491   0.110  0.00  0.00    -0.096 A 
ATOM     10  HN1 IND d   1       0.153   2.452  -2.182  0.00  0.00     0.298 HD
ENDROOT
TORSDOF 0
ENDMDL
