MODEL 1
REMARK minimizedAffinity -0.733083308
REMARK minimizedRMSD -1
REMARK  0 active torsions:
REMARK  status: ('A' for Active; 'I' for Inactive)
ROOT
ATOM      1  N1  IND d   1      -0.397   1.681   1.600  0.00  0.00    -0.196 N 
ATOM      2  C2  IND d   1      -0.960   0.828   2.507  0.00  0.00     0.054 A 
ATOM      3  C3  IND d   1      -1.012  -0.426   2.005  0.00  0.00    -0.031 A 
ATOM      4  C4  IND d   1      -0.137  -1.324  -0.244  0.00  0.00     0.051 A 
ATOM      5  C5  IND d   1       0.422  -0.917  -1.423  0.00  0.00    -0.031 A 
ATOM      6  C6  IND d   1       0.745   0.404  -1.658  0.00  0.00     0.015 A 
ATOM      7  C7  IND d   1       0.532   1.369  -0.714  0.00  0.00    -0.016 A 
ATOM      8  C8  IND d   1      -0.043   0.960   0.481  0.00  0.00    -0.047 A 
ATOM      9  C9  IND d   1      -0.412  -0.372   0.709  0.00  0.00    -0.096 A 
ATOM     10  HN1 IND d   1      -0.284   2.527   1.709  0.00  0.00     0.298 HD
ENDROOT
TORSDOF 0
ENDMDL
