MODEL 1
REMARK minimizedAffinity -4.6154418
REMARK minimizedRMSD -1
REMARK  0 active torsions:
REMARK  status: ('A' for Active; 'I' for Inactive)
ROOT
ATOM      1  N1  IND d   1      -1.490   0.394   1.866  0.00  0.00    -0.196 N 
ATOM      2  C2  IND d   1      -2.167   1.559   2.098  0.00  0.00     0.054 A 
ATOM      3  C3  IND d   1      -1.826   2.491   1.181  0.00  0.00    -0.031 A 
ATOM      4  C4  IND d   1      -0.255   2.292  -0.849  0.00  0.00     0.051 A 
ATOM      5  C5  IND d   1       0.620   1.434  -1.453  0.00  0.00    -0.031 A 
ATOM      6  C6  IND d   1       0.839   0.158  -0.974  0.00  0.00     0.015 A 
ATOM      7  C7  IND d   1       0.180  -0.312   0.126  0.00  0.00    -0.016 A 
ATOM      8  C8  IND d   1      -0.705   0.559   0.746  0.00  0.00    -0.047 A 
ATOM      9  C9  IND d   1      -0.899   1.869   0.289  0.00  0.00    -0.096 A 
ATOM     10  HN1 IND d   1      -1.545  -0.322   2.340  0.00  0.00     0.298 HD
ENDROOT
TORSDOF 0
ENDMDL
