MODEL 1
REMARK minimizedAffinity -3.24880934
REMARK minimizedRMSD -1
REMARK  0 active torsions:
REMARK  status: ('A' for Active; 'I' for Inactive)
ROOT
ATOM      1  N1  IND d   1      -1.794   2.704   0.586  0.00  0.00    -0.196 N 
ATOM      2  C2  IND d   1      -2.275   2.373   1.822  0.00  0.00     0.054 A 
ATOM      3  C3  IND d   1      -1.856   1.137   2.174  0.00  0.00    -0.031 A 
ATOM      4  C4  IND d   1      -0.292  -0.479   0.921  0.00  0.00     0.051 A 
ATOM      5  C5  IND d   1       0.372  -0.634  -0.264  0.00  0.00    -0.031 A 
ATOM      6  C6  IND d   1       0.349   0.337  -1.244  0.00  0.00     0.015 A 
ATOM      7  C7  IND d   1      -0.332   1.508  -1.072  0.00  0.00    -0.016 A 
ATOM      8  C8  IND d   1      -1.013   1.666   0.127  0.00  0.00    -0.047 A 
ATOM      9  C9  IND d   1      -1.028   0.667   1.109  0.00  0.00    -0.096 A 
ATOM     10  HN1 IND d   1      -1.953   3.437   0.165  0.00  0.00     0.298 HD
ENDROOT
TORSDOF 0
ENDMDL
