MODEL 1
REMARK minimizedAffinity -3.96443748
REMARK minimizedRMSD -1
REMARK  0 active torsions:
REMARK  status: ('A' for Active; 'I' for Inactive)
ROOT
ATOM      1  N1  IND d   1       0.700   1.788  -1.258  0.00  0.00    -0.196 N 
ATOM      2  C2  IND d   1       1.627   0.818  -1.518  0.00  0.00     0.054 A 
ATOM      3  C3  IND d   1       1.474  -0.220  -0.665  0.00  0.00    -0.031 A 
ATOM      4  C4  IND d   1      -0.296  -0.582   1.169  0.00  0.00     0.051 A 
ATOM      5  C5  IND d   1      -1.332   0.044   1.804  0.00  0.00    -0.031 A 
ATOM      6  C6  IND d   1      -1.754   1.307   1.442  0.00  0.00     0.015 A 
ATOM      7  C7  IND d   1      -1.160   1.990   0.419  0.00  0.00    -0.016 A 
ATOM      8  C8  IND d   1      -0.103   1.361  -0.224  0.00  0.00    -0.047 A 
ATOM      9  C9  IND d   1       0.357   0.097   0.167  0.00  0.00    -0.096 A 
ATOM     10  HN1 IND d   1       0.631   2.539  -1.671  0.00  0.00     0.298 HD
ENDROOT
TORSDOF 0
ENDMDL
