MODEL 1
REMARK minimizedAffinity -1.52298689
REMARK minimizedRMSD -1
REMARK  0 active torsions:
REMARK  status: ('A' for Active; 'I' for Inactive)
ROOT
ATOM      1  N1  IND d   1       0.605  -0.698   1.107  0.00  0.00    -0.196 N 
ATOM      2  C2  IND d   1      -0.390  -0.469   2.016  0.00  0.00     0.054 A 
ATOM      3  C3  IND d   1      -1.143   0.586   1.633  0.00  0.00    -0.031 A 
ATOM      4  C4  IND d   1      -0.986   2.021  -0.498  0.00  0.00     0.051 A 
ATOM      5  C5  IND d   1      -0.216   2.216  -1.611  0.00  0.00    -0.031 A 
ATOM      6  C6  IND d   1       0.887   1.433  -1.881  0.00  0.00     0.015 A 
ATOM      7  C7  IND d   1       1.257   0.413  -1.051  0.00  0.00    -0.016 A 
ATOM      8  C8  IND d   1       0.482   0.216   0.083  0.00  0.00    -0.047 A 
ATOM      9  C9  IND d   1      -0.614   1.035   0.385  0.00  0.00    -0.096 A 
ATOM     10  HN1 IND d   1       1.206  -1.310   1.164  0.00  0.00     0.298 HD
ENDROOT
TORSDOF 0
ENDMDL
