MODEL 1
REMARK minimizedAffinity -1.27179468
REMARK minimizedRMSD -1
REMARK  0 active torsions:
REMARK  status: ('A' for Active; 'I' for Inactive)
ROOT
ATOM      1  N1  IND d   1       0.368  -0.479  -0.698  0.00  0.00    -0.196 N 
ATOM      2  C2  IND d   1       1.200  -1.132   0.168  0.00  0.00     0.054 A 
ATOM      3  C3  IND d   1       0.911  -0.792   1.445  0.00  0.00    -0.031 A 
ATOM      4  C4  IND d   1      -0.952   0.737   2.348  0.00  0.00     0.051 A 
ATOM      5  C5  IND d   1      -1.942   1.586   1.939  0.00  0.00    -0.031 A 
ATOM      6  C6  IND d   1      -2.219   1.793   0.603  0.00  0.00     0.015 A 
ATOM      7  C7  IND d   1      -1.522   1.146  -0.377  0.00  0.00    -0.016 A 
ATOM      8  C8  IND d   1      -0.512   0.288   0.034  0.00  0.00    -0.047 A 
ATOM      9  C9  IND d   1      -0.197   0.107   1.387  0.00  0.00    -0.096 A 
ATOM     10  HN1 IND d   1       0.390  -0.537  -1.555  0.00  0.00     0.298 HD
ENDROOT
TORSDOF 0
ENDMDL
