MODEL 1
REMARK minimizedAffinity -2.56993008
REMARK minimizedRMSD -1
REMARK  0 active torsions:
REMARK  status: ('A' for Active; 'I' for Inactive)
ROOT
ATOM      1  N1  IND d   1      -1.531   2.343  -1.594  0.00  0.00    -0.196 N 
ATOM      2  C2  IND d   1      -2.714   2.353  -0.909  0.00  0.00     0.054 A 
ATOM      3  C3  IND d   1      -2.670   1.475   0.118  0.00  0.00    -0.031 A 
ATOM      4  C4  IND d   1      -0.724  -0.008   0.920  0.00  0.00     0.051 A 
ATOM      5  C5  IND d   1       0.547  -0.389   0.591  0.00  0.00    -0.031 A 
ATOM      6  C6  IND d   1       1.204   0.134  -0.504  0.00  0.00     0.015 A 
ATOM      7  C7  IND d   1       0.617   1.070  -1.307  0.00  0.00    -0.016 A 
ATOM      8  C8  IND d   1      -0.676   1.454  -0.980  0.00  0.00    -0.047 A 
ATOM      9  C9  IND d   1      -1.364   0.895   0.104  0.00  0.00    -0.096 A 
ATOM     10  HN1 IND d   1      -1.351   2.813  -2.291  0.00  0.00     0.298 HD
ENDROOT
TORSDOF 0
ENDMDL
