MODEL 1
REMARK minimizedAffinity -2.670403
REMARK minimizedRMSD -1
REMARK  0 active torsions:
REMARK  status: ('A' for Active; 'I' for Inactive)
ROOT
ATOM      1  N1  IND d   1      -0.678  -0.143  -1.404  0.00  0.00    -0.196 N 
ATOM      2  C2  IND d   1       0.410  -0.964  -1.299  0.00  0.00     0.054 A 
ATOM      3  C3  IND d   1       0.889  -0.950  -0.035  0.00  0.00    -0.031 A 
ATOM      4  C4  IND d   1      -0.017   0.268   2.044  0.00  0.00     0.051 A 
ATOM      5  C5  IND d   1      -0.971   1.166   2.437  0.00  0.00    -0.031 A 
ATOM      6  C6  IND d   1      -1.895   1.681   1.552  0.00  0.00     0.015 A 
ATOM      7  C7  IND d   1      -1.908   1.308   0.238  0.00  0.00    -0.016 A 
ATOM      8  C8  IND d   1      -0.938   0.402  -0.166  0.00  0.00    -0.047 A 
ATOM      9  C9  IND d   1       0.030  -0.092   0.718  0.00  0.00    -0.096 A 
ATOM     10  HN1 IND d   1      -1.125   0.008  -2.123  0.00  0.00     0.298 HD
ENDROOT
TORSDOF 0
ENDMDL
