MODEL 1
REMARK minimizedAffinity -5.58490515
REMARK minimizedRMSD -1
REMARK  0 active torsions:
REMARK  status: ('A' for Active; 'I' for Inactive)
ROOT
ATOM      1  N1  IND d   1       0.533   0.053  -0.916  0.00  0.00    -0.196 N 
ATOM      2  C2  IND d   1       1.038  -1.037  -0.264  0.00  0.00     0.054 A 
ATOM      3  C3  IND d   1       0.499  -1.137   0.972  0.00  0.00    -0.031 A 
ATOM      4  C4  IND d   1      -1.307   0.317   2.091  0.00  0.00     0.051 A 
ATOM      5  C5  IND d   1      -2.047   1.450   1.903  0.00  0.00    -0.031 A 
ATOM      6  C6  IND d   1      -1.966   2.189   0.740  0.00  0.00     0.015 A 
ATOM      7  C7  IND d   1      -1.146   1.814  -0.286  0.00  0.00    -0.016 A 
ATOM      8  C8  IND d   1      -0.387   0.668  -0.095  0.00  0.00    -0.047 A 
ATOM      9  C9  IND d   1      -0.434  -0.062   1.099  0.00  0.00    -0.096 A 
ATOM     10  HN1 IND d   1       0.752   0.311  -1.707  0.00  0.00     0.298 HD
ENDROOT
TORSDOF 0
ENDMDL
