MODEL 1
REMARK minimizedAffinity -4.05109024
REMARK minimizedRMSD -1
REMARK  0 active torsions:
REMARK  status: ('A' for Active; 'I' for Inactive)
ROOT
ATOM      1  N1  IND d   1       0.445  -0.455  -0.582  0.00  0.00    -0.196 N 
ATOM      2  C2  IND d   1       0.718  -1.328   0.435  0.00  0.00     0.054 A 
ATOM      3  C3  IND d   1       0.241  -0.850   1.606  0.00  0.00    -0.031 A 
ATOM      4  C4  IND d   1      -1.106   1.294   2.070  0.00  0.00     0.051 A 
ATOM      5  C5  IND d   1      -1.570   2.428   1.463  0.00  0.00    -0.031 A 
ATOM      6  C6  IND d   1      -1.384   2.662   0.116  0.00  0.00     0.015 A 
ATOM      7  C7  IND d   1      -0.735   1.761  -0.680  0.00  0.00    -0.016 A 
ATOM      8  C8  IND d   1      -0.256   0.613  -0.066  0.00  0.00    -0.047 A 
ATOM      9  C9  IND d   1      -0.405   0.389   1.309  0.00  0.00    -0.096 A 
ATOM     10  HN1 IND d   1       0.674  -0.556  -1.404  0.00  0.00     0.298 HD
ENDROOT
TORSDOF 0
ENDMDL
