MODEL 1
REMARK minimizedAffinity -3.02994609
REMARK minimizedRMSD -1
REMARK  0 active torsions:
REMARK  status: ('A' for Active; 'I' for Inactive)
ROOT
ATOM      1  C   UNL d   1       2.248  -0.729  -1.275  0.00  0.00     0.023 A 
ATOM      2  C1  UNL d   1       1.299  -1.727  -1.049  0.00  0.00     0.003 A 
ATOM      3  C2  UNL d   1       0.186  -1.464  -0.248  0.00  0.00     0.048 A 
ATOM      4  C3  UNL d   1       0.027  -0.202   0.323  0.00  0.00     0.023 A 
ATOM      5  C4  UNL d   1       0.973   0.799   0.098  0.00  0.00     0.048 A 
ATOM      6  C5  UNL d   1       2.085   0.532  -0.702  0.00  0.00     0.003 A 
ATOM      7  I   UNL d   1      -1.630   0.191   1.515  0.00  0.00    -0.146 I 
ENDROOT
TORSDOF 0
ENDMDL
