MODEL 1
REMARK minimizedAffinity -2.43300438
REMARK minimizedRMSD -1
REMARK  0 active torsions:
REMARK  status: ('A' for Active; 'I' for Inactive)
ROOT
ATOM      1  C   UNL d   1      -1.821   0.295   0.068  0.00  0.00     0.023 A 
ATOM      2  C1  UNL d   1      -1.109   1.261  -0.643  0.00  0.00     0.003 A 
ATOM      3  C2  UNL d   1       0.195   0.997  -1.068  0.00  0.00     0.048 A 
ATOM      4  C3  UNL d   1       0.780  -0.235  -0.780  0.00  0.00     0.023 A 
ATOM      5  C4  UNL d   1       0.070  -1.205  -0.070  0.00  0.00     0.048 A 
ATOM      6  C5  UNL d   1      -1.232  -0.936   0.354  0.00  0.00     0.003 A 
ATOM      7  I   UNL d   1       2.720  -0.631  -1.412  0.00  0.00    -0.146 I 
ENDROOT
TORSDOF 0
ENDMDL
