MODEL 1
REMARK minimizedAffinity -3.11355233
REMARK minimizedRMSD -1
REMARK  0 active torsions:
REMARK  status: ('A' for Active; 'I' for Inactive)
ROOT
ATOM      1  C   UNL d   1       2.563  -0.842  -1.126  0.00  0.00     0.023 A 
ATOM      2  C1  UNL d   1       2.203   0.505  -1.186  0.00  0.00     0.003 A 
ATOM      3  C2  UNL d   1       1.044   0.948  -0.545  0.00  0.00     0.048 A 
ATOM      4  C3  UNL d   1       0.251   0.039   0.155  0.00  0.00     0.023 A 
ATOM      5  C4  UNL d   1       0.608  -1.308   0.219  0.00  0.00     0.048 A 
ATOM      6  C5  UNL d   1       1.766  -1.747  -0.425  0.00  0.00     0.003 A 
ATOM      7  I   UNL d   1      -1.474   0.697   1.111  0.00  0.00    -0.146 I 
ENDROOT
TORSDOF 0
ENDMDL
