MODEL 1
REMARK minimizedAffinity -2.92178082
REMARK minimizedRMSD -1
REMARK  0 active torsions:
REMARK  status: ('A' for Active; 'I' for Inactive)
ROOT
ATOM      1  C   UNL d   1      -5.414   5.426   5.051  0.00  0.00     0.023 A 
ATOM      2  C1  UNL d   1      -5.134   5.295   3.691  0.00  0.00     0.003 A 
ATOM      3  C2  UNL d   1      -3.981   4.626   3.275  0.00  0.00     0.048 A 
ATOM      4  C3  UNL d   1      -3.113   4.090   4.225  0.00  0.00     0.023 A 
ATOM      5  C4  UNL d   1      -3.389   4.218   5.587  0.00  0.00     0.048 A 
ATOM      6  C5  UNL d   1      -4.542   4.888   5.998  0.00  0.00     0.003 A 
ATOM      7  I   UNL d   1      -1.396   3.094   3.608  0.00  0.00    -0.146 I 
ENDROOT
TORSDOF 0
ENDMDL
