MODEL 1
REMARK minimizedAffinity -4.49982548
REMARK minimizedRMSD -1
REMARK  0 active torsions:
REMARK  status: ('A' for Active; 'I' for Inactive)
ROOT
ATOM      1  C   UNL d   1       2.211  -0.457  -1.332  0.00  0.00     0.023 A 
ATOM      2  C1  UNL d   1       1.313  -1.492  -1.073  0.00  0.00     0.003 A 
ATOM      3  C2  UNL d   1       0.239  -1.286  -0.205  0.00  0.00     0.048 A 
ATOM      4  C3  UNL d   1       0.069  -0.042   0.401  0.00  0.00     0.023 A 
ATOM      5  C4  UNL d   1       0.964   0.998   0.144  0.00  0.00     0.048 A 
ATOM      6  C5  UNL d   1       2.037   0.787  -0.724  0.00  0.00     0.003 A 
ATOM      7  I   UNL d   1      -1.529   0.267   1.693  0.00  0.00    -0.146 I 
ENDROOT
TORSDOF 0
ENDMDL
