MODEL 1
REMARK minimizedAffinity -3.25917983
REMARK minimizedRMSD -1
REMARK  0 active torsions:
REMARK  status: ('A' for Active; 'I' for Inactive)
ROOT
ATOM      1  C   UNL d   1      -1.361   0.652   0.850  0.00  0.00     0.023 A 
ATOM      2  C1  UNL d   1      -1.173   1.060  -0.470  0.00  0.00     0.003 A 
ATOM      3  C2  UNL d   1      -0.028   0.671  -1.167  0.00  0.00     0.048 A 
ATOM      4  C3  UNL d   1       0.926  -0.129  -0.538  0.00  0.00     0.023 A 
ATOM      5  C4  UNL d   1       0.742  -0.541   0.783  0.00  0.00     0.048 A 
ATOM      6  C5  UNL d   1      -0.404  -0.148   1.476  0.00  0.00     0.003 A 
ATOM      7  I   UNL d   1       2.631  -0.711  -1.573  0.00  0.00    -0.146 I 
ENDROOT
TORSDOF 0
ENDMDL
