MODEL 1
REMARK minimizedAffinity -2.77058196
REMARK minimizedRMSD -1
REMARK  0 active torsions:
REMARK  status: ('A' for Active; 'I' for Inactive)
ROOT
ATOM      1  C   UNL d   1      -1.831   1.126  -0.891  0.00  0.00     0.023 A 
ATOM      2  C1  UNL d   1      -1.530  -0.129  -0.362  0.00  0.00     0.003 A 
ATOM      3  C2  UNL d   1      -0.235  -0.641  -0.469  0.00  0.00     0.048 A 
ATOM      4  C3  UNL d   1       0.754   0.108  -1.105  0.00  0.00     0.023 A 
ATOM      5  C4  UNL d   1       0.458   1.365  -1.635  0.00  0.00     0.048 A 
ATOM      6  C5  UNL d   1      -0.838   1.872  -1.527  0.00  0.00     0.003 A 
ATOM      7  I   UNL d   1       2.682  -0.652  -1.266  0.00  0.00    -0.146 I 
ENDROOT
TORSDOF 0
ENDMDL
