MODEL 1
REMARK minimizedAffinity -3.01569009
REMARK minimizedRMSD -1
REMARK  0 active torsions:
REMARK  status: ('A' for Active; 'I' for Inactive)
ROOT
ATOM      1  C   UNL d   1       2.551  -0.974  -1.373  0.00  0.00     0.023 A 
ATOM      2  C1  UNL d   1       1.458  -1.817  -1.176  0.00  0.00     0.003 A 
ATOM      3  C2  UNL d   1       0.342  -1.362  -0.469  0.00  0.00     0.048 A 
ATOM      4  C3  UNL d   1       0.327  -0.063   0.037  0.00  0.00     0.023 A 
ATOM      5  C4  UNL d   1       1.418   0.784  -0.159  0.00  0.00     0.048 A 
ATOM      6  C5  UNL d   1       2.532   0.325  -0.865  0.00  0.00     0.003 A 
ATOM      7  I   UNL d   1      -1.332   0.616   1.088  0.00  0.00    -0.146 I 
ENDROOT
TORSDOF 0
ENDMDL
