MODEL 1
REMARK minimizedAffinity -0.768133104
REMARK minimizedRMSD -1
REMARK  0 active torsions:
REMARK  status: ('A' for Active; 'I' for Inactive)
ROOT
ATOM      1  C   UNL d   1      -2.095   1.050   4.221  0.00  0.00     0.023 A 
ATOM      2  C1  UNL d   1      -2.288  -0.217   3.669  0.00  0.00     0.003 A 
ATOM      3  C2  UNL d   1      -1.920  -0.466   2.345  0.00  0.00     0.048 A 
ATOM      4  C3  UNL d   1      -1.358   0.555   1.580  0.00  0.00     0.023 A 
ATOM      5  C4  UNL d   1      -1.162   1.823   2.128  0.00  0.00     0.048 A 
ATOM      6  C5  UNL d   1      -1.533   2.068   3.452  0.00  0.00     0.003 A 
ATOM      7  I   UNL d   1      -0.808   0.186  -0.390  0.00  0.00    -0.146 I 
ENDROOT
TORSDOF 0
ENDMDL
