MODEL 1
REMARK minimizedAffinity -3.55811048
REMARK minimizedRMSD -1
REMARK  0 active torsions:
REMARK  status: ('A' for Active; 'I' for Inactive)
ROOT
ATOM      1  C   UNL d   1       0.396   2.122  -1.504  0.00  0.00     0.023 A 
ATOM      2  C1  UNL d   1      -0.890   1.814  -1.059  0.00  0.00     0.003 A 
ATOM      3  C2  UNL d   1      -1.113   0.653  -0.316  0.00  0.00     0.048 A 
ATOM      4  C3  UNL d   1      -0.046  -0.195  -0.020  0.00  0.00     0.023 A 
ATOM      5  C4  UNL d   1       1.242   0.110  -0.462  0.00  0.00     0.048 A 
ATOM      6  C5  UNL d   1       1.461   1.272  -1.205  0.00  0.00     0.003 A 
ATOM      7  I   UNL d   1      -0.376  -1.923   1.086  0.00  0.00    -0.146 I 
ENDROOT
TORSDOF 0
ENDMDL
