MODEL 1
REMARK minimizedAffinity -2.07415509
REMARK minimizedRMSD -1
REMARK  0 active torsions:
REMARK  status: ('A' for Active; 'I' for Inactive)
ROOT
ATOM      1  C   UNL d   1       0.780   0.272  -1.147  0.00  0.00     0.023 A 
ATOM      2  C1  UNL d   1       0.567  -0.784  -0.260  0.00  0.00     0.003 A 
ATOM      3  C2  UNL d   1      -0.422  -0.685   0.720  0.00  0.00     0.048 A 
ATOM      4  C3  UNL d   1      -1.196   0.472   0.808  0.00  0.00     0.023 A 
ATOM      5  C4  UNL d   1      -0.987   1.530  -0.078  0.00  0.00     0.048 A 
ATOM      6  C5  UNL d   1       0.003   1.427  -1.056  0.00  0.00     0.003 A 
ATOM      7  I   UNL d   1      -2.669   0.621   2.266  0.00  0.00    -0.146 I 
ENDROOT
TORSDOF 0
ENDMDL
