MODEL 1
REMARK minimizedAffinity -0.225118712
REMARK minimizedRMSD -1
REMARK  0 active torsions:
REMARK  status: ('A' for Active; 'I' for Inactive)
ROOT
ATOM      1  C   UNL d   1       1.760  -1.118  -1.401  0.00  0.00     0.023 A 
ATOM      2  C1  UNL d   1       0.469  -1.643  -1.342  0.00  0.00     0.003 A 
ATOM      3  C2  UNL d   1      -0.488  -1.055  -0.513  0.00  0.00     0.048 A 
ATOM      4  C3  UNL d   1      -0.149   0.059   0.254  0.00  0.00     0.023 A 
ATOM      5  C4  UNL d   1       1.142   0.589   0.197  0.00  0.00     0.048 A 
ATOM      6  C5  UNL d   1       2.096  -0.003  -0.632  0.00  0.00     0.003 A 
ATOM      7  I   UNL d   1      -1.572   0.936   1.488  0.00  0.00    -0.146 I 
ENDROOT
TORSDOF 0
ENDMDL
