MODEL 1
REMARK minimizedAffinity -2.88890266
REMARK minimizedRMSD -1
REMARK  0 active torsions:
REMARK  status: ('A' for Active; 'I' for Inactive)
ROOT
ATOM      1  C   UNL d   1      -0.065   1.067  -0.176  0.00  0.00     0.077 C 
ATOM      2  C1  UNL d   1      -0.632  -0.267   0.212  0.00  0.00    -0.074 A 
ATOM      3  C2  UNL d   1      -1.200  -0.467   1.474  0.00  0.00    -0.005 A 
ATOM      4  C3  UNL d   1      -1.731  -1.711   1.816  0.00  0.00     0.006 A 
ATOM      5  C4  UNL d   1      -1.699  -2.764   0.902  0.00  0.00    -0.005 A 
ATOM      6  C5  UNL d   1      -1.136  -2.582  -0.365  0.00  0.00    -0.074 A 
ATOM      7  C6  UNL d   1      -1.102  -3.702  -1.363  0.00  0.00     0.077 C 
ATOM      8  C7  UNL d   1      -0.610  -1.328  -0.704  0.00  0.00    -0.001 A 
ENDROOT
TORSDOF 0
ENDMDL
