MODEL 1
REMARK minimizedAffinity -4.14244699
REMARK minimizedRMSD -1
REMARK  0 active torsions:
REMARK  status: ('A' for Active; 'I' for Inactive)
ROOT
ATOM      1  C   UNL d   1      -0.182  -3.650  -0.115  0.00  0.00     0.077 C 
ATOM      2  C1  UNL d   1      -0.261  -2.188   0.208  0.00  0.00    -0.074 A 
ATOM      3  C2  UNL d   1       0.582  -1.266  -0.423  0.00  0.00    -0.005 A 
ATOM      4  C3  UNL d   1       0.491   0.092  -0.119  0.00  0.00     0.006 A 
ATOM      5  C4  UNL d   1      -0.442   0.542   0.816  0.00  0.00    -0.005 A 
ATOM      6  C5  UNL d   1      -1.293  -0.364   1.456  0.00  0.00    -0.074 A 
ATOM      7  C6  UNL d   1      -2.308   0.104   2.456  0.00  0.00     0.077 C 
ATOM      8  C7  UNL d   1      -1.201  -1.727   1.140  0.00  0.00    -0.001 A 
ENDROOT
TORSDOF 0
ENDMDL
