MODEL 1
REMARK minimizedAffinity -4.78590536
REMARK minimizedRMSD -1
REMARK  0 active torsions:
REMARK  status: ('A' for Active; 'I' for Inactive)
ROOT
ATOM      1  C   UNL d   1      -2.172  -0.558   3.129  0.00  0.00     0.077 C 
ATOM      2  C1  UNL d   1      -1.317  -0.849   1.932  0.00  0.00    -0.074 A 
ATOM      3  C2  UNL d   1      -1.404  -2.076   1.267  0.00  0.00    -0.005 A 
ATOM      4  C3  UNL d   1      -0.609  -2.329   0.149  0.00  0.00     0.006 A 
ATOM      5  C4  UNL d   1       0.281  -1.358  -0.314  0.00  0.00    -0.005 A 
ATOM      6  C5  UNL d   1       0.381  -0.125   0.337  0.00  0.00    -0.074 A 
ATOM      7  C6  UNL d   1       1.324   0.933  -0.154  0.00  0.00     0.077 C 
ATOM      8  C7  UNL d   1      -0.427   0.124   1.455  0.00  0.00    -0.001 A 
ENDROOT
TORSDOF 0
ENDMDL
