MODEL 1
REMARK minimizedAffinity -3.76398206
REMARK minimizedRMSD -1
REMARK  0 active torsions:
REMARK  status: ('A' for Active; 'I' for Inactive)
ROOT
ATOM      1  C   UNL d   1       0.759  -1.581  -2.490  0.00  0.00     0.077 C 
ATOM      2  C1  UNL d   1       0.523  -0.834  -1.211  0.00  0.00    -0.074 A 
ATOM      3  C2  UNL d   1      -0.073  -1.461  -0.112  0.00  0.00    -0.005 A 
ATOM      4  C3  UNL d   1      -0.277  -0.756   1.074  0.00  0.00     0.006 A 
ATOM      5  C4  UNL d   1       0.111   0.580   1.173  0.00  0.00    -0.005 A 
ATOM      6  C5  UNL d   1       0.709   1.223   0.085  0.00  0.00    -0.074 A 
ATOM      7  C6  UNL d   1       1.142   2.657   0.178  0.00  0.00     0.077 C 
ATOM      8  C7  UNL d   1       0.918   0.506  -1.101  0.00  0.00    -0.001 A 
ENDROOT
TORSDOF 0
ENDMDL
