MODEL 1
REMARK minimizedAffinity -5.1783638
REMARK minimizedRMSD -1
REMARK  0 active torsions:
REMARK  status: ('A' for Active; 'I' for Inactive)
ROOT
ATOM      1  C   UNL d   1       0.078  -4.207  -0.343  0.00  0.00     0.077 C 
ATOM      2  C1  UNL d   1      -0.128  -2.789   0.101  0.00  0.00    -0.074 A 
ATOM      3  C2  UNL d   1       0.416  -1.723  -0.622  0.00  0.00    -0.005 A 
ATOM      4  C3  UNL d   1       0.208  -0.409  -0.203  0.00  0.00     0.006 A 
ATOM      5  C4  UNL d   1      -0.546  -0.148   0.942  0.00  0.00    -0.005 A 
ATOM      6  C5  UNL d   1      -1.099  -1.201   1.677  0.00  0.00    -0.074 A 
ATOM      7  C6  UNL d   1      -1.920  -0.938   2.905  0.00  0.00     0.077 C 
ATOM      8  C7  UNL d   1      -0.891  -2.518   1.246  0.00  0.00    -0.001 A 
ENDROOT
TORSDOF 0
ENDMDL
