MODEL 1
REMARK minimizedAffinity -2.79247499
REMARK minimizedRMSD -1
REMARK  0 active torsions:
REMARK  status: ('A' for Active; 'I' for Inactive)
ROOT
ATOM      1  C   UNL d   1       0.392  -3.229   0.247  0.00  0.00     0.077 C 
ATOM      2  C1  UNL d   1       0.329  -1.910  -0.465  0.00  0.00    -0.074 A 
ATOM      3  C2  UNL d   1       0.685  -1.804  -1.814  0.00  0.00    -0.005 A 
ATOM      4  C3  UNL d   1       0.613  -0.573  -2.465  0.00  0.00     0.006 A 
ATOM      5  C4  UNL d   1       0.185   0.562  -1.777  0.00  0.00    -0.005 A 
ATOM      6  C5  UNL d   1      -0.176   0.475  -0.429  0.00  0.00    -0.074 A 
ATOM      7  C6  UNL d   1      -0.648   1.684   0.324  0.00  0.00     0.077 C 
ATOM      8  C7  UNL d   1      -0.108  -0.766   0.218  0.00  0.00    -0.001 A 
ENDROOT
TORSDOF 0
ENDMDL
