MODEL 1
REMARK minimizedAffinity -2.76038623
REMARK minimizedRMSD -1
REMARK  0 active torsions:
REMARK  status: ('A' for Active; 'I' for Inactive)
ROOT
ATOM      1  C   UNL d   1       0.635  -0.533  -2.739  0.00  0.00     0.077 C 
ATOM      2  C1  UNL d   1       0.072  -0.543  -1.349  0.00  0.00    -0.074 A 
ATOM      3  C2  UNL d   1       0.188   0.577  -0.519  0.00  0.00    -0.005 A 
ATOM      4  C3  UNL d   1      -0.349   0.556   0.768  0.00  0.00     0.006 A 
ATOM      5  C4  UNL d   1      -1.007  -0.582   1.237  0.00  0.00    -0.005 A 
ATOM      6  C5  UNL d   1      -1.133  -1.710   0.421  0.00  0.00    -0.074 A 
ATOM      7  C6  UNL d   1      -1.845  -2.938   0.905  0.00  0.00     0.077 C 
ATOM      8  C7  UNL d   1      -0.597  -1.679  -0.874  0.00  0.00    -0.001 A 
ENDROOT
TORSDOF 0
ENDMDL
