MODEL 1
REMARK minimizedAffinity -1.81918323
REMARK minimizedRMSD -1
REMARK  0 active torsions:
REMARK  status: ('A' for Active; 'I' for Inactive)
ROOT
ATOM      1  C   UNL d   1       1.730   2.464   0.762  0.00  0.00     0.077 C 
ATOM      2  C1  UNL d   1       1.243   1.253   0.024  0.00  0.00    -0.074 A 
ATOM      3  C2  UNL d   1       0.724   1.359  -1.270  0.00  0.00    -0.005 A 
ATOM      4  C3  UNL d   1       0.284   0.222  -1.947  0.00  0.00     0.006 A 
ATOM      5  C4  UNL d   1       0.357  -1.031  -1.337  0.00  0.00    -0.005 A 
ATOM      6  C5  UNL d   1       0.873  -1.157  -0.044  0.00  0.00    -0.074 A 
ATOM      7  C6  UNL d   1       0.969  -2.498   0.622  0.00  0.00     0.077 C 
ATOM      8  C7  UNL d   1       1.321  -0.011   0.627  0.00  0.00    -0.001 A 
ENDROOT
TORSDOF 0
ENDMDL
