MODEL 1
REMARK minimizedAffinity -5.25447273
REMARK minimizedRMSD -1
REMARK  0 active torsions:
REMARK  status: ('A' for Active; 'I' for Inactive)
ROOT
ATOM      1  C   UNL d   1      -2.950   0.045   1.859  0.00  0.00     0.077 C 
ATOM      2  C1  UNL d   1      -1.682  -0.091   1.070  0.00  0.00    -0.074 A 
ATOM      3  C2  UNL d   1      -1.168   0.988   0.344  0.00  0.00    -0.005 A 
ATOM      4  C3  UNL d   1       0.018   0.850  -0.377  0.00  0.00     0.006 A 
ATOM      5  C4  UNL d   1       0.701  -0.367  -0.380  0.00  0.00    -0.005 A 
ATOM      6  C5  UNL d   1       0.202  -1.457   0.341  0.00  0.00    -0.074 A 
ATOM      7  C6  UNL d   1       0.928  -2.770   0.357  0.00  0.00     0.077 C 
ATOM      8  C7  UNL d   1      -0.986  -1.308   1.069  0.00  0.00    -0.001 A 
ENDROOT
TORSDOF 0
ENDMDL
