MODEL 1
REMARK minimizedAffinity -5.26103973
REMARK minimizedRMSD -1
REMARK  0 active torsions:
REMARK  status: ('A' for Active; 'I' for Inactive)
ROOT
ATOM      1  C   UNL d   1      -3.057  -2.668   1.200  0.00  0.00     0.077 C 
ATOM      2  C1  UNL d   1      -1.737  -2.176   0.684  0.00  0.00    -0.074 A 
ATOM      3  C2  UNL d   1      -0.762  -3.072   0.234  0.00  0.00    -0.005 A 
ATOM      4  C3  UNL d   1       0.457  -2.600  -0.252  0.00  0.00     0.006 A 
ATOM      5  C4  UNL d   1       0.713  -1.229  -0.293  0.00  0.00    -0.005 A 
ATOM      6  C5  UNL d   1      -0.250  -0.318   0.152  0.00  0.00    -0.074 A 
ATOM      7  C6  UNL d   1       0.006   1.160   0.105  0.00  0.00     0.077 C 
ATOM      8  C7  UNL d   1      -1.475  -0.800   0.632  0.00  0.00    -0.001 A 
ENDROOT
TORSDOF 0
ENDMDL
