MODEL 1
REMARK minimizedAffinity -4.56541109
REMARK minimizedRMSD -1
REMARK  0 active torsions:
REMARK  status: ('A' for Active; 'I' for Inactive)
ROOT
ATOM      1  C   UNL d   1      -2.756  -2.508   1.019  0.00  0.00     0.077 C 
ATOM      2  C1  UNL d   1      -1.374  -2.082   0.622  0.00  0.00    -0.074 A 
ATOM      3  C2  UNL d   1      -0.388  -3.028   0.325  0.00  0.00    -0.005 A 
ATOM      4  C3  UNL d   1       0.891  -2.616  -0.052  0.00  0.00     0.006 A 
ATOM      5  C4  UNL d   1       1.195  -1.257  -0.134  0.00  0.00    -0.005 A 
ATOM      6  C5  UNL d   1       0.222  -0.297   0.159  0.00  0.00    -0.074 A 
ATOM      7  C6  UNL d   1       0.530   1.168   0.066  0.00  0.00     0.077 C 
ATOM      8  C7  UNL d   1      -1.062  -0.718   0.530  0.00  0.00    -0.001 A 
ENDROOT
TORSDOF 0
ENDMDL
