MODEL 1
REMARK minimizedAffinity -4.06440067
REMARK minimizedRMSD -1
REMARK  0 active torsions:
REMARK  status: ('A' for Active; 'I' for Inactive)
ROOT
ATOM      1  C   UNL d   1      -2.961  -2.380   1.300  0.00  0.00     0.077 C 
ATOM      2  C1  UNL d   1      -1.566  -2.065   0.848  0.00  0.00    -0.074 A 
ATOM      3  C2  UNL d   1      -0.655  -3.086   0.560  0.00  0.00    -0.005 A 
ATOM      4  C3  UNL d   1       0.636  -2.778   0.131  0.00  0.00     0.006 A 
ATOM      5  C4  UNL d   1       1.029  -1.446  -0.013  0.00  0.00    -0.005 A 
ATOM      6  C5  UNL d   1       0.132  -0.412   0.270  0.00  0.00    -0.074 A 
ATOM      7  C6  UNL d   1       0.535   1.024   0.110  0.00  0.00     0.077 C 
ATOM      8  C7  UNL d   1      -1.166  -0.730   0.693  0.00  0.00    -0.001 A 
ENDROOT
TORSDOF 0
ENDMDL
