MODEL 1
REMARK minimizedAffinity -1.9217236
REMARK minimizedRMSD -1
REMARK  0 active torsions:
REMARK  status: ('A' for Active; 'I' for Inactive)
ROOT
ATOM      1  C   UNL d   1       0.516  -4.186   1.058  0.00  0.00     0.077 C 
ATOM      2  C1  UNL d   1       0.108  -2.774   0.758  0.00  0.00    -0.074 A 
ATOM      3  C2  UNL d   1       0.997  -1.884   0.148  0.00  0.00    -0.005 A 
ATOM      4  C3  UNL d   1       0.600  -0.577  -0.134  0.00  0.00     0.006 A 
ATOM      5  C4  UNL d   1      -0.687  -0.147   0.192  0.00  0.00    -0.005 A 
ATOM      6  C5  UNL d   1      -1.590  -1.024   0.802  0.00  0.00    -0.074 A 
ATOM      7  C6  UNL d   1      -2.980  -0.581   1.150  0.00  0.00     0.077 C 
ATOM      8  C7  UNL d   1      -1.186  -2.338   1.075  0.00  0.00    -0.001 A 
ENDROOT
TORSDOF 0
ENDMDL
