MODEL 1
REMARK minimizedAffinity -4.98085356
REMARK minimizedRMSD -1
REMARK  0 active torsions:
REMARK  status: ('A' for Active; 'I' for Inactive)
ROOT
ATOM      1  C   UNL d   1      -2.261  -1.900   2.263  0.00  0.00     0.077 C 
ATOM      2  C1  UNL d   1      -1.127  -1.719   1.298  0.00  0.00    -0.074 A 
ATOM      3  C2  UNL d   1      -0.245  -2.768   1.020  0.00  0.00    -0.005 A 
ATOM      4  C3  UNL d   1       0.799  -2.588   0.113  0.00  0.00     0.006 A 
ATOM      5  C4  UNL d   1       0.972  -1.358  -0.524  0.00  0.00    -0.005 A 
ATOM      6  C5  UNL d   1       0.099  -0.298  -0.260  0.00  0.00    -0.074 A 
ATOM      7  C6  UNL d   1       0.264   1.027  -0.943  0.00  0.00     0.077 C 
ATOM      8  C7  UNL d   1      -0.952  -0.489   0.648  0.00  0.00    -0.001 A 
ENDROOT
TORSDOF 0
ENDMDL
