MODEL 1
REMARK minimizedAffinity -4.89143085
REMARK minimizedRMSD -1
REMARK  0 active torsions:
REMARK  status: ('A' for Active; 'I' for Inactive)
ROOT
ATOM      1  C   UNL d   1      -1.860  -1.123   2.641  0.00  0.00     0.077 C 
ATOM      2  C1  UNL d   1      -0.867  -1.187   1.519  0.00  0.00    -0.074 A 
ATOM      3  C2  UNL d   1       0.012  -2.268   1.397  0.00  0.00    -0.005 A 
ATOM      4  C3  UNL d   1       0.924  -2.318   0.342  0.00  0.00     0.006 A 
ATOM      5  C4  UNL d   1       0.965  -1.289  -0.600  0.00  0.00    -0.005 A 
ATOM      6  C5  UNL d   1       0.093  -0.201  -0.495  0.00  0.00    -0.074 A 
ATOM      7  C6  UNL d   1       0.117   0.908  -1.505  0.00  0.00     0.077 C 
ATOM      8  C7  UNL d   1      -0.825  -0.162   0.564  0.00  0.00    -0.001 A 
ENDROOT
TORSDOF 0
ENDMDL
