MODEL 1
REMARK minimizedAffinity -0.265938669
REMARK minimizedRMSD -1
REMARK  0 active torsions:
REMARK  status: ('A' for Active; 'I' for Inactive)
ROOT
ATOM      1  C   UNL d   1       2.576  -4.883  -4.834  0.00  0.00     0.172 C 
ATOM      2  N   UNL d   1       1.202  -5.278  -4.633  0.00  0.00    -0.070 N 
ATOM      3  C1  UNL d   1       0.536  -5.272  -3.437  0.00  0.00    -0.004 A 
ATOM      4  C2  UNL d   1      -0.749  -5.715  -3.666  0.00  0.00    -0.047 A 
ATOM      5  C3  UNL d   1      -0.858  -5.998  -5.049  0.00  0.00    -0.047 A 
ATOM      6  C4  UNL d   1       0.364  -5.719  -5.623  0.00  0.00    -0.004 A 
ENDROOT
TORSDOF 0
ENDMDL
