MODEL 1
REMARK minimizedAffinity 0.313621432
REMARK minimizedRMSD -1
REMARK  0 active torsions:
REMARK  status: ('A' for Active; 'I' for Inactive)
ROOT
ATOM      1  C   UNL d   1      -2.083  -5.995  -3.468  0.00  0.00     0.172 C 
ATOM      2  N   UNL d   1      -0.729  -5.996  -3.972  0.00  0.00    -0.070 N 
ATOM      3  C1  UNL d   1      -0.369  -5.994  -5.293  0.00  0.00    -0.004 A 
ATOM      4  C2  UNL d   1       1.008  -5.995  -5.354  0.00  0.00    -0.047 A 
ATOM      5  C3  UNL d   1       1.492  -5.999  -4.024  0.00  0.00    -0.047 A 
ATOM      6  C4  UNL d   1       0.395  -6.000  -3.189  0.00  0.00    -0.004 A 
ENDROOT
TORSDOF 0
ENDMDL
