MODEL 1
REMARK minimizedAffinity 2.6085639
REMARK minimizedRMSD -1
REMARK  0 active torsions:
REMARK  status: ('A' for Active; 'I' for Inactive)
ROOT
ATOM      1  C   UNL d   1       2.605  -5.992  -5.946  0.00  0.00     0.172 C 
ATOM      2  N   UNL d   1       1.299  -5.969  -5.332  0.00  0.00    -0.070 N 
ATOM      3  C1  UNL d   1       0.104  -5.924  -5.999  0.00  0.00    -0.004 A 
ATOM      4  C2  UNL d   1      -0.904  -5.916  -5.059  0.00  0.00    -0.047 A 
ATOM      5  C3  UNL d   1      -0.293  -5.956  -3.783  0.00  0.00    -0.047 A 
ATOM      6  C4  UNL d   1       1.071  -5.988  -3.981  0.00  0.00    -0.004 A 
ENDROOT
TORSDOF 0
ENDMDL
