MODEL 1
REMARK minimizedAffinity -0.0565506741
REMARK minimizedRMSD -1
REMARK  0 active torsions:
REMARK  status: ('A' for Active; 'I' for Inactive)
ROOT
ATOM      1  C   UNL d   1      -2.985  -5.998  -2.390  0.00  0.00     0.172 C 
ATOM      2  N   UNL d   1      -1.736  -5.787  -3.083  0.00  0.00    -0.070 N 
ATOM      3  C1  UNL d   1      -0.487  -6.000  -2.562  0.00  0.00    -0.004 A 
ATOM      4  C2  UNL d   1       0.436  -5.684  -3.535  0.00  0.00    -0.047 A 
ATOM      5  C3  UNL d   1      -0.282  -5.266  -4.681  0.00  0.00    -0.047 A 
ATOM      6  C4  UNL d   1      -1.625  -5.339  -4.373  0.00  0.00    -0.004 A 
ENDROOT
TORSDOF 0
ENDMDL
