MODEL 1
REMARK minimizedAffinity -0.108575359
REMARK minimizedRMSD -1
REMARK  0 active torsions:
REMARK  status: ('A' for Active; 'I' for Inactive)
ROOT
ATOM      1  C   UNL d   1      -2.398  -5.997  -3.002  0.00  0.00     0.172 C 
ATOM      2  N   UNL d   1      -1.199  -5.998  -3.807  0.00  0.00    -0.070 N 
ATOM      3  C1  UNL d   1      -1.158  -5.998  -5.176  0.00  0.00    -0.004 A 
ATOM      4  C2  UNL d   1       0.167  -5.999  -5.558  0.00  0.00    -0.047 A 
ATOM      5  C3  UNL d   1       0.948  -6.000  -4.378  0.00  0.00    -0.047 A 
ATOM      6  C4  UNL d   1       0.077  -5.999  -3.309  0.00  0.00    -0.004 A 
ENDROOT
TORSDOF 0
ENDMDL
