MODEL 1
REMARK minimizedAffinity -0.86496067
REMARK minimizedRMSD -1
REMARK  0 active torsions:
REMARK  status: ('A' for Active; 'I' for Inactive)
ROOT
ATOM      1  C   UNL d   1      -3.214  -5.997  -3.467  0.00  0.00     0.172 C 
ATOM      2  N   UNL d   1      -1.859  -5.970  -3.966  0.00  0.00    -0.070 N 
ATOM      3  C1  UNL d   1      -1.496  -5.912  -5.285  0.00  0.00    -0.004 A 
ATOM      4  C2  UNL d   1      -0.119  -5.903  -5.344  0.00  0.00    -0.047 A 
ATOM      5  C3  UNL d   1       0.362  -5.959  -4.014  0.00  0.00    -0.047 A 
ATOM      6  C4  UNL d   1      -0.737  -5.999  -3.182  0.00  0.00    -0.004 A 
ENDROOT
TORSDOF 0
ENDMDL
