MODEL 1
REMARK minimizedAffinity -1.82609808
REMARK minimizedRMSD -1
REMARK  0 active torsions:
REMARK  status: ('A' for Active; 'I' for Inactive)
ROOT
ATOM      1  C   UNL d   1      -3.442  -5.998  -2.947  0.00  0.00     0.172 C 
ATOM      2  N   UNL d   1      -2.025  -5.997  -3.225  0.00  0.00    -0.070 N 
ATOM      3  C1  UNL d   1      -1.027  -5.994  -2.288  0.00  0.00    -0.004 A 
ATOM      4  C2  UNL d   1       0.179  -5.995  -2.955  0.00  0.00    -0.047 A 
ATOM      5  C3  UNL d   1      -0.105  -5.999  -4.341  0.00  0.00    -0.047 A 
ATOM      6  C4  UNL d   1      -1.477  -6.000  -4.480  0.00  0.00    -0.004 A 
ENDROOT
TORSDOF 0
ENDMDL
