MODEL 1
REMARK minimizedAffinity -2.50268722
REMARK minimizedRMSD -1
REMARK  0 active torsions:
REMARK  status: ('A' for Active; 'I' for Inactive)
ROOT
ATOM      1  C   UNL d   1       1.087  -5.956  -5.235  0.00  0.00     0.172 C 
ATOM      2  N   UNL d   1      -0.098  -5.963  -4.410  0.00  0.00    -0.070 N 
ATOM      3  C1  UNL d   1      -1.388  -5.932  -4.866  0.00  0.00    -0.004 A 
ATOM      4  C2  UNL d   1      -2.224  -5.951  -3.770  0.00  0.00    -0.047 A 
ATOM      5  C3  UNL d   1      -1.407  -5.994  -2.616  0.00  0.00    -0.047 A 
ATOM      6  C4  UNL d   1      -0.095  -6.000  -3.040  0.00  0.00    -0.004 A 
ENDROOT
TORSDOF 0
ENDMDL
