MODEL 1
REMARK minimizedAffinity 0.153958306
REMARK minimizedRMSD -1
REMARK  0 active torsions:
REMARK  status: ('A' for Active; 'I' for Inactive)
ROOT
ATOM      1  C   UNL d   1      -2.297  -6.000  -2.873  0.00  0.00     0.172 C 
ATOM      2  N   UNL d   1      -1.035  -5.965  -3.574  0.00  0.00    -0.070 N 
ATOM      3  C1  UNL d   1      -0.879  -5.927  -4.934  0.00  0.00    -0.004 A 
ATOM      4  C2  UNL d   1       0.473  -5.901  -5.202  0.00  0.00    -0.047 A 
ATOM      5  C3  UNL d   1       1.152  -5.925  -3.961  0.00  0.00    -0.047 A 
ATOM      6  C4  UNL d   1       0.194  -5.964  -2.970  0.00  0.00    -0.004 A 
ENDROOT
TORSDOF 0
ENDMDL
