MODEL 1
REMARK minimizedAffinity 0.570212781
REMARK minimizedRMSD -1
REMARK  0 active torsions:
REMARK  status: ('A' for Active; 'I' for Inactive)
ROOT
ATOM      1  C   UNL d   1       2.359  -5.989  -5.637  0.00  0.00     0.172 C 
ATOM      2  N   UNL d   1       1.070  -5.993  -4.985  0.00  0.00    -0.070 N 
ATOM      3  C1  UNL d   1       0.860  -5.996  -3.632  0.00  0.00    -0.004 A 
ATOM      4  C2  UNL d   1      -0.501  -5.999  -3.416  0.00  0.00    -0.047 A 
ATOM      5  C3  UNL d   1      -1.131  -5.998  -4.683  0.00  0.00    -0.047 A 
ATOM      6  C4  UNL d   1      -0.135  -5.995  -5.637  0.00  0.00    -0.004 A 
ENDROOT
TORSDOF 0
ENDMDL
