MODEL 1
REMARK minimizedAffinity 3.41484594
REMARK minimizedRMSD -1
REMARK  0 active torsions:
REMARK  status: ('A' for Active; 'I' for Inactive)
ROOT
ATOM      1  C   UNL d   1       0.850   0.403   1.150  0.00  0.00     0.172 C 
ATOM      2  N   UNL d   1       2.205   0.264   0.669  0.00  0.00    -0.070 N 
ATOM      3  C1  UNL d   1       2.626   0.505  -0.612  0.00  0.00    -0.004 A 
ATOM      4  C2  UNL d   1       3.981   0.259  -0.664  0.00  0.00    -0.047 A 
ATOM      5  C3  UNL d   1       4.388  -0.145   0.630  0.00  0.00    -0.047 A 
ATOM      6  C4  UNL d   1       3.269  -0.133   1.435  0.00  0.00    -0.004 A 
ENDROOT
TORSDOF 0
ENDMDL
