MODEL 1
REMARK minimizedAffinity 5.02398157
REMARK minimizedRMSD -1
REMARK  0 active torsions:
REMARK  status: ('A' for Active; 'I' for Inactive)
ROOT
ATOM      1  C   UNL d   1      -3.471  -6.000  -3.023  0.00  0.00     0.172 C 
ATOM      2  N   UNL d   1      -2.406  -5.993  -3.999  0.00  0.00    -0.070 N 
ATOM      3  C1  UNL d   1      -2.570  -5.987  -5.358  0.00  0.00    -0.004 A 
ATOM      4  C2  UNL d   1      -1.318  -5.982  -5.934  0.00  0.00    -0.047 A 
ATOM      5  C3  UNL d   1      -0.369  -5.986  -4.884  0.00  0.00    -0.047 A 
ATOM      6  C4  UNL d   1      -1.070  -5.993  -3.697  0.00  0.00    -0.004 A 
ENDROOT
TORSDOF 0
ENDMDL
