MODEL 1
REMARK minimizedAffinity -0.515895903
REMARK minimizedRMSD -1
REMARK  0 active torsions:
REMARK  status: ('A' for Active; 'I' for Inactive)
ROOT
ATOM      1  C   UNL d   1       0.682   0.955   0.170  0.00  0.00     0.172 C 
ATOM      2  N   UNL d   1       0.392  -0.375   0.651  0.00  0.00    -0.070 N 
ATOM      3  C1  UNL d   1      -0.751  -1.085   0.394  0.00  0.00    -0.004 A 
ATOM      4  C2  UNL d   1      -0.643  -2.303   1.028  0.00  0.00    -0.047 A 
ATOM      5  C3  UNL d   1       0.608  -2.326   1.691  0.00  0.00    -0.047 A 
ATOM      6  C4  UNL d   1       1.227  -1.120   1.440  0.00  0.00    -0.004 A 
ENDROOT
TORSDOF 0
ENDMDL
