MODEL 1
REMARK minimizedAffinity 20.2085552
REMARK minimizedRMSD -1
REMARK  2 active torsions:
REMARK  status: ('A' for Active; 'I' for Inactive)
REMARK    1  A    between atoms: C2'_3  and  C1'_4 
REMARK    2  A    between atoms: C1'_4  and  C1_5 
ROOT
ATOM      1  C1  I4B d   1      -3.667  -1.236   3.856  0.00  0.00    -0.075 A 
ATOM      2  C2  I4B d   1      -4.665  -1.492   2.950  0.00  0.00     0.003 A 
ATOM      3  C3  I4B d   1      -5.650  -2.470   3.231  0.00  0.00     0.002 A 
ATOM      4  C4  I4B d   1      -5.569  -3.199   4.401  0.00  0.00    -0.004 A 
ATOM      5  C5  I4B d   1      -4.570  -2.921   5.329  0.00  0.00     0.002 A 
ATOM      6  C6  I4B d   1      -3.620  -1.925   5.061  0.00  0.00     0.003 A 
ENDROOT
BRANCH   1   7
ATOM      7  C1' I4B d   1      -2.625  -0.220   3.513  0.00  0.00     0.060 C 
BRANCH   7   8
ATOM      8  C2' I4B d   1      -2.783   0.134   2.048  0.00  0.00    -0.013 C 
ATOM      9  C4' I4B d   1      -3.442   1.477   1.879  0.00  0.00     0.013 C 
ATOM     10  C3' I4B d   1      -1.422   0.115   1.418  0.00  0.00     0.013 C 
ENDBRANCH   7   8
ENDBRANCH   1   7
TORSDOF 2
ENDMDL
