MODEL 1
REMARK minimizedAffinity 6.491611
REMARK minimizedRMSD -1
REMARK  2 active torsions:
REMARK  status: ('A' for Active; 'I' for Inactive)
REMARK    1  A    between atoms: C2'_3  and  C1'_4 
REMARK    2  A    between atoms: C1'_4  and  C1_5 
ROOT
ATOM      1  C1  I4B d   1       3.087   1.531  -3.695  0.00  0.00    -0.075 A 
ATOM      2  C2  I4B d   1       2.935   0.529  -4.621  0.00  0.00     0.003 A 
ATOM      3  C3  I4B d   1       2.033  -0.535  -4.378  0.00  0.00     0.002 A 
ATOM      4  C4  I4B d   1       1.346  -0.584  -3.182  0.00  0.00    -0.004 A 
ATOM      5  C5  I4B d   1       1.484   0.445  -2.254  0.00  0.00     0.002 A 
ATOM      6  C6  I4B d   1       2.351   1.516  -2.517  0.00  0.00     0.003 A 
ENDROOT
BRANCH   1   7
ATOM      7  C1' I4B d   1       4.073   2.623  -3.969  0.00  0.00     0.060 C 
BRANCH   7   8
ATOM      8  C2' I4B d   1       4.242   2.732  -5.471  0.00  0.00    -0.013 C 
ATOM      9  C4' I4B d   1       3.619   3.997  -5.999  0.00  0.00     0.013 C 
ATOM     10  C3' I4B d   1       5.710   2.683  -5.776  0.00  0.00     0.013 C 
ENDBRANCH   7   8
ENDBRANCH   1   7
TORSDOF 2
ENDMDL
