MODEL 1
REMARK minimizedAffinity 19.4289474
REMARK minimizedRMSD -1
REMARK  2 active torsions:
REMARK  status: ('A' for Active; 'I' for Inactive)
REMARK    1  A    between atoms: C2'_3  and  C1'_4 
REMARK    2  A    between atoms: C1'_4  and  C1_5 
ROOT
ATOM      1  C1  I4B d   1      -4.450  -3.467   1.094  0.00  0.00    -0.075 A 
ATOM      2  C2  I4B d   1      -5.636  -3.641   1.761  0.00  0.00     0.003 A 
ATOM      3  C3  I4B d   1      -6.000  -4.921   2.246  0.00  0.00     0.002 A 
ATOM      4  C4  I4B d   1      -5.176  -6.000   2.000  0.00  0.00    -0.004 A 
ATOM      5  C5  I4B d   1      -3.963  -5.817   1.344  0.00  0.00     0.002 A 
ATOM      6  C6  I4B d   1      -3.591  -4.540   0.899  0.00  0.00     0.003 A 
ENDROOT
BRANCH   1   7
ATOM      7  C1' I4B d   1      -4.112  -2.108   0.566  0.00  0.00     0.060 C 
BRANCH   7   8
ATOM      8  C2' I4B d   1      -3.471  -1.317   1.689  0.00  0.00    -0.013 C 
ATOM      9  C4' I4B d   1      -2.261  -0.565   1.203  0.00  0.00     0.013 C 
ATOM     10  C3' I4B d   1      -4.504  -0.381   2.244  0.00  0.00     0.013 C 
ENDBRANCH   7   8
ENDBRANCH   1   7
TORSDOF 2
ENDMDL
