MODEL 1
REMARK minimizedAffinity 10.9354372
REMARK minimizedRMSD -1
REMARK  2 active torsions:
REMARK  status: ('A' for Active; 'I' for Inactive)
REMARK    1  A    between atoms: C2'_3  and  C1'_4 
REMARK    2  A    between atoms: C1'_4  and  C1_5 
ROOT
ATOM      1  C1  I4B d   1      -0.505  -1.001  -5.168  0.00  0.00    -0.075 A 
ATOM      2  C2  I4B d   1       0.053  -2.204  -5.522  0.00  0.00     0.003 A 
ATOM      3  C3  I4B d   1      -0.768  -3.267  -5.969  0.00  0.00     0.002 A 
ATOM      4  C4  I4B d   1      -2.138  -3.102  -5.997  0.00  0.00    -0.004 A 
ATOM      5  C5  I4B d   1      -2.701  -1.875  -5.660  0.00  0.00     0.002 A 
ATOM      6  C6  I4B d   1      -1.879  -0.813  -5.254  0.00  0.00     0.003 A 
ENDROOT
BRANCH   1   7
ATOM      7  C1' I4B d   1       0.388   0.089  -4.669  0.00  0.00     0.060 C 
BRANCH   7   8
ATOM      8  C2' I4B d   1       1.487  -0.548  -3.843  0.00  0.00    -0.013 C 
ATOM      9  C4' I4B d   1       2.836  -0.344  -4.481  0.00  0.00     0.013 C 
ATOM     10  C3' I4B d   1       1.441   0.050  -2.469  0.00  0.00     0.013 C 
ENDBRANCH   7   8
ENDBRANCH   1   7
TORSDOF 2
ENDMDL
