MODEL 1
REMARK minimizedAffinity 10.1163235
REMARK minimizedRMSD -1
REMARK  2 active torsions:
REMARK  status: ('A' for Active; 'I' for Inactive)
REMARK    1  A    between atoms: C2'_3  and  C1'_4 
REMARK    2  A    between atoms: C1'_4  and  C1_5 
ROOT
ATOM      1  C1  I4B d   1      -1.124   1.346   2.140  0.00  0.00    -0.075 A 
ATOM      2  C2  I4B d   1      -1.762   2.512   1.797  0.00  0.00     0.003 A 
ATOM      3  C3  I4B d   1      -3.174   2.594   1.848  0.00  0.00     0.002 A 
ATOM      4  C4  I4B d   1      -3.908   1.479   2.198  0.00  0.00    -0.004 A 
ATOM      5  C5  I4B d   1      -3.259   0.304   2.568  0.00  0.00     0.002 A 
ATOM      6  C6  I4B d   1      -1.858   0.240   2.551  0.00  0.00     0.003 A 
ENDROOT
BRANCH   1   7
ATOM      7  C1' I4B d   1       0.367   1.284   2.043  0.00  0.00     0.060 C 
BRANCH   7   8
ATOM      8  C2' I4B d   1       0.899   2.700   2.122  0.00  0.00    -0.013 C 
ATOM      9  C4' I4B d   1       1.507   2.979   3.472  0.00  0.00     0.013 C 
ATOM     10  C3' I4B d   1       1.907   2.878   1.027  0.00  0.00     0.013 C 
ENDBRANCH   7   8
ENDBRANCH   1   7
TORSDOF 2
ENDMDL
