MODEL 1
REMARK minimizedAffinity 15.0674086
REMARK minimizedRMSD -1
REMARK  2 active torsions:
REMARK  status: ('A' for Active; 'I' for Inactive)
REMARK    1  A    between atoms: C2'_3  and  C1'_4 
REMARK    2  A    between atoms: C1'_4  and  C1_5 
ROOT
ATOM      1  C1  I4B d   1       2.596   2.148  -2.997  0.00  0.00    -0.075 A 
ATOM      2  C2  I4B d   1       1.718   1.749  -2.021  0.00  0.00     0.003 A 
ATOM      3  C3  I4B d   1       1.118   0.467  -2.082  0.00  0.00     0.002 A 
ATOM      4  C4  I4B d   1       1.385  -0.357  -3.157  0.00  0.00    -0.004 A 
ATOM      5  C5  I4B d   1       2.293   0.041  -4.134  0.00  0.00     0.002 A 
ATOM      6  C6  I4B d   1       2.912   1.297  -4.047  0.00  0.00     0.003 A 
ENDROOT
BRANCH   1   7
ATOM      7  C1' I4B d   1       3.185   3.521  -2.918  0.00  0.00     0.060 C 
BRANCH   7   8
ATOM      8  C2' I4B d   1       3.548   3.955  -4.324  0.00  0.00    -0.013 C 
ATOM      9  C4' I4B d   1       2.740   5.153  -4.750  0.00  0.00     0.013 C 
ATOM     10  C3' I4B d   1       5.017   4.255  -4.351  0.00  0.00     0.013 C 
ENDBRANCH   7   8
ENDBRANCH   1   7
TORSDOF 2
ENDMDL
