MODEL 1
REMARK minimizedAffinity 11.7846346
REMARK minimizedRMSD -1
REMARK  2 active torsions:
REMARK  status: ('A' for Active; 'I' for Inactive)
REMARK    1  A    between atoms: C2'_3  and  C1'_4 
REMARK    2  A    between atoms: C1'_4  and  C1_5 
ROOT
ATOM      1  C1  I4B d   1      -2.243  -0.913   0.895  0.00  0.00    -0.075 A 
ATOM      2  C2  I4B d   1      -1.241  -1.848   0.812  0.00  0.00     0.003 A 
ATOM      3  C3  I4B d   1      -1.496  -3.117   0.240  0.00  0.00     0.002 A 
ATOM      4  C4  I4B d   1      -2.771  -3.426  -0.188  0.00  0.00    -0.004 A 
ATOM      5  C5  I4B d   1      -3.780  -2.470  -0.123  0.00  0.00     0.002 A 
ATOM      6  C6  I4B d   1      -3.512  -1.201   0.410  0.00  0.00     0.003 A 
ENDROOT
BRANCH   1   7
ATOM      7  C1' I4B d   1      -1.947   0.406   1.535  0.00  0.00     0.060 C 
BRANCH   7   8
ATOM      8  C2' I4B d   1      -0.725   0.235   2.414  0.00  0.00    -0.013 C 
ATOM      9  C4' I4B d   1      -0.097   1.564   2.740  0.00  0.00     0.013 C 
ATOM     10  C3' I4B d   1      -1.147  -0.485   3.660  0.00  0.00     0.013 C 
ENDBRANCH   7   8
ENDBRANCH   1   7
TORSDOF 2
ENDMDL
