MODEL 1
REMARK minimizedAffinity 18.3719749
REMARK minimizedRMSD -1
REMARK  2 active torsions:
REMARK  status: ('A' for Active; 'I' for Inactive)
REMARK    1  A    between atoms: C2'_3  and  C1'_4 
REMARK    2  A    between atoms: C1'_4  and  C1_5 
ROOT
ATOM      1  C1  I4B d   1      -2.267  -1.542   1.590  0.00  0.00    -0.075 A 
ATOM      2  C2  I4B d   1      -1.252  -2.389   1.223  0.00  0.00     0.003 A 
ATOM      3  C3  I4B d   1      -1.498  -3.442   0.309  0.00  0.00     0.002 A 
ATOM      4  C4  I4B d   1      -2.777  -3.641  -0.170  0.00  0.00    -0.004 A 
ATOM      5  C5  I4B d   1      -3.800  -2.767   0.186  0.00  0.00     0.002 A 
ATOM      6  C6  I4B d   1      -3.541  -1.703   1.062  0.00  0.00     0.003 A 
ENDROOT
BRANCH   1   7
ATOM      7  C1' I4B d   1      -1.979  -0.460   2.583  0.00  0.00     0.060 C 
BRANCH   7   8
ATOM      8  C2' I4B d   1      -1.800   0.837   1.821  0.00  0.00    -0.013 C 
ATOM      9  C4' I4B d   1      -2.848   1.847   2.210  0.00  0.00     0.013 C 
ATOM     10  C3' I4B d   1      -0.420   1.353   2.102  0.00  0.00     0.013 C 
ENDBRANCH   7   8
ENDBRANCH   1   7
TORSDOF 2
ENDMDL
