MODEL 1
REMARK minimizedAffinity 12.815815
REMARK minimizedRMSD -1
REMARK  2 active torsions:
REMARK  status: ('A' for Active; 'I' for Inactive)
REMARK    1  A    between atoms: C2'_3  and  C1'_4 
REMARK    2  A    between atoms: C1'_4  and  C1_5 
ROOT
ATOM      1  C1  I4B d   1      -2.613  -0.441   2.668  0.00  0.00    -0.075 A 
ATOM      2  C2  I4B d   1      -1.302  -0.571   2.283  0.00  0.00     0.003 A 
ATOM      3  C3  I4B d   1      -0.733   0.348   1.368  0.00  0.00     0.002 A 
ATOM      4  C4  I4B d   1      -1.520   1.344   0.828  0.00  0.00    -0.004 A 
ATOM      5  C5  I4B d   1      -2.842   1.489   1.236  0.00  0.00     0.002 A 
ATOM      6  C6  I4B d   1      -3.390   0.598   2.171  0.00  0.00     0.003 A 
ENDROOT
BRANCH   1   7
ATOM      7  C1' I4B d   1      -3.191  -1.448   3.610  0.00  0.00     0.060 C 
BRANCH   7   8
ATOM      8  C2' I4B d   1      -2.669  -1.141   4.999  0.00  0.00    -0.013 C 
ATOM      9  C4' I4B d   1      -3.793  -1.065   5.999  0.00  0.00     0.013 C 
ATOM     10  C3' I4B d   1      -1.685  -2.209   5.371  0.00  0.00     0.013 C 
ENDBRANCH   7   8
ENDBRANCH   1   7
TORSDOF 2
ENDMDL
