MODEL 1
REMARK minimizedAffinity 6.99393749
REMARK minimizedRMSD -1
REMARK  2 active torsions:
REMARK  status: ('A' for Active; 'I' for Inactive)
REMARK    1  A    between atoms: C2'_3  and  C1'_4 
REMARK    2  A    between atoms: C1'_4  and  C1_5 
ROOT
ATOM      1  C1  I4B d   1       2.792   2.700  -3.211  0.00  0.00    -0.075 A 
ATOM      2  C2  I4B d   1       3.517   3.105  -4.304  0.00  0.00     0.003 A 
ATOM      3  C3  I4B d   1       3.534   4.469  -4.682  0.00  0.00     0.002 A 
ATOM      4  C4  I4B d   1       2.775   5.380  -3.975  0.00  0.00    -0.004 A 
ATOM      5  C5  I4B d   1       2.059   4.971  -2.854  0.00  0.00     0.002 A 
ATOM      6  C6  I4B d   1       2.076   3.625  -2.462  0.00  0.00     0.003 A 
ENDROOT
BRANCH   1   7
ATOM      7  C1' I4B d   1       2.770   1.246  -2.859  0.00  0.00     0.060 C 
BRANCH   7   8
ATOM      8  C2' I4B d   1       2.055   0.507  -3.972  0.00  0.00    -0.013 C 
ATOM      9  C4' I4B d   1       3.031  -0.226  -4.854  0.00  0.00     0.013 C 
ATOM     10  C3' I4B d   1       1.076  -0.439  -3.344  0.00  0.00     0.013 C 
ENDBRANCH   7   8
ENDBRANCH   1   7
TORSDOF 2
ENDMDL
