MODEL 1
REMARK minimizedAffinity 10.3195105
REMARK minimizedRMSD -1
REMARK  2 active torsions:
REMARK  status: ('A' for Active; 'I' for Inactive)
REMARK    1  A    between atoms: C2'_3  and  C1'_4 
REMARK    2  A    between atoms: C1'_4  and  C1_5 
ROOT
ATOM      1  C1  I4B d   1       3.076   1.245  -5.227  0.00  0.00    -0.075 A 
ATOM      2  C2  I4B d   1       3.025   1.299  -3.857  0.00  0.00     0.003 A 
ATOM      3  C3  I4B d   1       2.634   0.159  -3.113  0.00  0.00     0.002 A 
ATOM      4  C4  I4B d   1       2.257  -0.990  -3.778  0.00  0.00    -0.004 A 
ATOM      5  C5  I4B d   1       2.332  -1.050  -5.166  0.00  0.00     0.002 A 
ATOM      6  C6  I4B d   1       2.756   0.070  -5.895  0.00  0.00     0.003 A 
ENDROOT
BRANCH   1   7
ATOM      7  C1' I4B d   1       3.461   2.477  -5.983  0.00  0.00     0.060 C 
BRANCH   7   8
ATOM      8  C2' I4B d   1       4.243   3.375  -5.045  0.00  0.00    -0.013 C 
ATOM      9  C4' I4B d   1       5.699   3.427  -5.427  0.00  0.00     0.013 C 
ATOM     10  C3' I4B d   1       3.623   4.739  -5.086  0.00  0.00     0.013 C 
ENDBRANCH   7   8
ENDBRANCH   1   7
TORSDOF 2
ENDMDL
