MODEL 1
REMARK minimizedAffinity 16.1165962
REMARK minimizedRMSD -1
REMARK  2 active torsions:
REMARK  status: ('A' for Active; 'I' for Inactive)
REMARK    1  A    between atoms: C2'_3  and  C1'_4 
REMARK    2  A    between atoms: C1'_4  and  C1_5 
ROOT
ATOM      1  C1  I4B d   1      -0.688   1.029  -0.213  0.00  0.00    -0.075 A 
ATOM      2  C2  I4B d   1       0.127   0.480   0.745  0.00  0.00     0.003 A 
ATOM      3  C3  I4B d   1      -0.397   0.137   2.015  0.00  0.00     0.002 A 
ATOM      4  C4  I4B d   1      -1.721   0.405   2.299  0.00  0.00    -0.004 A 
ATOM      5  C5  I4B d   1      -2.551   0.941   1.319  0.00  0.00     0.002 A 
ATOM      6  C6  I4B d   1      -2.035   1.244   0.050  0.00  0.00     0.003 A 
ENDROOT
BRANCH   1   7
ATOM      7  C1' I4B d   1      -0.094   1.410  -1.533  0.00  0.00     0.060 C 
BRANCH   7   8
ATOM      8  C2' I4B d   1       1.387   1.096  -1.486  0.00  0.00    -0.013 C 
ATOM      9  C4' I4B d   1       1.783   0.166  -2.602  0.00  0.00     0.013 C 
ATOM     10  C3' I4B d   1       2.138   2.391  -1.568  0.00  0.00     0.013 C 
ENDBRANCH   7   8
ENDBRANCH   1   7
TORSDOF 2
ENDMDL
