MODEL 1
REMARK minimizedAffinity 6.39552784
REMARK minimizedRMSD -1
REMARK  2 active torsions:
REMARK  status: ('A' for Active; 'I' for Inactive)
REMARK    1  A    between atoms: C2'_3  and  C1'_4 
REMARK    2  A    between atoms: C1'_4  and  C1_5 
ROOT
ATOM      1  C1  I4B d   1       3.687   1.515  -5.471  0.00  0.00    -0.075 A 
ATOM      2  C2  I4B d   1       2.719   1.076  -4.602  0.00  0.00     0.003 A 
ATOM      3  C3  I4B d   1       2.649  -0.292  -4.245  0.00  0.00     0.002 A 
ATOM      4  C4  I4B d   1       3.529  -1.189  -4.816  0.00  0.00    -0.004 A 
ATOM      5  C5  I4B d   1       4.524  -0.739  -5.679  0.00  0.00     0.002 A 
ATOM      6  C6  I4B d   1       4.611   0.623  -6.000  0.00  0.00     0.003 A 
ENDROOT
BRANCH   1   7
ATOM      7  C1' I4B d   1       3.711   2.961  -5.852  0.00  0.00     0.060 C 
BRANCH   7   8
ATOM      8  C2' I4B d   1       4.363   3.731  -4.722  0.00  0.00    -0.013 C 
ATOM      9  C4' I4B d   1       5.765   4.146  -5.082  0.00  0.00     0.013 C 
ATOM     10  C3' I4B d   1       3.506   4.923  -4.419  0.00  0.00     0.013 C 
ENDBRANCH   7   8
ENDBRANCH   1   7
TORSDOF 2
ENDMDL
