MODEL 1
REMARK minimizedAffinity 5.7792592
REMARK minimizedRMSD -1
REMARK  2 active torsions:
REMARK  status: ('A' for Active; 'I' for Inactive)
REMARK    1  A    between atoms: C2'_3  and  C1'_4 
REMARK    2  A    between atoms: C1'_4  and  C1_5 
ROOT
ATOM      1  C1  I4B d   1      -1.817   1.696   2.017  0.00  0.00    -0.075 A 
ATOM      2  C2  I4B d   1      -1.983   2.958   2.530  0.00  0.00     0.003 A 
ATOM      3  C3  I4B d   1      -0.931   3.581   3.244  0.00  0.00     0.002 A 
ATOM      4  C4  I4B d   1       0.243   2.890   3.465  0.00  0.00    -0.004 A 
ATOM      5  C5  I4B d   1       0.418   1.619   2.924  0.00  0.00     0.002 A 
ATOM      6  C6  I4B d   1      -0.614   1.023   2.185  0.00  0.00     0.003 A 
ENDROOT
BRANCH   1   7
ATOM      7  C1' I4B d   1      -2.961   1.055   1.296  0.00  0.00     0.060 C 
BRANCH   7   8
ATOM      8  C2' I4B d   1      -3.239  -0.281   1.955  0.00  0.00    -0.013 C 
ATOM      9  C4' I4B d   1      -3.560  -0.111   3.416  0.00  0.00     0.013 C 
ATOM     10  C3' I4B d   1      -4.374  -0.931   1.223  0.00  0.00     0.013 C 
ENDBRANCH   7   8
ENDBRANCH   1   7
TORSDOF 2
ENDMDL
