MODEL 1
REMARK minimizedAffinity 0.282361358
REMARK minimizedRMSD -1
REMARK  0 active torsions:
REMARK  status: ('A' for Active; 'I' for Inactive)
ROOT
ATOM      1  C1  DEN d   1      -1.542   2.135   0.422  0.00  0.00     0.130 A 
ATOM      2  C2  DEN d   1      -1.575   2.212   1.880  0.00  0.00    -0.031 A 
ATOM      3  C3  DEN d   1      -0.744   1.116   2.414  0.00  0.00     0.027 A 
ATOM      4  C4  DEN d   1       0.589  -0.683   1.133  0.00  0.00     0.027 A 
ATOM      5  C5  DEN d   1       0.913  -1.162  -0.117  0.00  0.00    -0.003 A 
ATOM      6  C6  DEN d   1       0.419  -0.602  -1.264  0.00  0.00     0.001 A 
ATOM      7  C7  DEN d   1      -0.392   0.500  -1.187  0.00  0.00     0.017 A 
ATOM      8  C8  DEN d   1      -0.729   0.984   0.070  0.00  0.00    -0.094 A 
ATOM      9  C9  DEN d   1      -0.209   0.411   1.218  0.00  0.00    -0.072 A 
ENDROOT
TORSDOF 0
ENDMDL
