MODEL 1
REMARK minimizedAffinity -5.94930267
REMARK minimizedRMSD -1
REMARK  0 active torsions:
REMARK  status: ('A' for Active; 'I' for Inactive)
ROOT
ATOM      1  C1  DEN d   1      -0.503   2.867  -0.898  0.00  0.00     0.130 A 
ATOM      2  C2  DEN d   1      -1.091   3.893  -0.041  0.00  0.00    -0.031 A 
ATOM      3  C3  DEN d   1      -1.500   3.251   1.225  0.00  0.00     0.027 A 
ATOM      4  C4  DEN d   1      -1.275   0.783   1.939  0.00  0.00     0.027 A 
ATOM      5  C5  DEN d   1      -0.850  -0.466   1.542  0.00  0.00    -0.003 A 
ATOM      6  C6  DEN d   1      -0.315  -0.696   0.303  0.00  0.00     0.001 A 
ATOM      7  C7  DEN d   1      -0.150   0.348  -0.569  0.00  0.00     0.017 A 
ATOM      8  C8  DEN d   1      -0.583   1.608  -0.180  0.00  0.00    -0.094 A 
ATOM      9  C9  DEN d   1      -1.109   1.823   1.082  0.00  0.00    -0.072 A 
ENDROOT
TORSDOF 0
ENDMDL
