MODEL 1
REMARK minimizedAffinity -3.60939908
REMARK minimizedRMSD -1
REMARK  0 active torsions:
REMARK  status: ('A' for Active; 'I' for Inactive)
ROOT
ATOM      1  C1  DEN d   1      -0.305   0.277  -1.530  0.00  0.00     0.130 A 
ATOM      2  C2  DEN d   1       0.288   0.609  -0.238  0.00  0.00    -0.031 A 
ATOM      3  C3  DEN d   1       1.055  -0.565   0.227  0.00  0.00     0.027 A 
ATOM      4  C4  DEN d   1       1.383  -2.849  -0.925  0.00  0.00     0.027 A 
ATOM      5  C5  DEN d   1       1.063  -3.604  -2.032  0.00  0.00    -0.003 A 
ATOM      6  C6  DEN d   1       0.243  -3.135  -3.024  0.00  0.00     0.001 A 
ATOM      7  C7  DEN d   1      -0.248  -1.859  -2.951  0.00  0.00     0.017 A 
ATOM      8  C8  DEN d   1       0.064  -1.094  -1.835  0.00  0.00    -0.094 A 
ATOM      9  C9  DEN d   1       0.904  -1.581  -0.849  0.00  0.00    -0.072 A 
ENDROOT
TORSDOF 0
ENDMDL
