MODEL 1
REMARK minimizedAffinity -3.85097313
REMARK minimizedRMSD -1
REMARK  0 active torsions:
REMARK  status: ('A' for Active; 'I' for Inactive)
ROOT
ATOM      1  C1  DEN d   1      -1.216   3.166   1.207  0.00  0.00     0.130 A 
ATOM      2  C2  DEN d   1      -0.596   3.762   0.026  0.00  0.00    -0.031 A 
ATOM      3  C3  DEN d   1       0.034   2.679  -0.755  0.00  0.00     0.027 A 
ATOM      4  C4  DEN d   1       0.106   0.150  -0.256  0.00  0.00     0.027 A 
ATOM      5  C5  DEN d   1      -0.270  -0.830   0.636  0.00  0.00    -0.003 A 
ATOM      6  C6  DEN d   1      -0.953  -0.544   1.789  0.00  0.00     0.001 A 
ATOM      7  C7  DEN d   1      -1.320   0.748   2.058  0.00  0.00     0.017 A 
ATOM      8  C8  DEN d   1      -0.938   1.742   1.166  0.00  0.00    -0.094 A 
ATOM      9  C9  DEN d   1      -0.259   1.431   0.000  0.00  0.00    -0.072 A 
ENDROOT
TORSDOF 0
ENDMDL
