MODEL 1
REMARK minimizedAffinity -5.99749184
REMARK minimizedRMSD -1
REMARK  0 active torsions:
REMARK  status: ('A' for Active; 'I' for Inactive)
ROOT
ATOM      1  C1  DEN d   1      -2.100   1.822   0.306  0.00  0.00     0.130 A 
ATOM      2  C2  DEN d   1      -2.183   2.164   1.724  0.00  0.00    -0.031 A 
ATOM      3  C3  DEN d   1      -1.232   1.303   2.457  0.00  0.00     0.027 A 
ATOM      4  C4  DEN d   1       0.354  -0.512   1.539  0.00  0.00     0.027 A 
ATOM      5  C5  DEN d   1       0.770  -1.168   0.401  0.00  0.00    -0.003 A 
ATOM      6  C6  DEN d   1       0.239  -0.900  -0.832  0.00  0.00     0.001 A 
ATOM      7  C7  DEN d   1      -0.708   0.082  -0.965  0.00  0.00     0.017 A 
ATOM      8  C8  DEN d   1      -1.138   0.742   0.178  0.00  0.00    -0.094 A 
ATOM      9  C9  DEN d   1      -0.580   0.465   1.415  0.00  0.00    -0.072 A 
ENDROOT
TORSDOF 0
ENDMDL
