MODEL 1
REMARK minimizedAffinity -1.69156563
REMARK minimizedRMSD -1
REMARK  0 active torsions:
REMARK  status: ('A' for Active; 'I' for Inactive)
ROOT
ATOM      1  C1  DEN d   1       0.676   1.848  -1.329  0.00  0.00     0.130 A 
ATOM      2  C2  DEN d   1       1.470   0.760  -1.893  0.00  0.00    -0.031 A 
ATOM      3  C3  DEN d   1       1.258  -0.440  -1.058  0.00  0.00     0.027 A 
ATOM      4  C4  DEN d   1      -0.218  -0.717   1.039  0.00  0.00     0.027 A 
ATOM      5  C5  DEN d   1      -1.071  -0.070   1.905  0.00  0.00    -0.003 A 
ATOM      6  C6  DEN d   1      -1.373   1.260   1.775  0.00  0.00     0.001 A 
ATOM      7  C7  DEN d   1      -0.852   1.975   0.728  0.00  0.00     0.017 A 
ATOM      8  C8  DEN d   1       0.015   1.331  -0.144  0.00  0.00    -0.094 A 
ATOM      9  C9  DEN d   1       0.298  -0.017  -0.003  0.00  0.00    -0.072 A 
ENDROOT
TORSDOF 0
ENDMDL
