MODEL 1
REMARK minimizedAffinity -4.40520668
REMARK minimizedRMSD -1
REMARK  0 active torsions:
REMARK  status: ('A' for Active; 'I' for Inactive)
ROOT
ATOM      1  C1  DEN d   1       2.499  -0.770  -1.705  0.00  0.00     0.130 A 
ATOM      2  C2  DEN d   1       1.938  -0.829  -0.358  0.00  0.00    -0.031 A 
ATOM      3  C3  DEN d   1       0.778  -1.742  -0.387  0.00  0.00     0.027 A 
ATOM      4  C4  DEN d   1      -0.196  -3.067  -2.374  0.00  0.00     0.027 A 
ATOM      5  C5  DEN d   1      -0.066  -3.330  -3.720  0.00  0.00    -0.003 A 
ATOM      6  C6  DEN d   1       0.899  -2.736  -4.489  0.00  0.00     0.001 A 
ATOM      7  C7  DEN d   1       1.801  -1.884  -3.909  0.00  0.00     0.017 A 
ATOM      8  C8  DEN d   1       1.672  -1.608  -2.554  0.00  0.00    -0.094 A 
ATOM      9  C9  DEN d   1       0.697  -2.228  -1.791  0.00  0.00    -0.072 A 
ENDROOT
TORSDOF 0
ENDMDL
