MODEL 1
REMARK minimizedAffinity -5.13608265
REMARK minimizedRMSD -1
REMARK  0 active torsions:
REMARK  status: ('A' for Active; 'I' for Inactive)
ROOT
ATOM      1  C1  DEN d   1      -0.172   0.724  -1.331  0.00  0.00     0.130 A 
ATOM      2  C2  DEN d   1       0.827  -0.335  -1.205  0.00  0.00    -0.031 A 
ATOM      3  C3  DEN d   1       0.786  -0.838   0.182  0.00  0.00     0.027 A 
ATOM      4  C4  DEN d   1      -0.722  -0.090   2.136  0.00  0.00     0.027 A 
ATOM      5  C5  DEN d   1      -1.717   0.783   2.515  0.00  0.00    -0.003 A 
ATOM      6  C6  DEN d   1      -2.239   1.713   1.656  0.00  0.00     0.001 A 
ATOM      7  C7  DEN d   1      -1.800   1.761   0.359  0.00  0.00     0.017 A 
ATOM      8  C8  DEN d   1      -0.791   0.889  -0.028  0.00  0.00    -0.094 A 
ATOM      9  C9  DEN d   1      -0.284  -0.052   0.852  0.00  0.00    -0.072 A 
ENDROOT
TORSDOF 0
ENDMDL
