MODEL 1
REMARK minimizedAffinity -4.33238745
REMARK minimizedRMSD -1
REMARK  0 active torsions:
REMARK  status: ('A' for Active; 'I' for Inactive)
ROOT
ATOM      1  C1  DEN d   1      -0.357   0.282  -1.349  0.00  0.00     0.130 A 
ATOM      2  C2  DEN d   1       0.344  -0.971  -1.087  0.00  0.00    -0.031 A 
ATOM      3  C3  DEN d   1       0.392  -1.171   0.376  0.00  0.00     0.027 A 
ATOM      4  C4  DEN d   1      -0.553   0.328   2.250  0.00  0.00     0.027 A 
ATOM      5  C5  DEN d   1      -1.221   1.502   2.518  0.00  0.00    -0.003 A 
ATOM      6  C6  DEN d   1      -1.615   2.362   1.527  0.00  0.00     0.001 A 
ATOM      7  C7  DEN d   1      -1.384   2.037   0.216  0.00  0.00     0.017 A 
ATOM      8  C8  DEN d   1      -0.704   0.859  -0.062  0.00  0.00    -0.094 A 
ATOM      9  C9  DEN d   1      -0.325  -0.003   0.953  0.00  0.00    -0.072 A 
ENDROOT
TORSDOF 0
ENDMDL
