MODEL 1
REMARK minimizedAffinity -4.14424658
REMARK minimizedRMSD -1
REMARK  0 active torsions:
REMARK  status: ('A' for Active; 'I' for Inactive)
ROOT
ATOM      1  C1  DEN d   1      -1.195   2.018  -0.237  0.00  0.00     0.130 A 
ATOM      2  C2  DEN d   1      -1.580   2.308   1.142  0.00  0.00    -0.031 A 
ATOM      3  C3  DEN d   1      -1.012   1.253   2.005  0.00  0.00     0.027 A 
ATOM      4  C4  DEN d   1       0.423  -0.786   1.345  0.00  0.00     0.027 A 
ATOM      5  C5  DEN d   1       1.000  -1.459   0.291  0.00  0.00    -0.003 A 
ATOM      6  C6  DEN d   1       0.859  -1.042  -1.006  0.00  0.00     0.001 A 
ATOM      7  C7  DEN d   1       0.160   0.105  -1.278  0.00  0.00     0.017 A 
ATOM      8  C8  DEN d   1      -0.431   0.784  -0.221  0.00  0.00    -0.094 A 
ATOM      9  C9  DEN d   1      -0.266   0.353   1.084  0.00  0.00    -0.072 A 
ENDROOT
TORSDOF 0
ENDMDL
