MODEL 1
REMARK minimizedAffinity -0.0848827511
REMARK minimizedRMSD -1
REMARK  0 active torsions:
REMARK  status: ('A' for Active; 'I' for Inactive)
ROOT
ATOM      1  C1  DEN d   1       0.707  -1.618   0.001  0.00  0.00     0.130 A 
ATOM      2  C2  DEN d   1       1.175  -1.214  -1.322  0.00  0.00    -0.031 A 
ATOM      3  C3  DEN d   1       0.720   0.170  -1.565  0.00  0.00     0.027 A 
ATOM      4  C4  DEN d   1      -0.651   1.720  -0.026  0.00  0.00     0.027 A 
ATOM      5  C5  DEN d   1      -1.288   1.816   1.192  0.00  0.00    -0.003 A 
ATOM      6  C6  DEN d   1      -1.332   0.772   2.077  0.00  0.00     0.001 A 
ATOM      7  C7  DEN d   1      -0.691  -0.401   1.776  0.00  0.00     0.017 A 
ATOM      8  C8  DEN d   1      -0.054  -0.508   0.546  0.00  0.00    -0.094 A 
ATOM      9  C9  DEN d   1      -0.009   0.564  -0.329  0.00  0.00    -0.072 A 
ENDROOT
TORSDOF 0
ENDMDL
