MODEL 1
REMARK minimizedAffinity -5.31775904
REMARK minimizedRMSD -1
REMARK  0 active torsions:
REMARK  status: ('A' for Active; 'I' for Inactive)
ROOT
ATOM      1  C1  DEN d   1      -0.822   1.917   0.302  0.00  0.00     0.130 A 
ATOM      2  C2  DEN d   1      -1.642   1.964   1.510  0.00  0.00    -0.031 A 
ATOM      3  C3  DEN d   1      -1.511   0.666   2.201  0.00  0.00     0.027 A 
ATOM      4  C4  DEN d   1      -0.123  -1.400   1.526  0.00  0.00     0.027 A 
ATOM      5  C5  DEN d   1       0.727  -1.919   0.575  0.00  0.00    -0.003 A 
ATOM      6  C6  DEN d   1       1.091  -1.215  -0.542  0.00  0.00     0.001 A 
ATOM      7  C7  DEN d   1       0.638   0.067  -0.713  0.00  0.00     0.017 A 
ATOM      8  C8  DEN d   1      -0.225   0.595   0.238  0.00  0.00    -0.094 A 
ATOM      9  C9  DEN d   1      -0.571  -0.129   1.366  0.00  0.00    -0.072 A 
ENDROOT
TORSDOF 0
ENDMDL
