MODEL 1
REMARK minimizedAffinity -2.11948514
REMARK minimizedRMSD -1
REMARK  0 active torsions:
REMARK  status: ('A' for Active; 'I' for Inactive)
ROOT
ATOM      1  C1  DEN d   1      -1.853   1.730  -0.020  0.00  0.00     0.130 A 
ATOM      2  C2  DEN d   1      -2.222   1.996   1.367  0.00  0.00    -0.031 A 
ATOM      3  C3  DEN d   1      -1.400   1.126   2.233  0.00  0.00     0.027 A 
ATOM      4  C4  DEN d   1       0.402  -0.593   1.563  0.00  0.00     0.027 A 
ATOM      5  C5  DEN d   1       1.055  -1.178   0.501  0.00  0.00    -0.003 A 
ATOM      6  C6  DEN d   1       0.764  -0.862  -0.800  0.00  0.00     0.001 A 
ATOM      7  C7  DEN d   1      -0.175   0.098  -1.071  0.00  0.00     0.017 A 
ATOM      8  C8  DEN d   1      -0.844   0.687  -0.006  0.00  0.00    -0.094 A 
ATOM      9  C9  DEN d   1      -0.527   0.362   1.302  0.00  0.00    -0.072 A 
ENDROOT
TORSDOF 0
ENDMDL
