MODEL 1
REMARK minimizedAffinity -5.78767157
REMARK minimizedRMSD -1
REMARK  0 active torsions:
REMARK  status: ('A' for Active; 'I' for Inactive)
ROOT
ATOM      1  C1  DEN d   1      -0.940   0.054   1.521  0.00  0.00     0.130 A 
ATOM      2  C2  DEN d   1      -1.808   1.227   1.575  0.00  0.00    -0.031 A 
ATOM      3  C3  DEN d   1      -1.380   2.161   0.514  0.00  0.00     0.027 A 
ATOM      4  C4  DEN d   1       0.530   1.904  -1.200  0.00  0.00     0.027 A 
ATOM      5  C5  DEN d   1       1.550   1.084  -1.629  0.00  0.00    -0.003 A 
ATOM      6  C6  DEN d   1       1.832  -0.111  -1.021  0.00  0.00     0.001 A 
ATOM      7  C7  DEN d   1       1.055  -0.541   0.022  0.00  0.00     0.017 A 
ATOM      8  C8  DEN d   1       0.029   0.283   0.464  0.00  0.00    -0.094 A 
ATOM      9  C9  DEN d   1      -0.248   1.481  -0.171  0.00  0.00    -0.072 A 
ENDROOT
TORSDOF 0
ENDMDL
