MODEL 1
REMARK minimizedAffinity -3.0529058
REMARK minimizedRMSD -1
REMARK  0 active torsions:
REMARK  status: ('A' for Active; 'I' for Inactive)
ROOT
ATOM      1  C1  DEN d   1      -1.365   1.379   2.381  0.00  0.00     0.130 A 
ATOM      2  C2  DEN d   1      -2.093   2.451   1.708  0.00  0.00    -0.031 A 
ATOM      3  C3  DEN d   1      -1.776   2.385   0.268  0.00  0.00     0.027 A 
ATOM      4  C4  DEN d   1      -0.240   0.732  -0.981  0.00  0.00     0.027 A 
ATOM      5  C5  DEN d   1       0.604  -0.347  -0.833  0.00  0.00    -0.003 A 
ATOM      6  C6  DEN d   1       0.875  -0.900   0.390  0.00  0.00     0.001 A 
ATOM      7  C7  DEN d   1       0.261  -0.405   1.510  0.00  0.00     0.017 A 
ATOM      8  C8  DEN d   1      -0.585   0.688   1.370  0.00  0.00    -0.094 A 
ATOM      9  C9  DEN d   1      -0.856   1.225   0.123  0.00  0.00    -0.072 A 
ENDROOT
TORSDOF 0
ENDMDL
