MODEL 1
REMARK minimizedAffinity 0.972673237
REMARK minimizedRMSD -1
REMARK  0 active torsions:
REMARK  status: ('A' for Active; 'I' for Inactive)
ROOT
ATOM      1  C2' OXE d   1       0.625   2.118   1.398  0.00  0.00     0.078 C 
ATOM      2  C1' OXE d   1      -0.338   1.483  -1.161  0.00  0.00     0.078 C 
ATOM      3  C1  OXE d   1       0.185   2.879  -0.933  0.00  0.00    -0.078 A 
ATOM      4  C2  OXE d   1       0.611   3.195   0.335  0.00  0.00    -0.078 A 
ATOM      5  C3  OXE d   1       1.155   4.451   0.586  0.00  0.00     0.003 A 
ATOM      6  C4  OXE d   1       1.129   5.445  -0.400  0.00  0.00    -0.002 A 
ATOM      7  C5  OXE d   1       0.663   5.156  -1.687  0.00  0.00    -0.002 A 
ATOM      8  C6  OXE d   1       0.228   3.868  -1.981  0.00  0.00     0.003 A 
ENDROOT
TORSDOF 0
ENDMDL
