MODEL 1
REMARK minimizedAffinity -3.50078297
REMARK minimizedRMSD -1
REMARK  0 active torsions:
REMARK  status: ('A' for Active; 'I' for Inactive)
ROOT
ATOM      1  C2' OXE d   1      -0.098   4.676  -1.962  0.00  0.00     0.078 C 
ATOM      2  C1' OXE d   1      -0.547   2.003  -1.230  0.00  0.00     0.078 C 
ATOM      3  C1  OXE d   1       0.247   2.868  -0.283  0.00  0.00    -0.078 A 
ATOM      4  C2  OXE d   1       0.502   4.161  -0.671  0.00  0.00    -0.078 A 
ATOM      5  C3  OXE d   1       1.182   5.017   0.190  0.00  0.00     0.003 A 
ATOM      6  C4  OXE d   1       1.742   4.531   1.378  0.00  0.00    -0.002 A 
ATOM      7  C5  OXE d   1       1.528   3.206   1.773  0.00  0.00    -0.002 A 
ATOM      8  C6  OXE d   1       0.749   2.375   0.976  0.00  0.00     0.003 A 
ENDROOT
TORSDOF 0
ENDMDL
