MODEL 1
REMARK minimizedAffinity -1.74675584
REMARK minimizedRMSD -1
REMARK  0 active torsions:
REMARK  status: ('A' for Active; 'I' for Inactive)
ROOT
ATOM      1  C2' OXE d   1       0.761   2.477   1.766  0.00  0.00     0.078 C 
ATOM      2  C1' OXE d   1      -0.384   1.273  -0.497  0.00  0.00     0.078 C 
ATOM      3  C1  OXE d   1       0.161   2.671  -0.644  0.00  0.00    -0.078 A 
ATOM      4  C2  OXE d   1       0.677   3.271   0.479  0.00  0.00    -0.078 A 
ATOM      5  C3  OXE d   1       1.243   4.539   0.386  0.00  0.00     0.003 A 
ATOM      6  C4  OXE d   1       1.152   5.270  -0.805  0.00  0.00    -0.002 A 
ATOM      7  C5  OXE d   1       0.594   4.693  -1.951  0.00  0.00    -0.002 A 
ATOM      8  C6  OXE d   1       0.134   3.382  -1.899  0.00  0.00     0.003 A 
ENDROOT
TORSDOF 0
ENDMDL
