MODEL 1
REMARK minimizedAffinity 1.59844995
REMARK minimizedRMSD -1
REMARK  0 active torsions:
REMARK  status: ('A' for Active; 'I' for Inactive)
ROOT
ATOM      1  C2' OXE d   1      -1.232   5.522  -0.202  0.00  0.00     0.078 C 
ATOM      2  C1' OXE d   1       0.914   4.962  -1.923  0.00  0.00     0.078 C 
ATOM      3  C1  OXE d   1       0.388   3.838  -1.066  0.00  0.00    -0.078 A 
ATOM      4  C2  OXE d   1      -0.631   4.133  -0.192  0.00  0.00    -0.078 A 
ATOM      5  C3  OXE d   1      -1.189   3.120   0.582  0.00  0.00     0.003 A 
ATOM      6  C4  OXE d   1      -0.621   1.840   0.593  0.00  0.00    -0.002 A 
ATOM      7  C5  OXE d   1       0.443   1.529  -0.260  0.00  0.00    -0.002 A 
ATOM      8  C6  OXE d   1       0.931   2.503  -1.124  0.00  0.00     0.003 A 
ENDROOT
TORSDOF 0
ENDMDL
