MODEL 1
REMARK minimizedAffinity 2.74951029
REMARK minimizedRMSD -1
REMARK  0 active torsions:
REMARK  status: ('A' for Active; 'I' for Inactive)
ROOT
ATOM      1  C2' OXE d   1      -1.882   5.018   0.485  0.00  0.00     0.078 C 
ATOM      2  C1' OXE d   1      -0.086   5.073  -1.672  0.00  0.00     0.078 C 
ATOM      3  C1  OXE d   1      -0.141   3.820  -0.834  0.00  0.00    -0.078 A 
ATOM      4  C2  OXE d   1      -0.988   3.819   0.247  0.00  0.00    -0.078 A 
ATOM      5  C3  OXE d   1      -1.118   2.670   1.021  0.00  0.00     0.003 A 
ATOM      6  C4  OXE d   1      -0.281   1.569   0.801  0.00  0.00    -0.002 A 
ATOM      7  C5  OXE d   1       0.618   1.564  -0.271  0.00  0.00    -0.002 A 
ATOM      8  C6  OXE d   1       0.670   2.663  -1.122  0.00  0.00     0.003 A 
ENDROOT
TORSDOF 0
ENDMDL
