MODEL 1
REMARK minimizedAffinity 5.32172251
REMARK minimizedRMSD -1
REMARK  0 active torsions:
REMARK  status: ('A' for Active; 'I' for Inactive)
ROOT
ATOM      1  C2' OXE d   1      -0.047   2.442  -1.447  0.00  0.00     0.078 C 
ATOM      2  C1' OXE d   1      -0.743   1.029   0.876  0.00  0.00     0.078 C 
ATOM      3  C1  OXE d   1       0.465   1.929   0.936  0.00  0.00    -0.078 A 
ATOM      4  C2  OXE d   1       0.826   2.581  -0.219  0.00  0.00    -0.078 A 
ATOM      5  C3  OXE d   1       1.900   3.466  -0.204  0.00  0.00     0.003 A 
ATOM      6  C4  OXE d   1       2.709   3.580   0.933  0.00  0.00    -0.002 A 
ATOM      7  C5  OXE d   1       2.382   2.895   2.108  0.00  0.00    -0.002 A 
ATOM      8  C6  OXE d   1       1.242   2.100   2.139  0.00  0.00     0.003 A 
ENDROOT
TORSDOF 0
ENDMDL
