MODEL 1
REMARK minimizedAffinity 0.727631271
REMARK minimizedRMSD -1
REMARK  0 active torsions:
REMARK  status: ('A' for Active; 'I' for Inactive)
ROOT
ATOM      1  C2' OXE d   1       0.761  -1.483   2.295  0.00  0.00     0.078 C 
ATOM      2  C1' OXE d   1       2.674  -0.382   0.561  0.00  0.00     0.078 C 
ATOM      3  C1  OXE d   1       1.449   0.441   0.870  0.00  0.00    -0.078 A 
ATOM      4  C2  OXE d   1       0.496  -0.125   1.683  0.00  0.00    -0.078 A 
ATOM      5  C3  OXE d   1      -0.628   0.612   2.044  0.00  0.00     0.003 A 
ATOM      6  C4  OXE d   1      -0.871   1.864   1.465  0.00  0.00    -0.002 A 
ATOM      7  C5  OXE d   1       0.067   2.442   0.604  0.00  0.00    -0.002 A 
ATOM      8  C6  OXE d   1       1.250   1.764   0.330  0.00  0.00     0.003 A 
ENDROOT
TORSDOF 0
ENDMDL
