MODEL 1
REMARK minimizedAffinity -1.68122435
REMARK minimizedRMSD -1
REMARK  0 active torsions:
REMARK  status: ('A' for Active; 'I' for Inactive)
ROOT
ATOM      1  C   UNL d   1      -3.445  -0.077   1.548  0.00  0.00    -0.002 A 
ATOM      2  C1  UNL d   1      -2.839   1.077   2.025  0.00  0.00     0.010 A 
ATOM      3  C2  UNL d   1      -1.548   1.422   1.620  0.00  0.00     0.041 A 
ATOM      4  C3  UNL d   1      -0.871   0.580   0.716  0.00  0.00    -0.075 A 
ATOM      5  S   UNL d   1       0.716   0.802   0.079  0.00  0.00     0.015 SA
ATOM      6  C4  UNL d   1       0.627  -0.629  -0.842  0.00  0.00     0.022 A 
ATOM      7  C5  UNL d   1      -0.576  -1.273  -0.680  0.00  0.00     0.026 A 
ATOM      8  C6  UNL d   1      -1.460  -0.586   0.220  0.00  0.00    -0.082 A 
ATOM      9  C7  UNL d   1      -2.769  -0.909   0.651  0.00  0.00     0.045 A 
ENDROOT
TORSDOF 0
ENDMDL
