MODEL 1
REMARK minimizedAffinity -2.87402749
REMARK minimizedRMSD -1
REMARK  0 active torsions:
REMARK  status: ('A' for Active; 'I' for Inactive)
ROOT
ATOM      1  C   UNL d   1       0.665  -0.236  -2.779  0.00  0.00    -0.002 A 
ATOM      2  C1  UNL d   1       1.650   0.729  -2.620  0.00  0.00     0.010 A 
ATOM      3  C2  UNL d   1       1.996   1.188  -1.348  0.00  0.00     0.041 A 
ATOM      4  C3  UNL d   1       1.332   0.654  -0.227  0.00  0.00    -0.075 A 
ATOM      5  S   UNL d   1       1.591   1.063   1.428  0.00  0.00     0.015 SA
ATOM      6  C4  UNL d   1       0.401  -0.034   1.963  0.00  0.00     0.022 A 
ATOM      7  C5  UNL d   1      -0.189  -0.704   0.918  0.00  0.00     0.026 A 
ATOM      8  C6  UNL d   1       0.338  -0.320  -0.361  0.00  0.00    -0.082 A 
ATOM      9  C7  UNL d   1       0.008  -0.763  -1.664  0.00  0.00     0.045 A 
ENDROOT
TORSDOF 0
ENDMDL
