MODEL 1
REMARK minimizedAffinity -3.09041142
REMARK minimizedRMSD -1
REMARK  0 active torsions:
REMARK  status: ('A' for Active; 'I' for Inactive)
ROOT
ATOM      1  C   UNL d   1       1.930  -0.650  -2.624  0.00  0.00    -0.002 A 
ATOM      2  C1  UNL d   1       2.901   0.174  -2.072  0.00  0.00     0.010 A 
ATOM      3  C2  UNL d   1       2.728   0.722  -0.799  0.00  0.00     0.041 A 
ATOM      4  C3  UNL d   1       1.552   0.423  -0.083  0.00  0.00    -0.075 A 
ATOM      5  S   UNL d   1       1.125   0.979   1.492  0.00  0.00     0.015 SA
ATOM      6  C4  UNL d   1      -0.355   0.135   1.470  0.00  0.00     0.022 A 
ATOM      7  C5  UNL d   1      -0.536  -0.559   0.297  0.00  0.00     0.026 A 
ATOM      8  C6  UNL d   1       0.561  -0.405  -0.617  0.00  0.00    -0.082 A 
ATOM      9  C7  UNL d   1       0.766  -0.944  -1.910  0.00  0.00     0.045 A 
ENDROOT
TORSDOF 0
ENDMDL
