MODEL 1
REMARK minimizedAffinity -5.56887007
REMARK minimizedRMSD -1
REMARK  0 active torsions:
REMARK  status: ('A' for Active; 'I' for Inactive)
ROOT
ATOM      1  C   UNL d   1       1.885  -0.661  -3.079  0.00  0.00    -0.002 A 
ATOM      2  C1  UNL d   1       2.426  -1.748  -2.409  0.00  0.00     0.010 A 
ATOM      3  C2  UNL d   1       2.028  -2.049  -1.105  0.00  0.00     0.041 A 
ATOM      4  C3  UNL d   1       1.065  -1.232  -0.481  0.00  0.00    -0.075 A 
ATOM      5  S   UNL d   1       0.425  -1.410   1.110  0.00  0.00     0.015 SA
ATOM      6  C4  UNL d   1      -0.584  -0.046   0.937  0.00  0.00     0.022 A 
ATOM      7  C5  UNL d   1      -0.448   0.542  -0.298  0.00  0.00     0.026 A 
ATOM      8  C6  UNL d   1       0.504  -0.132  -1.135  0.00  0.00    -0.082 A 
ATOM      9  C7  UNL d   1       0.930   0.148  -2.456  0.00  0.00     0.045 A 
ENDROOT
TORSDOF 0
ENDMDL
