MODEL 1
REMARK minimizedAffinity -2.16883373
REMARK minimizedRMSD -1
REMARK  0 active torsions:
REMARK  status: ('A' for Active; 'I' for Inactive)
ROOT
ATOM      1  C   UNL d   1       2.017   0.849  -2.026  0.00  0.00    -0.002 A 
ATOM      2  C1  UNL d   1       1.500  -0.299  -2.612  0.00  0.00     0.010 A 
ATOM      3  C2  UNL d   1       0.546  -1.069  -1.944  0.00  0.00     0.041 A 
ATOM      4  C3  UNL d   1       0.113  -0.661  -0.667  0.00  0.00    -0.075 A 
ATOM      5  S   UNL d   1      -1.047  -1.446   0.338  0.00  0.00     0.015 SA
ATOM      6  C4  UNL d   1      -0.886  -0.276   1.567  0.00  0.00     0.022 A 
ATOM      7  C5  UNL d   1       0.028   0.697   1.236  0.00  0.00     0.026 A 
ATOM      8  C6  UNL d   1       0.618   0.492  -0.057  0.00  0.00    -0.082 A 
ATOM      9  C7  UNL d   1       1.585   1.250  -0.759  0.00  0.00     0.045 A 
ENDROOT
TORSDOF 0
ENDMDL
