MODEL 1
REMARK minimizedAffinity -0.55812937
REMARK minimizedRMSD -1
REMARK  0 active torsions:
REMARK  status: ('A' for Active; 'I' for Inactive)
ROOT
ATOM      1  C   UNL d   1      -3.919   1.278  -5.682  0.00  0.00    -0.002 A 
ATOM      2  C1  UNL d   1      -5.284   1.271  -5.931  0.00  0.00     0.010 A 
ATOM      3  C2  UNL d   1      -5.999   2.469  -6.000  0.00  0.00     0.041 A 
ATOM      4  C3  UNL d   1      -5.312   3.685  -5.814  0.00  0.00    -0.075 A 
ATOM      5  S   UNL d   1      -5.981   5.273  -5.855  0.00  0.00     0.015 SA
ATOM      6  C4  UNL d   1      -4.470   5.998  -5.543  0.00  0.00     0.022 A 
ATOM      7  C5  UNL d   1      -3.469   5.065  -5.409  0.00  0.00     0.026 A 
ATOM      8  C6  UNL d   1      -3.938   3.717  -5.563  0.00  0.00    -0.082 A 
ATOM      9  C7  UNL d   1      -3.241   2.486  -5.498  0.00  0.00     0.045 A 
ENDROOT
TORSDOF 0
ENDMDL
