MODEL 1
REMARK minimizedAffinity -2.59129477
REMARK minimizedRMSD -1
REMARK  0 active torsions:
REMARK  status: ('A' for Active; 'I' for Inactive)
ROOT
ATOM      1  C   UNL d   1      -2.852  -0.081   1.663  0.00  0.00    -0.002 A 
ATOM      2  C1  UNL d   1      -4.137   0.411   1.487  0.00  0.00     0.010 A 
ATOM      3  C2  UNL d   1      -4.489   1.669   1.981  0.00  0.00     0.041 A 
ATOM      4  C3  UNL d   1      -3.518   2.432   2.659  0.00  0.00    -0.075 A 
ATOM      5  S   UNL d   1      -3.722   3.999   3.348  0.00  0.00     0.015 SA
ATOM      6  C4  UNL d   1      -2.107   4.052   3.891  0.00  0.00     0.022 A 
ATOM      7  C5  UNL d   1      -1.415   2.910   3.564  0.00  0.00     0.026 A 
ATOM      8  C6  UNL d   1      -2.217   1.957   2.847  0.00  0.00    -0.082 A 
ATOM      9  C7  UNL d   1      -1.891   0.678   2.336  0.00  0.00     0.045 A 
ENDROOT
TORSDOF 0
ENDMDL
