MODEL 1
REMARK minimizedAffinity -0.110879481
REMARK minimizedRMSD -1
REMARK  0 active torsions:
REMARK  status: ('A' for Active; 'I' for Inactive)
ROOT
ATOM      1  C   UNL d   1      -4.182   1.208   1.903  0.00  0.00    -0.002 A 
ATOM      2  C1  UNL d   1      -3.394   2.329   2.123  0.00  0.00     0.010 A 
ATOM      3  C2  UNL d   1      -2.023   2.296   1.862  0.00  0.00     0.041 A 
ATOM      4  C3  UNL d   1      -1.452   1.106   1.369  0.00  0.00    -0.075 A 
ATOM      5  S   UNL d   1       0.205   0.833   0.977  0.00  0.00     0.015 SA
ATOM      6  C4  UNL d   1      -0.094  -0.778   0.507  0.00  0.00     0.022 A 
ATOM      7  C5  UNL d   1      -1.420  -1.116   0.640  0.00  0.00     0.026 A 
ATOM      8  C6  UNL d   1      -2.225  -0.035   1.139  0.00  0.00    -0.082 A 
ATOM      9  C7  UNL d   1      -3.612   0.030   1.414  0.00  0.00     0.045 A 
ENDROOT
TORSDOF 0
ENDMDL
