MODEL 1
REMARK minimizedAffinity -3.73202848
REMARK minimizedRMSD -1
REMARK  0 active torsions:
REMARK  status: ('A' for Active; 'I' for Inactive)
ROOT
ATOM      1  C   UNL d   1       1.560  -0.526  -2.745  0.00  0.00    -0.002 A 
ATOM      2  C1  UNL d   1       1.096  -1.779  -2.369  0.00  0.00     0.010 A 
ATOM      3  C2  UNL d   1       0.381  -1.945  -1.181  0.00  0.00     0.041 A 
ATOM      4  C3  UNL d   1       0.137  -0.819  -0.370  0.00  0.00    -0.075 A 
ATOM      5  S   UNL d   1      -0.717  -0.782   1.127  0.00  0.00     0.015 SA
ATOM      6  C4  UNL d   1      -0.486   0.897   1.303  0.00  0.00     0.022 A 
ATOM      7  C5  UNL d   1       0.223   1.433   0.254  0.00  0.00     0.026 A 
ATOM      8  C6  UNL d   1       0.593   0.453  -0.728  0.00  0.00    -0.082 A 
ATOM      9  C7  UNL d   1       1.316   0.588  -1.938  0.00  0.00     0.045 A 
ENDROOT
TORSDOF 0
ENDMDL
