MODEL 1
REMARK minimizedAffinity -0.800971925
REMARK minimizedRMSD -1
REMARK  0 active torsions:
REMARK  status: ('A' for Active; 'I' for Inactive)
ROOT
ATOM      1  C   UNL d   1      -2.479  -0.214   1.270  0.00  0.00    -0.002 A 
ATOM      2  C1  UNL d   1      -3.707   0.279   0.851  0.00  0.00     0.010 A 
ATOM      3  C2  UNL d   1      -4.171   1.512   1.312  0.00  0.00     0.041 A 
ATOM      4  C3  UNL d   1      -3.373   2.250   2.208  0.00  0.00    -0.075 A 
ATOM      5  S   UNL d   1      -3.738   3.785   2.903  0.00  0.00     0.015 SA
ATOM      6  C4  UNL d   1      -2.272   3.823   3.772  0.00  0.00     0.022 A 
ATOM      7  C5  UNL d   1      -1.511   2.700   3.549  0.00  0.00     0.026 A 
ATOM      8  C6  UNL d   1      -2.133   1.775   2.644  0.00  0.00    -0.082 A 
ATOM      9  C7  UNL d   1      -1.690   0.521   2.159  0.00  0.00     0.045 A 
ENDROOT
TORSDOF 0
ENDMDL
