MODEL 1
REMARK minimizedAffinity -3.89842892
REMARK minimizedRMSD -1
REMARK  0 active torsions:
REMARK  status: ('A' for Active; 'I' for Inactive)
ROOT
ATOM      1  C   UNL d   1       1.216  -0.516  -2.998  0.00  0.00    -0.002 A 
ATOM      2  C1  UNL d   1       2.177   0.435  -2.686  0.00  0.00     0.010 A 
ATOM      3  C2  UNL d   1       2.313   0.906  -1.379  0.00  0.00     0.041 A 
ATOM      4  C3  UNL d   1       1.459   0.399  -0.380  0.00  0.00    -0.075 A 
ATOM      5  S   UNL d   1       1.442   0.827   1.290  0.00  0.00     0.015 SA
ATOM      6  C4  UNL d   1       0.160  -0.243   1.629  0.00  0.00     0.022 A 
ATOM      7  C5  UNL d   1      -0.258  -0.918   0.507  0.00  0.00     0.026 A 
ATOM      8  C6  UNL d   1       0.484  -0.561  -0.669  0.00  0.00    -0.082 A 
ATOM      9  C7  UNL d   1       0.371  -1.017  -2.004  0.00  0.00     0.045 A 
ENDROOT
TORSDOF 0
ENDMDL
