MODEL 1
REMARK minimizedAffinity -2.31293917
REMARK minimizedRMSD -1
REMARK  0 active torsions:
REMARK  status: ('A' for Active; 'I' for Inactive)
ROOT
ATOM      1  C   UNL d   1       1.795   1.841  -1.911  0.00  0.00    -0.002 A 
ATOM      2  C1  UNL d   1       2.000   0.647  -2.588  0.00  0.00     0.010 A 
ATOM      3  C2  UNL d   1       1.548  -0.560  -2.052  0.00  0.00     0.041 A 
ATOM      4  C3  UNL d   1       0.878  -0.547  -0.813  0.00  0.00    -0.075 A 
ATOM      5  S   UNL d   1       0.235  -1.903   0.036  0.00  0.00     0.015 SA
ATOM      6  C4  UNL d   1      -0.328  -0.930   1.316  0.00  0.00     0.022 A 
ATOM      7  C5  UNL d   1      -0.041   0.400   1.118  0.00  0.00     0.026 A 
ATOM      8  C6  UNL d   1       0.658   0.642  -0.112  0.00  0.00    -0.082 A 
ATOM      9  C7  UNL d   1       1.130   1.850  -0.682  0.00  0.00     0.045 A 
ENDROOT
TORSDOF 0
ENDMDL
