MODEL 1
REMARK minimizedAffinity -1.16690326
REMARK minimizedRMSD -1
REMARK  0 active torsions:
REMARK  status: ('A' for Active; 'I' for Inactive)
ROOT
ATOM      1  C1  BNZ d   1      -2.362  -2.381  -2.136  0.00  0.00     0.000 A 
ATOM      2  C2  BNZ d   1      -2.894  -1.486  -3.027  0.00  0.00     0.000 A 
ATOM      3  C3  BNZ d   1      -3.249  -0.228  -2.627  0.00  0.00     0.000 A 
ATOM      4  C4  BNZ d   1      -3.110   0.120  -1.332  0.00  0.00     0.000 A 
ATOM      5  C5  BNZ d   1      -2.584  -0.773  -0.420  0.00  0.00     0.000 A 
ATOM      6  C6  BNZ d   1      -2.191  -2.026  -0.834  0.00  0.00     0.000 A 
ENDROOT
TORSDOF 0
ENDMDL
