MODEL 1
REMARK minimizedAffinity 2.00162029
REMARK minimizedRMSD -1
REMARK  0 active torsions:
REMARK  status: ('A' for Active; 'I' for Inactive)
ROOT
ATOM      1  C1  BNZ d   1       1.581  -0.687   1.366  0.00  0.00     0.000 A 
ATOM      2  C2  BNZ d   1       2.279  -1.816   1.703  0.00  0.00     0.000 A 
ATOM      3  C3  BNZ d   1       2.532  -2.118   3.012  0.00  0.00     0.000 A 
ATOM      4  C4  BNZ d   1       2.121  -1.272   3.978  0.00  0.00     0.000 A 
ATOM      5  C5  BNZ d   1       1.424  -0.126   3.654  0.00  0.00     0.000 A 
ATOM      6  C6  BNZ d   1       1.138   0.156   2.338  0.00  0.00     0.000 A 
ENDROOT
TORSDOF 0
ENDMDL
