MODEL 1
REMARK minimizedAffinity 12.5726767
REMARK minimizedRMSD -1
REMARK  0 active torsions:
REMARK  status: ('A' for Active; 'I' for Inactive)
ROOT
ATOM      1  C1  BNZ d   1      -5.435   4.109  -3.756  0.00  0.00     0.000 A 
ATOM      2  C2  BNZ d   1      -5.990   3.508  -2.658  0.00  0.00     0.000 A 
ATOM      3  C3  BNZ d   1      -5.982   4.131  -1.441  0.00  0.00     0.000 A 
ATOM      4  C4  BNZ d   1      -5.384   5.333  -1.315  0.00  0.00     0.000 A 
ATOM      5  C5  BNZ d   1      -4.812   5.947  -2.411  0.00  0.00     0.000 A 
ATOM      6  C6  BNZ d   1      -4.856   5.335  -3.643  0.00  0.00     0.000 A 
ENDROOT
TORSDOF 0
ENDMDL
