MODEL 1
REMARK minimizedAffinity 5.78073454
REMARK minimizedRMSD -1
REMARK  0 active torsions:
REMARK  status: ('A' for Active; 'I' for Inactive)
ROOT
ATOM      1  C1  BNZ d   1       1.839  -2.454   3.009  0.00  0.00     0.000 A 
ATOM      2  C2  BNZ d   1       1.381  -1.951   4.197  0.00  0.00     0.000 A 
ATOM      3  C3  BNZ d   1       0.763  -0.732   4.249  0.00  0.00     0.000 A 
ATOM      4  C4  BNZ d   1       0.640  -0.002   3.122  0.00  0.00     0.000 A 
ATOM      5  C5  BNZ d   1       1.106  -0.492   1.918  0.00  0.00     0.000 A 
ATOM      6  C6  BNZ d   1       1.692  -1.736   1.862  0.00  0.00     0.000 A 
ENDROOT
TORSDOF 0
ENDMDL
