MODEL 1
REMARK minimizedAffinity 6.34827185
REMARK minimizedRMSD -1
REMARK  0 active torsions:
REMARK  status: ('A' for Active; 'I' for Inactive)
ROOT
ATOM      1  C1  BNZ d   1      -1.286   1.321   0.056  0.00  0.00     0.000 A 
ATOM      2  C2  BNZ d   1      -0.050   1.281   0.643  0.00  0.00     0.000 A 
ATOM      3  C3  BNZ d   1       0.346   0.191   1.368  0.00  0.00     0.000 A 
ATOM      4  C4  BNZ d   1      -0.509  -0.838   1.537  0.00  0.00     0.000 A 
ATOM      5  C5  BNZ d   1      -1.763  -0.808   0.959  0.00  0.00     0.000 A 
ATOM      6  C6  BNZ d   1      -2.143   0.273   0.198  0.00  0.00     0.000 A 
ENDROOT
TORSDOF 0
ENDMDL
