MODEL 1
REMARK minimizedAffinity 2.23354435
REMARK minimizedRMSD -1
REMARK  0 active torsions:
REMARK  status: ('A' for Active; 'I' for Inactive)
ROOT
ATOM      1  C1  BNZ d   1       1.010  -0.768   5.473  0.00  0.00     0.000 A 
ATOM      2  C2  BNZ d   1       0.831   0.041   4.382  0.00  0.00     0.000 A 
ATOM      3  C3  BNZ d   1       1.208  -0.372   3.135  0.00  0.00     0.000 A 
ATOM      4  C4  BNZ d   1       1.798  -1.575   2.985  0.00  0.00     0.000 A 
ATOM      5  C5  BNZ d   1       1.993  -2.399   4.076  0.00  0.00     0.000 A 
ATOM      6  C6  BNZ d   1       1.577  -1.996   5.324  0.00  0.00     0.000 A 
ENDROOT
TORSDOF 0
ENDMDL
