MODEL 1
REMARK minimizedAffinity -1.82245827
REMARK minimizedRMSD -1
REMARK  0 active torsions:
REMARK  status: ('A' for Active; 'I' for Inactive)
ROOT
ATOM      1  C1  BNZ d   1      -2.471  -1.499  -1.034  0.00  0.00     0.000 A 
ATOM      2  C2  BNZ d   1      -3.795  -1.179  -1.172  0.00  0.00     0.000 A 
ATOM      3  C3  BNZ d   1      -4.748  -2.157  -1.243  0.00  0.00     0.000 A 
ATOM      4  C4  BNZ d   1      -4.372  -3.452  -1.216  0.00  0.00     0.000 A 
ATOM      5  C5  BNZ d   1      -3.039  -3.791  -1.086  0.00  0.00     0.000 A 
ATOM      6  C6  BNZ d   1      -2.087  -2.803  -0.976  0.00  0.00     0.000 A 
ENDROOT
TORSDOF 0
ENDMDL
