MODEL 1
REMARK minimizedAffinity 9.80873203
REMARK minimizedRMSD -1
REMARK  0 active torsions:
REMARK  status: ('A' for Active; 'I' for Inactive)
ROOT
ATOM      1  C1  BNZ d   1       1.265   0.424   4.563  0.00  0.00     0.000 A 
ATOM      2  C2  BNZ d   1       1.253   0.916   3.285  0.00  0.00     0.000 A 
ATOM      3  C3  BNZ d   1       1.214   0.071   2.210  0.00  0.00     0.000 A 
ATOM      4  C4  BNZ d   1       1.227  -1.262   2.414  0.00  0.00     0.000 A 
ATOM      5  C5  BNZ d   1       1.248  -1.773   3.697  0.00  0.00     0.000 A 
ATOM      6  C6  BNZ d   1       1.248  -0.920   4.776  0.00  0.00     0.000 A 
ENDROOT
TORSDOF 0
ENDMDL
