MODEL 1
REMARK minimizedAffinity 2.31038904
REMARK minimizedRMSD -1
REMARK  0 active torsions:
REMARK  status: ('A' for Active; 'I' for Inactive)
ROOT
ATOM      1  C1  BNZ d   1       2.119   2.310  -0.457  0.00  0.00     0.000 A 
ATOM      2  C2  BNZ d   1       2.890   1.179  -0.418  0.00  0.00     0.000 A 
ATOM      3  C3  BNZ d   1       3.017   0.458   0.736  0.00  0.00     0.000 A 
ATOM      4  C4  BNZ d   1       2.407   0.891   1.859  0.00  0.00     0.000 A 
ATOM      5  C5  BNZ d   1       1.634   2.034   1.838  0.00  0.00     0.000 A 
ATOM      6  C6  BNZ d   1       1.476   2.736   0.665  0.00  0.00     0.000 A 
ENDROOT
TORSDOF 0
ENDMDL
