MODEL 1
REMARK minimizedAffinity 4.89237022
REMARK minimizedRMSD -1
REMARK  0 active torsions:
REMARK  status: ('A' for Active; 'I' for Inactive)
ROOT
ATOM      1  C1  BNZ d   1       1.119  -2.848   2.318  0.00  0.00     0.000 A 
ATOM      2  C2  BNZ d   1       0.951  -1.764   1.497  0.00  0.00     0.000 A 
ATOM      3  C3  BNZ d   1       1.671  -0.619   1.694  0.00  0.00     0.000 A 
ATOM      4  C4  BNZ d   1       2.526  -0.545   2.734  0.00  0.00     0.000 A 
ATOM      5  C5  BNZ d   1       2.699  -1.625   3.576  0.00  0.00     0.000 A 
ATOM      6  C6  BNZ d   1       2.002  -2.790   3.351  0.00  0.00     0.000 A 
ENDROOT
TORSDOF 0
ENDMDL
