MODEL 1
REMARK minimizedAffinity -0.172852829
REMARK minimizedRMSD -1
REMARK  0 active torsions:
REMARK  status: ('A' for Active; 'I' for Inactive)
ROOT
ATOM      1  C1  BNZ d   1       1.534  -2.902   2.661  0.00  0.00     0.000 A 
ATOM      2  C2  BNZ d   1       2.404  -2.494   3.637  0.00  0.00     0.000 A 
ATOM      3  C3  BNZ d   1       3.051  -1.294   3.540  0.00  0.00     0.000 A 
ATOM      4  C4  BNZ d   1       2.859  -0.522   2.451  0.00  0.00     0.000 A 
ATOM      5  C5  BNZ d   1       1.993  -0.924   1.454  0.00  0.00     0.000 A 
ATOM      6  C6  BNZ d   1       1.313  -2.115   1.573  0.00  0.00     0.000 A 
ENDROOT
TORSDOF 0
ENDMDL
