MODEL 1
REMARK minimizedAffinity 6.29787493
REMARK minimizedRMSD -1
REMARK  0 active torsions:
REMARK  status: ('A' for Active; 'I' for Inactive)
ROOT
ATOM      1  C1  BNZ d   1       2.827   0.712   0.771  0.00  0.00     0.000 A 
ATOM      2  C2  BNZ d   1       2.702  -0.647   0.881  0.00  0.00     0.000 A 
ATOM      3  C3  BNZ d   1       2.345  -1.223   2.068  0.00  0.00     0.000 A 
ATOM      4  C4  BNZ d   1       2.154  -0.443   3.152  0.00  0.00     0.000 A 
ATOM      5  C5  BNZ d   1       2.286   0.928   3.059  0.00  0.00     0.000 A 
ATOM      6  C6  BNZ d   1       2.607   1.507   1.853  0.00  0.00     0.000 A 
ENDROOT
TORSDOF 0
ENDMDL
