MODEL 1
REMARK minimizedAffinity 2.21264815
REMARK minimizedRMSD -1
REMARK  0 active torsions:
REMARK  status: ('A' for Active; 'I' for Inactive)
ROOT
ATOM      1  C1  BNZ d   1       3.767   5.217  -1.844  0.00  0.00     0.000 A 
ATOM      2  C2  BNZ d   1       3.758   5.235  -3.213  0.00  0.00     0.000 A 
ATOM      3  C3  BNZ d   1       4.870   5.607  -3.916  0.00  0.00     0.000 A 
ATOM      4  C4  BNZ d   1       5.976   5.997  -3.249  0.00  0.00     0.000 A 
ATOM      5  C5  BNZ d   1       5.997   5.993  -1.869  0.00  0.00     0.000 A 
ATOM      6  C6  BNZ d   1       4.889   5.581  -1.165  0.00  0.00     0.000 A 
ENDROOT
TORSDOF 0
ENDMDL
