MODEL 1
REMARK minimizedAffinity 4.15133667
REMARK minimizedRMSD -1
REMARK  0 active torsions:
REMARK  status: ('A' for Active; 'I' for Inactive)
ROOT
ATOM      1  C1  BNZ d   1       1.053  -3.480  -0.709  0.00  0.00     0.000 A 
ATOM      2  C2  BNZ d   1       0.058  -2.701  -1.237  0.00  0.00     0.000 A 
ATOM      3  C3  BNZ d   1       0.197  -2.130  -2.471  0.00  0.00     0.000 A 
ATOM      4  C4  BNZ d   1       1.345  -2.304  -3.157  0.00  0.00     0.000 A 
ATOM      5  C5  BNZ d   1       2.361  -3.079  -2.634  0.00  0.00     0.000 A 
ATOM      6  C6  BNZ d   1       2.202  -3.685  -1.409  0.00  0.00     0.000 A 
ENDROOT
TORSDOF 0
ENDMDL
