MODEL 1
REMARK minimizedAffinity 1.37764597
REMARK minimizedRMSD -1
REMARK  0 active torsions:
REMARK  status: ('A' for Active; 'I' for Inactive)
ROOT
ATOM      1  C1  BNZ d   1       2.141  -0.677   0.638  0.00  0.00     0.000 A 
ATOM      2  C2  BNZ d   1       3.019   0.075  -0.096  0.00  0.00     0.000 A 
ATOM      3  C3  BNZ d   1       3.075   1.432   0.056  0.00  0.00     0.000 A 
ATOM      4  C4  BNZ d   1       2.226   2.039   0.910  0.00  0.00     0.000 A 
ATOM      5  C5  BNZ d   1       1.329   1.296   1.651  0.00  0.00     0.000 A 
ATOM      6  C6  BNZ d   1       1.302  -0.074   1.524  0.00  0.00     0.000 A 
ENDROOT
TORSDOF 0
ENDMDL
