MODEL 1
REMARK minimizedAffinity 2.58583426
REMARK minimizedRMSD -1
REMARK  0 active torsions:
REMARK  status: ('A' for Active; 'I' for Inactive)
ROOT
ATOM      1  C1  BNZ d   1      -4.032   2.031   2.352  0.00  0.00     0.000 A 
ATOM      2  C2  BNZ d   1      -5.297   2.539   2.489  0.00  0.00     0.000 A 
ATOM      3  C3  BNZ d   1      -5.944   3.101   1.425  0.00  0.00     0.000 A 
ATOM      4  C4  BNZ d   1      -5.313   3.191   0.236  0.00  0.00     0.000 A 
ATOM      5  C5  BNZ d   1      -4.035   2.692   0.084  0.00  0.00     0.000 A 
ATOM      6  C6  BNZ d   1      -3.401   2.092   1.148  0.00  0.00     0.000 A 
ENDROOT
TORSDOF 0
ENDMDL
