MODEL 1
REMARK minimizedAffinity 2.43303752
REMARK minimizedRMSD -1
REMARK  0 active torsions:
REMARK  status: ('A' for Active; 'I' for Inactive)
ROOT
ATOM      1  C1  BNZ d   1       0.756  -1.280   1.172  0.00  0.00     0.000 A 
ATOM      2  C2  BNZ d   1       0.816  -2.302   2.081  0.00  0.00     0.000 A 
ATOM      3  C3  BNZ d   1       1.495  -2.154   3.258  0.00  0.00     0.000 A 
ATOM      4  C4  BNZ d   1       2.147  -0.999   3.506  0.00  0.00     0.000 A 
ATOM      5  C5  BNZ d   1       2.104   0.037   2.595  0.00  0.00     0.000 A 
ATOM      6  C6  BNZ d   1       1.387  -0.102   1.429  0.00  0.00     0.000 A 
ENDROOT
TORSDOF 0
ENDMDL
