MODEL 1
REMARK minimizedAffinity 6.22929335
REMARK minimizedRMSD -1
REMARK  0 active torsions:
REMARK  status: ('A' for Active; 'I' for Inactive)
ROOT
ATOM      1  C1  BNZ d   1      -1.040  -1.714  -1.481  0.00  0.00     0.000 A 
ATOM      2  C2  BNZ d   1      -0.162  -2.492  -2.187  0.00  0.00     0.000 A 
ATOM      3  C3  BNZ d   1       0.982  -2.962  -1.604  0.00  0.00     0.000 A 
ATOM      4  C4  BNZ d   1       1.265  -2.621  -0.331  0.00  0.00     0.000 A 
ATOM      5  C5  BNZ d   1       0.395  -1.830   0.391  0.00  0.00     0.000 A 
ATOM      6  C6  BNZ d   1      -0.775  -1.391  -0.186  0.00  0.00     0.000 A 
ENDROOT
TORSDOF 0
ENDMDL
