MODEL 1
REMARK minimizedAffinity -0.674148023
REMARK minimizedRMSD -1
REMARK  0 active torsions:
REMARK  status: ('A' for Active; 'I' for Inactive)
ROOT
ATOM      1  C1  BNZ d   1       3.772   5.310  -2.209  0.00  0.00     0.000 A 
ATOM      2  C2  BNZ d   1       3.785   4.575  -3.365  0.00  0.00     0.000 A 
ATOM      3  C3  BNZ d   1       4.906   4.515  -4.144  0.00  0.00     0.000 A 
ATOM      4  C4  BNZ d   1       5.999   5.220  -3.788  0.00  0.00     0.000 A 
ATOM      5  C5  BNZ d   1       5.999   5.973  -2.630  0.00  0.00     0.000 A 
ATOM      6  C6  BNZ d   1       4.881   6.000  -1.828  0.00  0.00     0.000 A 
ENDROOT
TORSDOF 0
ENDMDL
