MODEL 1
REMARK minimizedAffinity -1.42024291
REMARK minimizedRMSD -1
REMARK  0 active torsions:
REMARK  status: ('A' for Active; 'I' for Inactive)
ROOT
ATOM      1  C   UNL d   1       5.301   5.748  -1.803  0.00  0.00     0.078 C 
ATOM      2  C1  UNL d   1       5.071   5.499  -3.264  0.00  0.00    -0.077 A 
ATOM      3  C2  UNL d   1       5.999   4.780  -4.027  0.00  0.00    -0.001 A 
ATOM      4  C3  UNL d   1       5.778   4.564  -5.388  0.00  0.00     0.003 A 
ATOM      5  C4  UNL d   1       4.629   5.065  -5.998  0.00  0.00    -0.005 A 
ATOM      6  C5  UNL d   1       3.701   5.783  -5.247  0.00  0.00     0.003 A 
ATOM      7  C6  UNL d   1       3.921   6.000  -3.886  0.00  0.00    -0.001 A 
ENDROOT
TORSDOF 0
ENDMDL
