MODEL 1
REMARK minimizedAffinity -3.35249066
REMARK minimizedRMSD -1
REMARK  0 active torsions:
REMARK  status: ('A' for Active; 'I' for Inactive)
ROOT
ATOM      1  C   UNL d   1       5.997   5.011  -1.238  0.00  0.00     0.078 C 
ATOM      2  C1  UNL d   1       5.508   5.023  -2.656  0.00  0.00    -0.077 A 
ATOM      3  C2  UNL d   1       5.995   4.106  -3.595  0.00  0.00    -0.001 A 
ATOM      4  C3  UNL d   1       5.537   4.135  -4.913  0.00  0.00     0.003 A 
ATOM      5  C4  UNL d   1       4.592   5.081  -5.305  0.00  0.00    -0.005 A 
ATOM      6  C5  UNL d   1       4.104   6.000  -4.378  0.00  0.00     0.003 A 
ATOM      7  C6  UNL d   1       4.560   5.972  -3.059  0.00  0.00    -0.001 A 
ENDROOT
TORSDOF 0
ENDMDL
