MODEL 1
REMARK minimizedAffinity -1.3653847
REMARK minimizedRMSD -1
REMARK  0 active torsions:
REMARK  status: ('A' for Active; 'I' for Inactive)
ROOT
ATOM      1  C   UNL d   1       6.000   5.976  -0.818  0.00  0.00     0.078 C 
ATOM      2  C1  UNL d   1       5.282   5.112  -1.811  0.00  0.00    -0.077 A 
ATOM      3  C2  UNL d   1       3.902   4.899  -1.718  0.00  0.00    -0.001 A 
ATOM      4  C3  UNL d   1       3.249   4.085  -2.644  0.00  0.00     0.003 A 
ATOM      5  C4  UNL d   1       3.968   3.475  -3.670  0.00  0.00    -0.005 A 
ATOM      6  C5  UNL d   1       5.343   3.679  -3.769  0.00  0.00     0.003 A 
ATOM      7  C6  UNL d   1       5.998   4.493  -2.844  0.00  0.00    -0.001 A 
ENDROOT
TORSDOF 0
ENDMDL
