MODEL 1
REMARK minimizedAffinity 0.50101918
REMARK minimizedRMSD -1
REMARK  0 active torsions:
REMARK  status: ('A' for Active; 'I' for Inactive)
ROOT
ATOM      1  C   UNL d   1       4.942   6.000  -1.263  0.00  0.00     0.078 C 
ATOM      2  C1  UNL d   1       4.955   5.346  -2.612  0.00  0.00    -0.077 A 
ATOM      3  C2  UNL d   1       5.995   4.485  -2.986  0.00  0.00    -0.001 A 
ATOM      4  C3  UNL d   1       5.999   3.891  -4.249  0.00  0.00     0.003 A 
ATOM      5  C4  UNL d   1       4.968   4.152  -5.149  0.00  0.00    -0.005 A 
ATOM      6  C5  UNL d   1       3.930   5.008  -4.787  0.00  0.00     0.003 A 
ATOM      7  C6  UNL d   1       3.924   5.604  -3.524  0.00  0.00    -0.001 A 
ENDROOT
TORSDOF 0
ENDMDL
