MODEL 1
REMARK minimizedAffinity 5.89450788
REMARK minimizedRMSD -1
REMARK  0 active torsions:
REMARK  status: ('A' for Active; 'I' for Inactive)
ROOT
ATOM      1  C   UNL d   1       3.302  -2.252  -3.764  0.00  0.00     0.078 C 
ATOM      2  C1  UNL d   1       1.900  -2.193  -3.233  0.00  0.00    -0.077 A 
ATOM      3  C2  UNL d   1       0.873  -1.596  -3.975  0.00  0.00    -0.001 A 
ATOM      4  C3  UNL d   1      -0.425  -1.539  -3.464  0.00  0.00     0.003 A 
ATOM      5  C4  UNL d   1      -0.707  -2.076  -2.210  0.00  0.00    -0.005 A 
ATOM      6  C5  UNL d   1       0.309  -2.670  -1.464  0.00  0.00     0.003 A 
ATOM      7  C6  UNL d   1       1.608  -2.727  -1.973  0.00  0.00    -0.001 A 
ENDROOT
TORSDOF 0
ENDMDL
