MODEL 1
REMARK minimizedAffinity -1.51433837
REMARK minimizedRMSD -1
REMARK  0 active torsions:
REMARK  status: ('A' for Active; 'I' for Inactive)
ROOT
ATOM      1  C   UNL d   1       4.987   5.888  -1.787  0.00  0.00     0.078 C 
ATOM      2  C1  UNL d   1       4.945   5.590  -3.256  0.00  0.00    -0.077 A 
ATOM      3  C2  UNL d   1       3.863   6.000  -4.045  0.00  0.00    -0.001 A 
ATOM      4  C3  UNL d   1       3.833   5.707  -5.409  0.00  0.00     0.003 A 
ATOM      5  C4  UNL d   1       4.882   5.001  -5.996  0.00  0.00    -0.005 A 
ATOM      6  C5  UNL d   1       5.961   4.586  -5.219  0.00  0.00     0.003 A 
ATOM      7  C6  UNL d   1       5.993   4.879  -3.854  0.00  0.00    -0.001 A 
ENDROOT
TORSDOF 0
ENDMDL
