MODEL 1
REMARK minimizedAffinity 3.2384634
REMARK minimizedRMSD -1
REMARK  0 active torsions:
REMARK  status: ('A' for Active; 'I' for Inactive)
ROOT
ATOM      1  C   UNL d   1       5.998   5.999  -1.385  0.00  0.00     0.078 C 
ATOM      2  C1  UNL d   1       5.278   5.070  -2.316  0.00  0.00    -0.077 A 
ATOM      3  C2  UNL d   1       5.963   4.053  -2.993  0.00  0.00    -0.001 A 
ATOM      4  C3  UNL d   1       5.281   3.202  -3.864  0.00  0.00     0.003 A 
ATOM      5  C4  UNL d   1       3.911   3.359  -4.067  0.00  0.00    -0.005 A 
ATOM      6  C5  UNL d   1       3.222   4.369  -3.399  0.00  0.00     0.003 A 
ATOM      7  C6  UNL d   1       3.902   5.222  -2.528  0.00  0.00    -0.001 A 
ENDROOT
TORSDOF 0
ENDMDL
