MODEL 1
REMARK minimizedAffinity -3.50595045
REMARK minimizedRMSD -1
REMARK  0 active torsions:
REMARK  status: ('A' for Active; 'I' for Inactive)
ROOT
ATOM      1  C   UNL d   1       3.751  -1.878   1.746  0.00  0.00     0.078 C 
ATOM      2  C1  UNL d   1       3.953  -2.002   3.226  0.00  0.00    -0.077 A 
ATOM      3  C2  UNL d   1       4.702  -3.054   3.766  0.00  0.00    -0.001 A 
ATOM      4  C3  UNL d   1       4.874  -3.163   5.147  0.00  0.00     0.003 A 
ATOM      5  C4  UNL d   1       4.299  -2.223   6.000  0.00  0.00    -0.005 A 
ATOM      6  C5  UNL d   1       3.550  -1.173   5.472  0.00  0.00     0.003 A 
ATOM      7  C6  UNL d   1       3.377  -1.063   4.091  0.00  0.00    -0.001 A 
ENDROOT
TORSDOF 0
ENDMDL
