MODEL 1
REMARK minimizedAffinity 8.02845478
REMARK minimizedRMSD -1
REMARK  0 active torsions:
REMARK  status: ('A' for Active; 'I' for Inactive)
ROOT
ATOM      1  C   UNL d   1       2.463  -2.170  -3.307  0.00  0.00     0.078 C 
ATOM      2  C1  UNL d   1       1.147  -2.305  -2.600  0.00  0.00    -0.077 A 
ATOM      3  C2  UNL d   1       1.086  -2.708  -1.260  0.00  0.00    -0.001 A 
ATOM      4  C3  UNL d   1      -0.146  -2.838  -0.618  0.00  0.00     0.003 A 
ATOM      5  C4  UNL d   1      -1.327  -2.569  -1.307  0.00  0.00    -0.005 A 
ATOM      6  C5  UNL d   1      -1.276  -2.170  -2.641  0.00  0.00     0.003 A 
ATOM      7  C6  UNL d   1      -0.045  -2.039  -3.285  0.00  0.00    -0.001 A 
ENDROOT
TORSDOF 0
ENDMDL
