MODEL 1
REMARK minimizedAffinity -3.54059958
REMARK minimizedRMSD -1
REMARK  0 active torsions:
REMARK  status: ('A' for Active; 'I' for Inactive)
ROOT
ATOM      1  C   UNL d   1       5.987   5.992  -1.865  0.00  0.00     0.078 C 
ATOM      2  C1  UNL d   1       5.336   5.318  -3.035  0.00  0.00    -0.077 A 
ATOM      3  C2  UNL d   1       6.000   4.314  -3.751  0.00  0.00    -0.001 A 
ATOM      4  C3  UNL d   1       5.384   3.702  -4.844  0.00  0.00     0.003 A 
ATOM      5  C4  UNL d   1       4.103   4.088  -5.232  0.00  0.00    -0.005 A 
ATOM      6  C5  UNL d   1       3.435   5.087  -4.528  0.00  0.00     0.003 A 
ATOM      7  C6  UNL d   1       4.049   5.700  -3.434  0.00  0.00    -0.001 A 
ENDROOT
TORSDOF 0
ENDMDL
