MODEL 1
REMARK minimizedAffinity -3.93624663
REMARK minimizedRMSD -1
REMARK  0 active torsions:
REMARK  status: ('A' for Active; 'I' for Inactive)
ROOT
ATOM      1  C   UNL d   1       4.886   2.203  -5.999  0.00  0.00     0.078 C 
ATOM      2  C1  UNL d   1       4.853   3.240  -4.917  0.00  0.00    -0.077 A 
ATOM      3  C2  UNL d   1       5.999   3.541  -4.171  0.00  0.00    -0.001 A 
ATOM      4  C3  UNL d   1       5.952   4.502  -3.159  0.00  0.00     0.003 A 
ATOM      5  C4  UNL d   1       4.760   5.169  -2.884  0.00  0.00    -0.005 A 
ATOM      6  C5  UNL d   1       3.613   4.875  -3.619  0.00  0.00     0.003 A 
ATOM      7  C6  UNL d   1       3.659   3.914  -4.631  0.00  0.00    -0.001 A 
ENDROOT
TORSDOF 0
ENDMDL
