MODEL 1
REMARK minimizedAffinity -1.9226402
REMARK minimizedRMSD -1
REMARK  0 active torsions:
REMARK  status: ('A' for Active; 'I' for Inactive)
ROOT
ATOM      1  C   UNL d   1       2.251   4.127  -3.755  0.00  0.00     0.078 C 
ATOM      2  C1  UNL d   1       3.553   4.428  -3.075  0.00  0.00    -0.077 A 
ATOM      3  C2  UNL d   1       3.585   4.926  -1.767  0.00  0.00    -0.001 A 
ATOM      4  C3  UNL d   1       4.804   5.211  -1.149  0.00  0.00     0.003 A 
ATOM      5  C4  UNL d   1       6.000   5.004  -1.833  0.00  0.00    -0.005 A 
ATOM      6  C5  UNL d   1       5.978   4.512  -3.136  0.00  0.00     0.003 A 
ATOM      7  C6  UNL d   1       4.760   4.226  -3.755  0.00  0.00    -0.001 A 
ENDROOT
TORSDOF 0
ENDMDL
