MODEL 1
REMARK minimizedAffinity -4.64272833
REMARK minimizedRMSD -1
REMARK  0 active torsions:
REMARK  status: ('A' for Active; 'I' for Inactive)
ROOT
ATOM      1  C   UNL d   1       5.662   5.466  -2.477  0.00  0.00     0.078 C 
ATOM      2  C1  UNL d   1       5.138   4.576  -3.564  0.00  0.00    -0.077 A 
ATOM      3  C2  UNL d   1       6.000   3.758  -4.304  0.00  0.00    -0.001 A 
ATOM      4  C3  UNL d   1       5.500   2.941  -5.320  0.00  0.00     0.003 A 
ATOM      5  C4  UNL d   1       4.136   2.935  -5.605  0.00  0.00    -0.005 A 
ATOM      6  C5  UNL d   1       3.270   3.747  -4.875  0.00  0.00     0.003 A 
ATOM      7  C6  UNL d   1       3.769   4.565  -3.859  0.00  0.00    -0.001 A 
ENDROOT
TORSDOF 0
ENDMDL
