MODEL 1
REMARK minimizedAffinity -2.62111688
REMARK minimizedRMSD -1
REMARK  0 active torsions:
REMARK  status: ('A' for Active; 'I' for Inactive)
ROOT
ATOM      1  C   UNL d   1       5.720   5.608  -1.925  0.00  0.00     0.078 C 
ATOM      2  C1  UNL d   1       5.624   5.147  -3.349  0.00  0.00    -0.077 A 
ATOM      3  C2  UNL d   1       5.149   6.000  -4.352  0.00  0.00    -0.001 A 
ATOM      4  C3  UNL d   1       5.055   5.554  -5.672  0.00  0.00     0.003 A 
ATOM      5  C4  UNL d   1       5.434   4.254  -6.000  0.00  0.00    -0.005 A 
ATOM      6  C5  UNL d   1       5.906   3.397  -5.007  0.00  0.00     0.003 A 
ATOM      7  C6  UNL d   1       6.000   3.841  -3.687  0.00  0.00    -0.001 A 
ENDROOT
TORSDOF 0
ENDMDL
