MODEL 1
REMARK minimizedAffinity -3.78272414
REMARK minimizedRMSD -1
REMARK  0 active torsions:
REMARK  status: ('A' for Active; 'I' for Inactive)
ROOT
ATOM      1  C   UNL d   1       4.918   2.990  -5.485  0.00  0.00     0.078 C 
ATOM      2  C1  UNL d   1       4.877   3.993  -4.371  0.00  0.00    -0.077 A 
ATOM      3  C2  UNL d   1       3.733   4.766  -4.140  0.00  0.00    -0.001 A 
ATOM      4  C3  UNL d   1       3.712   5.703  -3.105  0.00  0.00     0.003 A 
ATOM      5  C4  UNL d   1       4.832   5.876  -2.295  0.00  0.00    -0.005 A 
ATOM      6  C5  UNL d   1       5.976   5.113  -2.519  0.00  0.00     0.003 A 
ATOM      7  C6  UNL d   1       5.999   4.175  -3.553  0.00  0.00    -0.001 A 
ENDROOT
TORSDOF 0
ENDMDL
