MODEL 1
REMARK minimizedAffinity -0.785235226
REMARK minimizedRMSD -1
REMARK  0 active torsions:
REMARK  status: ('A' for Active; 'I' for Inactive)
ROOT
ATOM      1  C   UNL d   1       5.951   2.951  -5.484  0.00  0.00     0.078 C 
ATOM      2  C1  UNL d   1       5.471   4.013  -4.540  0.00  0.00    -0.077 A 
ATOM      3  C2  UNL d   1       6.000   4.122  -3.249  0.00  0.00    -0.001 A 
ATOM      4  C3  UNL d   1       5.536   5.110  -2.377  0.00  0.00     0.003 A 
ATOM      5  C4  UNL d   1       4.541   5.994  -2.788  0.00  0.00    -0.005 A 
ATOM      6  C5  UNL d   1       4.007   5.891  -4.071  0.00  0.00     0.003 A 
ATOM      7  C6  UNL d   1       4.469   4.904  -4.944  0.00  0.00    -0.001 A 
ENDROOT
TORSDOF 0
ENDMDL
