MODEL 1
REMARK minimizedAffinity -4.14087868
REMARK minimizedRMSD -1
REMARK  0 active torsions:
REMARK  status: ('A' for Active; 'I' for Inactive)
ROOT
ATOM      1  C   UNL d   1       6.000   5.920  -1.803  0.00  0.00     0.078 C 
ATOM      2  C1  UNL d   1       5.415   5.339  -3.055  0.00  0.00    -0.077 A 
ATOM      3  C2  UNL d   1       4.293   4.502  -3.007  0.00  0.00    -0.001 A 
ATOM      4  C3  UNL d   1       3.765   3.960  -4.179  0.00  0.00     0.003 A 
ATOM      5  C4  UNL d   1       4.353   4.248  -5.410  0.00  0.00    -0.005 A 
ATOM      6  C5  UNL d   1       5.471   5.078  -5.468  0.00  0.00     0.003 A 
ATOM      7  C6  UNL d   1       6.000   5.621  -4.296  0.00  0.00    -0.001 A 
ENDROOT
TORSDOF 0
ENDMDL
