MODEL 1
REMARK minimizedAffinity 8.1415205
REMARK minimizedRMSD -1
REMARK  1 active torsions:
REMARK  status: ('A' for Active; 'I' for Inactive)
REMARK    1  A    between atoms: C1_2  and  C2_3 
ROOT
ATOM      1  C2  UNL d   1       3.987  -4.041   3.158  0.00  0.00    -0.073 A 
ATOM      2  C3  UNL d   1       2.833  -3.486   2.593  0.00  0.00    -0.002 A 
ATOM      3  C4  UNL d   1       2.710  -3.377   1.207  0.00  0.00     0.004 A 
ATOM      4  C5  UNL d   1       3.733  -3.827   0.373  0.00  0.00    -0.004 A 
ATOM      5  C6  UNL d   1       4.889  -4.395   0.919  0.00  0.00    -0.075 A 
ATOM      6  C7  UNL d   1       6.000  -4.882   0.036  0.00  0.00     0.076 C 
ATOM      7  C8  UNL d   1       5.006  -4.499   2.312  0.00  0.00     0.001 A 
ENDROOT
BRANCH   1   8
ATOM      8  C1  UNL d   1       4.122  -4.168   4.654  0.00  0.00     0.053 C 
ATOM      9  C   UNL d   1       4.126  -2.812   5.342  0.00  0.00     0.018 C 
ENDBRANCH   1   8
TORSDOF 1
ENDMDL
