MODEL 1
REMARK minimizedAffinity 5.17827511
REMARK minimizedRMSD -1
REMARK  1 active torsions:
REMARK  status: ('A' for Active; 'I' for Inactive)
REMARK    1  A    between atoms: C1_2  and  C2_3 
ROOT
ATOM      1  C2  UNL d   1      -3.221  -0.034  -4.815  0.00  0.00    -0.073 A 
ATOM      2  C3  UNL d   1      -3.674   0.686  -5.926  0.00  0.00    -0.002 A 
ATOM      3  C4  UNL d   1      -4.242   1.951  -5.763  0.00  0.00     0.004 A 
ATOM      4  C5  UNL d   1      -4.355   2.511  -4.491  0.00  0.00    -0.004 A 
ATOM      5  C6  UNL d   1      -3.897   1.812  -3.369  0.00  0.00    -0.075 A 
ATOM      6  C7  UNL d   1      -4.014   2.399  -1.993  0.00  0.00     0.076 C 
ATOM      7  C8  UNL d   1      -3.331   0.541  -3.541  0.00  0.00     0.001 A 
ENDROOT
BRANCH   1   8
ATOM      8  C1  UNL d   1      -2.601  -1.397  -4.987  0.00  0.00     0.053 C 
ATOM      9  C   UNL d   1      -1.505  -1.657  -3.966  0.00  0.00     0.018 C 
ENDBRANCH   1   8
TORSDOF 1
ENDMDL
