MODEL 1
REMARK minimizedAffinity 0.690591753
REMARK minimizedRMSD -1
REMARK  1 active torsions:
REMARK  status: ('A' for Active; 'I' for Inactive)
REMARK    1  A    between atoms: C1_2  and  C2_3 
ROOT
ATOM      1  C2  UNL d   1       3.566  -1.020   0.071  0.00  0.00    -0.073 A 
ATOM      2  C3  UNL d   1       2.221  -1.354   0.265  0.00  0.00    -0.002 A 
ATOM      3  C4  UNL d   1       1.874  -2.585   0.821  0.00  0.00     0.004 A 
ATOM      4  C5  UNL d   1       2.866  -3.491   1.195  0.00  0.00    -0.004 A 
ATOM      5  C6  UNL d   1       4.216  -3.171   1.020  0.00  0.00    -0.075 A 
ATOM      6  C7  UNL d   1       5.296  -4.135   1.416  0.00  0.00     0.076 C 
ATOM      7  C8  UNL d   1       4.557  -1.933   0.458  0.00  0.00     0.001 A 
ENDROOT
BRANCH   1   8
ATOM      8  C1  UNL d   1       3.946   0.312  -0.524  0.00  0.00     0.053 C 
ATOM      9  C   UNL d   1       5.440   0.413  -0.788  0.00  0.00     0.018 C 
ENDBRANCH   1   8
TORSDOF 1
ENDMDL
