MODEL 1
REMARK minimizedAffinity 3.9461751
REMARK minimizedRMSD -1
REMARK  1 active torsions:
REMARK  status: ('A' for Active; 'I' for Inactive)
REMARK    1  A    between atoms: C1_2  and  C2_3 
ROOT
ATOM      1  C2  UNL d   1      -3.668  -0.593  -4.312  0.00  0.00    -0.073 A 
ATOM      2  C3  UNL d   1      -4.964  -0.320  -4.764  0.00  0.00    -0.002 A 
ATOM      3  C4  UNL d   1      -5.204   0.771  -5.600  0.00  0.00     0.004 A 
ATOM      4  C5  UNL d   1      -4.152   1.595  -5.998  0.00  0.00    -0.004 A 
ATOM      5  C6  UNL d   1      -2.848   1.333  -5.566  0.00  0.00    -0.075 A 
ATOM      6  C7  UNL d   1      -1.705   2.211  -5.983  0.00  0.00     0.076 C 
ATOM      7  C8  UNL d   1      -2.615   0.237  -4.724  0.00  0.00     0.001 A 
ENDROOT
BRANCH   1   8
ATOM      8  C1  UNL d   1      -3.403  -1.773  -3.414  0.00  0.00     0.053 C 
ATOM      9  C   UNL d   1      -2.280  -1.498  -2.427  0.00  0.00     0.018 C 
ENDBRANCH   1   8
TORSDOF 1
ENDMDL
