MODEL 1
REMARK minimizedAffinity -2.0899384
REMARK minimizedRMSD -1
REMARK  1 active torsions:
REMARK  status: ('A' for Active; 'I' for Inactive)
REMARK    1  A    between atoms: C1_2  and  C2_3 
ROOT
ATOM      1  C2  UNL d   1       4.251  -0.607   0.067  0.00  0.00    -0.073 A 
ATOM      2  C3  UNL d   1       2.853  -0.636   0.003  0.00  0.00    -0.002 A 
ATOM      3  C4  UNL d   1       2.157  -1.804   0.318  0.00  0.00     0.004 A 
ATOM      4  C5  UNL d   1       2.849  -2.950   0.707  0.00  0.00    -0.004 A 
ATOM      5  C6  UNL d   1       4.246  -2.938   0.789  0.00  0.00    -0.075 A 
ATOM      6  C7  UNL d   1       5.006  -4.163   1.203  0.00  0.00     0.076 C 
ATOM      7  C8  UNL d   1       4.937  -1.762   0.467  0.00  0.00     0.001 A 
ENDROOT
BRANCH   1   8
ATOM      8  C1  UNL d   1       5.006   0.654  -0.267  0.00  0.00     0.053 C 
ATOM      9  C   UNL d   1       6.000   1.027   0.821  0.00  0.00     0.018 C 
ENDBRANCH   1   8
TORSDOF 1
ENDMDL
