MODEL 1
REMARK minimizedAffinity -4.18490791
REMARK minimizedRMSD -1
REMARK  1 active torsions:
REMARK  status: ('A' for Active; 'I' for Inactive)
REMARK    1  A    between atoms: C3_4  and  O_7 
ROOT
ATOM      1  C   UNL d   1      -0.028   3.091  -0.276  0.00  0.00    -0.033 A 
ATOM      2  C1  UNL d   1      -0.315   2.163   0.727  0.00  0.00     0.039 A 
ATOM      3  C2  UNL d   1      -0.464   0.812   0.409  0.00  0.00    -0.080 A 
ATOM      4  C3  UNL d   1      -0.322   0.402  -0.914  0.00  0.00     0.150 A 
ATOM      5  C4  UNL d   1      -0.031   1.320  -1.918  0.00  0.00    -0.007 A 
ATOM      6  C5  UNL d   1       0.116   2.669  -1.598  0.00  0.00     0.039 A 
ENDROOT
BRANCH   4   7
ATOM      7  O   UNL d   1      -0.463  -0.906  -1.274  0.00  0.00    -0.526 OA
ATOM      8  H5  UNL d   1      -0.691  -1.420  -0.481  0.00  0.00     0.418 HD
ENDBRANCH   4   7
TORSDOF 1
ENDMDL
