MODEL 1
REMARK minimizedAffinity -4.91656828
REMARK minimizedRMSD -1
REMARK  1 active torsions:
REMARK  status: ('A' for Active; 'I' for Inactive)
REMARK    1  A    between atoms: C3_4  and  O_7 
ROOT
ATOM      1  C   UNL d   1      -0.386  -0.171   0.123  0.00  0.00    -0.033 A 
ATOM      2  C1  UNL d   1       0.901   0.299  -0.142  0.00  0.00     0.039 A 
ATOM      3  C2  UNL d   1       1.153   1.672  -0.171  0.00  0.00    -0.080 A 
ATOM      4  C3  UNL d   1       0.110   2.563   0.068  0.00  0.00     0.150 A 
ATOM      5  C4  UNL d   1      -1.174   2.102   0.336  0.00  0.00    -0.007 A 
ATOM      6  C5  UNL d   1      -1.424   0.730   0.364  0.00  0.00     0.039 A 
ENDROOT
BRANCH   4   7
ATOM      7  O   UNL d   1       0.306   3.912   0.045  0.00  0.00    -0.526 OA
ATOM      8  H5  UNL d   1       1.235   4.084  -0.181  0.00  0.00     0.418 HD
ENDBRANCH   4   7
TORSDOF 1
ENDMDL
