MODEL 1
REMARK minimizedAffinity -5.12273026
REMARK minimizedRMSD -1
REMARK  1 active torsions:
REMARK  status: ('A' for Active; 'I' for Inactive)
REMARK    1  A    between atoms: C3_4  and  O_7 
ROOT
ATOM      1  C   UNL d   1      -0.711  -0.057   0.789  0.00  0.00    -0.033 A 
ATOM      2  C1  UNL d   1      -1.655   0.947   1.009  0.00  0.00     0.039 A 
ATOM      3  C2  UNL d   1      -1.398   2.254   0.588  0.00  0.00    -0.080 A 
ATOM      4  C3  UNL d   1      -0.196   2.541  -0.052  0.00  0.00     0.150 A 
ATOM      5  C4  UNL d   1       0.748   1.545  -0.278  0.00  0.00    -0.007 A 
ATOM      6  C5  UNL d   1       0.490   0.241   0.144  0.00  0.00     0.039 A 
ENDROOT
BRANCH   4   7
ATOM      7  O   UNL d   1       0.101   3.802  -0.476  0.00  0.00    -0.526 OA
ATOM      8  H5  UNL d   1      -0.630   4.391  -0.227  0.00  0.00     0.418 HD
ENDBRANCH   4   7
TORSDOF 1
ENDMDL
