MODEL 1
REMARK minimizedAffinity -3.31283092
REMARK minimizedRMSD -1
REMARK  1 active torsions:
REMARK  status: ('A' for Active; 'I' for Inactive)
REMARK    1  A    between atoms: C3_4  and  O_7 
ROOT
ATOM      1  C   UNL d   1       0.067  -1.416  -0.262  0.00  0.00    -0.033 A 
ATOM      2  C1  UNL d   1      -0.194  -0.975   1.037  0.00  0.00     0.039 A 
ATOM      3  C2  UNL d   1      -0.745   0.290   1.249  0.00  0.00    -0.080 A 
ATOM      4  C3  UNL d   1      -1.030   1.103   0.155  0.00  0.00     0.150 A 
ATOM      5  C4  UNL d   1      -0.776   0.669  -1.141  0.00  0.00    -0.007 A 
ATOM      6  C5  UNL d   1      -0.225  -0.594  -1.351  0.00  0.00     0.039 A 
ENDROOT
BRANCH   4   7
ATOM      7  O   UNL d   1      -1.564   2.348   0.313  0.00  0.00    -0.526 OA
ATOM      8  H5  UNL d   1      -1.659   2.524   1.264  0.00  0.00     0.418 HD
ENDBRANCH   4   7
TORSDOF 1
ENDMDL
