MODEL 1
REMARK minimizedAffinity -3.282094
REMARK minimizedRMSD -1
REMARK  1 active torsions:
REMARK  status: ('A' for Active; 'I' for Inactive)
REMARK    1  A    between atoms: C3_4  and  O_7 
ROOT
ATOM      1  C   UNL d   1      -1.538   1.988   0.483  0.00  0.00    -0.033 A 
ATOM      2  C1  UNL d   1      -1.453   0.595   0.532  0.00  0.00     0.039 A 
ATOM      3  C2  UNL d   1      -0.210  -0.027   0.662  0.00  0.00    -0.080 A 
ATOM      4  C3  UNL d   1       0.939   0.754   0.743  0.00  0.00     0.150 A 
ATOM      5  C4  UNL d   1       0.862   2.142   0.699  0.00  0.00    -0.007 A 
ATOM      6  C5  UNL d   1      -0.380   2.761   0.568  0.00  0.00     0.039 A 
ENDROOT
BRANCH   4   7
ATOM      7  O   UNL d   1       2.175   0.192   0.865  0.00  0.00    -0.526 OA
ATOM      8  H5  UNL d   1       2.077  -0.775   0.853  0.00  0.00     0.418 HD
ENDBRANCH   4   7
TORSDOF 1
ENDMDL
