MODEL 1
REMARK minimizedAffinity -4.43028688
REMARK minimizedRMSD -1
REMARK  1 active torsions:
REMARK  status: ('A' for Active; 'I' for Inactive)
REMARK    1  A    between atoms: C3_4  and  O_7 
ROOT
ATOM      1  C   UNL d   1       0.507  -0.496   0.252  0.00  0.00    -0.033 A 
ATOM      2  C1  UNL d   1       1.677   0.199  -0.060  0.00  0.00     0.039 A 
ATOM      3  C2  UNL d   1       1.647   1.586  -0.217  0.00  0.00    -0.080 A 
ATOM      4  C3  UNL d   1       0.442   2.266  -0.059  0.00  0.00     0.150 A 
ATOM      5  C4  UNL d   1      -0.726   1.580   0.256  0.00  0.00    -0.007 A 
ATOM      6  C5  UNL d   1      -0.695   0.195   0.412  0.00  0.00     0.039 A 
ENDROOT
BRANCH   4   7
ATOM      7  O   UNL d   1       0.363   3.618  -0.207  0.00  0.00    -0.526 OA
ATOM      8  H5  UNL d   1       1.241   3.954  -0.451  0.00  0.00     0.418 HD
ENDBRANCH   4   7
TORSDOF 1
ENDMDL
