MODEL 1
REMARK minimizedAffinity -5.0582037
REMARK minimizedRMSD -1
REMARK  1 active torsions:
REMARK  status: ('A' for Active; 'I' for Inactive)
REMARK    1  A    between atoms: C3_4  and  O_7 
ROOT
ATOM      1  C   UNL d   1      -0.363   1.796  -0.970  0.00  0.00    -0.033 A 
ATOM      2  C1  UNL d   1       0.999   1.997  -0.735  0.00  0.00     0.039 A 
ATOM      3  C2  UNL d   1       1.782   0.959  -0.228  0.00  0.00    -0.080 A 
ATOM      4  C3  UNL d   1       1.193  -0.274   0.040  0.00  0.00     0.150 A 
ATOM      5  C4  UNL d   1      -0.162  -0.482  -0.195  0.00  0.00    -0.007 A 
ATOM      6  C5  UNL d   1      -0.943   0.556  -0.701  0.00  0.00     0.039 A 
ENDROOT
BRANCH   4   7
ATOM      7  O   UNL d   1       1.916  -1.315   0.541  0.00  0.00    -0.526 OA
ATOM      8  H5  UNL d   1       2.831  -1.017   0.679  0.00  0.00     0.418 HD
ENDBRANCH   4   7
TORSDOF 1
ENDMDL
