MODEL 1
REMARK minimizedAffinity -4.92676497
REMARK minimizedRMSD -1
REMARK  1 active torsions:
REMARK  status: ('A' for Active; 'I' for Inactive)
REMARK    1  A    between atoms: C3_4  and  O_7 
ROOT
ATOM      1  C   UNL d   1       0.055  -0.271   0.136  0.00  0.00    -0.033 A 
ATOM      2  C1  UNL d   1       1.144   0.380  -0.446  0.00  0.00     0.039 A 
ATOM      3  C2  UNL d   1       1.141   1.770  -0.574  0.00  0.00    -0.080 A 
ATOM      4  C3  UNL d   1       0.046   2.497  -0.116  0.00  0.00     0.150 A 
ATOM      5  C4  UNL d   1      -1.041   1.855   0.469  0.00  0.00    -0.007 A 
ATOM      6  C5  UNL d   1      -1.037   0.466   0.595  0.00  0.00     0.039 A 
ENDROOT
BRANCH   4   7
ATOM      7  O   UNL d   1      -0.004   3.855  -0.224  0.00  0.00    -0.526 OA
ATOM      8  H5  UNL d   1       0.802   4.158  -0.673  0.00  0.00     0.418 HD
ENDBRANCH   4   7
TORSDOF 1
ENDMDL
