MODEL 1
REMARK minimizedAffinity -3.83916044
REMARK minimizedRMSD -1
REMARK  1 active torsions:
REMARK  status: ('A' for Active; 'I' for Inactive)
REMARK    1  A    between atoms: C3_4  and  O_7 
ROOT
ATOM      1  C   UNL d   1      -0.084  -0.832   0.462  0.00  0.00    -0.033 A 
ATOM      2  C1  UNL d   1      -1.158   0.035   0.674  0.00  0.00     0.039 A 
ATOM      3  C2  UNL d   1      -0.992   1.410   0.500  0.00  0.00    -0.080 A 
ATOM      4  C3  UNL d   1       0.251   1.905   0.115  0.00  0.00     0.150 A 
ATOM      5  C4  UNL d   1       1.324   1.047  -0.101  0.00  0.00    -0.007 A 
ATOM      6  C5  UNL d   1       1.157  -0.326   0.074  0.00  0.00     0.039 A 
ENDROOT
BRANCH   4   7
ATOM      7  O   UNL d   1       0.462   3.240  -0.062  0.00  0.00    -0.526 OA
ATOM      8  H5  UNL d   1      -0.360   3.713   0.150  0.00  0.00     0.418 HD
ENDBRANCH   4   7
TORSDOF 1
ENDMDL
