MODEL 1
REMARK minimizedAffinity -3.82480121
REMARK minimizedRMSD -1
REMARK  1 active torsions:
REMARK  status: ('A' for Active; 'I' for Inactive)
REMARK    1  A    between atoms: C3_4  and  O_7 
ROOT
ATOM      1  C   UNL d   1      -1.225  -3.685  -1.366  0.00  0.00    -0.033 A 
ATOM      2  C1  UNL d   1      -0.617  -2.595  -0.739  0.00  0.00     0.039 A 
ATOM      3  C2  UNL d   1      -0.063  -1.567  -1.504  0.00  0.00    -0.080 A 
ATOM      4  C3  UNL d   1      -0.124  -1.640  -2.893  0.00  0.00     0.150 A 
ATOM      5  C4  UNL d   1      -0.731  -2.721  -3.524  0.00  0.00    -0.007 A 
ATOM      6  C5  UNL d   1      -1.283  -3.748  -2.758  0.00  0.00     0.039 A 
ENDROOT
BRANCH   4   7
ATOM      7  O   UNL d   1       0.407  -0.664  -3.682  0.00  0.00    -0.526 OA
ATOM      8  H5  UNL d   1       0.818   0.005  -3.109  0.00  0.00     0.418 HD
ENDBRANCH   4   7
TORSDOF 1
ENDMDL
