MODEL 1
REMARK minimizedAffinity -5.54806137
REMARK minimizedRMSD -1
REMARK  1 active torsions:
REMARK  status: ('A' for Active; 'I' for Inactive)
REMARK    1  A    between atoms: C3_4  and  O_7 
ROOT
ATOM      1  C   UNL d   1       0.245   2.730   0.275  0.00  0.00    -0.033 A 
ATOM      2  C1  UNL d   1      -0.985   2.141   0.572  0.00  0.00     0.039 A 
ATOM      3  C2  UNL d   1      -1.177   0.774   0.358  0.00  0.00    -0.080 A 
ATOM      4  C3  UNL d   1      -0.132   0.009  -0.152  0.00  0.00     0.150 A 
ATOM      5  C4  UNL d   1       1.098   0.589  -0.447  0.00  0.00    -0.007 A 
ATOM      6  C5  UNL d   1       1.287   1.954  -0.234  0.00  0.00     0.039 A 
ENDROOT
BRANCH   4   7
ATOM      7  O   UNL d   1      -0.273  -1.327  -0.383  0.00  0.00    -0.526 OA
ATOM      8  H5  UNL d   1      -1.184  -1.583  -0.160  0.00  0.00     0.418 HD
ENDBRANCH   4   7
TORSDOF 1
ENDMDL
