MODEL 1
REMARK minimizedAffinity -5.10602474
REMARK minimizedRMSD -1
REMARK  1 active torsions:
REMARK  status: ('A' for Active; 'I' for Inactive)
REMARK    1  A    between atoms: C3_4  and  O_7 
ROOT
ATOM      1  C   UNL d   1       1.125  -0.375   0.317  0.00  0.00    -0.033 A 
ATOM      2  C1  UNL d   1      -0.239  -0.206   0.067  0.00  0.00     0.039 A 
ATOM      3  C2  UNL d   1      -0.751   1.067  -0.187  0.00  0.00    -0.080 A 
ATOM      4  C3  UNL d   1       0.109   2.162  -0.188  0.00  0.00     0.150 A 
ATOM      5  C4  UNL d   1       1.469   2.001   0.056  0.00  0.00    -0.007 A 
ATOM      6  C5  UNL d   1       1.978   0.728   0.310  0.00  0.00     0.039 A 
ENDROOT
BRANCH   4   7
ATOM      7  O   UNL d   1      -0.346   3.425  -0.426  0.00  0.00    -0.526 OA
ATOM      8  H5  UNL d   1      -1.309   3.387  -0.549  0.00  0.00     0.418 HD
ENDBRANCH   4   7
TORSDOF 1
ENDMDL
