MODEL 1
REMARK minimizedAffinity -5.48993254
REMARK minimizedRMSD -1
REMARK  1 active torsions:
REMARK  status: ('A' for Active; 'I' for Inactive)
REMARK    1  A    between atoms: C3_4  and  O_7 
ROOT
ATOM      1  C   UNL d   1       0.939   3.851   0.121  0.00  0.00    -0.033 A 
ATOM      2  C1  UNL d   1      -0.114   2.936   0.064  0.00  0.00     0.039 A 
ATOM      3  C2  UNL d   1       0.125   1.579   0.289  0.00  0.00    -0.080 A 
ATOM      4  C3  UNL d   1       1.419   1.151   0.569  0.00  0.00     0.150 A 
ATOM      5  C4  UNL d   1       2.473   2.057   0.630  0.00  0.00    -0.007 A 
ATOM      6  C5  UNL d   1       2.232   3.412   0.405  0.00  0.00     0.039 A 
ENDROOT
BRANCH   4   7
ATOM      7  O   UNL d   1       1.702  -0.165   0.790  0.00  0.00    -0.526 OA
ATOM      8  H5  UNL d   1       0.883  -0.677   0.687  0.00  0.00     0.418 HD
ENDBRANCH   4   7
TORSDOF 1
ENDMDL
