MODEL 1
REMARK minimizedAffinity -3.87265539
REMARK minimizedRMSD -1
REMARK  1 active torsions:
REMARK  status: ('A' for Active; 'I' for Inactive)
REMARK    1  A    between atoms: C3_4  and  O_7 
ROOT
ATOM      1  C   UNL d   1      -1.605   0.664   0.513  0.00  0.00    -0.033 A 
ATOM      2  C1  UNL d   1      -0.830  -0.494   0.415  0.00  0.00     0.039 A 
ATOM      3  C2  UNL d   1       0.560  -0.416   0.512  0.00  0.00    -0.080 A 
ATOM      4  C3  UNL d   1       1.163   0.824   0.707  0.00  0.00     0.150 A 
ATOM      5  C4  UNL d   1       0.398   1.981   0.809  0.00  0.00    -0.007 A 
ATOM      6  C5  UNL d   1      -0.991   1.901   0.711  0.00  0.00     0.039 A 
ENDROOT
BRANCH   4   7
ATOM      7  O   UNL d   1       2.517   0.950   0.803  0.00  0.00    -0.526 OA
ATOM      8  H5  UNL d   1       2.917   0.073   0.686  0.00  0.00     0.418 HD
ENDBRANCH   4   7
TORSDOF 1
ENDMDL
