MODEL 1
REMARK minimizedAffinity 2.86461401
REMARK minimizedRMSD -1
REMARK  0 active torsions:
REMARK  status: ('A' for Active; 'I' for Inactive)
ROOT
ATOM      1  C4' PXY d   1       5.259  -2.411   4.913  0.00  0.00     0.077 C 
ATOM      2  C1' PXY d   1       5.409   3.359   4.596  0.00  0.00     0.077 C 
ATOM      3  C1  PXY d   1       5.380   1.846   4.688  0.00  0.00    -0.082 A 
ATOM      4  C2  PXY d   1       4.896   1.139   3.679  0.00  0.00     0.003 A 
ATOM      5  C3  PXY d   1       4.832  -0.228   3.759  0.00  0.00     0.003 A 
ATOM      6  C4  PXY d   1       5.317  -0.882   4.860  0.00  0.00    -0.082 A 
ATOM      7  C5  PXY d   1       5.822  -0.168   5.889  0.00  0.00     0.003 A 
ATOM      8  C6  PXY d   1       5.840   1.222   5.805  0.00  0.00     0.003 A 
ENDROOT
TORSDOF 0
ENDMDL
