MODEL 1
REMARK minimizedAffinity 2.91797447
REMARK minimizedRMSD -1
REMARK  0 active torsions:
REMARK  status: ('A' for Active; 'I' for Inactive)
ROOT
ATOM      1  C4' PXY d   1       4.497   5.615  -2.247  0.00  0.00     0.077 C 
ATOM      2  C1' PXY d   1       2.994   4.091   3.122  0.00  0.00     0.077 C 
ATOM      3  C1  PXY d   1       3.388   4.478   1.711  0.00  0.00    -0.082 A 
ATOM      4  C2  PXY d   1       4.026   5.617   1.499  0.00  0.00     0.003 A 
ATOM      5  C3  PXY d   1       4.361   5.998   0.225  0.00  0.00     0.003 A 
ATOM      6  C4  PXY d   1       4.088   5.179  -0.838  0.00  0.00    -0.082 A 
ATOM      7  C5  PXY d   1       3.447   4.010  -0.628  0.00  0.00     0.003 A 
ATOM      8  C6  PXY d   1       3.078   3.661   0.668  0.00  0.00     0.003 A 
ENDROOT
TORSDOF 0
ENDMDL
