MODEL 1
REMARK minimizedAffinity 1.74891901
REMARK minimizedRMSD -1
REMARK  0 active torsions:
REMARK  status: ('A' for Active; 'I' for Inactive)
ROOT
ATOM      1  C4' PXY d   1       1.846  -3.395  -4.092  0.00  0.00     0.077 C 
ATOM      2  C1' PXY d   1      -0.025   0.173   0.052  0.00  0.00     0.077 C 
ATOM      3  C1  PXY d   1       0.465  -0.753  -1.044  0.00  0.00    -0.082 A 
ATOM      4  C2  PXY d   1       0.287  -2.058  -0.925  0.00  0.00     0.003 A 
ATOM      5  C3  PXY d   1       0.752  -2.913  -1.891  0.00  0.00     0.003 A 
ATOM      6  C4  PXY d   1       1.359  -2.422  -3.016  0.00  0.00    -0.082 A 
ATOM      7  C5  PXY d   1       1.535  -1.090  -3.149  0.00  0.00     0.003 A 
ATOM      8  C6  PXY d   1       1.092  -0.243  -2.138  0.00  0.00     0.003 A 
ENDROOT
TORSDOF 0
ENDMDL
