MODEL 1
REMARK minimizedAffinity 0.569316268
REMARK minimizedRMSD -1
REMARK  0 active torsions:
REMARK  status: ('A' for Active; 'I' for Inactive)
ROOT
ATOM      1  C4' PXY d   1       1.698  -2.862  -3.995  0.00  0.00     0.077 C 
ATOM      2  C1' PXY d   1      -0.311   0.349   0.371  0.00  0.00     0.077 C 
ATOM      3  C1  PXY d   1       0.212  -0.483  -0.782  0.00  0.00    -0.082 A 
ATOM      4  C2  PXY d   1       0.298  -1.798  -0.654  0.00  0.00     0.003 A 
ATOM      5  C3  PXY d   1       0.799  -2.563  -1.676  0.00  0.00     0.003 A 
ATOM      6  C4  PXY d   1       1.166  -1.982  -2.860  0.00  0.00    -0.082 A 
ATOM      7  C5  PXY d   1       1.072  -0.643  -3.002  0.00  0.00     0.003 A 
ATOM      8  C6  PXY d   1       0.599   0.120  -1.939  0.00  0.00     0.003 A 
ENDROOT
TORSDOF 0
ENDMDL
