MODEL 1
REMARK minimizedAffinity -0.0999150649
REMARK minimizedRMSD -1
REMARK  0 active torsions:
REMARK  status: ('A' for Active; 'I' for Inactive)
ROOT
ATOM      1  C4' PXY d   1       4.841  -4.341   3.402  0.00  0.00     0.077 C 
ATOM      2  C1' PXY d   1       5.969   0.729   5.939  0.00  0.00     0.077 C 
ATOM      3  C1  PXY d   1       5.669  -0.594   5.263  0.00  0.00    -0.082 A 
ATOM      4  C2  PXY d   1       5.479  -1.677   6.000  0.00  0.00     0.003 A 
ATOM      5  C3  PXY d   1       5.239  -2.888   5.404  0.00  0.00     0.003 A 
ATOM      6  C4  PXY d   1       5.138  -2.982   4.041  0.00  0.00    -0.082 A 
ATOM      7  C5  PXY d   1       5.319  -1.880   3.283  0.00  0.00     0.003 A 
ATOM      8  C6  PXY d   1       5.604  -0.668   3.906  0.00  0.00     0.003 A 
ENDROOT
TORSDOF 0
ENDMDL
