MODEL 1
REMARK minimizedAffinity 4.10567331
REMARK minimizedRMSD -1
REMARK  0 active torsions:
REMARK  status: ('A' for Active; 'I' for Inactive)
ROOT
ATOM      1  C4' PXY d   1      -3.381  -5.703   0.011  0.00  0.00     0.077 C 
ATOM      2  C1' PXY d   1      -0.462  -0.714  -0.043  0.00  0.00     0.077 C 
ATOM      3  C1  PXY d   1      -1.238  -2.016  -0.026  0.00  0.00    -0.082 A 
ATOM      4  C2  PXY d   1      -0.611  -3.149   0.244  0.00  0.00     0.003 A 
ATOM      5  C3  PXY d   1      -1.291  -4.339   0.232  0.00  0.00     0.003 A 
ATOM      6  C4  PXY d   1      -2.639  -4.364  -0.007  0.00  0.00    -0.082 A 
ATOM      7  C5  PXY d   1      -3.289  -3.211  -0.273  0.00  0.00     0.003 A 
ATOM      8  C6  PXY d   1      -2.572  -2.018  -0.297  0.00  0.00     0.003 A 
ENDROOT
TORSDOF 0
ENDMDL
