MODEL 1
REMARK minimizedAffinity 6.42966223
REMARK minimizedRMSD -1
REMARK  0 active torsions:
REMARK  status: ('A' for Active; 'I' for Inactive)
ROOT
ATOM      1  C4' PXY d   1       5.852   5.985   4.450  0.00  0.00     0.077 C 
ATOM      2  C1' PXY d   1       3.537   3.455  -0.203  0.00  0.00     0.077 C 
ATOM      3  C1  PXY d   1       4.145   4.107   1.023  0.00  0.00    -0.082 A 
ATOM      4  C2  PXY d   1       3.908   5.385   1.270  0.00  0.00     0.003 A 
ATOM      5  C3  PXY d   1       4.476   5.998   2.357  0.00  0.00     0.003 A 
ATOM      6  C4  PXY d   1       5.251   5.283   3.229  0.00  0.00    -0.082 A 
ATOM      7  C5  PXY d   1       5.489   3.976   2.990  0.00  0.00     0.003 A 
ATOM      8  C6  PXY d   1       4.937   3.382   1.859  0.00  0.00     0.003 A 
ENDROOT
TORSDOF 0
ENDMDL
