MODEL 1
REMARK minimizedAffinity -4.05598307
REMARK minimizedRMSD -1
REMARK  0 active torsions:
REMARK  status: ('A' for Active; 'I' for Inactive)
ROOT
ATOM      1  C4' PXY d   1       5.629  -1.559   5.226  0.00  0.00     0.077 C 
ATOM      2  C1' PXY d   1       5.645   3.203   1.949  0.00  0.00     0.077 C 
ATOM      3  C1  PXY d   1       5.632   1.948   2.800  0.00  0.00    -0.082 A 
ATOM      4  C2  PXY d   1       5.975   2.020   4.076  0.00  0.00     0.003 A 
ATOM      5  C3  PXY d   1       6.000   0.890   4.852  0.00  0.00     0.003 A 
ATOM      6  C4  PXY d   1       5.618  -0.317   4.331  0.00  0.00    -0.082 A 
ATOM      7  C5  PXY d   1       5.257  -0.397   3.033  0.00  0.00     0.003 A 
ATOM      8  C6  PXY d   1       5.278   0.755   2.251  0.00  0.00     0.003 A 
ENDROOT
TORSDOF 0
ENDMDL
