MODEL 1
REMARK minimizedAffinity 9.50115967
REMARK minimizedRMSD -1
REMARK  0 active torsions:
REMARK  status: ('A' for Active; 'I' for Inactive)
ROOT
ATOM      1  C4' PXY d   1       3.050   3.283   0.045  0.00  0.00     0.077 C 
ATOM      2  C1' PXY d   1      -1.616  -0.060  -0.643  0.00  0.00     0.077 C 
ATOM      3  C1  PXY d   1      -0.400   0.827  -0.463  0.00  0.00    -0.082 A 
ATOM      4  C2  PXY d   1       0.789   0.395  -0.850  0.00  0.00     0.003 A 
ATOM      5  C3  PXY d   1       1.904   1.171  -0.665  0.00  0.00     0.003 A 
ATOM      6  C4  PXY d   1       1.793   2.425  -0.126  0.00  0.00    -0.082 A 
ATOM      7  C5  PXY d   1       0.582   2.878   0.262  0.00  0.00     0.003 A 
ATOM      8  C6  PXY d   1      -0.531   2.058   0.103  0.00  0.00     0.003 A 
ENDROOT
TORSDOF 0
ENDMDL
