MODEL 1
REMARK minimizedAffinity 3.54204941
REMARK minimizedRMSD -1
REMARK  0 active torsions:
REMARK  status: ('A' for Active; 'I' for Inactive)
ROOT
ATOM      1  C4' PXY d   1       3.922   4.122   0.692  0.00  0.00     0.077 C 
ATOM      2  C1' PXY d   1       5.999   5.938   5.771  0.00  0.00     0.077 C 
ATOM      3  C1  PXY d   1       5.452   5.451   4.445  0.00  0.00    -0.082 A 
ATOM      4  C2  PXY d   1       5.878   6.000   3.319  0.00  0.00     0.003 A 
ATOM      5  C3  PXY d   1       5.370   5.593   2.112  0.00  0.00     0.003 A 
ATOM      6  C4  PXY d   1       4.454   4.577   2.054  0.00  0.00    -0.082 A 
ATOM      7  C5  PXY d   1       4.022   4.004   3.197  0.00  0.00     0.003 A 
ATOM      8  C6  PXY d   1       4.520   4.459   4.414  0.00  0.00     0.003 A 
ENDROOT
TORSDOF 0
ENDMDL
