MODEL 1
REMARK minimizedAffinity 2.05697274
REMARK minimizedRMSD -1
REMARK  0 active torsions:
REMARK  status: ('A' for Active; 'I' for Inactive)
ROOT
ATOM      1  C4' PXY d   1       0.214  -1.702  -0.221  0.00  0.00     0.077 C 
ATOM      2  C1' PXY d   1      -3.850  -5.778  -0.751  0.00  0.00     0.077 C 
ATOM      3  C1  PXY d   1      -2.790  -4.702  -0.621  0.00  0.00    -0.082 A 
ATOM      4  C2  PXY d   1      -1.589  -5.019  -0.166  0.00  0.00     0.003 A 
ATOM      5  C3  PXY d   1      -0.628  -4.052  -0.012  0.00  0.00     0.003 A 
ATOM      6  C4  PXY d   1      -0.884  -2.757  -0.377  0.00  0.00    -0.082 A 
ATOM      7  C5  PXY d   1      -2.104  -2.428  -0.852  0.00  0.00     0.003 A 
ATOM      8  C6  PXY d   1      -3.078  -3.417  -0.962  0.00  0.00     0.003 A 
ENDROOT
TORSDOF 0
ENDMDL
