MODEL 1
REMARK minimizedAffinity 2.38167548
REMARK minimizedRMSD -1
REMARK  0 active torsions:
REMARK  status: ('A' for Active; 'I' for Inactive)
ROOT
ATOM      1  C4' PXY d   1      -3.080  -2.649  -1.094  0.00  0.00     0.077 C 
ATOM      2  C1' PXY d   1       2.520  -1.480  -0.263  0.00  0.00     0.077 C 
ATOM      3  C1  PXY d   1       1.055  -1.799  -0.485  0.00  0.00    -0.082 A 
ATOM      4  C2  PXY d   1       0.200  -0.817  -0.721  0.00  0.00     0.003 A 
ATOM      5  C3  PXY d   1      -1.134  -1.084  -0.892  0.00  0.00     0.003 A 
ATOM      6  C4  PXY d   1      -1.590  -2.375  -0.874  0.00  0.00    -0.082 A 
ATOM      7  C5  PXY d   1      -0.722  -3.383  -0.644  0.00  0.00     0.003 A 
ATOM      8  C6  PXY d   1       0.621  -3.087  -0.432  0.00  0.00     0.003 A 
ENDROOT
TORSDOF 0
ENDMDL
