MODEL 1
REMARK minimizedAffinity -2.80831528
REMARK minimizedRMSD -1
REMARK  0 active torsions:
REMARK  status: ('A' for Active; 'I' for Inactive)
ROOT
ATOM      1  C4' PXY d   1       6.000   5.820   4.531  0.00  0.00     0.077 C 
ATOM      2  C1' PXY d   1       3.928   3.711  -0.436  0.00  0.00     0.077 C 
ATOM      3  C1  PXY d   1       4.473   4.252   0.871  0.00  0.00    -0.082 A 
ATOM      4  C2  PXY d   1       4.169   5.484   1.246  0.00  0.00     0.003 A 
ATOM      5  C3  PXY d   1       4.679   6.000   2.410  0.00  0.00     0.003 A 
ATOM      6  C4  PXY d   1       5.465   5.229   3.224  0.00  0.00    -0.082 A 
ATOM      7  C5  PXY d   1       5.771   3.968   2.853  0.00  0.00     0.003 A 
ATOM      8  C6  PXY d   1       5.277   3.477   1.648  0.00  0.00     0.003 A 
ENDROOT
TORSDOF 0
ENDMDL
