MODEL 1
REMARK minimizedAffinity 4.28049803
REMARK minimizedRMSD -1
REMARK  0 active torsions:
REMARK  status: ('A' for Active; 'I' for Inactive)
ROOT
ATOM      1  C4' PXY d   1      -2.847  -4.354  -0.694  0.00  0.00     0.077 C 
ATOM      2  C1' PXY d   1      -0.072   0.674  -0.038  0.00  0.00     0.077 C 
ATOM      3  C1  PXY d   1      -0.811  -0.639  -0.207  0.00  0.00    -0.082 A 
ATOM      4  C2  PXY d   1      -0.153  -1.780  -0.087  0.00  0.00     0.003 A 
ATOM      5  C3  PXY d   1      -0.799  -2.976  -0.269  0.00  0.00     0.003 A 
ATOM      6  C4  PXY d   1      -2.144  -3.005  -0.522  0.00  0.00    -0.082 A 
ATOM      7  C5  PXY d   1      -2.825  -1.845  -0.635  0.00  0.00     0.003 A 
ATOM      8  C6  PXY d   1      -2.142  -0.641  -0.488  0.00  0.00     0.003 A 
ENDROOT
TORSDOF 0
ENDMDL
