MODEL 1
REMARK minimizedAffinity 0.823168159
REMARK minimizedRMSD -1
REMARK  0 active torsions:
REMARK  status: ('A' for Active; 'I' for Inactive)
ROOT
ATOM      1  C4' PXY d   1       0.391  -1.453  -0.407  0.00  0.00     0.077 C 
ATOM      2  C1' PXY d   1      -3.658  -5.528  -1.046  0.00  0.00     0.077 C 
ATOM      3  C1  PXY d   1      -2.603  -4.452  -0.887  0.00  0.00    -0.082 A 
ATOM      4  C2  PXY d   1      -1.381  -4.785  -0.506  0.00  0.00     0.003 A 
ATOM      5  C3  PXY d   1      -0.423  -3.821  -0.325  0.00  0.00     0.003 A 
ATOM      6  C4  PXY d   1      -0.704  -2.507  -0.590  0.00  0.00    -0.082 A 
ATOM      7  C5  PXY d   1      -1.946  -2.160  -0.990  0.00  0.00     0.003 A 
ATOM      8  C6  PXY d   1      -2.915  -3.149  -1.127  0.00  0.00     0.003 A 
ENDROOT
TORSDOF 0
ENDMDL
