MODEL 1
REMARK minimizedAffinity 6.46777439
REMARK minimizedRMSD -1
REMARK  0 active torsions:
REMARK  status: ('A' for Active; 'I' for Inactive)
ROOT
ATOM      1  C4' PXY d   1       4.084   4.884  -1.251  0.00  0.00     0.077 C 
ATOM      2  C1' PXY d   1       4.950   4.926   4.464  0.00  0.00     0.077 C 
ATOM      3  C1  PXY d   1       4.725   4.902   2.966  0.00  0.00    -0.082 A 
ATOM      4  C2  PXY d   1       4.948   5.995   2.253  0.00  0.00     0.003 A 
ATOM      5  C3  PXY d   1       4.718   6.000   0.901  0.00  0.00     0.003 A 
ATOM      6  C4  PXY d   1       4.307   4.860   0.264  0.00  0.00    -0.082 A 
ATOM      7  C5  PXY d   1       4.087   3.738   0.982  0.00  0.00     0.003 A 
ATOM      8  C6  PXY d   1       4.286   3.766   2.360  0.00  0.00     0.003 A 
ENDROOT
TORSDOF 0
ENDMDL
