MODEL 1
REMARK minimizedAffinity 1.16250789
REMARK minimizedRMSD -1
REMARK  0 active torsions:
REMARK  status: ('A' for Active; 'I' for Inactive)
ROOT
ATOM      1  C4' PXY d   1      -2.839  -1.110   0.071  0.00  0.00     0.077 C 
ATOM      2  C1' PXY d   1       2.493   1.118   0.228  0.00  0.00     0.077 C 
ATOM      3  C1  PXY d   1       1.099   0.522   0.190  0.00  0.00    -0.082 A 
ATOM      4  C2  PXY d   1       0.162   1.097  -0.546  0.00  0.00     0.003 A 
ATOM      5  C3  PXY d   1      -1.112   0.590  -0.566  0.00  0.00     0.003 A 
ATOM      6  C4  PXY d   1      -1.416  -0.548   0.132  0.00  0.00    -0.082 A 
ATOM      7  C5  PXY d   1      -0.462  -1.147   0.876  0.00  0.00     0.003 A 
ATOM      8  C6  PXY d   1       0.814  -0.592   0.917  0.00  0.00     0.003 A 
ENDROOT
TORSDOF 0
ENDMDL
