MODEL 1
REMARK minimizedAffinity 1.65029418
REMARK minimizedRMSD -1
REMARK  0 active torsions:
REMARK  status: ('A' for Active; 'I' for Inactive)
ROOT
ATOM      1  C4' PXY d   1       4.490   4.897   4.064  0.00  0.00     0.077 C 
ATOM      2  C1' PXY d   1       4.555   4.963  -1.716  0.00  0.00     0.077 C 
ATOM      3  C1  PXY d   1       4.538   4.933  -0.200  0.00  0.00    -0.082 A 
ATOM      4  C2  PXY d   1       4.123   5.995   0.470  0.00  0.00     0.003 A 
ATOM      5  C3  PXY d   1       4.130   5.996   1.841  0.00  0.00     0.003 A 
ATOM      6  C4  PXY d   1       4.516   4.880   2.533  0.00  0.00    -0.082 A 
ATOM      7  C5  PXY d   1       4.931   3.788   1.856  0.00  0.00     0.003 A 
ATOM      8  C6  PXY d   1       4.955   3.821   0.465  0.00  0.00     0.003 A 
ENDROOT
TORSDOF 0
ENDMDL
