MODEL 1
REMARK minimizedAffinity 3.00992298
REMARK minimizedRMSD -1
REMARK  0 active torsions:
REMARK  status: ('A' for Active; 'I' for Inactive)
ROOT
ATOM      1  C4' PXY d   1       4.745   0.883   5.996  0.00  0.00     0.077 C 
ATOM      2  C1' PXY d   1       5.492   5.999   3.410  0.00  0.00     0.077 C 
ATOM      3  C1  PXY d   1       5.284   4.656   4.083  0.00  0.00    -0.082 A 
ATOM      4  C2  PXY d   1       5.996   4.345   5.154  0.00  0.00     0.003 A 
ATOM      5  C3  PXY d   1       5.843   3.122   5.756  0.00  0.00     0.003 A 
ATOM      6  C4  PXY d   1       4.915   2.231   5.289  0.00  0.00    -0.082 A 
ATOM      7  C5  PXY d   1       4.177   2.546   4.203  0.00  0.00     0.003 A 
ATOM      8  C6  PXY d   1       4.377   3.775   3.582  0.00  0.00     0.003 A 
ENDROOT
TORSDOF 0
ENDMDL
