MODEL 1
REMARK minimizedAffinity 1.55499077
REMARK minimizedRMSD -1
REMARK  2 active torsions:
REMARK  status: ('A' for Active; 'I' for Inactive)
REMARK    1  A    between atoms: C2'_3  and  C1'_4 
REMARK    2  A    between atoms: C1'_4  and  C1_5 
ROOT
ATOM      1  C1  I4B d   1       0.729  -1.184   3.753  0.00  0.00    -0.075 A 
ATOM      2  C2  I4B d   1       1.623  -1.134   2.713  0.00  0.00     0.003 A 
ATOM      3  C3  I4B d   1       1.266  -0.504   1.496  0.00  0.00     0.002 A 
ATOM      4  C4  I4B d   1      -0.004   0.014   1.345  0.00  0.00    -0.004 A 
ATOM      5  C5  I4B d   1      -0.902  -0.018   2.409  0.00  0.00     0.002 A 
ATOM      6  C6  I4B d   1      -0.529  -0.610   3.625  0.00  0.00     0.003 A 
ENDROOT
BRANCH   1   7
ATOM      7  C1' I4B d   1       1.127  -1.886   5.012  0.00  0.00     0.060 C 
BRANCH   7   8
ATOM      8  C2' I4B d   1       2.639  -1.863   5.101  0.00  0.00    -0.013 C 
ATOM      9  C4' I4B d   1       3.135  -0.537   5.614  0.00  0.00     0.013 C 
ATOM     10  C3' I4B d   1       3.067  -2.985   6.000  0.00  0.00     0.013 C 
ENDBRANCH   7   8
ENDBRANCH   1   7
TORSDOF 2
ENDMDL
