MODEL 1
REMARK minimizedAffinity 4.76398945
REMARK minimizedRMSD -1
REMARK  2 active torsions:
REMARK  status: ('A' for Active; 'I' for Inactive)
REMARK    1  A    between atoms: C2'_3  and  C1'_4 
REMARK    2  A    between atoms: C1'_4  and  C1_5 
ROOT
ATOM      1  C1  I4B d   1      -0.907  -0.525   1.576  0.00  0.00    -0.075 A 
ATOM      2  C2  I4B d   1      -1.248  -1.489   2.491  0.00  0.00     0.003 A 
ATOM      3  C3  I4B d   1      -0.287  -1.965   3.416  0.00  0.00     0.002 A 
ATOM      4  C4  I4B d   1       1.007  -1.489   3.358  0.00  0.00    -0.004 A 
ATOM      5  C5  I4B d   1       1.344  -0.495   2.444  0.00  0.00     0.002 A 
ATOM      6  C6  I4B d   1       0.379  -0.001   1.555  0.00  0.00     0.003 A 
ENDROOT
BRANCH   1   7
ATOM      7  C1' I4B d   1      -1.937  -0.070   0.591  0.00  0.00     0.060 C 
BRANCH   7   8
ATOM      8  C2' I4B d   1      -1.468  -0.467  -0.793  0.00  0.00    -0.013 C 
ATOM      9  C4' I4B d   1      -1.196  -1.946  -0.874  0.00  0.00     0.013 C 
ATOM     10  C3' I4B d   1      -2.524  -0.056  -1.776  0.00  0.00     0.013 C 
ENDBRANCH   7   8
ENDBRANCH   1   7
TORSDOF 2
ENDMDL
