MODEL 1
REMARK minimizedAffinity 2.28151965
REMARK minimizedRMSD -1
REMARK  2 active torsions:
REMARK  status: ('A' for Active; 'I' for Inactive)
REMARK    1  A    between atoms: C2'_3  and  C1'_4 
REMARK    2  A    between atoms: C1'_4  and  C1_5 
ROOT
ATOM      1  C1  I4B d   1       1.725  -1.806   4.570  0.00  0.00    -0.075 A 
ATOM      2  C2  I4B d   1       2.475  -2.954   4.633  0.00  0.00     0.003 A 
ATOM      3  C3  I4B d   1       3.749  -2.939   5.251  0.00  0.00     0.002 A 
ATOM      4  C4  I4B d   1       4.251  -1.753   5.745  0.00  0.00    -0.004 A 
ATOM      5  C5  I4B d   1       3.479  -0.595   5.701  0.00  0.00     0.002 A 
ATOM      6  C6  I4B d   1       2.203  -0.624   5.121  0.00  0.00     0.003 A 
ENDROOT
BRANCH   1   7
ATOM      7  C1' I4B d   1       0.398  -1.849   3.881  0.00  0.00     0.060 C 
BRANCH   7   8
ATOM      8  C2' I4B d   1       0.330  -0.675   2.925  0.00  0.00    -0.013 C 
ATOM      9  C4' I4B d   1       1.347  -0.809   1.823  0.00  0.00     0.013 C 
ATOM     10  C3' I4B d   1      -1.063  -0.609   2.372  0.00  0.00     0.013 C 
ENDBRANCH   7   8
ENDBRANCH   1   7
TORSDOF 2
ENDMDL
