MODEL 1
REMARK minimizedAffinity 6.25421858
REMARK minimizedRMSD -1
REMARK  2 active torsions:
REMARK  status: ('A' for Active; 'I' for Inactive)
REMARK    1  A    between atoms: C2'_3  and  C1'_4 
REMARK    2  A    between atoms: C1'_4  and  C1_5 
ROOT
ATOM      1  C1  I4B d   1       1.316  -1.399   3.570  0.00  0.00    -0.075 A 
ATOM      2  C2  I4B d   1       0.925  -2.699   3.777  0.00  0.00     0.003 A 
ATOM      3  C3  I4B d   1       1.181  -3.331   5.018  0.00  0.00     0.002 A 
ATOM      4  C4  I4B d   1       1.872  -2.649   5.999  0.00  0.00    -0.004 A 
ATOM      5  C5  I4B d   1       2.248  -1.324   5.795  0.00  0.00     0.002 A 
ATOM      6  C6  I4B d   1       1.958  -0.691   4.578  0.00  0.00     0.003 A 
ENDROOT
BRANCH   1   7
ATOM      7  C1' I4B d   1       1.058  -0.773   2.236  0.00  0.00     0.060 C 
BRANCH   7   8
ATOM      8  C2' I4B d   1      -0.383  -0.307   2.210  0.00  0.00    -0.013 C 
ATOM      9  C4' I4B d   1      -0.519   1.005   1.484  0.00  0.00     0.013 C 
ATOM     10  C3' I4B d   1      -1.204  -1.377   1.553  0.00  0.00     0.013 C 
ENDBRANCH   7   8
ENDBRANCH   1   7
TORSDOF 2
ENDMDL
