MODEL 1
REMARK minimizedAffinity 6.88949871
REMARK minimizedRMSD -1
REMARK  2 active torsions:
REMARK  status: ('A' for Active; 'I' for Inactive)
REMARK    1  A    between atoms: C2'_3  and  C1'_4 
REMARK    2  A    between atoms: C1'_4  and  C1_5 
ROOT
ATOM      1  C1  I4B d   1      -0.713  -0.239   1.367  0.00  0.00    -0.075 A 
ATOM      2  C2  I4B d   1      -1.027  -0.518   2.674  0.00  0.00     0.003 A 
ATOM      3  C3  I4B d   1      -0.003  -0.827   3.602  0.00  0.00     0.002 A 
ATOM      4  C4  I4B d   1       1.306  -0.897   3.171  0.00  0.00    -0.004 A 
ATOM      5  C5  I4B d   1       1.624  -0.592   1.851  0.00  0.00     0.002 A 
ATOM      6  C6  I4B d   1       0.610  -0.249   0.945  0.00  0.00     0.003 A 
ENDROOT
BRANCH   1   7
ATOM      7  C1' I4B d   1      -1.822   0.051   0.406  0.00  0.00     0.060 C 
BRANCH   7   8
ATOM      8  C2' I4B d   1      -1.688  -0.901  -0.765  0.00  0.00    -0.013 C 
ATOM      9  C4' I4B d   1      -2.077  -2.303  -0.375  0.00  0.00     0.013 C 
ATOM     10  C3' I4B d   1      -2.551  -0.390  -1.879  0.00  0.00     0.013 C 
ENDBRANCH   7   8
ENDBRANCH   1   7
TORSDOF 2
ENDMDL
