MODEL 1
REMARK minimizedAffinity 1.50643039
REMARK minimizedRMSD -1
REMARK  2 active torsions:
REMARK  status: ('A' for Active; 'I' for Inactive)
REMARK    1  A    between atoms: C2'_3  and  C1'_4 
REMARK    2  A    between atoms: C1'_4  and  C1_5 
ROOT
ATOM      1  C1  I4B d   1      -0.439  -0.508   2.920  0.00  0.00    -0.075 A 
ATOM      2  C2  I4B d   1      -0.030  -0.355   4.221  0.00  0.00     0.003 A 
ATOM      3  C3  I4B d   1       1.313  -0.621   4.582  0.00  0.00     0.002 A 
ATOM      4  C4  I4B d   1       2.195  -1.085   3.627  0.00  0.00    -0.004 A 
ATOM      5  C5  I4B d   1       1.783  -1.218   2.303  0.00  0.00     0.002 A 
ATOM      6  C6  I4B d   1       0.462  -0.916   1.945  0.00  0.00     0.003 A 
ENDROOT
BRANCH   1   7
ATOM      7  C1' I4B d   1      -1.873  -0.250   2.581  0.00  0.00     0.060 C 
BRANCH   7   8
ATOM      8  C2' I4B d   1      -2.649  -1.528   2.827  0.00  0.00    -0.013 C 
ATOM      9  C4' I4B d   1      -1.857  -2.493   3.669  0.00  0.00     0.013 C 
ATOM     10  C3' I4B d   1      -3.942  -1.163   3.493  0.00  0.00     0.013 C 
ENDBRANCH   7   8
ENDBRANCH   1   7
TORSDOF 2
ENDMDL
