MODEL 1
REMARK minimizedAffinity -3.57433367
REMARK minimizedRMSD -1
REMARK  2 active torsions:
REMARK  status: ('A' for Active; 'I' for Inactive)
REMARK    1  A    between atoms: C2'_3  and  C1'_4 
REMARK    2  A    between atoms: C1'_4  and  C1_5 
ROOT
ATOM      1  C1  I4B d   1       0.227  -1.227   0.350  0.00  0.00    -0.075 A 
ATOM      2  C2  I4B d   1      -0.621  -0.582   1.216  0.00  0.00     0.003 A 
ATOM      3  C3  I4B d   1      -0.933   0.786   1.021  0.00  0.00     0.002 A 
ATOM      4  C4  I4B d   1      -0.341   1.478  -0.015  0.00  0.00    -0.004 A 
ATOM      5  C5  I4B d   1       0.501   0.816  -0.906  0.00  0.00     0.002 A 
ATOM      6  C6  I4B d   1       0.777  -0.547  -0.730  0.00  0.00     0.003 A 
ENDROOT
BRANCH   1   7
ATOM      7  C1' I4B d   1       0.562  -2.662   0.604  0.00  0.00     0.060 C 
BRANCH   7   8
ATOM      8  C2' I4B d   1      -0.315  -3.512  -0.293  0.00  0.00    -0.013 C 
ATOM      9  C4' I4B d   1      -1.692  -3.682   0.293  0.00  0.00     0.013 C 
ATOM     10  C3' I4B d   1      -0.377  -2.852  -1.638  0.00  0.00     0.013 C 
ENDBRANCH   7   8
ENDBRANCH   1   7
TORSDOF 2
ENDMDL
