MODEL 1
REMARK minimizedAffinity -2.1984973
REMARK minimizedRMSD -1
REMARK  2 active torsions:
REMARK  status: ('A' for Active; 'I' for Inactive)
REMARK    1  A    between atoms: C2'_3  and  C1'_4 
REMARK    2  A    between atoms: C1'_4  and  C1_5 
ROOT
ATOM      1  C1  I4B d   1       0.142  -0.143  -0.498  0.00  0.00    -0.075 A 
ATOM      2  C2  I4B d   1      -0.725  -0.453   0.521  0.00  0.00     0.003 A 
ATOM      3  C3  I4B d   1      -0.981  -1.806   0.851  0.00  0.00     0.002 A 
ATOM      4  C4  I4B d   1      -0.393  -2.810   0.109  0.00  0.00    -0.004 A 
ATOM      5  C5  I4B d   1       0.503  -2.493  -0.908  0.00  0.00     0.002 A 
ATOM      6  C6  I4B d   1       0.782  -1.152  -1.206  0.00  0.00     0.003 A 
ENDROOT
BRANCH   1   7
ATOM      7  C1' I4B d   1       0.364   1.296  -0.842  0.00  0.00     0.060 C 
BRANCH   7   8
ATOM      8  C2' I4B d   1       1.421   1.842   0.097  0.00  0.00    -0.013 C 
ATOM      9  C4' I4B d   1       2.680   2.200  -0.649  0.00  0.00     0.013 C 
ATOM     10  C3' I4B d   1       0.847   3.039   0.795  0.00  0.00     0.013 C 
ENDBRANCH   7   8
ENDBRANCH   1   7
TORSDOF 2
ENDMDL
