MODEL 1
REMARK minimizedAffinity -6.6226058
REMARK minimizedRMSD -1
REMARK  2 active torsions:
REMARK  status: ('A' for Active; 'I' for Inactive)
REMARK    1  A    between atoms: C2'_3  and  C1'_4 
REMARK    2  A    between atoms: C1'_4  and  C1_5 
ROOT
ATOM      1  C1  I4B d   1       0.156  -1.063  -0.706  0.00  0.00    -0.075 A 
ATOM      2  C2  I4B d   1       0.003  -1.652   0.524  0.00  0.00     0.003 A 
ATOM      3  C3  I4B d   1      -0.187  -3.051   0.626  0.00  0.00     0.002 A 
ATOM      4  C4  I4B d   1      -0.267  -3.812  -0.522  0.00  0.00    -0.004 A 
ATOM      5  C5  I4B d   1      -0.088  -3.216  -1.768  0.00  0.00     0.002 A 
ATOM      6  C6  I4B d   1       0.137  -1.835  -1.860  0.00  0.00     0.003 A 
ENDROOT
BRANCH   1   7
ATOM      7  C1' I4B d   1       0.322   0.422  -0.779  0.00  0.00     0.060 C 
BRANCH   7   8
ATOM      8  C2' I4B d   1       0.167   0.978   0.622  0.00  0.00    -0.013 C 
ATOM      9  C4' I4B d   1       0.691   2.387   0.710  0.00  0.00     0.013 C 
ATOM     10  C3' I4B d   1      -1.286   0.918   0.986  0.00  0.00     0.013 C 
ENDBRANCH   7   8
ENDBRANCH   1   7
TORSDOF 2
ENDMDL
