MODEL 1
REMARK minimizedAffinity -4.55439615
REMARK minimizedRMSD -1
REMARK  2 active torsions:
REMARK  status: ('A' for Active; 'I' for Inactive)
REMARK    1  A    between atoms: C2'_3  and  C1'_4 
REMARK    2  A    between atoms: C1'_4  and  C1_5 
ROOT
ATOM      1  C1  I4B d   1       0.262   0.036  -0.023  0.00  0.00    -0.075 A 
ATOM      2  C2  I4B d   1      -0.201   1.142  -0.691  0.00  0.00     0.003 A 
ATOM      3  C3  I4B d   1       0.570   2.329  -0.725  0.00  0.00     0.002 A 
ATOM      4  C4  I4B d   1       1.767   2.381  -0.040  0.00  0.00    -0.004 A 
ATOM      5  C5  I4B d   1       2.246   1.252   0.617  0.00  0.00     0.002 A 
ATOM      6  C6  I4B d   1       1.495   0.067   0.615  0.00  0.00     0.003 A 
ENDROOT
BRANCH   1   7
ATOM      7  C1' I4B d   1      -0.594  -1.190   0.020  0.00  0.00     0.060 C 
BRANCH   7   8
ATOM      8  C2' I4B d   1       0.178  -2.322  -0.627  0.00  0.00    -0.013 C 
ATOM      9  C4' I4B d   1      -0.485  -3.650  -0.373  0.00  0.00     0.013 C 
ATOM     10  C3' I4B d   1       0.273  -2.036  -2.096  0.00  0.00     0.013 C 
ENDBRANCH   7   8
ENDBRANCH   1   7
TORSDOF 2
ENDMDL
