MODEL 1
REMARK minimizedAffinity -4.59734917
REMARK minimizedRMSD -1
REMARK  2 active torsions:
REMARK  status: ('A' for Active; 'I' for Inactive)
REMARK    1  A    between atoms: C2'_3  and  C1'_4 
REMARK    2  A    between atoms: C1'_4  and  C1_5 
ROOT
ATOM      1  C1  I4B d   1       0.174  -0.302  -0.577  0.00  0.00    -0.075 A 
ATOM      2  C2  I4B d   1      -0.117  -0.892   0.627  0.00  0.00     0.003 A 
ATOM      3  C3  I4B d   1      -0.096  -2.302   0.754  0.00  0.00     0.002 A 
ATOM      4  C4  I4B d   1       0.169  -3.080  -0.354  0.00  0.00    -0.004 A 
ATOM      5  C5  I4B d   1       0.487  -2.479  -1.569  0.00  0.00     0.002 A 
ATOM      6  C6  I4B d   1       0.501  -1.081  -1.679  0.00  0.00     0.003 A 
ENDROOT
BRANCH   1   7
ATOM      7  C1' I4B d   1       0.110   1.189  -0.684  0.00  0.00     0.060 C 
BRANCH   7   8
ATOM      8  C2' I4B d   1       1.183   1.767   0.217  0.00  0.00    -0.013 C 
ATOM      9  C4' I4B d   1       2.455   2.024  -0.547  0.00  0.00     0.013 C 
ATOM     10  C3' I4B d   1       0.649   3.032   0.820  0.00  0.00     0.013 C 
ENDBRANCH   7   8
ENDBRANCH   1   7
TORSDOF 2
ENDMDL
