MODEL 1
REMARK minimizedAffinity -6.21324015
REMARK minimizedRMSD -1
REMARK  2 active torsions:
REMARK  status: ('A' for Active; 'I' for Inactive)
REMARK    1  A    between atoms: C2'_3  and  C1'_4 
REMARK    2  A    between atoms: C1'_4  and  C1_5 
ROOT
ATOM      1  C1  I4B d   1       0.076   0.044  -0.295  0.00  0.00    -0.075 A 
ATOM      2  C2  I4B d   1      -0.623  -0.355   0.817  0.00  0.00     0.003 A 
ATOM      3  C3  I4B d   1      -0.698  -1.727   1.157  0.00  0.00     0.002 A 
ATOM      4  C4  I4B d   1      -0.107  -2.665   0.336  0.00  0.00    -0.004 A 
ATOM      5  C5  I4B d   1       0.621  -2.257  -0.779  0.00  0.00     0.002 A 
ATOM      6  C6  I4B d   1       0.723  -0.893  -1.090  0.00  0.00     0.003 A 
ENDROOT
BRANCH   1   7
ATOM      7  C1' I4B d   1       0.107   1.498  -0.644  0.00  0.00     0.060 C 
BRANCH   7   8
ATOM      8  C2' I4B d   1       0.801   2.234   0.484  0.00  0.00    -0.013 C 
ATOM      9  C4' I4B d   1       2.258   2.457   0.175  0.00  0.00     0.013 C 
ATOM     10  C3' I4B d   1       0.087   3.535   0.697  0.00  0.00     0.013 C 
ENDBRANCH   7   8
ENDBRANCH   1   7
TORSDOF 2
ENDMDL
