MODEL 1
REMARK minimizedAffinity -4.31006241
REMARK minimizedRMSD -1
REMARK  2 active torsions:
REMARK  status: ('A' for Active; 'I' for Inactive)
REMARK    1  A    between atoms: C2'_3  and  C1'_4 
REMARK    2  A    between atoms: C1'_4  and  C1_5 
ROOT
ATOM      1  C1  I4B d   1      -0.147   0.594   0.376  0.00  0.00    -0.075 A 
ATOM      2  C2  I4B d   1      -0.467   1.754  -0.284  0.00  0.00     0.003 A 
ATOM      3  C3  I4B d   1       0.456   2.827  -0.328  0.00  0.00     0.002 A 
ATOM      4  C4  I4B d   1       1.658   2.717   0.340  0.00  0.00    -0.004 A 
ATOM      5  C5  I4B d   1       1.990   1.531   0.990  0.00  0.00     0.002 A 
ATOM      6  C6  I4B d   1       1.087   0.458   0.998  0.00  0.00     0.003 A 
ENDROOT
BRANCH   1   7
ATOM      7  C1' I4B d   1      -1.159  -0.507   0.430  0.00  0.00     0.060 C 
BRANCH   7   8
ATOM      8  C2' I4B d   1      -0.421  -1.825   0.319  0.00  0.00    -0.013 C 
ATOM      9  C4' I4B d   1      -0.595  -2.655   1.564  0.00  0.00     0.013 C 
ATOM     10  C3' I4B d   1      -0.940  -2.546  -0.889  0.00  0.00     0.013 C 
ENDBRANCH   7   8
ENDBRANCH   1   7
TORSDOF 2
ENDMDL
