MODEL 1
REMARK minimizedAffinity -6.0888052
REMARK minimizedRMSD -1
REMARK  2 active torsions:
REMARK  status: ('A' for Active; 'I' for Inactive)
REMARK    1  A    between atoms: C2'_3  and  C1'_4 
REMARK    2  A    between atoms: C1'_4  and  C1_5 
ROOT
ATOM      1  C1  I4B d   1       0.137  -1.353   0.191  0.00  0.00    -0.075 A 
ATOM      2  C2  I4B d   1      -0.353  -2.399   0.934  0.00  0.00     0.003 A 
ATOM      3  C3  I4B d   1      -0.606  -3.650   0.322  0.00  0.00     0.002 A 
ATOM      4  C4  I4B d   1      -0.405  -3.797  -1.035  0.00  0.00    -0.004 A 
ATOM      5  C5  I4B d   1       0.114  -2.743  -1.782  0.00  0.00     0.002 A 
ATOM      6  C6  I4B d   1       0.398  -1.517  -1.163  0.00  0.00     0.003 A 
ENDROOT
BRANCH   1   7
ATOM      7  C1' I4B d   1       0.362  -0.035   0.863  0.00  0.00     0.060 C 
BRANCH   7   8
ATOM      8  C2' I4B d   1       0.820   0.953  -0.191  0.00  0.00    -0.013 C 
ATOM      9  C4' I4B d   1      -0.315   1.832  -0.644  0.00  0.00     0.013 C 
ATOM     10  C3' I4B d   1       1.936   1.767   0.393  0.00  0.00     0.013 C 
ENDBRANCH   7   8
ENDBRANCH   1   7
TORSDOF 2
ENDMDL
