MODEL 1
REMARK minimizedAffinity -4.62612343
REMARK minimizedRMSD -1
REMARK  2 active torsions:
REMARK  status: ('A' for Active; 'I' for Inactive)
REMARK    1  A    between atoms: C2'_3  and  C1'_4 
REMARK    2  A    between atoms: C1'_4  and  C1_5 
ROOT
ATOM      1  C1  I4B d   1      -0.078   0.025   0.207  0.00  0.00    -0.075 A 
ATOM      2  C2  I4B d   1       0.351  -1.047  -0.536  0.00  0.00     0.003 A 
ATOM      3  C3  I4B d   1       0.169  -2.366  -0.056  0.00  0.00     0.002 A 
ATOM      4  C4  I4B d   1      -0.396  -2.565   1.187  0.00  0.00    -0.004 A 
ATOM      5  C5  I4B d   1      -0.851  -1.479   1.930  0.00  0.00     0.002 A 
ATOM      6  C6  I4B d   1      -0.702  -0.176   1.431  0.00  0.00     0.003 A 
ENDROOT
BRANCH   1   7
ATOM      7  C1' I4B d   1       0.160   1.406  -0.316  0.00  0.00     0.060 C 
BRANCH   7   8
ATOM      8  C2' I4B d   1       1.058   2.129   0.667  0.00  0.00    -0.013 C 
ATOM      9  C4' I4B d   1       2.499   2.074   0.230  0.00  0.00     0.013 C 
ATOM     10  C3' I4B d   1       0.579   3.546   0.776  0.00  0.00     0.013 C 
ENDBRANCH   7   8
ENDBRANCH   1   7
TORSDOF 2
ENDMDL
