MODEL 1
REMARK minimizedAffinity -6.49018812
REMARK minimizedRMSD -1
REMARK  2 active torsions:
REMARK  status: ('A' for Active; 'I' for Inactive)
REMARK    1  A    between atoms: C2'_3  and  C1'_4 
REMARK    2  A    between atoms: C1'_4  and  C1_5 
ROOT
ATOM      1  C1  I4B d   1       0.093  -0.228  -0.646  0.00  0.00    -0.075 A 
ATOM      2  C2  I4B d   1       0.621  -1.242  -1.406  0.00  0.00     0.003 A 
ATOM      3  C3  I4B d   1       0.380  -2.593  -1.059  0.00  0.00     0.002 A 
ATOM      4  C4  I4B d   1      -0.348  -2.883   0.077  0.00  0.00    -0.004 A 
ATOM      5  C5  I4B d   1      -0.902  -1.854   0.833  0.00  0.00     0.002 A 
ATOM      6  C6  I4B d   1      -0.690  -0.518   0.463  0.00  0.00     0.003 A 
ENDROOT
BRANCH   1   7
ATOM      7  C1' I4B d   1       0.396   1.188  -1.022  0.00  0.00     0.060 C 
BRANCH   7   8
ATOM      8  C2' I4B d   1       1.271   1.782   0.063  0.00  0.00    -0.013 C 
ATOM      9  C4' I4B d   1       2.631   2.146  -0.473  0.00  0.00     0.013 C 
ATOM     10  C3' I4B d   1       0.568   2.985   0.618  0.00  0.00     0.013 C 
ENDBRANCH   7   8
ENDBRANCH   1   7
TORSDOF 2
ENDMDL
