MODEL 1
REMARK minimizedAffinity -5.68980408
REMARK minimizedRMSD -1
REMARK  2 active torsions:
REMARK  status: ('A' for Active; 'I' for Inactive)
REMARK    1  A    between atoms: C2'_3  and  C1'_4 
REMARK    2  A    between atoms: C1'_4  and  C1_5 
ROOT
ATOM      1  C1  I4B d   1      -0.138   0.006  -0.151  0.00  0.00    -0.075 A 
ATOM      2  C2  I4B d   1      -0.118  -1.067  -1.007  0.00  0.00     0.003 A 
ATOM      3  C3  I4B d   1      -0.286  -2.381  -0.508  0.00  0.00     0.002 A 
ATOM      4  C4  I4B d   1      -0.420  -2.579   0.851  0.00  0.00    -0.004 A 
ATOM      5  C5  I4B d   1      -0.463  -1.489   1.716  0.00  0.00     0.002 A 
ATOM      6  C6  I4B d   1      -0.334  -0.187   1.210  0.00  0.00     0.003 A 
ENDROOT
BRANCH   1   7
ATOM      7  C1' I4B d   1       0.075   1.377  -0.708  0.00  0.00     0.060 C 
BRANCH   7   8
ATOM      8  C2' I4B d   1       0.735   2.220   0.364  0.00  0.00    -0.013 C 
ATOM      9  C4' I4B d   1       2.233   2.226   0.209  0.00  0.00     0.013 C 
ATOM     10  C3' I4B d   1       0.175   3.608   0.272  0.00  0.00     0.013 C 
ENDBRANCH   7   8
ENDBRANCH   1   7
TORSDOF 2
ENDMDL
