MODEL 1
REMARK minimizedAffinity -1.93298578
REMARK minimizedRMSD -1
REMARK  0 active torsions:
REMARK  status: ('A' for Active; 'I' for Inactive)
ROOT
ATOM      1  N1  IND d   1       1.283  -0.168  -0.227  0.00  0.00    -0.196 N 
ATOM      2  C2  IND d   1       0.005  -0.474  -0.601  0.00  0.00     0.054 A 
ATOM      3  C3  IND d   1      -0.817   0.574  -0.370  0.00  0.00    -0.031 A 
ATOM      4  C4  IND d   1      -0.260   2.923   0.523  0.00  0.00     0.051 A 
ATOM      5  C5  IND d   1       0.767   3.665   1.036  0.00  0.00    -0.031 A 
ATOM      6  C6  IND d   1       2.045   3.158   1.155  0.00  0.00     0.015 A 
ATOM      7  C7  IND d   1       2.347   1.888   0.752  0.00  0.00    -0.016 A 
ATOM      8  C8  IND d   1       1.305   1.129   0.237  0.00  0.00    -0.047 A 
ATOM      9  C9  IND d   1      -0.003   1.624   0.154  0.00  0.00    -0.096 A 
ATOM     10  HN1 IND d   1       1.960  -0.696  -0.273  0.00  0.00     0.298 HD
ENDROOT
TORSDOF 0
ENDMDL
