MODEL 1
REMARK minimizedAffinity 4.87973452
REMARK minimizedRMSD -1
REMARK  0 active torsions:
REMARK  status: ('A' for Active; 'I' for Inactive)
ROOT
ATOM      1  N1  IND d   1       2.242   0.296   0.743  0.00  0.00    -0.196 N 
ATOM      2  C2  IND d   1       2.866   1.397   1.260  0.00  0.00     0.054 A 
ATOM      3  C3  IND d   1       1.960   2.357   1.555  0.00  0.00    -0.031 A 
ATOM      4  C4  IND d   1      -0.607   2.296   1.367  0.00  0.00     0.051 A 
ATOM      5  C5  IND d   1      -1.635   1.518   0.915  0.00  0.00    -0.031 A 
ATOM      6  C6  IND d   1      -1.420   0.267   0.374  0.00  0.00     0.015 A 
ATOM      7  C7  IND d   1      -0.164  -0.260   0.275  0.00  0.00    -0.016 A 
ATOM      8  C8  IND d   1       0.884   0.530   0.727  0.00  0.00    -0.047 A 
ATOM      9  C9  IND d   1       0.676   1.818   1.237  0.00  0.00    -0.096 A 
ATOM     10  HN1 IND d   1       2.631  -0.421   0.474  0.00  0.00     0.298 HD
ENDROOT
TORSDOF 0
ENDMDL
