MODEL 1
REMARK minimizedAffinity -4.88478231
REMARK minimizedRMSD -1
REMARK  0 active torsions:
REMARK  status: ('A' for Active; 'I' for Inactive)
ROOT
ATOM      1  N1  IND d   1      -1.445   0.431  -1.260  0.00  0.00    -0.196 N 
ATOM      2  C2  IND d   1      -1.185   1.288  -0.227  0.00  0.00     0.054 A 
ATOM      3  C3  IND d   1      -0.414   0.682   0.704  0.00  0.00    -0.031 A 
ATOM      4  C4  IND d   1       0.618  -1.676   0.691  0.00  0.00     0.051 A 
ATOM      5  C5  IND d   1       0.633  -2.841  -0.023  0.00  0.00    -0.031 A 
ATOM      6  C6  IND d   1      -0.056  -2.977  -1.211  0.00  0.00     0.015 A 
ATOM      7  C7  IND d   1      -0.779  -1.945  -1.738  0.00  0.00    -0.016 A 
ATOM      8  C8  IND d   1      -0.802  -0.762  -1.012  0.00  0.00    -0.047 A 
ATOM      9  C9  IND d   1      -0.140  -0.632   0.216  0.00  0.00    -0.096 A 
ATOM     10  HN1 IND d   1      -1.929   0.607  -1.948  0.00  0.00     0.298 HD
ENDROOT
TORSDOF 0
ENDMDL
