MODEL 1
REMARK minimizedAffinity -3.39787483
REMARK minimizedRMSD -1
REMARK  0 active torsions:
REMARK  status: ('A' for Active; 'I' for Inactive)
ROOT
ATOM      1  N1  IND d   1      -1.387   1.015   0.732  0.00  0.00    -0.196 N 
ATOM      2  C2  IND d   1      -0.998  -0.038  -0.047  0.00  0.00     0.054 A 
ATOM      3  C3  IND d   1       0.208   0.210  -0.606  0.00  0.00    -0.031 A 
ATOM      4  C4  IND d   1       1.768   2.234  -0.297  0.00  0.00     0.051 A 
ATOM      5  C5  IND d   1       1.830   3.466   0.291  0.00  0.00    -0.031 A 
ATOM      6  C6  IND d   1       0.803   3.953   1.075  0.00  0.00     0.015 A 
ATOM      7  C7  IND d   1      -0.324   3.218   1.309  0.00  0.00    -0.016 A 
ATOM      8  C8  IND d   1      -0.394   1.969   0.708  0.00  0.00    -0.047 A 
ATOM      9  C9  IND d   1       0.627   1.487  -0.123  0.00  0.00    -0.096 A 
ATOM     10  HN1 IND d   1      -2.128   1.072   1.165  0.00  0.00     0.298 HD
ENDROOT
TORSDOF 0
ENDMDL
