MODEL 1
REMARK minimizedAffinity -5.19907141
REMARK minimizedRMSD -1
REMARK  0 active torsions:
REMARK  status: ('A' for Active; 'I' for Inactive)
ROOT
ATOM      1  N1  IND d   1       2.438   0.086   0.536  0.00  0.00    -0.196 N 
ATOM      2  C2  IND d   1       1.689  -1.043   0.354  0.00  0.00     0.054 A 
ATOM      3  C3  IND d   1       0.405  -0.718   0.086  0.00  0.00    -0.031 A 
ATOM      4  C4  IND d   1      -0.669   1.604  -0.202  0.00  0.00     0.051 A 
ATOM      5  C5  IND d   1      -0.395   2.938  -0.095  0.00  0.00    -0.031 A 
ATOM      6  C6  IND d   1       0.864   3.400   0.233  0.00  0.00     0.015 A 
ATOM      7  C7  IND d   1       1.903   2.540   0.454  0.00  0.00    -0.016 A 
ATOM      8  C8  IND d   1       1.626   1.184   0.353  0.00  0.00    -0.047 A 
ATOM      9  C9  IND d   1       0.341   0.709   0.063  0.00  0.00    -0.096 A 
ATOM     10  HN1 IND d   1       3.275   0.108   0.732  0.00  0.00     0.298 HD
ENDROOT
TORSDOF 0
ENDMDL
