MODEL 1
REMARK minimizedAffinity 1.46967745
REMARK minimizedRMSD -1
REMARK  0 active torsions:
REMARK  status: ('A' for Active; 'I' for Inactive)
ROOT
ATOM      1  N1  IND d   1       2.430   0.998   1.033  0.00  0.00    -0.196 N 
ATOM      2  C2  IND d   1       2.718  -0.206   0.453  0.00  0.00     0.054 A 
ATOM      3  C3  IND d   1       1.579  -0.832   0.079  0.00  0.00    -0.031 A 
ATOM      4  C4  IND d   1      -0.859  -0.019   0.230  0.00  0.00     0.051 A 
ATOM      5  C5  IND d   1      -1.626   1.002   0.716  0.00  0.00    -0.031 A 
ATOM      6  C6  IND d   1      -1.069   2.097   1.344  0.00  0.00     0.015 A 
ATOM      7  C7  IND d   1       0.283   2.218   1.498  0.00  0.00    -0.016 A 
ATOM      8  C8  IND d   1       1.065   1.180   1.012  0.00  0.00    -0.047 A 
ATOM      9  C9  IND d   1       0.502   0.046   0.412  0.00  0.00    -0.096 A 
ATOM     10  HN1 IND d   1       3.005   1.549   1.356  0.00  0.00     0.298 HD
ENDROOT
TORSDOF 0
ENDMDL
