MODEL 1
REMARK minimizedAffinity -6.03281212
REMARK minimizedRMSD -1
REMARK  0 active torsions:
REMARK  status: ('A' for Active; 'I' for Inactive)
ROOT
ATOM      1  N1  IND d   1       2.143   2.364   0.430  0.00  0.00    -0.196 N 
ATOM      2  C2  IND d   1       1.306   3.430   0.252  0.00  0.00     0.054 A 
ATOM      3  C3  IND d   1       0.034   3.006   0.082  0.00  0.00    -0.031 A 
ATOM      4  C4  IND d   1      -0.917   0.615   0.160  0.00  0.00     0.051 A 
ATOM      5  C5  IND d   1      -0.535  -0.694   0.260  0.00  0.00    -0.031 A 
ATOM      6  C6  IND d   1       0.786  -1.057   0.428  0.00  0.00     0.015 A 
ATOM      7  C7  IND d   1       1.776  -0.120   0.514  0.00  0.00    -0.016 A 
ATOM      8  C8  IND d   1       1.393   1.209   0.406  0.00  0.00    -0.047 A 
ATOM      9  C9  IND d   1       0.060   1.582   0.193  0.00  0.00    -0.096 A 
ATOM     10  HN1 IND d   1       2.995   2.408   0.539  0.00  0.00     0.298 HD
ENDROOT
TORSDOF 0
ENDMDL
