MODEL 1
REMARK minimizedAffinity 0.135412171
REMARK minimizedRMSD -1
REMARK  0 active torsions:
REMARK  status: ('A' for Active; 'I' for Inactive)
ROOT
ATOM      1  N1  IND d   1      -0.582  -3.652  -2.332  0.00  0.00    -0.196 N 
ATOM      2  C2  IND d   1      -1.571  -4.135  -1.520  0.00  0.00     0.054 A 
ATOM      3  C3  IND d   1      -1.644  -3.406  -0.384  0.00  0.00    -0.031 A 
ATOM      4  C4  IND d   1      -0.311  -1.315   0.308  0.00  0.00     0.051 A 
ATOM      5  C5  IND d   1       0.727  -0.520  -0.089  0.00  0.00    -0.031 A 
ATOM      6  C6  IND d   1       1.393  -0.730  -1.279  0.00  0.00     0.015 A 
ATOM      7  C7  IND d   1       1.037  -1.741  -2.126  0.00  0.00    -0.016 A 
ATOM      8  C8  IND d   1      -0.012  -2.556  -1.723  0.00  0.00    -0.047 A 
ATOM      9  C9  IND d   1      -0.664  -2.373  -0.496  0.00  0.00    -0.096 A 
ATOM     10  HN1 IND d   1      -0.355  -3.978  -3.094  0.00  0.00     0.298 HD
ENDROOT
TORSDOF 0
ENDMDL
