MODEL 1
REMARK minimizedAffinity -2.5373013
REMARK minimizedRMSD -1
REMARK  0 active torsions:
REMARK  status: ('A' for Active; 'I' for Inactive)
ROOT
ATOM      1  N1  IND d   1      -0.115   0.036  -1.114  0.00  0.00    -0.196 N 
ATOM      2  C2  IND d   1      -0.046   0.152   0.246  0.00  0.00     0.054 A 
ATOM      3  C3  IND d   1      -0.464  -0.990   0.837  0.00  0.00    -0.031 A 
ATOM      4  C4  IND d   1      -1.208  -3.209  -0.236  0.00  0.00     0.051 A 
ATOM      5  C5  IND d   1      -1.470  -3.785  -1.447  0.00  0.00    -0.031 A 
ATOM      6  C6  IND d   1      -1.288  -3.104  -2.633  0.00  0.00     0.015 A 
ATOM      7  C7  IND d   1      -0.823  -1.820  -2.653  0.00  0.00    -0.016 A 
ATOM      8  C8  IND d   1      -0.563  -1.229  -1.425  0.00  0.00    -0.047 A 
ATOM      9  C9  IND d   1      -0.786  -1.901  -0.216  0.00  0.00    -0.096 A 
ATOM     10  HN1 IND d   1       0.088   0.651  -1.680  0.00  0.00     0.298 HD
ENDROOT
TORSDOF 0
ENDMDL
