MODEL 1
REMARK minimizedAffinity -0.404388994
REMARK minimizedRMSD -1
REMARK  0 active torsions:
REMARK  status: ('A' for Active; 'I' for Inactive)
ROOT
ATOM      1  N1  IND d   1       0.466  -2.571  -2.281  0.00  0.00    -0.196 N 
ATOM      2  C2  IND d   1      -0.675  -3.300  -2.471  0.00  0.00     0.054 A 
ATOM      3  C3  IND d   1      -1.624  -2.929  -1.582  0.00  0.00    -0.031 A 
ATOM      4  C4  IND d   1      -1.556  -1.078   0.206  0.00  0.00     0.051 A 
ATOM      5  C5  IND d   1      -0.715  -0.167   0.781  0.00  0.00    -0.031 A 
ATOM      6  C6  IND d   1       0.587  -0.005   0.355  0.00  0.00     0.015 A 
ATOM      7  C7  IND d   1       1.096  -0.744  -0.675  0.00  0.00    -0.016 A 
ATOM      8  C8  IND d   1       0.248  -1.676  -1.257  0.00  0.00    -0.047 A 
ATOM      9  C9  IND d   1      -1.061  -1.874  -0.800  0.00  0.00    -0.096 A 
ATOM     10  HN1 IND d   1       1.196  -2.657  -2.726  0.00  0.00     0.298 HD
ENDROOT
TORSDOF 0
ENDMDL
