MODEL 1
REMARK minimizedAffinity -3.24163032
REMARK minimizedRMSD -1
REMARK  0 active torsions:
REMARK  status: ('A' for Active; 'I' for Inactive)
ROOT
ATOM      1  N1  IND d   1       0.424  -0.715  -0.201  0.00  0.00    -0.196 N 
ATOM      2  C2  IND d   1      -0.922  -0.777  -0.431  0.00  0.00     0.054 A 
ATOM      3  C3  IND d   1      -1.537   0.315   0.076  0.00  0.00    -0.031 A 
ATOM      4  C4  IND d   1      -0.517   2.376   1.233  0.00  0.00     0.051 A 
ATOM      5  C5  IND d   1       0.666   2.872   1.702  0.00  0.00    -0.031 A 
ATOM      6  C6  IND d   1       1.854   2.185   1.556  0.00  0.00     0.015 A 
ATOM      7  C7  IND d   1       1.904   0.977   0.921  0.00  0.00    -0.016 A 
ATOM      8  C8  IND d   1       0.703   0.466   0.450  0.00  0.00    -0.047 A 
ATOM      9  C9  IND d   1      -0.512   1.139   0.633  0.00  0.00    -0.096 A 
ATOM     10  HN1 IND d   1       0.999  -1.314  -0.425  0.00  0.00     0.298 HD
ENDROOT
TORSDOF 0
ENDMDL
