MODEL 1
REMARK minimizedAffinity -4.17362785
REMARK minimizedRMSD -1
REMARK  0 active torsions:
REMARK  status: ('A' for Active; 'I' for Inactive)
ROOT
ATOM      1  N1  IND d   1      -1.069   0.805   1.110  0.00  0.00    -0.196 N 
ATOM      2  C2  IND d   1      -0.809  -0.353   0.433  0.00  0.00     0.054 A 
ATOM      3  C3  IND d   1       0.345  -0.243  -0.263  0.00  0.00    -0.031 A 
ATOM      4  C4  IND d   1       2.019   1.711  -0.353  0.00  0.00     0.051 A 
ATOM      5  C5  IND d   1       2.196   2.998   0.071  0.00  0.00    -0.031 A 
ATOM      6  C6  IND d   1       1.277   3.632   0.881  0.00  0.00     0.015 A 
ATOM      7  C7  IND d   1       0.146   2.996   1.309  0.00  0.00    -0.016 A 
ATOM      8  C8  IND d   1      -0.040   1.691   0.875  0.00  0.00    -0.047 A 
ATOM      9  C9  IND d   1       0.868   1.057   0.018  0.00  0.00    -0.096 A 
ATOM     10  HN1 IND d   1      -1.759   0.956   1.600  0.00  0.00     0.298 HD
ENDROOT
TORSDOF 0
ENDMDL
