MODEL 1
REMARK minimizedAffinity -5.86776447
REMARK minimizedRMSD -1
REMARK  0 active torsions:
REMARK  status: ('A' for Active; 'I' for Inactive)
ROOT
ATOM      1  N1  IND d   1       0.439  -0.355  -0.305  0.00  0.00    -0.196 N 
ATOM      2  C2  IND d   1      -0.928  -0.334  -0.313  0.00  0.00     0.054 A 
ATOM      3  C3  IND d   1      -1.380   0.928  -0.131  0.00  0.00    -0.031 A 
ATOM      4  C4  IND d   1      -0.053   3.122   0.101  0.00  0.00     0.051 A 
ATOM      5  C5  IND d   1       1.221   3.605   0.206  0.00  0.00    -0.031 A 
ATOM      6  C6  IND d   1       2.322   2.775   0.141  0.00  0.00     0.015 A 
ATOM      7  C7  IND d   1       2.189   1.428  -0.042  0.00  0.00    -0.016 A 
ATOM      8  C8  IND d   1       0.897   0.934  -0.142  0.00  0.00    -0.047 A 
ATOM      9  C9  IND d   1      -0.226   1.765  -0.034  0.00  0.00    -0.096 A 
ATOM     10  HN1 IND d   1       0.930  -1.056  -0.387  0.00  0.00     0.298 HD
ENDROOT
TORSDOF 0
ENDMDL
