MODEL 1
REMARK minimizedAffinity -2.76396179
REMARK minimizedRMSD -1
REMARK  0 active torsions:
REMARK  status: ('A' for Active; 'I' for Inactive)
ROOT
ATOM      1  N1  IND d   1       0.977  -0.633   0.083  0.00  0.00    -0.196 N 
ATOM      2  C2  IND d   1      -0.350  -0.883  -0.129  0.00  0.00     0.054 A 
ATOM      3  C3  IND d   1      -1.057   0.269  -0.093  0.00  0.00    -0.031 A 
ATOM      4  C4  IND d   1      -0.227   2.689   0.196  0.00  0.00     0.051 A 
ATOM      5  C5  IND d   1       0.899   3.417   0.457  0.00  0.00    -0.031 A 
ATOM      6  C6  IND d   1       2.134   2.821   0.607  0.00  0.00     0.015 A 
ATOM      7  C7  IND d   1       2.292   1.469   0.490  0.00  0.00    -0.016 A 
ATOM      8  C8  IND d   1       1.149   0.726   0.232  0.00  0.00    -0.047 A 
ATOM      9  C9  IND d   1      -0.114   1.321   0.120  0.00  0.00    -0.096 A 
ATOM     10  HN1 IND d   1       1.600  -1.225   0.117  0.00  0.00     0.298 HD
ENDROOT
TORSDOF 0
ENDMDL
