MODEL 1
REMARK minimizedAffinity -3.64836049
REMARK minimizedRMSD -1
REMARK  0 active torsions:
REMARK  status: ('A' for Active; 'I' for Inactive)
ROOT
ATOM      1  N1  IND d   1       2.326   0.047   0.964  0.00  0.00    -0.196 N 
ATOM      2  C2  IND d   1       2.931   1.273   0.975  0.00  0.00     0.054 A 
ATOM      3  C3  IND d   1       2.004   2.256   0.921  0.00  0.00    -0.031 A 
ATOM      4  C4  IND d   1      -0.564   2.082   0.912  0.00  0.00     0.051 A 
ATOM      5  C5  IND d   1      -1.582   1.172   0.857  0.00  0.00    -0.031 A 
ATOM      6  C6  IND d   1      -1.345  -0.187   0.837  0.00  0.00     0.015 A 
ATOM      7  C7  IND d   1      -0.075  -0.689   0.883  0.00  0.00    -0.016 A 
ATOM      8  C8  IND d   1       0.961   0.232   0.932  0.00  0.00    -0.047 A 
ATOM      9  C9  IND d   1       0.728   1.613   0.910  0.00  0.00    -0.096 A 
ATOM     10  HN1 IND d   1       2.730  -0.712   0.975  0.00  0.00     0.298 HD
ENDROOT
TORSDOF 0
ENDMDL
