MODEL 1
REMARK minimizedAffinity 2.83924389
REMARK minimizedRMSD -1
REMARK  0 active torsions:
REMARK  status: ('A' for Active; 'I' for Inactive)
ROOT
ATOM      1  N1  IND d   1       0.662  -0.321  -0.866  0.00  0.00    -0.196 N 
ATOM      2  C2  IND d   1       0.071   0.183   0.259  0.00  0.00     0.054 A 
ATOM      3  C3  IND d   1      -0.968  -0.597   0.633  0.00  0.00    -0.031 A 
ATOM      4  C4  IND d   1      -1.811  -2.802  -0.393  0.00  0.00     0.051 A 
ATOM      5  C5  IND d   1      -1.613  -3.642  -1.453  0.00  0.00    -0.031 A 
ATOM      6  C6  IND d   1      -0.625  -3.414  -2.389  0.00  0.00     0.015 A 
ATOM      7  C7  IND d   1       0.213  -2.340  -2.293  0.00  0.00    -0.016 A 
ATOM      8  C8  IND d   1       0.011  -1.481  -1.222  0.00  0.00    -0.047 A 
ATOM      9  C9  IND d   1      -1.018  -1.684  -0.292  0.00  0.00    -0.096 A 
ATOM     10  HN1 IND d   1       1.329   0.029  -1.281  0.00  0.00     0.298 HD
ENDROOT
TORSDOF 0
ENDMDL
