MODEL 1
REMARK minimizedAffinity -6.32847643
REMARK minimizedRMSD -1
REMARK  0 active torsions:
REMARK  status: ('A' for Active; 'I' for Inactive)
ROOT
ATOM      1  N1  IND d   1       0.738  -0.477   0.501  0.00  0.00    -0.196 N 
ATOM      2  C2  IND d   1      -0.625  -0.581   0.467  0.00  0.00     0.054 A 
ATOM      3  C3  IND d   1      -1.190   0.645   0.403  0.00  0.00    -0.031 A 
ATOM      4  C4  IND d   1      -0.067   2.956   0.244  0.00  0.00     0.051 A 
ATOM      5  C5  IND d   1       1.157   3.564   0.278  0.00  0.00    -0.031 A 
ATOM      6  C6  IND d   1       2.327   2.841   0.387  0.00  0.00     0.015 A 
ATOM      7  C7  IND d   1       2.318   1.477   0.456  0.00  0.00    -0.016 A 
ATOM      8  C8  IND d   1       1.077   0.857   0.429  0.00  0.00    -0.047 A 
ATOM      9  C9  IND d   1      -0.117   1.587   0.361  0.00  0.00    -0.096 A 
ATOM     10  HN1 IND d   1       1.290  -1.133   0.559  0.00  0.00     0.298 HD
ENDROOT
TORSDOF 0
ENDMDL
