MODEL 1
REMARK minimizedAffinity 9.18750572
REMARK minimizedRMSD -1
REMARK  0 active torsions:
REMARK  status: ('A' for Active; 'I' for Inactive)
ROOT
ATOM      1  C   UNL d   1      -4.882   0.722  -0.526  0.00  0.00     0.078 C 
ATOM      2  C1  UNL d   1      -5.275   1.322  -1.843  0.00  0.00    -0.077 A 
ATOM      3  C2  UNL d   1      -5.270   0.555  -3.015  0.00  0.00    -0.001 A 
ATOM      4  C3  UNL d   1      -5.629   1.129  -4.235  0.00  0.00     0.003 A 
ATOM      5  C4  UNL d   1      -5.994   2.473  -4.296  0.00  0.00    -0.005 A 
ATOM      6  C5  UNL d   1      -5.999   3.244  -3.136  0.00  0.00     0.003 A 
ATOM      7  C6  UNL d   1      -5.641   2.672  -1.914  0.00  0.00    -0.001 A 
ENDROOT
TORSDOF 0
ENDMDL
