MODEL 1
REMARK minimizedAffinity 1.84550226
REMARK minimizedRMSD -1
REMARK  0 active torsions:
REMARK  status: ('A' for Active; 'I' for Inactive)
ROOT
ATOM      1  C   UNL d   1      -0.850  -3.600  -1.084  0.00  0.00     0.078 C 
ATOM      2  C1  UNL d   1       0.330  -2.756  -0.701  0.00  0.00    -0.077 A 
ATOM      3  C2  UNL d   1       0.285  -1.361  -0.813  0.00  0.00    -0.001 A 
ATOM      4  C3  UNL d   1       1.394  -0.589  -0.462  0.00  0.00     0.003 A 
ATOM      5  C4  UNL d   1       2.556  -1.203   0.002  0.00  0.00    -0.005 A 
ATOM      6  C5  UNL d   1       2.610  -2.591   0.114  0.00  0.00     0.003 A 
ATOM      7  C6  UNL d   1       1.502  -3.365  -0.236  0.00  0.00    -0.001 A 
ENDROOT
TORSDOF 0
ENDMDL
