MODEL 1
REMARK minimizedAffinity 4.62549973
REMARK minimizedRMSD -1
REMARK  0 active torsions:
REMARK  status: ('A' for Active; 'I' for Inactive)
ROOT
ATOM      1  C   UNL d   1       1.410   0.414   4.187  0.00  0.00     0.078 C 
ATOM      2  C1  UNL d   1       0.468   1.145   3.278  0.00  0.00    -0.077 A 
ATOM      3  C2  UNL d   1       0.861   1.533   1.992  0.00  0.00    -0.001 A 
ATOM      4  C3  UNL d   1      -0.024   2.221   1.160  0.00  0.00     0.003 A 
ATOM      5  C4  UNL d   1      -1.308   2.529   1.607  0.00  0.00    -0.005 A 
ATOM      6  C5  UNL d   1      -1.707   2.149   2.887  0.00  0.00     0.003 A 
ATOM      7  C6  UNL d   1      -0.824   1.461   3.719  0.00  0.00    -0.001 A 
ENDROOT
TORSDOF 0
ENDMDL
