MODEL 1
REMARK minimizedAffinity -4.1162076
REMARK minimizedRMSD -1
REMARK  0 active torsions:
REMARK  status: ('A' for Active; 'I' for Inactive)
ROOT
ATOM      1  C   UNL d   1       0.953   2.169   0.404  0.00  0.00     0.078 C 
ATOM      2  C1  UNL d   1       0.922   0.689   0.163  0.00  0.00    -0.077 A 
ATOM      3  C2  UNL d   1      -0.286   0.022  -0.072  0.00  0.00    -0.001 A 
ATOM      4  C3  UNL d   1      -0.301  -1.358  -0.285  0.00  0.00     0.003 A 
ATOM      5  C4  UNL d   1       0.890  -2.082  -0.263  0.00  0.00    -0.005 A 
ATOM      6  C5  UNL d   1       2.097  -1.427  -0.027  0.00  0.00     0.003 A 
ATOM      7  C6  UNL d   1       2.113  -0.047   0.186  0.00  0.00    -0.001 A 
ENDROOT
TORSDOF 0
ENDMDL
