MODEL 1
REMARK minimizedAffinity -1.79760838
REMARK minimizedRMSD -1
REMARK  0 active torsions:
REMARK  status: ('A' for Active; 'I' for Inactive)
ROOT
ATOM      1  C   UNL d   1       2.089  -1.522  -0.321  0.00  0.00     0.078 C 
ATOM      2  C1  UNL d   1       0.980  -2.402  -0.813  0.00  0.00    -0.077 A 
ATOM      3  C2  UNL d   1       0.005  -1.912  -1.691  0.00  0.00    -0.001 A 
ATOM      4  C3  UNL d   1      -1.027  -2.740  -2.133  0.00  0.00     0.003 A 
ATOM      5  C4  UNL d   1      -1.096  -4.063  -1.702  0.00  0.00    -0.005 A 
ATOM      6  C5  UNL d   1      -0.132  -4.560  -0.827  0.00  0.00     0.003 A 
ATOM      7  C6  UNL d   1       0.901  -3.733  -0.384  0.00  0.00    -0.001 A 
ENDROOT
TORSDOF 0
ENDMDL
