MODEL 1
REMARK minimizedAffinity 4.51610899
REMARK minimizedRMSD -1
REMARK  0 active torsions:
REMARK  status: ('A' for Active; 'I' for Inactive)
ROOT
ATOM      1  C   UNL d   1      -1.860   1.884   2.583  0.00  0.00     0.078 C 
ATOM      2  C1  UNL d   1      -0.537   1.986   1.884  0.00  0.00    -0.077 A 
ATOM      3  C2  UNL d   1      -0.465   2.283   0.518  0.00  0.00    -0.001 A 
ATOM      4  C3  UNL d   1       0.773   2.366  -0.121  0.00  0.00     0.003 A 
ATOM      5  C4  UNL d   1       1.948   2.151   0.597  0.00  0.00    -0.005 A 
ATOM      6  C5  UNL d   1       1.885   1.853   1.957  0.00  0.00     0.003 A 
ATOM      7  C6  UNL d   1       0.648   1.770   2.598  0.00  0.00    -0.001 A 
ENDROOT
TORSDOF 0
ENDMDL
