MODEL 1
REMARK minimizedAffinity 4.3879199
REMARK minimizedRMSD -1
REMARK  0 active torsions:
REMARK  status: ('A' for Active; 'I' for Inactive)
ROOT
ATOM      1  C   UNL d   1      -0.954  -2.657  -3.112  0.00  0.00     0.078 C 
ATOM      2  C1  UNL d   1      -0.212  -1.984  -1.996  0.00  0.00    -0.077 A 
ATOM      3  C2  UNL d   1      -0.649  -0.761  -1.474  0.00  0.00    -0.001 A 
ATOM      4  C3  UNL d   1       0.057  -0.141  -0.442  0.00  0.00     0.003 A 
ATOM      5  C4  UNL d   1       1.206  -0.736   0.076  0.00  0.00    -0.005 A 
ATOM      6  C5  UNL d   1       1.650  -1.953  -0.439  0.00  0.00     0.003 A 
ATOM      7  C6  UNL d   1       0.945  -2.574  -1.471  0.00  0.00    -0.001 A 
ENDROOT
TORSDOF 0
ENDMDL
