MODEL 1
REMARK minimizedAffinity 2.35261679
REMARK minimizedRMSD -1
REMARK  0 active torsions:
REMARK  status: ('A' for Active; 'I' for Inactive)
ROOT
ATOM      1  C   UNL d   1       4.097  -2.382  -3.632  0.00  0.00     0.078 C 
ATOM      2  C1  UNL d   1       3.741  -1.386  -2.568  0.00  0.00    -0.077 A 
ATOM      3  C2  UNL d   1       2.643  -1.593  -1.725  0.00  0.00    -0.001 A 
ATOM      4  C3  UNL d   1       2.318  -0.654  -0.745  0.00  0.00     0.003 A 
ATOM      5  C4  UNL d   1       3.086   0.500  -0.601  0.00  0.00    -0.005 A 
ATOM      6  C5  UNL d   1       4.179   0.716  -1.437  0.00  0.00     0.003 A 
ATOM      7  C6  UNL d   1       4.506  -0.223  -2.417  0.00  0.00    -0.001 A 
ENDROOT
TORSDOF 0
ENDMDL
