MODEL 1
REMARK minimizedAffinity 10.4098482
REMARK minimizedRMSD -1
REMARK  0 active torsions:
REMARK  status: ('A' for Active; 'I' for Inactive)
ROOT
ATOM      1  C   UNL d   1       0.511  -1.795   3.210  0.00  0.00     0.020 A 
ATOM      2  C1  UNL d   1       0.077  -1.876   4.532  0.00  0.00     0.020 A 
ATOM      3  C2  UNL d   1       0.142  -3.093   5.215  0.00  0.00     0.034 A 
ATOM      4  C3  UNL d   1       0.643  -4.233   4.576  0.00  0.00     0.017 A 
ATOM      5  C4  UNL d   1       1.079  -4.150   3.249  0.00  0.00     0.017 A 
ATOM      6  C5  UNL d   1       1.011  -2.930   2.569  0.00  0.00     0.034 A 
ATOM      7 Cl   UNL d   1       1.709  -5.514   2.394  0.00  0.00    -0.070 Cl
ATOM      8 Cl1  UNL d   1       0.694  -5.704   5.481  0.00  0.00    -0.070 Cl
ENDROOT
TORSDOF 0
ENDMDL
