MODEL 1
REMARK minimizedAffinity 8.68878269
REMARK minimizedRMSD -1
REMARK  0 active torsions:
REMARK  status: ('A' for Active; 'I' for Inactive)
ROOT
ATOM      1  C   UNL d   1       4.839   5.471  -5.621  0.00  0.00     0.020 A 
ATOM      2  C1  UNL d   1       5.948   6.000  -4.964  0.00  0.00     0.020 A 
ATOM      3  C2  UNL d   1       6.000   5.997  -3.568  0.00  0.00     0.034 A 
ATOM      4  C3  UNL d   1       4.940   5.465  -2.826  0.00  0.00     0.017 A 
ATOM      5  C4  UNL d   1       3.826   4.934  -3.486  0.00  0.00     0.017 A 
ATOM      6  C5  UNL d   1       3.780   4.939  -4.884  0.00  0.00     0.034 A 
ATOM      7 Cl   UNL d   1       2.480   4.259  -2.639  0.00  0.00    -0.070 Cl
ATOM      8 Cl1  UNL d   1       5.071   5.494  -1.103  0.00  0.00    -0.070 Cl
ENDROOT
TORSDOF 0
ENDMDL
