MODEL 1
REMARK minimizedAffinity 11.0996237
REMARK minimizedRMSD -1
REMARK  0 active torsions:
REMARK  status: ('A' for Active; 'I' for Inactive)
ROOT
ATOM      1  C   UNL d   1      -3.003   1.500  -1.622  0.00  0.00     0.020 A 
ATOM      2  C1  UNL d   1      -3.080   1.269  -2.995  0.00  0.00     0.020 A 
ATOM      3  C2  UNL d   1      -4.010   1.965  -3.770  0.00  0.00     0.034 A 
ATOM      4  C3  UNL d   1      -4.869   2.895  -3.172  0.00  0.00     0.017 A 
ATOM      5  C4  UNL d   1      -4.791   3.126  -1.794  0.00  0.00     0.017 A 
ATOM      6  C5  UNL d   1      -3.857   2.427  -1.023  0.00  0.00     0.034 A 
ATOM      7 Cl   UNL d   1      -5.816   4.258  -0.985  0.00  0.00    -0.070 Cl
ATOM      8 Cl1  UNL d   1      -5.995   3.719  -4.190  0.00  0.00    -0.070 Cl
ENDROOT
TORSDOF 0
ENDMDL
