MODEL 1
REMARK minimizedAffinity 16.658247
REMARK minimizedRMSD -1
REMARK  0 active torsions:
REMARK  status: ('A' for Active; 'I' for Inactive)
ROOT
ATOM      1  C   UNL d   1      -3.758   1.136  -2.980  0.00  0.00     0.020 A 
ATOM      2  C1  UNL d   1      -4.591   1.309  -1.875  0.00  0.00     0.020 A 
ATOM      3  C2  UNL d   1      -5.273   0.216  -1.337  0.00  0.00     0.034 A 
ATOM      4  C3  UNL d   1      -5.124  -1.055  -1.903  0.00  0.00     0.017 A 
ATOM      5  C4  UNL d   1      -4.288  -1.228  -3.012  0.00  0.00     0.017 A 
ATOM      6  C5  UNL d   1      -3.607  -0.130  -3.547  0.00  0.00     0.034 A 
ATOM      7 Cl   UNL d   1      -4.053  -2.766  -3.765  0.00  0.00    -0.070 Cl
ATOM      8 Cl1  UNL d   1      -5.997  -2.362  -1.185  0.00  0.00    -0.070 Cl
ENDROOT
TORSDOF 0
ENDMDL
