MODEL 1
REMARK minimizedAffinity 5.6759305
REMARK minimizedRMSD -1
REMARK  0 active torsions:
REMARK  status: ('A' for Active; 'I' for Inactive)
ROOT
ATOM      1  C   UNL d   1      -4.859  -2.589  -3.080  0.00  0.00     0.020 A 
ATOM      2  C1  UNL d   1      -5.945  -1.964  -3.691  0.00  0.00     0.020 A 
ATOM      3  C2  UNL d   1      -5.996  -0.570  -3.768  0.00  0.00     0.034 A 
ATOM      4  C3  UNL d   1      -4.959   0.203  -3.233  0.00  0.00     0.017 A 
ATOM      5  C4  UNL d   1      -3.869  -0.425  -2.620  0.00  0.00     0.017 A 
ATOM      6  C5  UNL d   1      -3.823  -1.821  -2.545  0.00  0.00     0.034 A 
ATOM      7 Cl   UNL d   1      -2.552   0.462  -1.937  0.00  0.00    -0.070 Cl
ATOM      8 Cl1  UNL d   1      -5.088   1.921  -3.365  0.00  0.00    -0.070 Cl
ENDROOT
TORSDOF 0
ENDMDL
