MODEL 1
REMARK minimizedAffinity 12.1938229
REMARK minimizedRMSD -1
REMARK  0 active torsions:
REMARK  status: ('A' for Active; 'I' for Inactive)
ROOT
ATOM      1  C   UNL d   1      -4.094  -2.130  -4.396  0.00  0.00     0.020 A 
ATOM      2  C1  UNL d   1      -5.234  -2.129  -5.199  0.00  0.00     0.020 A 
ATOM      3  C2  UNL d   1      -5.751  -3.335  -5.678  0.00  0.00     0.034 A 
ATOM      4  C3  UNL d   1      -5.128  -4.546  -5.355  0.00  0.00     0.017 A 
ATOM      5  C4  UNL d   1      -3.984  -4.545  -4.550  0.00  0.00     0.017 A 
ATOM      6  C5  UNL d   1      -3.471  -3.336  -4.072  0.00  0.00     0.034 A 
ATOM      7 Cl   UNL d   1      -3.160  -6.000  -4.109  0.00  0.00    -0.070 Cl
ATOM      8 Cl1  UNL d   1      -5.823  -5.998  -5.983  0.00  0.00    -0.070 Cl
ENDROOT
TORSDOF 0
ENDMDL
