MODEL 1
REMARK minimizedAffinity 18.2377625
REMARK minimizedRMSD -1
REMARK  0 active torsions:
REMARK  status: ('A' for Active; 'I' for Inactive)
ROOT
ATOM      1  C   UNL d   1       5.817   5.940  -4.499  0.00  0.00     0.020 A 
ATOM      2  C1  UNL d   1       4.605   5.494  -5.025  0.00  0.00     0.020 A 
ATOM      3  C2  UNL d   1       3.572   5.108  -4.167  0.00  0.00     0.034 A 
ATOM      4  C3  UNL d   1       3.750   5.166  -2.780  0.00  0.00     0.017 A 
ATOM      5  C4  UNL d   1       4.967   5.614  -2.254  0.00  0.00     0.017 A 
ATOM      6  C5  UNL d   1       5.998   6.000  -3.117  0.00  0.00     0.034 A 
ATOM      7 Cl   UNL d   1       5.261   5.714  -0.554  0.00  0.00    -0.070 Cl
ATOM      8 Cl1  UNL d   1       2.431   4.673  -1.780  0.00  0.00    -0.070 Cl
ENDROOT
TORSDOF 0
ENDMDL
