MODEL 1
REMARK minimizedAffinity 3.66315746
REMARK minimizedRMSD -1
REMARK  0 active torsions:
REMARK  status: ('A' for Active; 'I' for Inactive)
ROOT
ATOM      1  C   UNL d   1      -5.614  -4.084  -6.000  0.00  0.00     0.020 A 
ATOM      2  C1  UNL d   1      -5.299  -5.443  -6.000  0.00  0.00     0.020 A 
ATOM      3  C2  UNL d   1      -4.611  -6.000  -4.920  0.00  0.00     0.034 A 
ATOM      4  C3  UNL d   1      -4.234  -5.198  -3.837  0.00  0.00     0.017 A 
ATOM      5  C4  UNL d   1      -4.550  -3.835  -3.838  0.00  0.00     0.017 A 
ATOM      6  C5  UNL d   1      -5.240  -3.282  -4.921  0.00  0.00     0.034 A 
ATOM      7 Cl   UNL d   1      -4.118  -2.782  -2.536  0.00  0.00    -0.070 Cl
ATOM      8 Cl1  UNL d   1      -3.384  -5.954  -2.535  0.00  0.00    -0.070 Cl
ENDROOT
TORSDOF 0
ENDMDL
