MODEL 1
REMARK minimizedAffinity 5.56865454
REMARK minimizedRMSD -1
REMARK  0 active torsions:
REMARK  status: ('A' for Active; 'I' for Inactive)
ROOT
ATOM      1  C   UNL d   1       2.055  -2.445   3.365  0.00  0.00     0.020 A 
ATOM      2  C1  UNL d   1       1.940  -2.615   4.744  0.00  0.00     0.020 A 
ATOM      3  C2  UNL d   1       3.087  -2.727   5.532  0.00  0.00     0.034 A 
ATOM      4  C3  UNL d   1       4.355  -2.669   4.942  0.00  0.00     0.017 A 
ATOM      5  C4  UNL d   1       4.470  -2.498   3.558  0.00  0.00     0.017 A 
ATOM      6  C5  UNL d   1       3.318  -2.386   2.773  0.00  0.00     0.034 A 
ATOM      7 Cl   UNL d   1       6.000  -2.416   2.758  0.00  0.00    -0.070 Cl
ATOM      8 Cl1  UNL d   1       5.730  -2.814   5.978  0.00  0.00    -0.070 Cl
ENDROOT
TORSDOF 0
ENDMDL
