MODEL 1
REMARK minimizedAffinity 13.3667049
REMARK minimizedRMSD -1
REMARK  2 active torsions:
REMARK  status: ('A' for Active; 'I' for Inactive)
REMARK    1  A    between atoms: C2'_3  and  C1'_4 
REMARK    2  A    between atoms: C1'_4  and  C1_5 
ROOT
ATOM      1  C1  I4B d   1      -3.174   1.878  -2.700  0.00  0.00    -0.075 A 
ATOM      2  C2  I4B d   1      -3.794   0.950  -1.901  0.00  0.00     0.003 A 
ATOM      3  C3  I4B d   1      -3.109  -0.226  -1.511  0.00  0.00     0.002 A 
ATOM      4  C4  I4B d   1      -1.832  -0.456  -1.979  0.00  0.00    -0.004 A 
ATOM      5  C5  I4B d   1      -1.196   0.497  -2.770  0.00  0.00     0.002 A 
ATOM      6  C6  I4B d   1      -1.866   1.678  -3.123  0.00  0.00     0.003 A 
ENDROOT
BRANCH   1   7
ATOM      7  C1' I4B d   1      -3.938   3.093  -3.120  0.00  0.00     0.060 C 
BRANCH   7   8
ATOM      8  C2' I4B d   1      -3.741   3.276  -4.611  0.00  0.00    -0.013 C 
ATOM      9  C4' I4B d   1      -5.039   3.119  -5.357  0.00  0.00     0.013 C 
ATOM     10  C3' I4B d   1      -3.148   4.636  -4.837  0.00  0.00     0.013 C 
ENDBRANCH   7   8
ENDBRANCH   1   7
TORSDOF 2
ENDMDL
