MODEL 1
REMARK minimizedAffinity 9.73832417
REMARK minimizedRMSD -1
REMARK  2 active torsions:
REMARK  status: ('A' for Active; 'I' for Inactive)
REMARK    1  A    between atoms: C2'_3  and  C1'_4 
REMARK    2  A    between atoms: C1'_4  and  C1_5 
ROOT
ATOM      1  C1  I4B d   1       1.034  -1.764   2.792  0.00  0.00    -0.075 A 
ATOM      2  C2  I4B d   1      -0.114  -2.500   2.636  0.00  0.00     0.003 A 
ATOM      3  C3  I4B d   1      -1.376  -1.919   2.907  0.00  0.00     0.002 A 
ATOM      4  C4  I4B d   1      -1.441  -0.623   3.378  0.00  0.00    -0.004 A 
ATOM      5  C5  I4B d   1      -0.277   0.130   3.513  0.00  0.00     0.002 A 
ATOM      6  C6  I4B d   1       0.967  -0.440   3.207  0.00  0.00     0.003 A 
ENDROOT
BRANCH   1   7
ATOM      7  C1' I4B d   1       2.352  -2.419   2.529  0.00  0.00     0.060 C 
BRANCH   7   8
ATOM      8  C2' I4B d   1       2.382  -2.839   1.073  0.00  0.00    -0.013 C 
ATOM      9  C4' I4B d   1       1.864  -4.243   0.900  0.00  0.00     0.013 C 
ATOM     10  C3' I4B d   1       1.560  -1.858   0.292  0.00  0.00     0.013 C 
ENDBRANCH   7   8
ENDBRANCH   1   7
TORSDOF 2
ENDMDL
