MODEL 1
REMARK minimizedAffinity 11.2325754
REMARK minimizedRMSD -1
REMARK  2 active torsions:
REMARK  status: ('A' for Active; 'I' for Inactive)
REMARK    1  A    between atoms: C2'_3  and  C1'_4 
REMARK    2  A    between atoms: C1'_4  and  C1_5 
ROOT
ATOM      1  C1  I4B d   1       0.645   5.828   5.230  0.00  0.00    -0.075 A 
ATOM      2  C2  I4B d   1      -0.468   5.599   5.999  0.00  0.00     0.003 A 
ATOM      3  C3  I4B d   1      -1.740   5.464   5.391  0.00  0.00     0.002 A 
ATOM      4  C4  I4B d   1      -1.859   5.613   4.024  0.00  0.00    -0.004 A 
ATOM      5  C5  I4B d   1      -0.725   5.822   3.243  0.00  0.00     0.002 A 
ATOM      6  C6  I4B d   1       0.536   5.918   3.848  0.00  0.00     0.003 A 
ENDROOT
BRANCH   1   7
ATOM      7  C1' I4B d   1       1.967   5.998   5.908  0.00  0.00     0.060 C 
BRANCH   7   8
ATOM      8  C2' I4B d   1       3.006   5.245   5.102  0.00  0.00    -0.013 C 
ATOM      9  C4' I4B d   1       4.318   5.984   5.077  0.00  0.00     0.013 C 
ATOM     10  C3' I4B d   1       3.164   3.882   5.708  0.00  0.00     0.013 C 
ENDBRANCH   7   8
ENDBRANCH   1   7
TORSDOF 2
ENDMDL
