MODEL 1
REMARK minimizedAffinity 1.2678715
REMARK minimizedRMSD -1
REMARK  2 active torsions:
REMARK  status: ('A' for Active; 'I' for Inactive)
REMARK    1  A    between atoms: C2'_3  and  C1'_4 
REMARK    2  A    between atoms: C1'_4  and  C1_5 
ROOT
ATOM      1  C1  I4B d   1       0.918  -3.434   0.146  0.00  0.00    -0.075 A 
ATOM      2  C2  I4B d   1       1.010  -2.141   0.597  0.00  0.00     0.003 A 
ATOM      3  C3  I4B d   1       0.020  -1.615   1.462  0.00  0.00     0.002 A 
ATOM      4  C4  I4B d   1      -1.065  -2.396   1.806  0.00  0.00    -0.004 A 
ATOM      5  C5  I4B d   1      -1.146  -3.713   1.365  0.00  0.00     0.002 A 
ATOM      6  C6  I4B d   1      -0.142  -4.240   0.540  0.00  0.00     0.003 A 
ENDROOT
BRANCH   1   7
ATOM      7  C1' I4B d   1       1.965  -3.946  -0.792  0.00  0.00     0.060 C 
BRANCH   7   8
ATOM      8  C2' I4B d   1       3.167  -4.361   0.031  0.00  0.00    -0.013 C 
ATOM      9  C4' I4B d   1       3.866  -5.545  -0.583  0.00  0.00     0.013 C 
ATOM     10  C3' I4B d   1       4.087  -3.182   0.134  0.00  0.00     0.013 C 
ENDBRANCH   7   8
ENDBRANCH   1   7
TORSDOF 2
ENDMDL
