MODEL 1
REMARK minimizedAffinity 10.8957129
REMARK minimizedRMSD -1
REMARK  2 active torsions:
REMARK  status: ('A' for Active; 'I' for Inactive)
REMARK    1  A    between atoms: C2'_3  and  C1'_4 
REMARK    2  A    between atoms: C1'_4  and  C1_5 
ROOT
ATOM      1  C1  I4B d   1      -4.431   3.068   4.544  0.00  0.00    -0.075 A 
ATOM      2  C2  I4B d   1      -4.446   2.457   5.773  0.00  0.00     0.003 A 
ATOM      3  C3  I4B d   1      -5.169   1.254   5.963  0.00  0.00     0.002 A 
ATOM      4  C4  I4B d   1      -5.899   0.728   4.917  0.00  0.00    -0.004 A 
ATOM      5  C5  I4B d   1      -5.863   1.335   3.665  0.00  0.00     0.002 A 
ATOM      6  C6  I4B d   1      -5.115   2.506   3.474  0.00  0.00     0.003 A 
ENDROOT
BRANCH   1   7
ATOM      7  C1' I4B d   1      -3.685   4.354   4.387  0.00  0.00     0.060 C 
BRANCH   7   8
ATOM      8  C2' I4B d   1      -3.839   5.143   5.672  0.00  0.00    -0.013 C 
ATOM      9  C4' I4B d   1      -2.626   5.995   5.937  0.00  0.00     0.013 C 
ATOM     10  C3' I4B d   1      -5.076   5.983   5.554  0.00  0.00     0.013 C 
ENDBRANCH   7   8
ENDBRANCH   1   7
TORSDOF 2
ENDMDL
