MODEL 1
REMARK minimizedAffinity 13.2482996
REMARK minimizedRMSD -1
REMARK  2 active torsions:
REMARK  status: ('A' for Active; 'I' for Inactive)
REMARK    1  A    between atoms: C2'_3  and  C1'_4 
REMARK    2  A    between atoms: C1'_4  and  C1_5 
ROOT
ATOM      1  C1  I4B d   1       2.084  -2.782   0.240  0.00  0.00    -0.075 A 
ATOM      2  C2  I4B d   1       0.871  -2.139   0.204  0.00  0.00     0.003 A 
ATOM      3  C3  I4B d   1       0.489  -1.278   1.261  0.00  0.00     0.002 A 
ATOM      4  C4  I4B d   1       1.322  -1.129   2.351  0.00  0.00    -0.004 A 
ATOM      5  C5  I4B d   1       2.561  -1.764   2.375  0.00  0.00     0.002 A 
ATOM      6  C6  I4B d   1       2.950  -2.586   1.308  0.00  0.00     0.003 A 
ENDROOT
BRANCH   1   7
ATOM      7  C1' I4B d   1       2.441  -3.709  -0.878  0.00  0.00     0.060 C 
BRANCH   7   8
ATOM      8  C2' I4B d   1       2.769  -5.061  -0.276  0.00  0.00    -0.013 C 
ATOM      9  C4' I4B d   1       1.532  -5.734   0.257  0.00  0.00     0.013 C 
ATOM     10  C3' I4B d   1       3.424  -5.893  -1.338  0.00  0.00     0.013 C 
ENDBRANCH   7   8
ENDBRANCH   1   7
TORSDOF 2
ENDMDL
