MODEL 1
REMARK minimizedAffinity 8.05927277
REMARK minimizedRMSD -1
REMARK  0 active torsions:
REMARK  status: ('A' for Active; 'I' for Inactive)
ROOT
ATOM      1  O1  BZF d   1       5.997   6.000  -2.933  0.00  0.00    -0.204 OA
ATOM      2  C2  BZF d   1       5.990   5.921  -4.312  0.00  0.00     0.174 A 
ATOM      3  C3  BZF d   1       4.732   5.772  -4.776  0.00  0.00    -0.012 A 
ATOM      4  C3A BZF d   1       3.893   5.850  -3.620  0.00  0.00    -0.107 A 
ATOM      5  C4  BZF d   1       2.541   5.787  -3.435  0.00  0.00     0.055 A 
ATOM      6  C5  BZF d   1       2.045   5.822  -2.171  0.00  0.00    -0.016 A 
ATOM      7  C6  BZF d   1       2.870   5.914  -1.069  0.00  0.00     0.022 A 
ATOM      8  C7  BZF d   1       4.217   5.984  -1.202  0.00  0.00     0.029 A 
ATOM      9  C7A BZF d   1       4.720   5.982  -2.481  0.00  0.00     0.058 A 
ENDROOT
TORSDOF 0
ENDMDL
