MODEL 1
REMARK minimizedAffinity -6.42477989
REMARK minimizedRMSD -1
REMARK  0 active torsions:
REMARK  status: ('A' for Active; 'I' for Inactive)
ROOT
ATOM      1  O1  BZF d   1      -0.979  -0.915   0.462  0.00  0.00    -0.204 OA
ATOM      2  C2  BZF d   1      -1.242   0.372   0.034  0.00  0.00     0.174 A 
ATOM      3  C3  BZF d   1      -0.142   1.146   0.141  0.00  0.00    -0.012 A 
ATOM      4  C3A BZF d   1       0.896   0.266   0.581  0.00  0.00    -0.107 A 
ATOM      5  C4  BZF d   1       2.223   0.441   0.854  0.00  0.00     0.055 A 
ATOM      6  C5  BZF d   1       2.942  -0.607   1.335  0.00  0.00    -0.016 A 
ATOM      7  C6  BZF d   1       2.367  -1.841   1.559  0.00  0.00     0.022 A 
ATOM      8  C7  BZF d   1       1.056  -2.064   1.298  0.00  0.00     0.029 A 
ATOM      9  C7A BZF d   1       0.334  -1.016   0.781  0.00  0.00     0.058 A 
ENDROOT
TORSDOF 0
ENDMDL
