MODEL 1
REMARK minimizedAffinity -2.72792315
REMARK minimizedRMSD -1
REMARK  0 active torsions:
REMARK  status: ('A' for Active; 'I' for Inactive)
ROOT
ATOM      1  O1  BZF d   1       0.569   1.764   0.114  0.00  0.00    -0.204 OA
ATOM      2  C2  BZF d   1       1.902   1.630   0.454  0.00  0.00     0.174 A 
ATOM      3  C3  BZF d   1       2.148   0.400   0.949  0.00  0.00    -0.012 A 
ATOM      4  C3A BZF d   1       0.910  -0.308   0.831  0.00  0.00    -0.107 A 
ATOM      5  C4  BZF d   1       0.523  -1.581   1.139  0.00  0.00     0.055 A 
ATOM      6  C5  BZF d   1      -0.777  -1.936   0.968  0.00  0.00    -0.016 A 
ATOM      7  C6  BZF d   1      -1.717  -1.043   0.496  0.00  0.00     0.022 A 
ATOM      8  C7  BZF d   1      -1.380   0.229   0.172  0.00  0.00     0.029 A 
ATOM      9  C7A BZF d   1      -0.060   0.581   0.313  0.00  0.00     0.058 A 
ENDROOT
TORSDOF 0
ENDMDL
