MODEL 1
REMARK minimizedAffinity -4.81959057
REMARK minimizedRMSD -1
REMARK  0 active torsions:
REMARK  status: ('A' for Active; 'I' for Inactive)
ROOT
ATOM      1  O1  BZF d   1      -0.654  -0.723   0.295  0.00  0.00    -0.204 OA
ATOM      2  C2  BZF d   1      -0.694   0.540  -0.263  0.00  0.00     0.174 A 
ATOM      3  C3  BZF d   1       0.425   1.231   0.036  0.00  0.00    -0.012 A 
ATOM      4  C3A BZF d   1       1.254   0.312   0.753  0.00  0.00    -0.107 A 
ATOM      5  C4  BZF d   1       2.501   0.404   1.303  0.00  0.00     0.055 A 
ATOM      6  C5  BZF d   1       2.995  -0.653   2.000  0.00  0.00    -0.016 A 
ATOM      7  C6  BZF d   1       2.270  -1.814   2.170  0.00  0.00     0.022 A 
ATOM      8  C7  BZF d   1       1.031  -1.954   1.638  0.00  0.00     0.029 A 
ATOM      9  C7A BZF d   1       0.542  -0.900   0.906  0.00  0.00     0.058 A 
ENDROOT
TORSDOF 0
ENDMDL
