MODEL 1
REMARK minimizedAffinity -4.06361389
REMARK minimizedRMSD -1
REMARK  0 active torsions:
REMARK  status: ('A' for Active; 'I' for Inactive)
ROOT
ATOM      1  O1  BZF d   1      -0.206  -0.973   0.073  0.00  0.00    -0.204 OA
ATOM      2  C2  BZF d   1      -0.290   0.299  -0.459  0.00  0.00     0.174 A 
ATOM      3  C3  BZF d   1       0.858   0.978  -0.259  0.00  0.00    -0.012 A 
ATOM      4  C3A BZF d   1       1.746   0.042   0.360  0.00  0.00    -0.107 A 
ATOM      5  C4  BZF d   1       3.040   0.118   0.789  0.00  0.00     0.055 A 
ATOM      6  C5  BZF d   1       3.592  -0.953   1.417  0.00  0.00    -0.016 A 
ATOM      7  C6  BZF d   1       2.877  -2.112   1.639  0.00  0.00     0.022 A 
ATOM      8  C7  BZF d   1       1.592  -2.236   1.228  0.00  0.00     0.029 A 
ATOM      9  C7A BZF d   1       1.042  -1.168   0.562  0.00  0.00     0.058 A 
ENDROOT
TORSDOF 0
ENDMDL
