MODEL 1
REMARK minimizedAffinity -2.52223921
REMARK minimizedRMSD -1
REMARK  0 active torsions:
REMARK  status: ('A' for Active; 'I' for Inactive)
ROOT
ATOM      1  O1  BZF d   1      -0.935   1.304  -0.818  0.00  0.00    -0.204 OA
ATOM      2  C2  BZF d   1      -0.528   0.338   0.082  0.00  0.00     0.174 A 
ATOM      3  C3  BZF d   1      -1.302  -0.762  -0.014  0.00  0.00    -0.012 A 
ATOM      4  C3A BZF d   1      -2.194  -0.500  -1.102  0.00  0.00    -0.107 A 
ATOM      5  C4  BZF d   1      -3.191  -1.223  -1.693  0.00  0.00     0.055 A 
ATOM      6  C5  BZF d   1      -3.921  -0.651  -2.687  0.00  0.00    -0.016 A 
ATOM      7  C6  BZF d   1      -3.684   0.641  -3.110  0.00  0.00     0.022 A 
ATOM      8  C7  BZF d   1      -2.703   1.394  -2.558  0.00  0.00     0.029 A 
ATOM      9  C7A BZF d   1      -1.942   0.808  -1.576  0.00  0.00     0.058 A 
ENDROOT
TORSDOF 0
ENDMDL
