MODEL 1
REMARK minimizedAffinity -4.01796103
REMARK minimizedRMSD -1
REMARK  1 active torsions:
REMARK  status: ('A' for Active; 'I' for Inactive)
REMARK    1  A    between atoms: C1_2  and  C2_3 
ROOT
ATOM      1  C2  UNL d   1       0.901   0.392   0.438  0.00  0.00    -0.073 A 
ATOM      2  C3  UNL d   1       0.250   1.152  -0.541  0.00  0.00    -0.002 A 
ATOM      3  C4  UNL d   1      -1.070   0.867  -0.892  0.00  0.00     0.004 A 
ATOM      4  C5  UNL d   1      -1.754  -0.174  -0.265  0.00  0.00    -0.004 A 
ATOM      5  C6  UNL d   1      -1.125  -0.937   0.724  0.00  0.00    -0.075 A 
ATOM      6  C7  UNL d   1      -1.847  -2.061   1.407  0.00  0.00     0.076 C 
ATOM      7  C8  UNL d   1       0.202  -0.646   1.070  0.00  0.00     0.001 A 
ENDROOT
BRANCH   1   8
ATOM      8  C1  UNL d   1       2.324   0.700   0.825  0.00  0.00     0.053 C 
ATOM      9  C   UNL d   1       3.259  -0.463   0.533  0.00  0.00     0.018 C 
ENDBRANCH   1   8
TORSDOF 1
ENDMDL
