MODEL 1
REMARK minimizedAffinity -3.81398726
REMARK minimizedRMSD -1
REMARK  1 active torsions:
REMARK  status: ('A' for Active; 'I' for Inactive)
REMARK    1  A    between atoms: C1_2  and  C2_3 
ROOT
ATOM      1  C2  UNL d   1      -1.010   0.357  -0.573  0.00  0.00    -0.073 A 
ATOM      2  C3  UNL d   1      -0.122   1.438  -0.545  0.00  0.00    -0.002 A 
ATOM      3  C4  UNL d   1       1.162   1.283  -0.022  0.00  0.00     0.004 A 
ATOM      4  C5  UNL d   1       1.575   0.045   0.470  0.00  0.00    -0.004 A 
ATOM      5  C6  UNL d   1       0.706  -1.051   0.440  0.00  0.00    -0.075 A 
ATOM      6  C7  UNL d   1       1.134  -2.389   0.968  0.00  0.00     0.076 C 
ATOM      7  C8  UNL d   1      -0.583  -0.886  -0.083  0.00  0.00     0.001 A 
ENDROOT
BRANCH   1   8
ATOM      8  C1  UNL d   1      -2.396   0.518  -1.142  0.00  0.00     0.053 C 
ATOM      9  C   UNL d   1      -2.518  -0.094  -2.528  0.00  0.00     0.018 C 
ENDBRANCH   1   8
TORSDOF 1
ENDMDL
