MODEL 1
REMARK minimizedAffinity -5.14552546
REMARK minimizedRMSD -1
REMARK  1 active torsions:
REMARK  status: ('A' for Active; 'I' for Inactive)
REMARK    1  A    between atoms: C1_2  and  C2_3 
ROOT
ATOM      1  C2  UNL d   1      -0.110  -0.280   0.376  0.00  0.00    -0.073 A 
ATOM      2  C3  UNL d   1       0.275   1.060   0.249  0.00  0.00    -0.002 A 
ATOM      3  C4  UNL d   1       1.519   1.482   0.720  0.00  0.00     0.004 A 
ATOM      4  C5  UNL d   1       2.392   0.571   1.313  0.00  0.00    -0.004 A 
ATOM      5  C6  UNL d   1       2.030  -0.774   1.438  0.00  0.00    -0.075 A 
ATOM      6  C7  UNL d   1       2.956  -1.767   2.076  0.00  0.00     0.076 C 
ATOM      7  C8  UNL d   1       0.777  -1.191   0.966  0.00  0.00     0.001 A 
ENDROOT
BRANCH   1   8
ATOM      8  C1  UNL d   1      -1.450  -0.742  -0.136  0.00  0.00     0.053 C 
ATOM      9  C   UNL d   1      -2.112   0.301  -1.024  0.00  0.00     0.018 C 
ENDBRANCH   1   8
TORSDOF 1
ENDMDL
