MODEL 1
REMARK minimizedAffinity -3.60049701
REMARK minimizedRMSD -1
REMARK  1 active torsions:
REMARK  status: ('A' for Active; 'I' for Inactive)
REMARK    1  A    between atoms: C1_2  and  C2_3 
ROOT
ATOM      1  C2  UNL d   1      -0.848   0.150   0.013  0.00  0.00    -0.073 A 
ATOM      2  C3  UNL d   1      -1.151  -1.087   0.593  0.00  0.00    -0.002 A 
ATOM      3  C4  UNL d   1      -0.166  -1.811   1.266  0.00  0.00     0.004 A 
ATOM      4  C5  UNL d   1       1.129  -1.303   1.371  0.00  0.00    -0.004 A 
ATOM      5  C6  UNL d   1       1.449  -0.063   0.809  0.00  0.00    -0.075 A 
ATOM      6  C7  UNL d   1       2.837   0.496   0.912  0.00  0.00     0.076 C 
ATOM      7  C8  UNL d   1       0.454   0.656   0.133  0.00  0.00     0.001 A 
ENDROOT
BRANCH   1   8
ATOM      8  C1  UNL d   1      -1.910   0.938  -0.708  0.00  0.00     0.053 C 
ATOM      9  C   UNL d   1      -2.344   0.261  -1.999  0.00  0.00     0.018 C 
ENDBRANCH   1   8
TORSDOF 1
ENDMDL
