MODEL 1
REMARK minimizedAffinity -2.09221411
REMARK minimizedRMSD -1
REMARK  1 active torsions:
REMARK  status: ('A' for Active; 'I' for Inactive)
REMARK    1  A    between atoms: C1_2  and  C2_3 
ROOT
ATOM      1  C2  UNL d   1       0.129  -0.211  -0.450  0.00  0.00    -0.073 A 
ATOM      2  C3  UNL d   1       0.031   1.158  -0.177  0.00  0.00    -0.002 A 
ATOM      3  C4  UNL d   1       1.061   1.818   0.496  0.00  0.00     0.004 A 
ATOM      4  C5  UNL d   1       2.199   1.119   0.896  0.00  0.00    -0.004 A 
ATOM      5  C6  UNL d   1       2.321  -0.247   0.622  0.00  0.00    -0.075 A 
ATOM      6  C7  UNL d   1       3.538  -1.014   1.047  0.00  0.00     0.076 C 
ATOM      7  C8  UNL d   1       1.282  -0.903  -0.052  0.00  0.00     0.001 A 
ENDROOT
BRANCH   1   8
ATOM      8  C1  UNL d   1      -0.977  -0.926  -1.182  0.00  0.00     0.053 C 
ATOM      9  C   UNL d   1      -1.749   0.007  -2.101  0.00  0.00     0.018 C 
ENDBRANCH   1   8
TORSDOF 1
ENDMDL
