MODEL 1
REMARK minimizedAffinity -4.05249596
REMARK minimizedRMSD -1
REMARK  1 active torsions:
REMARK  status: ('A' for Active; 'I' for Inactive)
REMARK    1  A    between atoms: C1_2  and  C2_3 
ROOT
ATOM      1  C2  UNL d   1      -0.951   0.740  -0.777  0.00  0.00    -0.073 A 
ATOM      2  C3  UNL d   1      -0.025   1.783  -0.881  0.00  0.00    -0.002 A 
ATOM      3  C4  UNL d   1       1.289   1.605  -0.444  0.00  0.00     0.004 A 
ATOM      4  C5  UNL d   1       1.690   0.383   0.094  0.00  0.00    -0.004 A 
ATOM      5  C6  UNL d   1       0.782  -0.675   0.196  0.00  0.00    -0.075 A 
ATOM      6  C7  UNL d   1       1.198  -1.996   0.775  0.00  0.00     0.076 C 
ATOM      7  C8  UNL d   1      -0.536  -0.489  -0.243  0.00  0.00     0.001 A 
ENDROOT
BRANCH   1   8
ATOM      8  C1  UNL d   1      -2.369   0.924  -1.253  0.00  0.00     0.053 C 
ATOM      9  C   UNL d   1      -2.634   0.185  -2.555  0.00  0.00     0.018 C 
ENDBRANCH   1   8
TORSDOF 1
ENDMDL
