MODEL 1
REMARK minimizedAffinity -5.25112247
REMARK minimizedRMSD -1
REMARK  1 active torsions:
REMARK  status: ('A' for Active; 'I' for Inactive)
REMARK    1  A    between atoms: C1_2  and  C2_3 
ROOT
ATOM      1  C2  UNL d   1      -0.978  -0.242   0.036  0.00  0.00    -0.073 A 
ATOM      2  C3  UNL d   1      -1.291  -1.260   0.944  0.00  0.00    -0.002 A 
ATOM      3  C4  UNL d   1      -0.289  -1.845   1.719  0.00  0.00     0.004 A 
ATOM      4  C5  UNL d   1       1.033  -1.415   1.599  0.00  0.00    -0.004 A 
ATOM      5  C6  UNL d   1       1.363  -0.392   0.706  0.00  0.00    -0.075 A 
ATOM      6  C7  UNL d   1       2.780   0.081   0.563  0.00  0.00     0.076 C 
ATOM      7  C8  UNL d   1       0.352   0.190  -0.071  0.00  0.00     0.001 A 
ENDROOT
BRANCH   1   8
ATOM      8  C1  UNL d   1      -2.058   0.398  -0.798  0.00  0.00     0.053 C 
ATOM      9  C   UNL d   1      -2.372  -0.414  -2.045  0.00  0.00     0.018 C 
ENDBRANCH   1   8
TORSDOF 1
ENDMDL
