MODEL 1
REMARK minimizedAffinity -2.78349471
REMARK minimizedRMSD -1
REMARK  1 active torsions:
REMARK  status: ('A' for Active; 'I' for Inactive)
REMARK    1  A    between atoms: C1_2  and  C2_3 
ROOT
ATOM      1  C2  UNL d   1       1.681  -0.092   0.652  0.00  0.00    -0.073 A 
ATOM      2  C3  UNL d   1       1.369  -1.368   1.135  0.00  0.00    -0.002 A 
ATOM      3  C4  UNL d   1       0.115  -1.927   0.888  0.00  0.00     0.004 A 
ATOM      4  C5  UNL d   1      -0.836  -1.221   0.151  0.00  0.00    -0.004 A 
ATOM      5  C6  UNL d   1      -0.539   0.050  -0.349  0.00  0.00    -0.075 A 
ATOM      6  C7  UNL d   1      -1.552   0.824  -1.142  0.00  0.00     0.076 C 
ATOM      7  C8  UNL d   1       0.722   0.607  -0.095  0.00  0.00     0.001 A 
ENDROOT
BRANCH   1   8
ATOM      8  C1  UNL d   1       3.036   0.514   0.911  0.00  0.00     0.053 C 
ATOM      9  C   UNL d   1       4.031  -0.514   1.426  0.00  0.00     0.018 C 
ENDBRANCH   1   8
TORSDOF 1
ENDMDL
