MODEL 1
REMARK minimizedAffinity -4.64777851
REMARK minimizedRMSD -1
REMARK  1 active torsions:
REMARK  status: ('A' for Active; 'I' for Inactive)
REMARK    1  A    between atoms: C1_2  and  C2_3 
ROOT
ATOM      1  C2  UNL d   1       0.015   0.305   0.022  0.00  0.00    -0.073 A 
ATOM      2  C3  UNL d   1       0.810   1.418  -0.274  0.00  0.00    -0.002 A 
ATOM      3  C4  UNL d   1       2.141   1.465   0.144  0.00  0.00     0.004 A 
ATOM      4  C5  UNL d   1       2.692   0.398   0.854  0.00  0.00    -0.004 A 
ATOM      5  C6  UNL d   1       1.916  -0.728   1.149  0.00  0.00    -0.075 A 
ATOM      6  C7  UNL d   1       2.493  -1.883   1.914  0.00  0.00     0.076 C 
ATOM      7  C8  UNL d   1       0.580  -0.766   0.728  0.00  0.00     0.001 A 
ENDROOT
BRANCH   1   8
ATOM      8  C1  UNL d   1      -1.420   0.248  -0.433  0.00  0.00     0.053 C 
ATOM      9  C   UNL d   1      -1.535   0.055  -1.937  0.00  0.00     0.018 C 
ENDBRANCH   1   8
TORSDOF 1
ENDMDL
