MODEL 1
REMARK minimizedAffinity -0.0190218948
REMARK minimizedRMSD -1
REMARK  1 active torsions:
REMARK  status: ('A' for Active; 'I' for Inactive)
REMARK    1  A    between atoms: C1_2  and  C2_3 
ROOT
ATOM      1  C2  UNL d   1      -2.363   3.889   1.178  0.00  0.00    -0.077 A 
ATOM      2  C3  UNL d   1      -3.070   2.985   0.374  0.00  0.00     0.002 A 
ATOM      3  C4  UNL d   1      -2.405   2.230  -0.594  0.00  0.00     0.002 A 
ATOM      4  C5  UNL d   1      -1.029   2.368  -0.764  0.00  0.00    -0.004 A 
ATOM      5  C6  UNL d   1      -0.317   3.267   0.030  0.00  0.00     0.002 A 
ATOM      6  C7  UNL d   1      -0.980   4.023   0.997  0.00  0.00     0.002 A 
ENDROOT
BRANCH   1   7
ATOM      7  C1  UNL d   1      -3.070   4.668   2.256  0.00  0.00     0.055 C 
ATOM      8  C   UNL d   1      -4.421   5.178   1.774  0.00  0.00     0.019 C 
ENDBRANCH   1   7
TORSDOF 1
ENDMDL
