MODEL 1
REMARK minimizedAffinity -4.72286606
REMARK minimizedRMSD -1
REMARK  1 active torsions:
REMARK  status: ('A' for Active; 'I' for Inactive)
REMARK    1  A    between atoms: C1_2  and  C2_3 
ROOT
ATOM      1  C2  UNL d   1      -4.991   2.292  -4.113  0.00  0.00    -0.077 A 
ATOM      2  C3  UNL d   1      -3.749   2.851  -3.783  0.00  0.00     0.002 A 
ATOM      3  C4  UNL d   1      -3.521   4.218  -3.952  0.00  0.00     0.002 A 
ATOM      4  C5  UNL d   1      -4.533   5.038  -4.448  0.00  0.00    -0.004 A 
ATOM      5  C6  UNL d   1      -5.771   4.491  -4.781  0.00  0.00     0.002 A 
ATOM      6  C7  UNL d   1      -6.000   3.125  -4.614  0.00  0.00     0.002 A 
ENDROOT
BRANCH   1   7
ATOM      7  C1  UNL d   1      -5.254   0.826  -3.885  0.00  0.00     0.055 C 
ATOM      8  C   UNL d   1      -4.616   0.344  -2.591  0.00  0.00     0.019 C 
ENDBRANCH   1   7
TORSDOF 1
ENDMDL
