MODEL 1
REMARK minimizedAffinity -0.425488412
REMARK minimizedRMSD -1
REMARK  1 active torsions:
REMARK  status: ('A' for Active; 'I' for Inactive)
REMARK    1  A    between atoms: C1_2  and  C2_3 
ROOT
ATOM      1  C2  UNL d   1      -4.033   2.999  -4.231  0.00  0.00    -0.077 A 
ATOM      2  C3  UNL d   1      -4.826   2.333  -5.176  0.00  0.00     0.002 A 
ATOM      3  C4  UNL d   1      -5.696   3.051  -5.999  0.00  0.00     0.002 A 
ATOM      4  C5  UNL d   1      -5.779   4.437  -5.888  0.00  0.00    -0.004 A 
ATOM      5  C6  UNL d   1      -4.996   5.108  -4.949  0.00  0.00     0.002 A 
ATOM      6  C7  UNL d   1      -4.127   4.393  -4.125  0.00  0.00     0.002 A 
ENDROOT
BRANCH   1   7
ATOM      7  C1  UNL d   1      -3.058   2.232  -3.376  0.00  0.00     0.055 C 
ATOM      8  C   UNL d   1      -3.750   1.105  -2.623  0.00  0.00     0.019 C 
ENDBRANCH   1   7
TORSDOF 1
ENDMDL
