MODEL 1
REMARK minimizedAffinity -0.425459981
REMARK minimizedRMSD -1
REMARK  1 active torsions:
REMARK  status: ('A' for Active; 'I' for Inactive)
REMARK    1  A    between atoms: C1_2  and  C2_3 
ROOT
ATOM      1  C2  UNL d   1       4.551  -2.359  -0.447  0.00  0.00    -0.077 A 
ATOM      2  C3  UNL d   1       3.995  -1.076  -0.345  0.00  0.00     0.002 A 
ATOM      3  C4  UNL d   1       2.745  -0.892   0.249  0.00  0.00     0.002 A 
ATOM      4  C5  UNL d   1       2.043  -1.986   0.750  0.00  0.00    -0.004 A 
ATOM      5  C6  UNL d   1       2.585  -3.267   0.651  0.00  0.00     0.002 A 
ATOM      6  C7  UNL d   1       3.834  -3.452   0.056  0.00  0.00     0.002 A 
ENDROOT
BRANCH   1   7
ATOM      7  C1  UNL d   1       5.920  -2.553  -1.043  0.00  0.00     0.055 C 
ATOM      8  C   UNL d   1       5.834  -2.971  -2.504  0.00  0.00     0.019 C 
ENDBRANCH   1   7
TORSDOF 1
ENDMDL
