MODEL 1
REMARK minimizedAffinity -3.92420411
REMARK minimizedRMSD -1
REMARK  1 active torsions:
REMARK  status: ('A' for Active; 'I' for Inactive)
REMARK    1  A    between atoms: C1_2  and  C2_3 
ROOT
ATOM      1  C2  UNL d   1      -4.653   0.019   1.694  0.00  0.00    -0.077 A 
ATOM      2  C3  UNL d   1      -5.731  -0.873   1.787  0.00  0.00     0.002 A 
ATOM      3  C4  UNL d   1      -6.000  -1.533   2.988  0.00  0.00     0.002 A 
ATOM      4  C5  UNL d   1      -5.199  -1.305   4.105  0.00  0.00    -0.004 A 
ATOM      5  C6  UNL d   1      -4.124  -0.422   4.022  0.00  0.00     0.002 A 
ATOM      6  C7  UNL d   1      -3.852   0.238   2.822  0.00  0.00     0.002 A 
ENDROOT
BRANCH   1   7
ATOM      7  C1  UNL d   1      -4.391   0.769   0.415  0.00  0.00     0.055 C 
ATOM      8  C   UNL d   1      -5.623   0.788  -0.478  0.00  0.00     0.019 C 
ENDBRANCH   1   7
TORSDOF 1
ENDMDL
