MODEL 1
REMARK minimizedAffinity 25.8495274
REMARK minimizedRMSD -1
REMARK  0 active torsions:
REMARK  status: ('A' for Active; 'I' for Inactive)
ROOT
ATOM      1  C   UNL d   1      -1.045   1.947   1.810  0.00  0.00     0.124 A 
ATOM      2  C1  UNL d   1      -1.458   3.168   2.324  0.00  0.00     0.062 A 
ATOM      3  C2  UNL d   1      -2.769   3.598   2.140  0.00  0.00     0.162 A 
ATOM      4  C3  UNL d   1      -3.678   2.806   1.438  0.00  0.00    -0.034 A 
ATOM      5  C4  UNL d   1      -3.254   1.579   0.923  0.00  0.00     0.162 A 
ATOM      6  C5  UNL d   1      -1.943   1.154   1.110  0.00  0.00     0.062 A 
ATOM      7  F   UNL d   1      -1.546  -0.026   0.612  0.00  0.00    -0.097 F 
ATOM      8  F1  UNL d   1      -4.102   0.793   0.243  0.00  0.00    -0.096 F 
ATOM      9  I   UNL d   1      -5.639   3.445   1.160  0.00  0.00    -0.060 I 
ATOM     10  F2  UNL d   1      -3.141   4.783   2.648  0.00  0.00    -0.096 F 
ATOM     11  F3  UNL d   1      -0.592   3.937   3.001  0.00  0.00    -0.097 F 
ATOM     12  F4  UNL d   1       0.217   1.537   1.988  0.00  0.00    -0.092 F 
ENDROOT
TORSDOF 0
ENDMDL
