MODEL 1
REMARK minimizedAffinity 25.144453
REMARK minimizedRMSD -1
REMARK  0 active torsions:
REMARK  status: ('A' for Active; 'I' for Inactive)
ROOT
ATOM      1  C   UNL d   1      -4.636   2.294   2.551  0.00  0.00     0.124 A 
ATOM      2  C1  UNL d   1      -3.808   1.228   2.228  0.00  0.00     0.062 A 
ATOM      3  C2  UNL d   1      -3.523   0.251   3.177  0.00  0.00     0.162 A 
ATOM      4  C3  UNL d   1      -4.067   0.335   4.459  0.00  0.00    -0.034 A 
ATOM      5  C4  UNL d   1      -4.898   1.410   4.776  0.00  0.00     0.162 A 
ATOM      6  C5  UNL d   1      -5.180   2.384   3.824  0.00  0.00     0.062 A 
ATOM      7  F   UNL d   1      -5.981   3.414   4.138  0.00  0.00    -0.097 F 
ATOM      8  F1  UNL d   1      -5.438   1.521   5.999  0.00  0.00    -0.096 F 
ATOM      9  I   UNL d   1      -3.643  -1.125   5.881  0.00  0.00    -0.060 I 
ATOM     10  F2  UNL d   1      -2.719  -0.768   2.837  0.00  0.00    -0.096 F 
ATOM     11  F3  UNL d   1      -3.280   1.139   0.999  0.00  0.00    -0.097 F 
ATOM     12  F4  UNL d   1      -4.908   3.234   1.636  0.00  0.00    -0.092 F 
ENDROOT
TORSDOF 0
ENDMDL
