MODEL 1
REMARK minimizedAffinity 26.8396549
REMARK minimizedRMSD -1
REMARK  0 active torsions:
REMARK  status: ('A' for Active; 'I' for Inactive)
ROOT
ATOM      1  C   UNL d   1       1.443   0.338  -2.814  0.00  0.00     0.124 A 
ATOM      2  C1  UNL d   1       2.239   1.453  -2.591  0.00  0.00     0.062 A 
ATOM      3  C2  UNL d   1       3.238   1.794  -3.498  0.00  0.00     0.162 A 
ATOM      4  C3  UNL d   1       3.445   1.019  -4.639  0.00  0.00    -0.034 A 
ATOM      5  C4  UNL d   1       2.642  -0.102  -4.857  0.00  0.00     0.162 A 
ATOM      6  C5  UNL d   1       1.645  -0.438  -3.946  0.00  0.00     0.062 A 
ATOM      7  F   UNL d   1       0.877  -1.516  -4.164  0.00  0.00    -0.097 F 
ATOM      8  F1  UNL d   1       2.814  -0.869  -5.943  0.00  0.00    -0.096 F 
ATOM      9  I   UNL d   1       4.937   1.524  -5.999  0.00  0.00    -0.060 I 
ATOM     10  F2  UNL d   1       3.992   2.876  -3.257  0.00  0.00    -0.096 F 
ATOM     11  F3  UNL d   1       2.047   2.204  -1.497  0.00  0.00    -0.097 F 
ATOM     12  F4  UNL d   1       0.484   0.012  -1.938  0.00  0.00    -0.092 F 
ENDROOT
TORSDOF 0
ENDMDL
