MODEL 1
REMARK minimizedAffinity 13.3258257
REMARK minimizedRMSD -1
REMARK  0 active torsions:
REMARK  status: ('A' for Active; 'I' for Inactive)
ROOT
ATOM      1  C   UNL d   1       2.226  -5.570   2.408  0.00  0.00     0.124 A 
ATOM      2  C1  UNL d   1       3.537  -5.481   1.960  0.00  0.00     0.062 A 
ATOM      3  C2  UNL d   1       4.592  -5.563   2.865  0.00  0.00     0.162 A 
ATOM      4  C3  UNL d   1       4.341  -5.735   4.226  0.00  0.00    -0.034 A 
ATOM      5  C4  UNL d   1       3.020  -5.822   4.668  0.00  0.00     0.162 A 
ATOM      6  C5  UNL d   1       1.969  -5.740   3.761  0.00  0.00     0.062 A 
ATOM      7  F   UNL d   1       0.703  -5.825   4.195  0.00  0.00    -0.097 F 
ATOM      8  F1  UNL d   1       2.743  -5.988   5.970  0.00  0.00    -0.096 F 
ATOM      9  I   UNL d   1       5.916  -5.858   5.581  0.00  0.00    -0.060 I 
ATOM     10  F2  UNL d   1       5.849  -5.475   2.404  0.00  0.00    -0.096 F 
ATOM     11  F3  UNL d   1       3.789  -5.316   0.654  0.00  0.00    -0.097 F 
ATOM     12  F4  UNL d   1       1.213  -5.490   1.536  0.00  0.00    -0.092 F 
ENDROOT
TORSDOF 0
ENDMDL
