MODEL 1
REMARK minimizedAffinity 30.6157455
REMARK minimizedRMSD -1
REMARK  0 active torsions:
REMARK  status: ('A' for Active; 'I' for Inactive)
ROOT
ATOM      1  C   UNL d   1       2.652   4.820  -5.054  0.00  0.00     0.124 A 
ATOM      2  C1  UNL d   1       1.903   3.702  -5.395  0.00  0.00     0.062 A 
ATOM      3  C2  UNL d   1       2.533   2.481  -5.623  0.00  0.00     0.162 A 
ATOM      4  C3  UNL d   1       3.919   2.372  -5.510  0.00  0.00    -0.034 A 
ATOM      5  C4  UNL d   1       4.665   3.502  -5.167  0.00  0.00     0.162 A 
ATOM      6  C5  UNL d   1       4.031   4.719  -4.940  0.00  0.00     0.062 A 
ATOM      7  F   UNL d   1       4.755   5.798  -4.611  0.00  0.00    -0.097 F 
ATOM      8  F1  UNL d   1       5.999   3.432  -5.050  0.00  0.00    -0.096 F 
ATOM      9  I   UNL d   1       4.863   0.549  -5.850  0.00  0.00    -0.060 I 
ATOM     10  F2  UNL d   1       1.785   1.417  -5.951  0.00  0.00    -0.096 F 
ATOM     11  F3  UNL d   1       0.571   3.797  -5.506  0.00  0.00    -0.097 F 
ATOM     12  F4  UNL d   1       2.044   5.993  -4.836  0.00  0.00    -0.092 F 
ENDROOT
TORSDOF 0
ENDMDL
