MODEL 1
REMARK minimizedAffinity 24.1163254
REMARK minimizedRMSD -1
REMARK  0 active torsions:
REMARK  status: ('A' for Active; 'I' for Inactive)
ROOT
ATOM      1  C   UNL d   1       1.619   0.045  -2.973  0.00  0.00     0.124 A 
ATOM      2  C1  UNL d   1       2.374   0.069  -4.137  0.00  0.00     0.062 A 
ATOM      3  C2  UNL d   1       3.075   1.217  -4.493  0.00  0.00     0.162 A 
ATOM      4  C3  UNL d   1       3.026   2.352  -3.682  0.00  0.00    -0.034 A 
ATOM      5  C4  UNL d   1       2.264   2.320  -2.513  0.00  0.00     0.162 A 
ATOM      6  C5  UNL d   1       1.565   1.170  -2.162  0.00  0.00     0.062 A 
ATOM      7  F   UNL d   1       0.836   1.149  -1.037  0.00  0.00    -0.097 F 
ATOM      8  F1  UNL d   1       2.195   3.393  -1.711  0.00  0.00    -0.096 F 
ATOM      9  I   UNL d   1       4.074   4.070  -4.211  0.00  0.00    -0.060 I 
ATOM     10  F2  UNL d   1       3.797   1.212  -5.624  0.00  0.00    -0.096 F 
ATOM     11  F3  UNL d   1       2.427  -1.016  -4.922  0.00  0.00    -0.097 F 
ATOM     12  F4  UNL d   1       0.944  -1.060  -2.633  0.00  0.00    -0.092 F 
ENDROOT
TORSDOF 0
ENDMDL
