MODEL 1
REMARK minimizedAffinity 13.3118439
REMARK minimizedRMSD -1
REMARK  0 active torsions:
REMARK  status: ('A' for Active; 'I' for Inactive)
ROOT
ATOM      1  C   UNL d   1      -4.127  -2.705  -4.862  0.00  0.00     0.124 A 
ATOM      2  C1  UNL d   1      -3.004  -3.283  -5.437  0.00  0.00     0.062 A 
ATOM      3  C2  UNL d   1      -1.788  -2.606  -5.433  0.00  0.00     0.162 A 
ATOM      4  C3  UNL d   1      -1.688  -1.343  -4.850  0.00  0.00    -0.034 A 
ATOM      5  C4  UNL d   1      -2.821  -0.767  -4.274  0.00  0.00     0.162 A 
ATOM      6  C5  UNL d   1      -4.035  -1.448  -4.281  0.00  0.00     0.062 A 
ATOM      7  F   UNL d   1      -5.119  -0.887  -3.725  0.00  0.00    -0.097 F 
ATOM      8  F1  UNL d   1      -2.760   0.446  -3.705  0.00  0.00    -0.096 F 
ATOM      9  I   UNL d   1       0.129  -0.328  -4.841  0.00  0.00    -0.060 I 
ATOM     10  F2  UNL d   1      -0.719  -3.190  -5.996  0.00  0.00    -0.096 F 
ATOM     11  F3  UNL d   1      -3.091  -4.497  -6.000  0.00  0.00    -0.097 F 
ATOM     12  F4  UNL d   1      -5.296  -3.358  -4.869  0.00  0.00    -0.092 F 
ENDROOT
TORSDOF 0
ENDMDL
