MODEL 1
REMARK minimizedAffinity 11.7125511
REMARK minimizedRMSD -1
REMARK  0 active torsions:
REMARK  status: ('A' for Active; 'I' for Inactive)
ROOT
ATOM      1  C   UNL d   1       1.702  -0.376   2.982  0.00  0.00     0.124 A 
ATOM      2  C1  UNL d   1       0.492  -0.930   3.377  0.00  0.00     0.062 A 
ATOM      3  C2  UNL d   1      -0.696  -0.234   3.176  0.00  0.00     0.162 A 
ATOM      4  C3  UNL d   1      -0.681   1.024   2.575  0.00  0.00    -0.034 A 
ATOM      5  C4  UNL d   1       0.539   1.576   2.181  0.00  0.00     0.162 A 
ATOM      6  C5  UNL d   1       1.724   0.876   2.384  0.00  0.00     0.062 A 
ATOM      7  F   UNL d   1       2.892   1.413   2.001  0.00  0.00    -0.097 F 
ATOM      8  F1  UNL d   1       0.590   2.784   1.600  0.00  0.00    -0.096 F 
ATOM      9  I   UNL d   1      -2.456   2.069   2.272  0.00  0.00    -0.060 I 
ATOM     10  F2  UNL d   1      -1.850  -0.794   3.568  0.00  0.00    -0.096 F 
ATOM     11  F3  UNL d   1       0.468  -2.140   3.956  0.00  0.00    -0.097 F 
ATOM     12  F4  UNL d   1       2.844  -1.048   3.177  0.00  0.00    -0.092 F 
ENDROOT
TORSDOF 0
ENDMDL
