MODEL 1
REMARK minimizedAffinity 23.206686
REMARK minimizedRMSD -1
REMARK  0 active torsions:
REMARK  status: ('A' for Active; 'I' for Inactive)
ROOT
ATOM      1  C   UNL d   1      -2.376  -0.000   1.697  0.00  0.00     0.124 A 
ATOM      2  C1  UNL d   1      -2.091   1.286   2.134  0.00  0.00     0.062 A 
ATOM      3  C2  UNL d   1      -3.123   2.176   2.413  0.00  0.00     0.162 A 
ATOM      4  C3  UNL d   1      -4.453   1.783   2.258  0.00  0.00    -0.034 A 
ATOM      5  C4  UNL d   1      -4.732   0.488   1.818  0.00  0.00     0.162 A 
ATOM      6  C5  UNL d   1      -3.697  -0.398   1.540  0.00  0.00     0.062 A 
ATOM      7  F   UNL d   1      -3.975  -1.640   1.118  0.00  0.00    -0.097 F 
ATOM      8  F1  UNL d   1      -5.999   0.077   1.658  0.00  0.00    -0.096 F 
ATOM      9  I   UNL d   1      -6.000   3.111   2.675  0.00  0.00    -0.060 I 
ATOM     10  F2  UNL d   1      -2.818   3.413   2.833  0.00  0.00    -0.096 F 
ATOM     11  F3  UNL d   1      -0.816   1.673   2.286  0.00  0.00    -0.097 F 
ATOM     12  F4  UNL d   1      -1.381  -0.854   1.428  0.00  0.00    -0.092 F 
ENDROOT
TORSDOF 0
ENDMDL
