MODEL 1
REMARK minimizedAffinity 21.5024261
REMARK minimizedRMSD -1
REMARK  0 active torsions:
REMARK  status: ('A' for Active; 'I' for Inactive)
ROOT
ATOM      1  C   UNL d   1      -4.517   0.126   1.295  0.00  0.00     0.124 A 
ATOM      2  C1  UNL d   1      -3.514  -0.829   1.208  0.00  0.00     0.062 A 
ATOM      3  C2  UNL d   1      -2.194  -0.487   1.487  0.00  0.00     0.162 A 
ATOM      4  C3  UNL d   1      -1.869   0.818   1.857  0.00  0.00    -0.034 A 
ATOM      5  C4  UNL d   1      -2.883   1.774   1.942  0.00  0.00     0.162 A 
ATOM      6  C5  UNL d   1      -4.201   1.427   1.662  0.00  0.00     0.062 A 
ATOM      7  F   UNL d   1      -5.168   2.351   1.747  0.00  0.00    -0.097 F 
ATOM      8  F1  UNL d   1      -2.606   3.038   2.295  0.00  0.00    -0.096 F 
ATOM      9  I   UNL d   1       0.103   1.335   2.275  0.00  0.00    -0.060 I 
ATOM     10  F2  UNL d   1      -1.246  -1.431   1.394  0.00  0.00    -0.096 F 
ATOM     11  F3  UNL d   1      -3.817  -2.086   0.853  0.00  0.00    -0.097 F 
ATOM     12  F4  UNL d   1      -5.786  -0.206   1.026  0.00  0.00    -0.092 F 
ENDROOT
TORSDOF 0
ENDMDL
