MODEL 1
REMARK minimizedAffinity 13.5212364
REMARK minimizedRMSD -1
REMARK  0 active torsions:
REMARK  status: ('A' for Active; 'I' for Inactive)
ROOT
ATOM      1  C   UNL d   1      -4.711   0.642   1.568  0.00  0.00     0.124 A 
ATOM      2  C1  UNL d   1      -3.727  -0.336   1.614  0.00  0.00     0.062 A 
ATOM      3  C2  UNL d   1      -2.390   0.022   1.759  0.00  0.00     0.162 A 
ATOM      4  C3  UNL d   1      -2.028   1.366   1.861  0.00  0.00    -0.034 A 
ATOM      5  C4  UNL d   1      -3.023   2.344   1.813  0.00  0.00     0.162 A 
ATOM      6  C5  UNL d   1      -4.358   1.980   1.667  0.00  0.00     0.062 A 
ATOM      7  F   UNL d   1      -5.307   2.927   1.623  0.00  0.00    -0.097 F 
ATOM      8  F1  UNL d   1      -2.711   3.645   1.907  0.00  0.00    -0.096 F 
ATOM      9  I   UNL d   1      -0.030   1.906   2.078  0.00  0.00    -0.060 I 
ATOM     10  F2  UNL d   1      -1.460  -0.944   1.801  0.00  0.00    -0.096 F 
ATOM     11  F3  UNL d   1      -4.065  -1.630   1.517  0.00  0.00    -0.097 F 
ATOM     12  F4  UNL d   1      -5.996   0.294   1.427  0.00  0.00    -0.092 F 
ENDROOT
TORSDOF 0
ENDMDL
