MODEL 1
REMARK minimizedAffinity 10.6681995
REMARK minimizedRMSD -1
REMARK  0 active torsions:
REMARK  status: ('A' for Active; 'I' for Inactive)
ROOT
ATOM      1  C   UNL d   1       3.860  -2.256   2.555  0.00  0.00     0.124 A 
ATOM      2  C1  UNL d   1       4.619  -2.035   3.696  0.00  0.00     0.062 A 
ATOM      3  C2  UNL d   1       5.230  -3.102   4.348  0.00  0.00     0.162 A 
ATOM      4  C3  UNL d   1       5.086  -4.401   3.860  0.00  0.00    -0.034 A 
ATOM      5  C4  UNL d   1       4.321  -4.616   2.712  0.00  0.00     0.162 A 
ATOM      6  C5  UNL d   1       3.712  -3.546   2.064  0.00  0.00     0.062 A 
ATOM      7  F   UNL d   1       2.980  -3.761   0.962  0.00  0.00    -0.097 F 
ATOM      8  F1  UNL d   1       4.162  -5.851   2.216  0.00  0.00    -0.096 F 
ATOM      9  I   UNL d   1       5.998  -5.999   4.832  0.00  0.00    -0.060 I 
ATOM     10  F2  UNL d   1       5.957  -2.859   5.449  0.00  0.00    -0.096 F 
ATOM     11  F3  UNL d   1       4.763  -0.790   4.173  0.00  0.00    -0.097 F 
ATOM     12  F4  UNL d   1       3.273  -1.228   1.930  0.00  0.00    -0.092 F 
ENDROOT
TORSDOF 0
ENDMDL
