MODEL 1
REMARK minimizedAffinity 30.8638134
REMARK minimizedRMSD -1
REMARK  0 active torsions:
REMARK  status: ('A' for Active; 'I' for Inactive)
ROOT
ATOM      1  C   UNL d   1      -1.167   2.422   2.928  0.00  0.00     0.124 A 
ATOM      2  C1  UNL d   1      -1.983   1.394   2.475  0.00  0.00     0.062 A 
ATOM      3  C2  UNL d   1      -1.522   0.081   2.480  0.00  0.00     0.162 A 
ATOM      4  C3  UNL d   1      -0.239  -0.213   2.940  0.00  0.00    -0.034 A 
ATOM      5  C4  UNL d   1       0.576   0.826   3.394  0.00  0.00     0.162 A 
ATOM      6  C5  UNL d   1       0.111   2.137   3.387  0.00  0.00     0.062 A 
ATOM      7  F   UNL d   1       0.901   3.128   3.825  0.00  0.00    -0.097 F 
ATOM      8  F1  UNL d   1       1.816   0.579   3.843  0.00  0.00    -0.096 F 
ATOM      9  I   UNL d   1       0.454  -2.175   2.949  0.00  0.00    -0.060 I 
ATOM     10  F2  UNL d   1      -2.332  -0.892   2.036  0.00  0.00    -0.096 F 
ATOM     11  F3  UNL d   1      -3.218   1.667   2.031  0.00  0.00    -0.097 F 
ATOM     12  F4  UNL d   1      -1.613   3.685   2.922  0.00  0.00    -0.092 F 
ENDROOT
TORSDOF 0
ENDMDL
