MODEL 1
REMARK minimizedAffinity 24.9608459
REMARK minimizedRMSD -1
REMARK  0 active torsions:
REMARK  status: ('A' for Active; 'I' for Inactive)
ROOT
ATOM      1  C   UNL d   1      -4.129  -2.526   1.113  0.00  0.00     0.124 A 
ATOM      2  C1  UNL d   1      -4.320  -1.326   1.783  0.00  0.00     0.062 A 
ATOM      3  C2  UNL d   1      -3.263  -0.434   1.938  0.00  0.00     0.162 A 
ATOM      4  C3  UNL d   1      -2.004  -0.739   1.420  0.00  0.00    -0.034 A 
ATOM      5  C4  UNL d   1      -1.819  -1.948   0.748  0.00  0.00     0.162 A 
ATOM      6  C5  UNL d   1      -2.879  -2.836   0.596  0.00  0.00     0.062 A 
ATOM      7  F   UNL d   1      -2.692  -3.996  -0.052  0.00  0.00    -0.097 F 
ATOM      8  F1  UNL d   1      -0.621  -2.273   0.238  0.00  0.00    -0.096 F 
ATOM      9  I   UNL d   1      -0.420   0.592   1.649  0.00  0.00    -0.060 I 
ATOM     10  F2  UNL d   1      -3.477   0.718   2.590  0.00  0.00    -0.096 F 
ATOM     11  F3  UNL d   1      -5.527  -1.025   2.284  0.00  0.00    -0.097 F 
ATOM     12  F4  UNL d   1      -5.148  -3.383   0.966  0.00  0.00    -0.092 F 
ENDROOT
TORSDOF 0
ENDMDL
