MODEL 1
REMARK minimizedAffinity 34.1578674
REMARK minimizedRMSD -1
REMARK  0 active torsions:
REMARK  status: ('A' for Active; 'I' for Inactive)
ROOT
ATOM      1  C   UNL d   1      -1.674   0.402   2.202  0.00  0.00     0.124 A 
ATOM      2  C1  UNL d   1      -3.046   0.587   2.306  0.00  0.00     0.062 A 
ATOM      3  C2  UNL d   1      -3.756  -0.006   3.346  0.00  0.00     0.162 A 
ATOM      4  C3  UNL d   1      -3.094  -0.788   4.293  0.00  0.00    -0.034 A 
ATOM      5  C4  UNL d   1      -1.715  -0.970   4.182  0.00  0.00     0.162 A 
ATOM      6  C5  UNL d   1      -1.010  -0.376   3.140  0.00  0.00     0.062 A 
ATOM      7  F   UNL d   1       0.315  -0.555   3.042  0.00  0.00    -0.097 F 
ATOM      8  F1  UNL d   1      -1.048  -1.717   5.075  0.00  0.00    -0.096 F 
ATOM      9  I   UNL d   1      -4.152  -1.676   5.850  0.00  0.00    -0.060 I 
ATOM     10  F2  UNL d   1      -5.080   0.190   3.421  0.00  0.00    -0.096 F 
ATOM     11  F3  UNL d   1      -3.690   1.337   1.400  0.00  0.00    -0.097 F 
ATOM     12  F4  UNL d   1      -0.994   0.973   1.200  0.00  0.00    -0.092 F 
ENDROOT
TORSDOF 0
ENDMDL
