MODEL 1
REMARK minimizedAffinity 21.4105186
REMARK minimizedRMSD -1
REMARK  0 active torsions:
REMARK  status: ('A' for Active; 'I' for Inactive)
ROOT
ATOM      1  C   UNL d   1      -4.852  -1.639   1.182  0.00  0.00     0.124 A 
ATOM      2  C1  UNL d   1      -4.848  -0.376   1.759  0.00  0.00     0.062 A 
ATOM      3  C2  UNL d   1      -3.657   0.333   1.882  0.00  0.00     0.162 A 
ATOM      4  C3  UNL d   1      -2.459  -0.218   1.427  0.00  0.00    -0.034 A 
ATOM      5  C4  UNL d   1      -2.471  -1.489   0.848  0.00  0.00     0.162 A 
ATOM      6  C5  UNL d   1      -3.665  -2.194   0.727  0.00  0.00     0.062 A 
ATOM      7  F   UNL d   1      -3.667  -3.413   0.170  0.00  0.00    -0.097 F 
ATOM      8  F1  UNL d   1      -1.338  -2.048   0.400  0.00  0.00    -0.096 F 
ATOM      9  I   UNL d   1      -0.676   0.839   1.609  0.00  0.00    -0.060 I 
ATOM     10  F2  UNL d   1      -3.683   1.551   2.444  0.00  0.00    -0.096 F 
ATOM     11  F3  UNL d   1      -5.995   0.161   2.200  0.00  0.00    -0.097 F 
ATOM     12  F4  UNL d   1      -6.000  -2.320   1.065  0.00  0.00    -0.092 F 
ENDROOT
TORSDOF 0
ENDMDL
