MODEL 1
REMARK minimizedAffinity -1.22687817
REMARK minimizedRMSD -1
REMARK  0 active torsions:
REMARK  status: ('A' for Active; 'I' for Inactive)
ROOT
ATOM      1  C   UNL d   1       1.433   4.814  -5.958  0.00  0.00    -0.002 A 
ATOM      2  C1  UNL d   1       2.155   5.999  -5.950  0.00  0.00     0.010 A 
ATOM      3  C2  UNL d   1       3.551   5.980  -5.944  0.00  0.00     0.041 A 
ATOM      4  C3  UNL d   1       4.216   4.738  -5.948  0.00  0.00    -0.075 A 
ATOM      5  S   UNL d   1       5.919   4.471  -5.942  0.00  0.00     0.015 SA
ATOM      6  C4  UNL d   1       5.728   2.777  -5.951  0.00  0.00     0.022 A 
ATOM      7  C5  UNL d   1       4.404   2.407  -5.957  0.00  0.00     0.026 A 
ATOM      8  C6  UNL d   1       3.511   3.531  -5.956  0.00  0.00    -0.082 A 
ATOM      9  C7  UNL d   1       2.096   3.584  -5.961  0.00  0.00     0.045 A 
ENDROOT
TORSDOF 0
ENDMDL
