MODEL 1
REMARK minimizedAffinity 1.17204416
REMARK minimizedRMSD -1
REMARK  0 active torsions:
REMARK  status: ('A' for Active; 'I' for Inactive)
ROOT
ATOM      1  C   UNL d   1       2.030   5.773   5.858  0.00  0.00    -0.002 A 
ATOM      2  C1  UNL d   1       0.868   5.992   5.131  0.00  0.00     0.010 A 
ATOM      3  C2  UNL d   1       0.651   5.330   3.921  0.00  0.00     0.041 A 
ATOM      4  C3  UNL d   1       1.630   4.432   3.451  0.00  0.00    -0.075 A 
ATOM      5  S   UNL d   1       1.580   3.508   1.996  0.00  0.00     0.015 SA
ATOM      6  C4  UNL d   1       3.098   2.799   2.306  0.00  0.00     0.022 A 
ATOM      7  C5  UNL d   1       3.645   3.245   3.486  0.00  0.00     0.026 A 
ATOM      8  C6  UNL d   1       2.808   4.194   4.165  0.00  0.00    -0.082 A 
ATOM      9  C7  UNL d   1       2.998   4.882   5.388  0.00  0.00     0.045 A 
ENDROOT
TORSDOF 0
ENDMDL
