MODEL 1
REMARK minimizedAffinity -0.711405694
REMARK minimizedRMSD -1
REMARK  0 active torsions:
REMARK  status: ('A' for Active; 'I' for Inactive)
ROOT
ATOM      1  C   UNL d   1       2.581   2.972   1.617  0.00  0.00    -0.002 A 
ATOM      2  C1  UNL d   1       3.719   3.028   2.408  0.00  0.00     0.010 A 
ATOM      3  C2  UNL d   1       3.747   3.823   3.556  0.00  0.00     0.041 A 
ATOM      4  C3  UNL d   1       2.600   4.564   3.900  0.00  0.00    -0.075 A 
ATOM      5  S   UNL d   1       2.403   5.604   5.261  0.00  0.00     0.015 SA
ATOM      6  C4  UNL d   1       0.803   5.997   4.824  0.00  0.00     0.022 A 
ATOM      7  C5  UNL d   1       0.412   5.359   3.671  0.00  0.00     0.026 A 
ATOM      8  C6  UNL d   1       1.441   4.523   3.119  0.00  0.00    -0.082 A 
ATOM      9  C7  UNL d   1       1.445   3.709   1.961  0.00  0.00     0.045 A 
ENDROOT
TORSDOF 0
ENDMDL
