MODEL 1
REMARK minimizedAffinity 9.16549683
REMARK minimizedRMSD -1
REMARK  0 active torsions:
REMARK  status: ('A' for Active; 'I' for Inactive)
ROOT
ATOM      1  C   UNL d   1       2.925  -2.641  -0.018  0.00  0.00    -0.002 A 
ATOM      2  C1  UNL d   1       1.828  -2.265   0.744  0.00  0.00     0.010 A 
ATOM      3  C2  UNL d   1       1.680  -0.945   1.174  0.00  0.00     0.041 A 
ATOM      4  C3  UNL d   1       2.663   0.000   0.821  0.00  0.00    -0.075 A 
ATOM      5  S   UNL d   1       2.692   1.674   1.235  0.00  0.00     0.015 SA
ATOM      6  C4  UNL d   1       4.160   1.930   0.409  0.00  0.00     0.022 A 
ATOM      7  C5  UNL d   1       4.632   0.777  -0.174  0.00  0.00     0.026 A 
ATOM      8  C6  UNL d   1       3.776  -0.354   0.053  0.00  0.00    -0.082 A 
ATOM      9  C7  UNL d   1       3.897  -1.700  -0.367  0.00  0.00     0.045 A 
ENDROOT
TORSDOF 0
ENDMDL
