MODEL 1
REMARK minimizedAffinity -1.15333307
REMARK minimizedRMSD -1
REMARK  0 active torsions:
REMARK  status: ('A' for Active; 'I' for Inactive)
ROOT
ATOM      1  O1  BZF d   1       0.526   1.651   2.396  0.00  0.00    -0.204 OA
ATOM      2  C2  BZF d   1       1.217   2.692   1.805  0.00  0.00     0.174 A 
ATOM      3  C3  BZF d   1       1.318   2.504   0.473  0.00  0.00    -0.012 A 
ATOM      4  C3A BZF d   1       0.569   1.315   0.203  0.00  0.00    -0.107 A 
ATOM      5  C4  BZF d   1       0.284   0.625  -0.940  0.00  0.00     0.055 A 
ATOM      6  C5  BZF d   1      -0.413  -0.538  -0.853  0.00  0.00    -0.016 A 
ATOM      7  C6  BZF d   1      -0.835  -1.043   0.359  0.00  0.00     0.022 A 
ATOM      8  C7  BZF d   1      -0.581  -0.391   1.520  0.00  0.00     0.029 A 
ATOM      9  C7A BZF d   1       0.095   0.802   1.432  0.00  0.00     0.058 A 
ENDROOT
TORSDOF 0
ENDMDL
