MODEL 1
REMARK minimizedAffinity -3.75343728
REMARK minimizedRMSD -1
REMARK  0 active torsions:
REMARK  status: ('A' for Active; 'I' for Inactive)
ROOT
ATOM      1  O1  BZF d   1       1.851   2.828   0.626  0.00  0.00    -0.204 OA
ATOM      2  C2  BZF d   1       2.152   2.468   1.926  0.00  0.00     0.174 A 
ATOM      3  C3  BZF d   1       1.405   1.415   2.315  0.00  0.00    -0.012 A 
ATOM      4  C3A BZF d   1       0.653   1.038   1.158  0.00  0.00    -0.107 A 
ATOM      5  C4  BZF d   1      -0.257   0.051   0.910  0.00  0.00     0.055 A 
ATOM      6  C5  BZF d   1      -0.863   0.001  -0.306  0.00  0.00    -0.016 A 
ATOM      7  C6  BZF d   1      -0.588   0.924  -1.293  0.00  0.00     0.022 A 
ATOM      8  C7  BZF d   1       0.311   1.919  -1.095  0.00  0.00     0.029 A 
ATOM      9  C7A BZF d   1       0.950   1.952   0.121  0.00  0.00     0.058 A 
ENDROOT
TORSDOF 0
ENDMDL
