MODEL 1
REMARK minimizedAffinity -4.98006392
REMARK minimizedRMSD -1
REMARK  0 active torsions:
REMARK  status: ('A' for Active; 'I' for Inactive)
ROOT
ATOM      1  O1  BZF d   1      -0.624   1.152   1.550  0.00  0.00    -0.204 OA
ATOM      2  C2  BZF d   1       0.213   2.228   1.775  0.00  0.00     0.174 A 
ATOM      3  C3  BZF d   1       1.388   2.062   1.134  0.00  0.00    -0.012 A 
ATOM      4  C3A BZF d   1       1.244   0.847   0.392  0.00  0.00    -0.107 A 
ATOM      5  C4  BZF d   1       2.067   0.161  -0.454  0.00  0.00     0.055 A 
ATOM      6  C5  BZF d   1       1.652  -1.032  -0.957  0.00  0.00    -0.016 A 
ATOM      7  C6  BZF d   1       0.424  -1.569  -0.631  0.00  0.00     0.022 A 
ATOM      8  C7  BZF d   1      -0.429  -0.922   0.201  0.00  0.00     0.029 A 
ATOM      9  C7A BZF d   1      -0.026   0.298   0.684  0.00  0.00     0.058 A 
ENDROOT
TORSDOF 0
ENDMDL
