MODEL 1
REMARK minimizedAffinity -0.689620793
REMARK minimizedRMSD -1
REMARK  0 active torsions:
REMARK  status: ('A' for Active; 'I' for Inactive)
ROOT
ATOM      1  O1  BZF d   1       3.997   2.646  -2.385  0.00  0.00    -0.204 OA
ATOM      2  C2  BZF d   1       2.926   2.940  -1.564  0.00  0.00     0.174 A 
ATOM      3  C3  BZF d   1       1.869   3.361  -2.288  0.00  0.00    -0.012 A 
ATOM      4  C3A BZF d   1       2.277   3.239  -3.654  0.00  0.00    -0.107 A 
ATOM      5  C4  BZF d   1       1.657   3.490  -4.845  0.00  0.00     0.055 A 
ATOM      6  C5  BZF d   1       2.358   3.336  -5.999  0.00  0.00    -0.016 A 
ATOM      7  C6  BZF d   1       3.679   2.940  -6.000  0.00  0.00     0.022 A 
ATOM      8  C7  BZF d   1       4.335   2.676  -4.844  0.00  0.00     0.029 A 
ATOM      9  C7A BZF d   1       3.620   2.798  -3.677  0.00  0.00     0.058 A 
ENDROOT
TORSDOF 0
ENDMDL
