MODEL 1
REMARK minimizedAffinity -1.91331434
REMARK minimizedRMSD -1
REMARK  0 active torsions:
REMARK  status: ('A' for Active; 'I' for Inactive)
ROOT
ATOM      1  O1  BZF d   1      -0.389  -0.854   1.166  0.00  0.00    -0.204 OA
ATOM      2  C2  BZF d   1      -0.753  -0.593   2.473  0.00  0.00     0.174 A 
ATOM      3  C3  BZF d   1      -0.441   0.674   2.812  0.00  0.00    -0.012 A 
ATOM      4  C3A BZF d   1       0.071   1.269   1.616  0.00  0.00    -0.107 A 
ATOM      5  C4  BZF d   1       0.534   2.517   1.312  0.00  0.00     0.055 A 
ATOM      6  C5  BZF d   1       1.031   2.753   0.070  0.00  0.00    -0.016 A 
ATOM      7  C6  BZF d   1       1.085   1.764  -0.891  0.00  0.00     0.022 A 
ATOM      8  C7  BZF d   1       0.632   0.512  -0.638  0.00  0.00     0.029 A 
ATOM      9  C7A BZF d   1       0.099   0.279   0.607  0.00  0.00     0.058 A 
ENDROOT
TORSDOF 0
ENDMDL
