MODEL 1
REMARK minimizedAffinity -2.13662219
REMARK minimizedRMSD -1
REMARK  0 active torsions:
REMARK  status: ('A' for Active; 'I' for Inactive)
ROOT
ATOM      1  O1  BZF d   1      -1.002  -0.601  -0.343  0.00  0.00    -0.204 OA
ATOM      2  C2  BZF d   1      -0.843  -0.344  -1.691  0.00  0.00     0.174 A 
ATOM      3  C3  BZF d   1      -0.143   0.792  -1.882  0.00  0.00    -0.012 A 
ATOM      4  C3A BZF d   1       0.234   1.227  -0.572  0.00  0.00    -0.107 A 
ATOM      5  C4  BZF d   1       0.956   2.289  -0.107  0.00  0.00     0.055 A 
ATOM      6  C5  BZF d   1       1.079   2.466   1.235  0.00  0.00    -0.016 A 
ATOM      7  C6  BZF d   1       0.490   1.606   2.138  0.00  0.00     0.022 A 
ATOM      8  C7  BZF d   1      -0.232   0.536   1.724  0.00  0.00     0.029 A 
ATOM      9  C7A BZF d   1      -0.330   0.335   0.369  0.00  0.00     0.058 A 
ENDROOT
TORSDOF 0
ENDMDL
