MODEL 1
REMARK minimizedAffinity -3.10668707
REMARK minimizedRMSD -1
REMARK  0 active torsions:
REMARK  status: ('A' for Active; 'I' for Inactive)
ROOT
ATOM      1  O1  BZF d   1      -5.249   4.893  -4.114  0.00  0.00    -0.204 OA
ATOM      2  C2  BZF d   1      -5.716   5.432  -5.297  0.00  0.00     0.174 A 
ATOM      3  C3  BZF d   1      -4.709   5.994  -5.996  0.00  0.00    -0.012 A 
ATOM      4  C3A BZF d   1      -3.525   5.713  -5.244  0.00  0.00    -0.107 A 
ATOM      5  C4  BZF d   1      -2.203   5.997  -5.433  0.00  0.00     0.055 A 
ATOM      6  C5  BZF d   1      -1.308   5.644  -4.473  0.00  0.00    -0.016 A 
ATOM      7  C6  BZF d   1      -1.700   5.011  -3.312  0.00  0.00     0.022 A 
ATOM      8  C7  BZF d   1      -3.000   4.704  -3.082  0.00  0.00     0.029 A 
ATOM      9  C7A BZF d   1      -3.902   5.030  -4.064  0.00  0.00     0.058 A 
ENDROOT
TORSDOF 0
ENDMDL
