MODEL 1
REMARK minimizedAffinity -5.14425373
REMARK minimizedRMSD -1
REMARK  0 active torsions:
REMARK  status: ('A' for Active; 'I' for Inactive)
ROOT
ATOM      1  O1  BZF d   1       0.378   2.714   1.702  0.00  0.00    -0.204 OA
ATOM      2  C2  BZF d   1       1.280   3.218   0.785  0.00  0.00     0.174 A 
ATOM      3  C3  BZF d   1       1.676   2.257  -0.075  0.00  0.00    -0.012 A 
ATOM      4  C3A BZF d   1       0.907   1.102   0.273  0.00  0.00    -0.107 A 
ATOM      5  C4  BZF d   1       0.839  -0.167  -0.229  0.00  0.00     0.055 A 
ATOM      6  C5  BZF d   1       0.039  -1.078   0.385  0.00  0.00    -0.016 A 
ATOM      7  C6  BZF d   1      -0.702  -0.757   1.503  0.00  0.00     0.022 A 
ATOM      8  C7  BZF d   1      -0.671   0.490   2.035  0.00  0.00     0.029 A 
ATOM      9  C7A BZF d   1       0.111   1.422   1.397  0.00  0.00     0.058 A 
ENDROOT
TORSDOF 0
ENDMDL
