MODEL 1
REMARK minimizedAffinity -3.65592051
REMARK minimizedRMSD -1
REMARK  0 active torsions:
REMARK  status: ('A' for Active; 'I' for Inactive)
ROOT
ATOM      1  O1  BZF d   1       0.340  -0.086  -0.993  0.00  0.00    -0.204 OA
ATOM      2  C2  BZF d   1      -0.830  -0.821  -0.987  0.00  0.00     0.174 A 
ATOM      3  C3  BZF d   1      -1.433  -0.753   0.217  0.00  0.00    -0.012 A 
ATOM      4  C3A BZF d   1      -0.634   0.151   0.987  0.00  0.00    -0.107 A 
ATOM      5  C4  BZF d   1      -0.728   0.637   2.260  0.00  0.00     0.055 A 
ATOM      6  C5  BZF d   1       0.256   1.447   2.732  0.00  0.00    -0.016 A 
ATOM      7  C6  BZF d   1       1.349   1.787   1.962  0.00  0.00     0.022 A 
ATOM      8  C7  BZF d   1       1.483   1.334   0.692  0.00  0.00     0.029 A 
ATOM      9  C7A BZF d   1       0.474   0.542   0.200  0.00  0.00     0.058 A 
ENDROOT
TORSDOF 0
ENDMDL
