MODEL 1
REMARK minimizedAffinity -5.21825457
REMARK minimizedRMSD -1
REMARK  0 active torsions:
REMARK  status: ('A' for Active; 'I' for Inactive)
ROOT
ATOM      1  O1  BZF d   1       0.455   1.948   1.448  0.00  0.00    -0.204 OA
ATOM      2  C2  BZF d   1      -0.582   1.238   0.874  0.00  0.00     0.174 A 
ATOM      3  C3  BZF d   1      -0.110   0.300   0.029  0.00  0.00    -0.012 A 
ATOM      4  C3A BZF d   1       1.315   0.369   0.148  0.00  0.00    -0.107 A 
ATOM      5  C4  BZF d   1       2.340  -0.324  -0.430  0.00  0.00     0.055 A 
ATOM      6  C5  BZF d   1       3.620   0.038  -0.155  0.00  0.00    -0.016 A 
ATOM      7  C6  BZF d   1       3.911   1.091   0.688  0.00  0.00     0.022 A 
ATOM      8  C7  BZF d   1       2.928   1.805   1.289  0.00  0.00     0.029 A 
ATOM      9  C7A BZF d   1       1.634   1.420   1.038  0.00  0.00     0.058 A 
ENDROOT
TORSDOF 0
ENDMDL
