MODEL 1
REMARK minimizedAffinity -2.59164572
REMARK minimizedRMSD -1
REMARK  0 active torsions:
REMARK  status: ('A' for Active; 'I' for Inactive)
ROOT
ATOM      1  O1  BZF d   1       3.039  -0.177  -0.324  0.00  0.00    -0.204 OA
ATOM      2  C2  BZF d   1       3.808   0.773   0.321  0.00  0.00     0.174 A 
ATOM      3  C3  BZF d   1       3.063   1.480   1.194  0.00  0.00    -0.012 A 
ATOM      4  C3A BZF d   1       1.766   0.877   1.156  0.00  0.00    -0.107 A 
ATOM      5  C4  BZF d   1       0.595   1.125   1.814  0.00  0.00     0.055 A 
ATOM      6  C5  BZF d   1      -0.509   0.401   1.494  0.00  0.00    -0.016 A 
ATOM      7  C6  BZF d   1      -0.481  -0.574   0.518  0.00  0.00     0.022 A 
ATOM      8  C7  BZF d   1       0.658  -0.859  -0.159  0.00  0.00     0.029 A 
ATOM      9  C7A BZF d   1       1.784  -0.152   0.186  0.00  0.00     0.058 A 
ENDROOT
TORSDOF 0
ENDMDL
