MODEL 1
REMARK minimizedAffinity -4.32620144
REMARK minimizedRMSD -1
REMARK  0 active torsions:
REMARK  status: ('A' for Active; 'I' for Inactive)
ROOT
ATOM      1  O1  BZF d   1      -3.736  -3.093   0.024  0.00  0.00    -0.204 OA
ATOM      2  C2  BZF d   1      -5.095  -3.125  -0.223  0.00  0.00     0.174 A 
ATOM      3  C3  BZF d   1      -5.391  -2.454  -1.355  0.00  0.00    -0.012 A 
ATOM      4  C3A BZF d   1      -4.129  -2.051  -1.895  0.00  0.00    -0.107 A 
ATOM      5  C4  BZF d   1      -3.764  -1.365  -3.018  0.00  0.00     0.055 A 
ATOM      6  C5  BZF d   1      -2.452  -1.073  -3.217  0.00  0.00    -0.016 A 
ATOM      7  C6  BZF d   1      -1.480  -1.448  -2.313  0.00  0.00     0.022 A 
ATOM      8  C7  BZF d   1      -1.792  -2.136  -1.188  0.00  0.00     0.029 A 
ATOM      9  C7A BZF d   1      -3.114  -2.460  -1.000  0.00  0.00     0.058 A 
ENDROOT
TORSDOF 0
ENDMDL
