MODEL 1
REMARK minimizedAffinity -2.25587487
REMARK minimizedRMSD -1
REMARK  0 active torsions:
REMARK  status: ('A' for Active; 'I' for Inactive)
ROOT
ATOM      1  O1  BZF d   1      -5.870  -2.390  -1.238  0.00  0.00    -0.204 OA
ATOM      2  C2  BZF d   1      -5.885  -3.318  -0.214  0.00  0.00     0.174 A 
ATOM      3  C3  BZF d   1      -4.641  -3.779   0.032  0.00  0.00    -0.012 A 
ATOM      4  C3A BZF d   1      -3.784  -3.028  -0.833  0.00  0.00    -0.107 A 
ATOM      5  C4  BZF d   1      -2.434  -3.019  -1.039  0.00  0.00     0.055 A 
ATOM      6  C5  BZF d   1      -1.919  -2.218  -2.010  0.00  0.00    -0.016 A 
ATOM      7  C6  BZF d   1      -2.725  -1.420  -2.795  0.00  0.00     0.022 A 
ATOM      8  C7  BZF d   1      -4.069  -1.392  -2.624  0.00  0.00     0.029 A 
ATOM      9  C7A BZF d   1      -4.589  -2.175  -1.623  0.00  0.00     0.058 A 
ENDROOT
TORSDOF 0
ENDMDL
