MODEL 1
REMARK minimizedAffinity -4.89075661
REMARK minimizedRMSD -1
REMARK  0 active torsions:
REMARK  status: ('A' for Active; 'I' for Inactive)
ROOT
ATOM      1  O1  BZF d   1      -0.474   0.763   1.959  0.00  0.00    -0.204 OA
ATOM      2  C2  BZF d   1       0.060   1.845   2.631  0.00  0.00     0.174 A 
ATOM      3  C3  BZF d   1       1.308   2.111   2.195  0.00  0.00    -0.012 A 
ATOM      4  C3A BZF d   1       1.536   1.191   1.124  0.00  0.00    -0.107 A 
ATOM      5  C4  BZF d   1       2.589   0.973   0.281  0.00  0.00     0.055 A 
ATOM      6  C5  BZF d   1       2.521  -0.053  -0.608  0.00  0.00    -0.016 A 
ATOM      7  C6  BZF d   1       1.421  -0.881  -0.679  0.00  0.00     0.022 A 
ATOM      8  C7  BZF d   1       0.350  -0.701   0.132  0.00  0.00     0.029 A 
ATOM      9  C7A BZF d   1       0.402   0.354   1.010  0.00  0.00     0.058 A 
ENDROOT
TORSDOF 0
ENDMDL
