MODEL 1
REMARK minimizedAffinity -3.19560218
REMARK minimizedRMSD -1
REMARK  0 active torsions:
REMARK  status: ('A' for Active; 'I' for Inactive)
ROOT
ATOM      1  O1  BZF d   1       1.265  -1.419   0.094  0.00  0.00    -0.204 OA
ATOM      2  C2  BZF d   1       2.324  -0.869  -0.603  0.00  0.00     0.174 A 
ATOM      3  C3  BZF d   1       2.311   0.476  -0.510  0.00  0.00    -0.012 A 
ATOM      4  C3A BZF d   1       1.227   0.782   0.373  0.00  0.00    -0.107 A 
ATOM      5  C4  BZF d   1       0.720   1.950   0.868  0.00  0.00     0.055 A 
ATOM      6  C5  BZF d   1      -0.391   1.908   1.649  0.00  0.00    -0.016 A 
ATOM      7  C6  BZF d   1      -1.023   0.720   1.950  0.00  0.00     0.022 A 
ATOM      8  C7  BZF d   1      -0.554  -0.464   1.487  0.00  0.00     0.029 A 
ATOM      9  C7A BZF d   1       0.587  -0.429   0.724  0.00  0.00     0.058 A 
ENDROOT
TORSDOF 0
ENDMDL
