MODEL 1
REMARK minimizedAffinity -3.80437446
REMARK minimizedRMSD -1
REMARK  0 active torsions:
REMARK  status: ('A' for Active; 'I' for Inactive)
ROOT
ATOM      1  O1  BZF d   1      -0.001   0.489  -1.329  0.00  0.00    -0.204 OA
ATOM      2  C2  BZF d   1       0.231   0.298   0.020  0.00  0.00     0.174 A 
ATOM      3  C3  BZF d   1      -0.626  -0.611   0.529  0.00  0.00    -0.012 A 
ATOM      4  C3A BZF d   1      -1.385  -1.080  -0.590  0.00  0.00    -0.107 A 
ATOM      5  C4  BZF d   1      -2.382  -2.003  -0.727  0.00  0.00     0.055 A 
ATOM      6  C5  BZF d   1      -2.961  -2.174  -1.945  0.00  0.00    -0.016 A 
ATOM      7  C6  BZF d   1      -2.571  -1.437  -3.044  0.00  0.00     0.022 A 
ATOM      8  C7  BZF d   1      -1.582  -0.514  -2.958  0.00  0.00     0.029 A 
ATOM      9  C7A BZF d   1      -0.973  -0.362  -1.736  0.00  0.00     0.058 A 
ENDROOT
TORSDOF 0
ENDMDL
