MODEL 1
REMARK minimizedAffinity -4.19849491
REMARK minimizedRMSD -1
REMARK  0 active torsions:
REMARK  status: ('A' for Active; 'I' for Inactive)
ROOT
ATOM      1  O1  BZF d   1       2.117   1.951   0.480  0.00  0.00    -0.204 OA
ATOM      2  C2  BZF d   1       1.633   2.646   1.571  0.00  0.00     0.174 A 
ATOM      3  C3  BZF d   1       0.512   2.069   2.048  0.00  0.00    -0.012 A 
ATOM      4  C3A BZF d   1       0.331   0.890   1.259  0.00  0.00    -0.107 A 
ATOM      5  C4  BZF d   1      -0.601  -0.109   1.263  0.00  0.00     0.055 A 
ATOM      6  C5  BZF d   1      -0.534  -1.078   0.313  0.00  0.00    -0.016 A 
ATOM      7  C6  BZF d   1       0.446  -1.077  -0.658  0.00  0.00     0.022 A 
ATOM      8  C7  BZF d   1       1.395  -0.110  -0.700  0.00  0.00     0.029 A 
ATOM      9  C7A BZF d   1       1.350   0.853   0.279  0.00  0.00     0.058 A 
ENDROOT
TORSDOF 0
ENDMDL
