MODEL 1
REMARK minimizedAffinity 20.1546078
REMARK minimizedRMSD -1
REMARK  0 active torsions:
REMARK  status: ('A' for Active; 'I' for Inactive)
ROOT
ATOM      1  N1  IND d   1       1.653   2.873  -1.760  0.00  0.00    -0.196 N 
ATOM      2  C2  IND d   1       2.193   1.637  -1.534  0.00  0.00     0.054 A 
ATOM      3  C3  IND d   1       3.328   1.481  -2.252  0.00  0.00    -0.031 A 
ATOM      4  C4  IND d   1       4.539   3.159  -3.783  0.00  0.00     0.051 A 
ATOM      5  C5  IND d   1       4.410   4.405  -4.330  0.00  0.00    -0.031 A 
ATOM      6  C6  IND d   1       3.336   5.221  -4.041  0.00  0.00     0.015 A 
ATOM      7  C7  IND d   1       2.352   4.825  -3.181  0.00  0.00    -0.016 A 
ATOM      8  C8  IND d   1       2.475   3.558  -2.629  0.00  0.00    -0.047 A 
ATOM      9  C9  IND d   1       3.541   2.708  -2.952  0.00  0.00    -0.096 A 
ATOM     10  HN1 IND d   1       0.924   3.172  -1.418  0.00  0.00     0.298 HD
ENDROOT
TORSDOF 0
ENDMDL
