MODEL 1
REMARK minimizedAffinity 12.7408962
REMARK minimizedRMSD -1
REMARK  0 active torsions:
REMARK  status: ('A' for Active; 'I' for Inactive)
ROOT
ATOM      1  N1  IND d   1      -1.787   0.394   0.524  0.00  0.00    -0.196 N 
ATOM      2  C2  IND d   1      -0.950   0.393   1.605  0.00  0.00     0.054 A 
ATOM      3  C3  IND d   1      -1.642   0.650   2.737  0.00  0.00    -0.031 A 
ATOM      4  C4  IND d   1      -4.172   1.001   3.063  0.00  0.00     0.051 A 
ATOM      5  C5  IND d   1      -5.340   1.128   2.365  0.00  0.00    -0.031 A 
ATOM      6  C6  IND d   1      -5.386   1.011   0.991  0.00  0.00     0.015 A 
ATOM      7  C7  IND d   1      -4.261   0.751   0.261  0.00  0.00    -0.016 A 
ATOM      8  C8  IND d   1      -3.071   0.629   0.965  0.00  0.00    -0.047 A 
ATOM      9  C9  IND d   1      -3.012   0.789   2.355  0.00  0.00    -0.096 A 
ATOM     10  HN1 IND d   1      -1.552   0.269  -0.293  0.00  0.00     0.298 HD
ENDROOT
TORSDOF 0
ENDMDL
