MODEL 1
REMARK minimizedAffinity 15.119709
REMARK minimizedRMSD -1
REMARK  0 active torsions:
REMARK  status: ('A' for Active; 'I' for Inactive)
ROOT
ATOM      1  N1  IND d   1       5.846  -2.866   5.998  0.00  0.00    -0.196 N 
ATOM      2  C2  IND d   1       6.000  -4.220   5.894  0.00  0.00     0.054 A 
ATOM      3  C3  IND d   1       5.999  -4.595   4.595  0.00  0.00    -0.031 A 
ATOM      4  C4  IND d   1       5.862  -3.143   2.473  0.00  0.00     0.051 A 
ATOM      5  C5  IND d   1       5.675  -1.854   2.061  0.00  0.00    -0.031 A 
ATOM      6  C6  IND d   1       5.536  -0.814   2.958  0.00  0.00     0.015 A 
ATOM      7  C7  IND d   1       5.590  -1.025   4.306  0.00  0.00    -0.016 A 
ATOM      8  C8  IND d   1       5.772  -2.334   4.729  0.00  0.00    -0.047 A 
ATOM      9  C9  IND d   1       5.871  -3.399   3.824  0.00  0.00    -0.096 A 
ATOM     10  HN1 IND d   1       5.802  -2.421   6.732  0.00  0.00     0.298 HD
ENDROOT
TORSDOF 0
ENDMDL
