MODEL 1
REMARK minimizedAffinity 0.268544406
REMARK minimizedRMSD -1
REMARK  0 active torsions:
REMARK  status: ('A' for Active; 'I' for Inactive)
ROOT
ATOM      1  N1  IND d   1      -2.492   0.488   0.627  0.00  0.00    -0.196 N 
ATOM      2  C2  IND d   1      -3.412   1.033   1.479  0.00  0.00     0.054 A 
ATOM      3  C3  IND d   1      -2.833   1.340   2.662  0.00  0.00    -0.031 A 
ATOM      4  C4  IND d   1      -0.370   1.129   3.380  0.00  0.00     0.051 A 
ATOM      5  C5  IND d   1       0.839   0.653   2.956  0.00  0.00    -0.031 A 
ATOM      6  C6  IND d   1       1.003   0.088   1.708  0.00  0.00     0.015 A 
ATOM      7  C7  IND d   1      -0.038  -0.012   0.829  0.00  0.00    -0.016 A 
ATOM      8  C8  IND d   1      -1.268   0.465   1.259  0.00  0.00    -0.047 A 
ATOM      9  C9  IND d   1      -1.450   1.001   2.540  0.00  0.00    -0.096 A 
ATOM     10  HN1 IND d   1      -2.652   0.207  -0.170  0.00  0.00     0.298 HD
ENDROOT
TORSDOF 0
ENDMDL
