MODEL 1
REMARK minimizedAffinity 8.21995926
REMARK minimizedRMSD -1
REMARK  0 active torsions:
REMARK  status: ('A' for Active; 'I' for Inactive)
ROOT
ATOM      1  N1  IND d   1      -2.017   1.861   2.201  0.00  0.00    -0.196 N 
ATOM      2  C2  IND d   1      -1.472   1.153   3.236  0.00  0.00     0.054 A 
ATOM      3  C3  IND d   1      -2.379   0.287   3.742  0.00  0.00    -0.031 A 
ATOM      4  C4  IND d   1      -4.781  -0.208   2.960  0.00  0.00     0.051 A 
ATOM      5  C5  IND d   1      -5.734   0.212   2.075  0.00  0.00    -0.031 A 
ATOM      6  C6  IND d   1      -5.491   1.222   1.166  0.00  0.00     0.015 A 
ATOM      7  C7  IND d   1      -4.276   1.844   1.101  0.00  0.00    -0.016 A 
ATOM      8  C8  IND d   1      -3.308   1.425   2.003  0.00  0.00    -0.047 A 
ATOM      9  C9  IND d   1      -3.563   0.430   2.956  0.00  0.00    -0.096 A 
ATOM     10  HN1 IND d   1      -1.619   2.475   1.749  0.00  0.00     0.298 HD
ENDROOT
TORSDOF 0
ENDMDL
