MODEL 1
REMARK minimizedAffinity 0.729630411
REMARK minimizedRMSD -1
REMARK  0 active torsions:
REMARK  status: ('A' for Active; 'I' for Inactive)
ROOT
ATOM      1  N1  IND d   1      -0.979  -3.090   0.868  0.00  0.00    -0.196 N 
ATOM      2  C2  IND d   1      -1.837  -4.096   0.521  0.00  0.00     0.054 A 
ATOM      3  C3  IND d   1      -3.099  -3.623   0.418  0.00  0.00    -0.031 A 
ATOM      4  C4  IND d   1      -3.969  -1.214   0.676  0.00  0.00     0.051 A 
ATOM      5  C5  IND d   1      -3.568   0.044   1.026  0.00  0.00    -0.031 A 
ATOM      6  C6  IND d   1      -2.256   0.329   1.344  0.00  0.00     0.015 A 
ATOM      7  C7  IND d   1      -1.290  -0.637   1.314  0.00  0.00    -0.016 A 
ATOM      8  C8  IND d   1      -1.695  -1.918   0.966  0.00  0.00    -0.047 A 
ATOM      9  C9  IND d   1      -3.033  -2.221   0.683  0.00  0.00    -0.096 A 
ATOM     10  HN1 IND d   1      -0.134  -3.175   1.002  0.00  0.00     0.298 HD
ENDROOT
TORSDOF 0
ENDMDL
