MODEL 1
REMARK minimizedAffinity 13.4143667
REMARK minimizedRMSD -1
REMARK  0 active torsions:
REMARK  status: ('A' for Active; 'I' for Inactive)
ROOT
ATOM      1  N1  IND d   1      -2.157   0.004   2.901  0.00  0.00    -0.196 N 
ATOM      2  C2  IND d   1      -2.892   0.910   2.189  0.00  0.00     0.054 A 
ATOM      3  C3  IND d   1      -4.086   1.122   2.787  0.00  0.00    -0.031 A 
ATOM      4  C4  IND d   1      -5.001   0.167   4.996  0.00  0.00     0.051 A 
ATOM      5  C5  IND d   1      -4.708  -0.729   5.985  0.00  0.00    -0.031 A 
ATOM      6  C6  IND d   1      -3.525  -1.439   5.999  0.00  0.00     0.015 A 
ATOM      7  C7  IND d   1      -2.581  -1.270   5.025  0.00  0.00    -0.016 A 
ATOM      8  C8  IND d   1      -2.878  -0.366   4.015  0.00  0.00    -0.047 A 
ATOM      9  C9  IND d   1      -4.096   0.326   3.973  0.00  0.00    -0.096 A 
ATOM     10  HN1 IND d   1      -1.376  -0.285   2.690  0.00  0.00     0.298 HD
ENDROOT
TORSDOF 0
ENDMDL
