MODEL 1
REMARK minimizedAffinity 0.732249022
REMARK minimizedRMSD -1
REMARK  0 active torsions:
REMARK  status: ('A' for Active; 'I' for Inactive)
ROOT
ATOM      1  N1  IND d   1      -1.507   0.601   1.198  0.00  0.00    -0.196 N 
ATOM      2  C2  IND d   1      -0.708   0.951   2.250  0.00  0.00     0.054 A 
ATOM      3  C3  IND d   1      -1.447   1.500   3.240  0.00  0.00    -0.031 A 
ATOM      4  C4  IND d   1      -3.996   1.830   3.388  0.00  0.00     0.051 A 
ATOM      5  C5  IND d   1      -5.143   1.699   2.657  0.00  0.00    -0.031 A 
ATOM      6  C6  IND d   1      -5.137   1.183   1.377  0.00  0.00     0.015 A 
ATOM      7  C7  IND d   1      -3.980   0.766   0.783  0.00  0.00    -0.016 A 
ATOM      8  C8  IND d   1      -2.812   0.904   1.520  0.00  0.00    -0.047 A 
ATOM      9  C9  IND d   1      -2.806   1.466   2.802  0.00  0.00    -0.096 A 
ATOM     10  HN1 IND d   1      -1.240   0.252   0.459  0.00  0.00     0.298 HD
ENDROOT
TORSDOF 0
ENDMDL
