MODEL 1
REMARK minimizedAffinity 4.30386209
REMARK minimizedRMSD -1
REMARK  0 active torsions:
REMARK  status: ('A' for Active; 'I' for Inactive)
ROOT
ATOM      1  N1  IND d   1      -1.838   0.179   1.812  0.00  0.00    -0.196 N 
ATOM      2  C2  IND d   1      -2.837   1.102   1.950  0.00  0.00     0.054 A 
ATOM      3  C3  IND d   1      -3.994   0.623   1.441  0.00  0.00    -0.031 A 
ATOM      4  C4  IND d   1      -4.501  -1.688   0.424  0.00  0.00     0.051 A 
ATOM      5  C5  IND d   1      -3.898  -2.856   0.051  0.00  0.00    -0.031 A 
ATOM      6  C6  IND d   1      -2.551  -3.079   0.253  0.00  0.00     0.015 A 
ATOM      7  C7  IND d   1      -1.756  -2.141   0.848  0.00  0.00    -0.016 A 
ATOM      8  C8  IND d   1      -2.363  -0.950   1.221  0.00  0.00    -0.047 A 
ATOM      9  C9  IND d   1      -3.720  -0.702   0.981  0.00  0.00    -0.096 A 
ATOM     10  HN1 IND d   1      -1.019   0.285   2.053  0.00  0.00     0.298 HD
ENDROOT
TORSDOF 0
ENDMDL
