MODEL 1
REMARK minimizedAffinity 11.99228
REMARK minimizedRMSD -1
REMARK  0 active torsions:
REMARK  status: ('A' for Active; 'I' for Inactive)
ROOT
ATOM      1  N1  IND d   1      -3.063  -0.075   0.406  0.00  0.00    -0.196 N 
ATOM      2  C2  IND d   1      -4.275   0.467   0.730  0.00  0.00     0.054 A 
ATOM      3  C3  IND d   1      -4.164   1.245   1.830  0.00  0.00    -0.031 A 
ATOM      4  C4  IND d   1      -2.070   1.851   3.200  0.00  0.00     0.051 A 
ATOM      5  C5  IND d   1      -0.737   1.570   3.311  0.00  0.00    -0.031 A 
ATOM      6  C6  IND d   1      -0.098   0.710   2.441  0.00  0.00     0.015 A 
ATOM      7  C7  IND d   1      -0.769   0.107   1.415  0.00  0.00    -0.016 A 
ATOM      8  C8  IND d   1      -2.124   0.384   1.303  0.00  0.00    -0.047 A 
ATOM      9  C9  IND d   1      -2.787   1.222   2.209  0.00  0.00    -0.096 A 
ATOM     10  HN1 IND d   1      -2.912  -0.613  -0.247  0.00  0.00     0.298 HD
ENDROOT
TORSDOF 0
ENDMDL
