MODEL 1
REMARK minimizedAffinity 16.510128
REMARK minimizedRMSD -1
REMARK  0 active torsions:
REMARK  status: ('A' for Active; 'I' for Inactive)
ROOT
ATOM      1  N1  IND d   1       4.762  -0.731   3.234  0.00  0.00    -0.196 N 
ATOM      2  C2  IND d   1       5.631  -0.344   2.252  0.00  0.00     0.054 A 
ATOM      3  C3  IND d   1       5.030   0.527   1.410  0.00  0.00    -0.031 A 
ATOM      4  C4  IND d   1       2.663   1.534   1.513  0.00  0.00     0.051 A 
ATOM      5  C5  IND d   1       1.489   1.456   2.208  0.00  0.00    -0.031 A 
ATOM      6  C6  IND d   1       1.344   0.630   3.304  0.00  0.00     0.015 A 
ATOM      7  C7  IND d   1       2.376  -0.143   3.755  0.00  0.00    -0.016 A 
ATOM      8  C8  IND d   1       3.567  -0.072   3.048  0.00  0.00    -0.047 A 
ATOM      9  C9  IND d   1       3.708   0.732   1.909  0.00  0.00    -0.096 A 
ATOM     10  HN1 IND d   1       4.934  -1.292   3.863  0.00  0.00     0.298 HD
ENDROOT
TORSDOF 0
ENDMDL
