MODEL 1
REMARK minimizedAffinity 12.3229322
REMARK minimizedRMSD -1
REMARK  0 active torsions:
REMARK  status: ('A' for Active; 'I' for Inactive)
ROOT
ATOM      1  N1  IND d   1      -2.278   0.478   0.558  0.00  0.00    -0.196 N 
ATOM      2  C2  IND d   1      -1.167   0.141   1.280  0.00  0.00     0.054 A 
ATOM      3  C3  IND d   1      -1.478   0.017   2.590  0.00  0.00    -0.031 A 
ATOM      4  C4  IND d   1      -3.764   0.222   3.755  0.00  0.00     0.051 A 
ATOM      5  C5  IND d   1      -5.068   0.552   3.518  0.00  0.00    -0.031 A 
ATOM      6  C6  IND d   1      -5.519   0.879   2.255  0.00  0.00     0.015 A 
ATOM      7  C7  IND d   1      -4.681   0.877   1.177  0.00  0.00    -0.016 A 
ATOM      8  C8  IND d   1      -3.354   0.548   1.415  0.00  0.00    -0.047 A 
ATOM      9  C9  IND d   1      -2.881   0.257   2.702  0.00  0.00    -0.096 A 
ATOM     10  HN1 IND d   1      -2.301   0.623  -0.290  0.00  0.00     0.298 HD
ENDROOT
TORSDOF 0
ENDMDL
