MODEL 1
REMARK minimizedAffinity 6.03600359
REMARK minimizedRMSD -1
REMARK  0 active torsions:
REMARK  status: ('A' for Active; 'I' for Inactive)
ROOT
ATOM      1  N1  IND d   1      -5.942  -3.216   3.004  0.00  0.00    -0.196 N 
ATOM      2  C2  IND d   1      -5.866  -3.236   4.369  0.00  0.00     0.054 A 
ATOM      3  C3  IND d   1      -5.367  -2.067   4.829  0.00  0.00    -0.031 A 
ATOM      4  C4  IND d   1      -4.704   0.053   3.528  0.00  0.00     0.051 A 
ATOM      5  C5  IND d   1      -4.563   0.538   2.258  0.00  0.00    -0.031 A 
ATOM      6  C6  IND d   1      -4.883  -0.219   1.150  0.00  0.00     0.015 A 
ATOM      7  C7  IND d   1      -5.370  -1.490   1.271  0.00  0.00    -0.016 A 
ATOM      8  C8  IND d   1      -5.508  -1.987   2.559  0.00  0.00    -0.047 A 
ATOM      9  C9  IND d   1      -5.144  -1.240   3.686  0.00  0.00    -0.096 A 
ATOM     10  HN1 IND d   1      -6.215  -3.863   2.507  0.00  0.00     0.298 HD
ENDROOT
TORSDOF 0
ENDMDL
