MODEL 1
REMARK minimizedAffinity 0.831506789
REMARK minimizedRMSD -1
REMARK  0 active torsions:
REMARK  status: ('A' for Active; 'I' for Inactive)
ROOT
ATOM      1  N1  IND d   1      -6.000   2.279   2.772  0.00  0.00    -0.196 N 
ATOM      2  C2  IND d   1      -5.994   2.347   4.137  0.00  0.00     0.054 A 
ATOM      3  C3  IND d   1      -4.897   1.734   4.634  0.00  0.00    -0.031 A 
ATOM      4  C4  IND d   1      -2.928   0.639   3.386  0.00  0.00     0.051 A 
ATOM      5  C5  IND d   1      -2.503   0.300   2.133  0.00  0.00    -0.031 A 
ATOM      6  C6  IND d   1      -3.235   0.612   1.005  0.00  0.00     0.015 A 
ATOM      7  C7  IND d   1      -4.419   1.287   1.089  0.00  0.00    -0.016 A 
ATOM      8  C8  IND d   1      -4.858   1.627   2.361  0.00  0.00    -0.047 A 
ATOM      9  C9  IND d   1      -4.140   1.276   3.512  0.00  0.00    -0.096 A 
ATOM     10  HN1 IND d   1      -6.613   2.591   2.257  0.00  0.00     0.298 HD
ENDROOT
TORSDOF 0
ENDMDL
