MODEL 1
REMARK minimizedAffinity 6.33437538
REMARK minimizedRMSD -1
REMARK  0 active torsions:
REMARK  status: ('A' for Active; 'I' for Inactive)
ROOT
ATOM      1  N1  IND d   1      -3.502   1.488   1.399  0.00  0.00    -0.196 N 
ATOM      2  C2  IND d   1      -4.001   0.242   1.139  0.00  0.00     0.054 A 
ATOM      3  C3  IND d   1      -3.091  -0.705   1.460  0.00  0.00    -0.031 A 
ATOM      4  C4  IND d   1      -0.761  -0.442   2.521  0.00  0.00     0.051 A 
ATOM      5  C5  IND d   1       0.146   0.504   2.908  0.00  0.00    -0.031 A 
ATOM      6  C6  IND d   1      -0.123   1.854   2.812  0.00  0.00     0.015 A 
ATOM      7  C7  IND d   1      -1.319   2.310   2.334  0.00  0.00    -0.016 A 
ATOM      8  C8  IND d   1      -2.240   1.352   1.934  0.00  0.00    -0.047 A 
ATOM      9  C9  IND d   1      -1.956  -0.019   1.990  0.00  0.00    -0.096 A 
ATOM     10  HN1 IND d   1      -3.908   2.232   1.253  0.00  0.00     0.298 HD
ENDROOT
TORSDOF 0
ENDMDL
