MODEL 1
REMARK minimizedAffinity 10.5874138
REMARK minimizedRMSD -1
REMARK  0 active torsions:
REMARK  status: ('A' for Active; 'I' for Inactive)
ROOT
ATOM      1  N1  IND d   1      -3.579   0.343   1.249  0.00  0.00    -0.196 N 
ATOM      2  C2  IND d   1      -2.357   0.621   1.795  0.00  0.00     0.054 A 
ATOM      3  C3  IND d   1      -1.565  -0.473   1.756  0.00  0.00    -0.031 A 
ATOM      4  C4  IND d   1      -2.032  -2.796   0.750  0.00  0.00     0.051 A 
ATOM      5  C5  IND d   1      -3.022  -3.541   0.172  0.00  0.00    -0.031 A 
ATOM      6  C6  IND d   1      -4.273  -3.017  -0.084  0.00  0.00     0.015 A 
ATOM      7  C7  IND d   1      -4.578  -1.720   0.219  0.00  0.00    -0.016 A 
ATOM      8  C8  IND d   1      -3.577  -0.963   0.812  0.00  0.00    -0.047 A 
ATOM      9  C9  IND d   1      -2.320  -1.502   1.114  0.00  0.00    -0.096 A 
ATOM     10  HN1 IND d   1      -4.238   0.892   1.188  0.00  0.00     0.298 HD
ENDROOT
TORSDOF 0
ENDMDL
