MODEL 1
REMARK minimizedAffinity 12.2705822
REMARK minimizedRMSD -1
REMARK  0 active torsions:
REMARK  status: ('A' for Active; 'I' for Inactive)
ROOT
ATOM      1  N1  IND d   1      -2.373   1.971   2.440  0.00  0.00    -0.196 N 
ATOM      2  C2  IND d   1      -2.710   0.787   1.845  0.00  0.00     0.054 A 
ATOM      3  C3  IND d   1      -1.673  -0.079   1.898  0.00  0.00    -0.031 A 
ATOM      4  C4  IND d   1       0.635   0.200   3.003  0.00  0.00     0.051 A 
ATOM      5  C5  IND d   1       1.421   1.120   3.639  0.00  0.00    -0.031 A 
ATOM      6  C6  IND d   1       0.972   2.395   3.916  0.00  0.00     0.015 A 
ATOM      7  C7  IND d   1      -0.289   2.796   3.576  0.00  0.00    -0.016 A 
ATOM      8  C8  IND d   1      -1.087   1.867   2.923  0.00  0.00    -0.047 A 
ATOM      9  C9  IND d   1      -0.622   0.586   2.601  0.00  0.00    -0.096 A 
ATOM     10  HN1 IND d   1      -2.879   2.663   2.501  0.00  0.00     0.298 HD
ENDROOT
TORSDOF 0
ENDMDL
