MODEL 1
REMARK minimizedAffinity 7.50124073
REMARK minimizedRMSD -1
REMARK  0 active torsions:
REMARK  status: ('A' for Active; 'I' for Inactive)
ROOT
ATOM      1  N1  IND d   1      -2.328   1.565   1.507  0.00  0.00    -0.196 N 
ATOM      2  C2  IND d   1      -2.495   0.239   1.222  0.00  0.00     0.054 A 
ATOM      3  C3  IND d   1      -1.529  -0.496   1.817  0.00  0.00    -0.031 A 
ATOM      4  C4  IND d   1       0.367   0.259   3.386  0.00  0.00     0.051 A 
ATOM      5  C5  IND d   1       0.949   1.379   3.912  0.00  0.00    -0.031 A 
ATOM      6  C6  IND d   1       0.456   2.643   3.660  0.00  0.00     0.015 A 
ATOM      7  C7  IND d   1      -0.648   2.835   2.878  0.00  0.00    -0.016 A 
ATOM      8  C8  IND d   1      -1.237   1.701   2.337  0.00  0.00    -0.047 A 
ATOM      9  C9  IND d   1      -0.716   0.419   2.554  0.00  0.00    -0.096 A 
ATOM     10  HN1 IND d   1      -2.820   2.207   1.216  0.00  0.00     0.298 HD
ENDROOT
TORSDOF 0
ENDMDL
