MODEL 1
REMARK minimizedAffinity 5.15997601
REMARK minimizedRMSD -1
REMARK  0 active torsions:
REMARK  status: ('A' for Active; 'I' for Inactive)
ROOT
ATOM      1  N1  IND d   1      -4.646  -1.516   0.265  0.00  0.00    -0.196 N 
ATOM      2  C2  IND d   1      -3.791  -2.561   0.053  0.00  0.00     0.054 A 
ATOM      3  C3  IND d   1      -2.573  -2.285   0.572  0.00  0.00    -0.031 A 
ATOM      4  C4  IND d   1      -1.792  -0.223   1.902  0.00  0.00     0.051 A 
ATOM      5  C5  IND d   1      -2.207   1.011   2.318  0.00  0.00    -0.031 A 
ATOM      6  C6  IND d   1      -3.482   1.474   2.069  0.00  0.00     0.015 A 
ATOM      7  C7  IND d   1      -4.399   0.712   1.401  0.00  0.00    -0.016 A 
ATOM      8  C8  IND d   1      -3.979  -0.539   0.970  0.00  0.00    -0.047 A 
ATOM      9  C9  IND d   1      -2.672  -0.997   1.183  0.00  0.00    -0.096 A 
ATOM     10  HN1 IND d   1      -5.464  -1.476   0.002  0.00  0.00     0.298 HD
ENDROOT
TORSDOF 0
ENDMDL
