MODEL 1
REMARK minimizedAffinity -4.13351965
REMARK minimizedRMSD -1
REMARK  0 active torsions:
REMARK  status: ('A' for Active; 'I' for Inactive)
ROOT
ATOM      1  O1  BZF d   1      -0.150   1.092  -0.285  0.00  0.00    -0.204 OA
ATOM      2  C2  BZF d   1       1.229   1.009  -0.324  0.00  0.00     0.174 A 
ATOM      3  C3  BZF d   1       1.653  -0.151   0.216  0.00  0.00    -0.012 A 
ATOM      4  C3A BZF d   1       0.462  -0.877   0.534  0.00  0.00    -0.107 A 
ATOM      5  C4  BZF d   1       0.229  -2.106   1.080  0.00  0.00     0.055 A 
ATOM      6  C5  BZF d   1      -1.052  -2.488   1.326  0.00  0.00    -0.016 A 
ATOM      7  C6  BZF d   1      -2.122  -1.665   1.043  0.00  0.00     0.022 A 
ATOM      8  C7  BZF d   1      -1.941  -0.439   0.495  0.00  0.00     0.029 A 
ATOM      9  C7A BZF d   1      -0.650  -0.063   0.215  0.00  0.00     0.058 A 
ENDROOT
TORSDOF 0
ENDMDL
