MODEL 1
REMARK minimizedAffinity -5.11323881
REMARK minimizedRMSD -1
REMARK  0 active torsions:
REMARK  status: ('A' for Active; 'I' for Inactive)
ROOT
ATOM      1  O1  BZF d   1      -0.219   1.234   0.258  0.00  0.00    -0.204 OA
ATOM      2  C2  BZF d   1       1.160   1.158   0.248  0.00  0.00     0.174 A 
ATOM      3  C3  BZF d   1       1.570  -0.115   0.422  0.00  0.00    -0.012 A 
ATOM      4  C3A BZF d   1       0.371  -0.895   0.457  0.00  0.00    -0.107 A 
ATOM      5  C4  BZF d   1       0.124  -2.232   0.591  0.00  0.00     0.055 A 
ATOM      6  C5  BZF d   1      -1.164  -2.662   0.659  0.00  0.00    -0.016 A 
ATOM      7  C6  BZF d   1      -2.226  -1.784   0.601  0.00  0.00     0.022 A 
ATOM      8  C7  BZF d   1      -2.031  -0.450   0.463  0.00  0.00     0.029 A 
ATOM      9  C7A BZF d   1      -0.732  -0.016   0.361  0.00  0.00     0.058 A 
ENDROOT
TORSDOF 0
ENDMDL
