MODEL 1
REMARK minimizedAffinity -6.33058262
REMARK minimizedRMSD -1
REMARK  0 active torsions:
REMARK  status: ('A' for Active; 'I' for Inactive)
ROOT
ATOM      1  O1  BZF d   1      -0.106   0.708   0.396  0.00  0.00    -0.204 OA
ATOM      2  C2  BZF d   1       1.105   0.157   0.025  0.00  0.00     0.174 A 
ATOM      3  C3  BZF d   1       1.146  -1.157   0.325  0.00  0.00    -0.012 A 
ATOM      4  C3A BZF d   1      -0.154  -1.466   0.836  0.00  0.00    -0.107 A 
ATOM      5  C4  BZF d   1      -0.736  -2.616   1.289  0.00  0.00     0.055 A 
ATOM      6  C5  BZF d   1      -1.999  -2.565   1.788  0.00  0.00    -0.016 A 
ATOM      7  C6  BZF d   1      -2.707  -1.382   1.854  0.00  0.00     0.022 A 
ATOM      8  C7  BZF d   1      -2.174  -0.217   1.411  0.00  0.00     0.029 A 
ATOM      9  C7A BZF d   1      -0.910  -0.272   0.876  0.00  0.00     0.058 A 
ENDROOT
TORSDOF 0
ENDMDL
