MODEL 1
REMARK minimizedAffinity -3.78069592
REMARK minimizedRMSD -1
REMARK  0 active torsions:
REMARK  status: ('A' for Active; 'I' for Inactive)
ROOT
ATOM      1  O1  BZF d   1      -0.655   0.820  -1.121  0.00  0.00    -0.204 OA
ATOM      2  C2  BZF d   1       0.562   1.447  -0.931  0.00  0.00     0.174 A 
ATOM      3  C3  BZF d   1       1.332   0.747  -0.074  0.00  0.00    -0.012 A 
ATOM      4  C3A BZF d   1       0.585  -0.437   0.223  0.00  0.00    -0.107 A 
ATOM      5  C4  BZF d   1       0.829  -1.530   1.004  0.00  0.00     0.055 A 
ATOM      6  C5  BZF d   1      -0.138  -2.476   1.137  0.00  0.00    -0.016 A 
ATOM      7  C6  BZF d   1      -1.360  -2.358   0.509  0.00  0.00     0.022 A 
ATOM      8  C7  BZF d   1      -1.647  -1.294  -0.280  0.00  0.00     0.029 A 
ATOM      9  C7A BZF d   1      -0.660  -0.352  -0.442  0.00  0.00     0.058 A 
ENDROOT
TORSDOF 0
ENDMDL
