MODEL 1
REMARK minimizedAffinity -3.16050553
REMARK minimizedRMSD -1
REMARK  0 active torsions:
REMARK  status: ('A' for Active; 'I' for Inactive)
ROOT
ATOM      1  O1  BZF d   1      -2.281  -1.335   1.331  0.00  0.00    -0.204 OA
ATOM      2  C2  BZF d   1      -1.902  -2.645   1.556  0.00  0.00     0.174 A 
ATOM      3  C3  BZF d   1      -0.666  -2.876   1.067  0.00  0.00    -0.012 A 
ATOM      4  C3A BZF d   1      -0.210  -1.609   0.583  0.00  0.00    -0.107 A 
ATOM      5  C4  BZF d   1       0.951  -1.190  -0.002  0.00  0.00     0.055 A 
ATOM      6  C5  BZF d   1       1.051   0.098  -0.423  0.00  0.00    -0.016 A 
ATOM      7  C6  BZF d   1       0.010   0.992  -0.279  0.00  0.00     0.022 A 
ATOM      8  C7  BZF d   1      -1.159   0.624   0.300  0.00  0.00     0.029 A 
ATOM      9  C7A BZF d   1      -1.251  -0.668   0.756  0.00  0.00     0.058 A 
ENDROOT
TORSDOF 0
ENDMDL
