MODEL 1
REMARK minimizedAffinity -5.16728687
REMARK minimizedRMSD -1
REMARK  0 active torsions:
REMARK  status: ('A' for Active; 'I' for Inactive)
ROOT
ATOM      1  O1  BZF d   1       1.192   0.017   1.094  0.00  0.00    -0.204 OA
ATOM      2  C2  BZF d   1       1.110   1.232   0.441  0.00  0.00     0.174 A 
ATOM      3  C3  BZF d   1      -0.048   1.330  -0.243  0.00  0.00    -0.012 A 
ATOM      4  C3A BZF d   1      -0.774   0.138   0.072  0.00  0.00    -0.107 A 
ATOM      5  C4  BZF d   1      -2.002  -0.337  -0.290  0.00  0.00     0.055 A 
ATOM      6  C5  BZF d   1      -2.384  -1.570   0.134  0.00  0.00    -0.016 A 
ATOM      7  C6  BZF d   1      -1.563  -2.357   0.915  0.00  0.00     0.022 A 
ATOM      8  C7  BZF d   1      -0.338  -1.926   1.304  0.00  0.00     0.029 A 
ATOM      9  C7A BZF d   1       0.038  -0.667   0.905  0.00  0.00     0.058 A 
ENDROOT
TORSDOF 0
ENDMDL
