MODEL 1
REMARK minimizedAffinity -5.51746225
REMARK minimizedRMSD -1
REMARK  0 active torsions:
REMARK  status: ('A' for Active; 'I' for Inactive)
ROOT
ATOM      1  O1  BZF d   1      -1.201   1.439   0.182  0.00  0.00    -0.204 OA
ATOM      2  C2  BZF d   1       0.070   1.918  -0.070  0.00  0.00     0.174 A 
ATOM      3  C3  BZF d   1       0.982   0.929   0.026  0.00  0.00    -0.012 A 
ATOM      4  C3A BZF d   1       0.224  -0.260   0.268  0.00  0.00    -0.107 A 
ATOM      5  C4  BZF d   1       0.564  -1.571   0.439  0.00  0.00     0.055 A 
ATOM      6  C5  BZF d   1      -0.410  -2.473   0.731  0.00  0.00    -0.016 A 
ATOM      7  C6  BZF d   1      -1.731  -2.098   0.863  0.00  0.00     0.022 A 
ATOM      8  C7  BZF d   1      -2.117  -0.810   0.697  0.00  0.00     0.029 A 
ATOM      9  C7A BZF d   1      -1.140   0.098   0.370  0.00  0.00     0.058 A 
ENDROOT
TORSDOF 0
ENDMDL
