MODEL 1
REMARK minimizedAffinity -5.90243196
REMARK minimizedRMSD -1
REMARK  0 active torsions:
REMARK  status: ('A' for Active; 'I' for Inactive)
ROOT
ATOM      1  O1  BZF d   1      -0.394   0.857   0.367  0.00  0.00    -0.204 OA
ATOM      2  C2  BZF d   1       0.742   0.302  -0.190  0.00  0.00     0.174 A 
ATOM      3  C3  BZF d   1       0.757  -1.035  -0.016  0.00  0.00    -0.012 A 
ATOM      4  C3A BZF d   1      -0.491  -1.346   0.612  0.00  0.00    -0.107 A 
ATOM      5  C4  BZF d   1      -1.069  -2.513   1.025  0.00  0.00     0.055 A 
ATOM      6  C5  BZF d   1      -2.264  -2.465   1.670  0.00  0.00    -0.016 A 
ATOM      7  C6  BZF d   1      -2.906  -1.271   1.922  0.00  0.00     0.022 A 
ATOM      8  C7  BZF d   1      -2.374  -0.088   1.527  0.00  0.00     0.029 A 
ATOM      9  C7A BZF d   1      -1.182  -0.135   0.847  0.00  0.00     0.058 A 
ENDROOT
TORSDOF 0
ENDMDL
