MODEL 1
REMARK minimizedAffinity -3.94639182
REMARK minimizedRMSD -1
REMARK  0 active torsions:
REMARK  status: ('A' for Active; 'I' for Inactive)
ROOT
ATOM      1  O1  BZF d   1      -0.904   1.044   0.031  0.00  0.00    -0.204 OA
ATOM      2  C2  BZF d   1       0.356   1.486  -0.326  0.00  0.00     0.174 A 
ATOM      3  C3  BZF d   1       1.278   0.525  -0.111  0.00  0.00    -0.012 A 
ATOM      4  C3A BZF d   1       0.537  -0.618   0.325  0.00  0.00    -0.107 A 
ATOM      5  C4  BZF d   1       0.892  -1.888   0.679  0.00  0.00     0.055 A 
ATOM      6  C5  BZF d   1      -0.066  -2.741   1.128  0.00  0.00    -0.016 A 
ATOM      7  C6  BZF d   1      -1.386  -2.356   1.241  0.00  0.00     0.022 A 
ATOM      8  C7  BZF d   1      -1.787  -1.108   0.898  0.00  0.00     0.029 A 
ATOM      9  C7A BZF d   1      -0.827  -0.254   0.412  0.00  0.00     0.058 A 
ENDROOT
TORSDOF 0
ENDMDL
