MODEL 1
REMARK minimizedAffinity -1.47428823
REMARK minimizedRMSD -1
REMARK  0 active torsions:
REMARK  status: ('A' for Active; 'I' for Inactive)
ROOT
ATOM      1  O1  BZF d   1      -0.085   0.948  -0.432  0.00  0.00    -0.204 OA
ATOM      2  C2  BZF d   1       1.252   1.194  -0.188  0.00  0.00     0.174 A 
ATOM      3  C3  BZF d   1       1.773   0.245   0.617  0.00  0.00    -0.012 A 
ATOM      4  C3A BZF d   1       0.718  -0.699   0.818  0.00  0.00    -0.107 A 
ATOM      5  C4  BZF d   1       0.626  -1.871   1.513  0.00  0.00     0.055 A 
ATOM      6  C5  BZF d   1      -0.569  -2.515   1.568  0.00  0.00    -0.016 A 
ATOM      7  C6  BZF d   1      -1.693  -2.014   0.944  0.00  0.00     0.022 A 
ATOM      8  C7  BZF d   1      -1.650  -0.857   0.239  0.00  0.00     0.029 A 
ATOM      9  C7A BZF d   1      -0.436  -0.222   0.154  0.00  0.00     0.058 A 
ENDROOT
TORSDOF 0
ENDMDL
