MODEL 1
REMARK minimizedAffinity 1.3774153
REMARK minimizedRMSD -1
REMARK  0 active torsions:
REMARK  status: ('A' for Active; 'I' for Inactive)
ROOT
ATOM      1  O1  BZF d   1      -1.985  -0.962   1.588  0.00  0.00    -0.204 OA
ATOM      2  C2  BZF d   1      -1.648  -2.232   2.017  0.00  0.00     0.174 A 
ATOM      3  C3  BZF d   1      -0.516  -2.654   1.417  0.00  0.00    -0.012 A 
ATOM      4  C3A BZF d   1      -0.071  -1.545   0.630  0.00  0.00    -0.107 A 
ATOM      5  C4  BZF d   1       1.007  -1.343  -0.184  0.00  0.00     0.055 A 
ATOM      6  C5  BZF d   1       1.111  -0.172  -0.865  0.00  0.00    -0.016 A 
ATOM      7  C6  BZF d   1       0.154   0.816  -0.760  0.00  0.00     0.022 A 
ATOM      8  C7  BZF d   1      -0.931   0.664   0.038  0.00  0.00     0.029 A 
ATOM      9  C7A BZF d   1      -1.022  -0.505   0.753  0.00  0.00     0.058 A 
ENDROOT
TORSDOF 0
ENDMDL
