MODEL 1
REMARK minimizedAffinity -2.5195117
REMARK minimizedRMSD -1
REMARK  0 active torsions:
REMARK  status: ('A' for Active; 'I' for Inactive)
ROOT
ATOM      1  O1  BZF d   1       1.368  -0.225   0.157  0.00  0.00    -0.204 OA
ATOM      2  C2  BZF d   1       0.775   0.834  -0.503  0.00  0.00     0.174 A 
ATOM      3  C3  BZF d   1      -0.555   0.643  -0.618  0.00  0.00    -0.012 A 
ATOM      4  C3A BZF d   1      -0.822  -0.571   0.091  0.00  0.00    -0.107 A 
ATOM      5  C4  BZF d   1      -1.963  -1.277   0.347  0.00  0.00     0.055 A 
ATOM      6  C5  BZF d   1      -1.873  -2.462   1.006  0.00  0.00    -0.016 A 
ATOM      7  C6  BZF d   1      -0.660  -2.973   1.418  0.00  0.00     0.022 A 
ATOM      8  C7  BZF d   1       0.499  -2.307   1.191  0.00  0.00     0.029 A 
ATOM      9  C7A BZF d   1       0.407  -1.093   0.555  0.00  0.00     0.058 A 
ENDROOT
TORSDOF 0
ENDMDL
