MODEL 1
REMARK minimizedAffinity -3.67294383
REMARK minimizedRMSD -1
REMARK  0 active torsions:
REMARK  status: ('A' for Active; 'I' for Inactive)
ROOT
ATOM      1  O1  BZF d   1      -2.185  -1.605   0.607  0.00  0.00    -0.204 OA
ATOM      2  C2  BZF d   1      -1.776  -2.839   1.076  0.00  0.00     0.174 A 
ATOM      3  C3  BZF d   1      -0.431  -2.933   1.066  0.00  0.00    -0.012 A 
ATOM      4  C3A BZF d   1       0.033  -1.646   0.647  0.00  0.00    -0.107 A 
ATOM      5  C4  BZF d   1       1.276  -1.112   0.457  0.00  0.00     0.055 A 
ATOM      6  C5  BZF d   1       1.384   0.152  -0.028  0.00  0.00    -0.016 A 
ATOM      7  C6  BZF d   1       0.273   0.908  -0.340  0.00  0.00     0.022 A 
ATOM      8  C7  BZF d   1      -0.980   0.423  -0.165  0.00  0.00     0.029 A 
ATOM      9  C7A BZF d   1      -1.094  -0.842   0.357  0.00  0.00     0.058 A 
ENDROOT
TORSDOF 0
ENDMDL
