MODEL 1
REMARK minimizedAffinity -1.82475936
REMARK minimizedRMSD -1
REMARK  0 active torsions:
REMARK  status: ('A' for Active; 'I' for Inactive)
ROOT
ATOM      1  O1  BZF d   1       0.485   1.515   0.594  0.00  0.00    -0.204 OA
ATOM      2  C2  BZF d   1       0.214   0.252   1.085  0.00  0.00     0.174 A 
ATOM      3  C3  BZF d   1       1.257  -0.577   0.874  0.00  0.00    -0.012 A 
ATOM      4  C3A BZF d   1       2.277   0.241   0.293  0.00  0.00    -0.107 A 
ATOM      5  C4  BZF d   1       3.553  -0.005  -0.125  0.00  0.00     0.055 A 
ATOM      6  C5  BZF d   1       4.260   0.995  -0.715  0.00  0.00    -0.016 A 
ATOM      7  C6  BZF d   1       3.720   2.250  -0.906  0.00  0.00     0.022 A 
ATOM      8  C7  BZF d   1       2.460   2.543  -0.503  0.00  0.00     0.029 A 
ATOM      9  C7A BZF d   1       1.755   1.544   0.123  0.00  0.00     0.058 A 
ENDROOT
TORSDOF 0
ENDMDL
