MODEL 1
REMARK minimizedAffinity -5.48572826
REMARK minimizedRMSD -1
REMARK  0 active torsions:
REMARK  status: ('A' for Active; 'I' for Inactive)
ROOT
ATOM      1  O1  BZF d   1      -0.537   0.447  -0.533  0.00  0.00    -0.204 OA
ATOM      2  C2  BZF d   1       0.819   0.299  -0.756  0.00  0.00     0.174 A 
ATOM      3  C3  BZF d   1       1.320  -0.705  -0.008  0.00  0.00    -0.012 A 
ATOM      4  C3A BZF d   1       0.191  -1.276   0.660  0.00  0.00    -0.107 A 
ATOM      5  C4  BZF d   1       0.044  -2.318   1.531  0.00  0.00     0.055 A 
ATOM      6  C5  BZF d   1      -1.184  -2.571   2.056  0.00  0.00    -0.016 A 
ATOM      7  C6  BZF d   1      -2.283  -1.802   1.736  0.00  0.00     0.022 A 
ATOM      8  C7  BZF d   1      -2.187  -0.761   0.873  0.00  0.00     0.029 A 
ATOM      9  C7A BZF d   1      -0.955  -0.523   0.315  0.00  0.00     0.058 A 
ENDROOT
TORSDOF 0
ENDMDL
