MODEL 1
REMARK minimizedAffinity -1.91706407
REMARK minimizedRMSD -1
REMARK  0 active torsions:
REMARK  status: ('A' for Active; 'I' for Inactive)
ROOT
ATOM      1  O1  BZF d   1      -0.674   1.510  -0.927  0.00  0.00    -0.204 OA
ATOM      2  C2  BZF d   1      -0.130   0.783   0.115  0.00  0.00     0.174 A 
ATOM      3  C3  BZF d   1       1.202   0.641  -0.045  0.00  0.00    -0.012 A 
ATOM      4  C3A BZF d   1       1.523   1.401  -1.214  0.00  0.00    -0.107 A 
ATOM      5  C4  BZF d   1       2.690   1.660  -1.874  0.00  0.00     0.055 A 
ATOM      6  C5  BZF d   1       2.652   2.378  -3.027  0.00  0.00    -0.016 A 
ATOM      7  C6  BZF d   1       1.466   2.848  -3.551  0.00  0.00     0.022 A 
ATOM      8  C7  BZF d   1       0.283   2.621  -2.929  0.00  0.00     0.029 A 
ATOM      9  C7A BZF d   1       0.322   1.923  -1.747  0.00  0.00     0.058 A 
ENDROOT
TORSDOF 0
ENDMDL
