MODEL 1
REMARK minimizedAffinity -6.25876045
REMARK minimizedRMSD -1
REMARK  0 active torsions:
REMARK  status: ('A' for Active; 'I' for Inactive)
ROOT
ATOM      1  O1  BZF d   1      -0.307   1.265   0.640  0.00  0.00    -0.204 OA
ATOM      2  C2  BZF d   1       0.846   0.746   0.084  0.00  0.00     0.174 A 
ATOM      3  C3  BZF d   1       0.852  -0.600   0.165  0.00  0.00    -0.012 A 
ATOM      4  C3A BZF d   1      -0.416  -0.949   0.729  0.00  0.00    -0.107 A 
ATOM      5  C4  BZF d   1      -1.009  -2.139   1.040  0.00  0.00     0.055 A 
ATOM      6  C5  BZF d   1      -2.225  -2.132   1.647  0.00  0.00    -0.016 A 
ATOM      7  C6  BZF d   1      -2.873  -0.955   1.961  0.00  0.00     0.022 A 
ATOM      8  C7  BZF d   1      -2.326   0.250   1.667  0.00  0.00     0.029 A 
ATOM      9  C7A BZF d   1      -1.112   0.245   1.024  0.00  0.00     0.058 A 
ENDROOT
TORSDOF 0
ENDMDL
