MODEL 1
REMARK minimizedAffinity -3.81294584
REMARK minimizedRMSD -1
REMARK  0 active torsions:
REMARK  status: ('A' for Active; 'I' for Inactive)
ROOT
ATOM      1  O1  BZF d   1      -0.814   0.292  -1.277  0.00  0.00    -0.204 OA
ATOM      2  C2  BZF d   1       0.394   0.963  -1.266  0.00  0.00     0.174 A 
ATOM      3  C3  BZF d   1       1.178   0.518  -0.263  0.00  0.00    -0.012 A 
ATOM      4  C3A BZF d   1       0.450  -0.558   0.336  0.00  0.00    -0.107 A 
ATOM      5  C4  BZF d   1       0.713  -1.410   1.370  0.00  0.00     0.055 A 
ATOM      6  C5  BZF d   1      -0.239  -2.302   1.751  0.00  0.00    -0.016 A 
ATOM      7  C6  BZF d   1      -1.466  -2.366   1.124  0.00  0.00     0.022 A 
ATOM      8  C7  BZF d   1      -1.772  -1.545   0.090  0.00  0.00     0.029 A 
ATOM      9  C7A BZF d   1      -0.799  -0.665  -0.319  0.00  0.00     0.058 A 
ENDROOT
TORSDOF 0
ENDMDL
