MODEL 1
REMARK minimizedAffinity -5.23039055
REMARK minimizedRMSD -1
REMARK  2 active torsions:
REMARK  status: ('A' for Active; 'I' for Inactive)
REMARK    1  A    between atoms: C1_2  and  C2_3 
REMARK    2  A    between atoms: C2_3  and  C3_4 
ROOT
ATOM      1  C3  UNL d   1       0.062  -0.590  -3.170  0.00  0.00    -0.075 A 
ATOM      2  C4  UNL d   1       1.199   0.097  -3.621  0.00  0.00     0.002 A 
ATOM      3  C5  UNL d   1       1.358   0.391  -4.975  0.00  0.00     0.002 A 
ATOM      4  C6  UNL d   1       0.391  -0.006  -5.896  0.00  0.00    -0.004 A 
ATOM      5  C7  UNL d   1      -0.734  -0.704  -5.461  0.00  0.00     0.002 A 
ATOM      6  C8  UNL d   1      -0.898  -0.995  -4.106  0.00  0.00     0.002 A 
ENDROOT
BRANCH   1   7
ATOM      7  C2  UNL d   1      -0.131  -0.884  -1.702  0.00  0.00     0.056 C 
BRANCH   7   8
ATOM      8  C1  UNL d   1      -0.404   0.358  -0.847  0.00  0.00     0.007 C 
ATOM      9  C   UNL d   1      -0.975   0.028   0.526  0.00  0.00     0.009 C 
ENDBRANCH   7   8
ENDBRANCH   1   7
TORSDOF 2
ENDMDL
