MODEL 1
REMARK minimizedAffinity -2.04324603
REMARK minimizedRMSD -1
REMARK  2 active torsions:
REMARK  status: ('A' for Active; 'I' for Inactive)
REMARK    1  A    between atoms: C1_2  and  C2_3 
REMARK    2  A    between atoms: C2_3  and  C3_4 
ROOT
ATOM      1  C3  UNL d   1      -0.355   0.218   1.852  0.00  0.00    -0.075 A 
ATOM      2  C4  UNL d   1       0.849  -0.045   1.184  0.00  0.00     0.002 A 
ATOM      3  C5  UNL d   1       2.004  -0.357   1.901  0.00  0.00     0.002 A 
ATOM      4  C6  UNL d   1       1.973  -0.400   3.294  0.00  0.00    -0.004 A 
ATOM      5  C7  UNL d   1       0.785  -0.124   3.969  0.00  0.00     0.002 A 
ATOM      6  C8  UNL d   1      -0.373   0.184   3.253  0.00  0.00     0.002 A 
ENDROOT
BRANCH   1   7
ATOM      7  C2  UNL d   1      -1.616   0.527   1.080  0.00  0.00     0.056 C 
BRANCH   7   8
ATOM      8  C1  UNL d   1      -1.514   0.240  -0.422  0.00  0.00     0.007 C 
ATOM      9  C   UNL d   1      -2.169  -1.073  -0.827  0.00  0.00     0.009 C 
ENDBRANCH   7   8
ENDBRANCH   1   7
TORSDOF 2
ENDMDL
