MODEL 1
REMARK minimizedAffinity -1.74710071
REMARK minimizedRMSD -1
REMARK  2 active torsions:
REMARK  status: ('A' for Active; 'I' for Inactive)
REMARK    1  A    between atoms: C1_2  and  C2_3 
REMARK    2  A    between atoms: C2_3  and  C3_4 
ROOT
ATOM      1  C3  UNL d   1       0.173  -0.512  -0.318  0.00  0.00    -0.075 A 
ATOM      2  C4  UNL d   1      -1.223  -0.541  -0.447  0.00  0.00     0.002 A 
ATOM      3  C5  UNL d   1      -2.038  -0.045   0.571  0.00  0.00     0.002 A 
ATOM      4  C6  UNL d   1      -1.470   0.475   1.732  0.00  0.00    -0.004 A 
ATOM      5  C7  UNL d   1      -0.084   0.493   1.877  0.00  0.00     0.002 A 
ATOM      6  C8  UNL d   1       0.734   0.002   0.859  0.00  0.00     0.002 A 
ENDROOT
BRANCH   1   7
ATOM      7  C2  UNL d   1       1.062  -1.020  -1.429  0.00  0.00     0.056 C 
BRANCH   7   8
ATOM      8  C1  UNL d   1       0.423  -0.952  -2.820  0.00  0.00     0.007 C 
ATOM      9  C   UNL d   1       1.036   0.120  -3.710  0.00  0.00     0.009 C 
ENDBRANCH   7   8
ENDBRANCH   1   7
TORSDOF 2
ENDMDL
