MODEL 1
REMARK minimizedAffinity -3.65581012
REMARK minimizedRMSD -1
REMARK  2 active torsions:
REMARK  status: ('A' for Active; 'I' for Inactive)
REMARK    1  A    between atoms: C1_2  and  C2_3 
REMARK    2  A    between atoms: C2_3  and  C3_4 
ROOT
ATOM      1  C3  UNL d   1      -0.658  -0.144  -0.933  0.00  0.00    -0.075 A 
ATOM      2  C4  UNL d   1      -1.882   0.538  -0.871  0.00  0.00     0.002 A 
ATOM      3  C5  UNL d   1      -2.433   0.894   0.361  0.00  0.00     0.002 A 
ATOM      4  C6  UNL d   1      -1.773   0.565   1.543  0.00  0.00    -0.004 A 
ATOM      5  C7  UNL d   1      -0.565  -0.127   1.494  0.00  0.00     0.002 A 
ATOM      6  C8  UNL d   1      -0.010  -0.480   0.263  0.00  0.00     0.002 A 
ENDROOT
BRANCH   1   7
ATOM      7  C2  UNL d   1      -0.042  -0.506  -2.263  0.00  0.00     0.056 C 
BRANCH   7   8
ATOM      8  C1  UNL d   1       0.756   0.631  -2.911  0.00  0.00     0.007 C 
ATOM      9  C   UNL d   1       0.320   0.932  -4.339  0.00  0.00     0.009 C 
ENDBRANCH   7   8
ENDBRANCH   1   7
TORSDOF 2
ENDMDL
