MODEL 1
REMARK minimizedAffinity 7.69834852
REMARK minimizedRMSD -1
REMARK  1 active torsions:
REMARK  status: ('A' for Active; 'I' for Inactive)
REMARK    1  A    between atoms: C3_4  and  O_7 
ROOT
ATOM      1  C   UNL d   1       4.693   1.578  -0.635  0.00  0.00    -0.033 A 
ATOM      2  C1  UNL d   1       3.575   1.420   0.186  0.00  0.00     0.039 A 
ATOM      3  C2  UNL d   1       2.764   0.291   0.053  0.00  0.00    -0.080 A 
ATOM      4  C3  UNL d   1       3.082  -0.671  -0.902  0.00  0.00     0.150 A 
ATOM      5  C4  UNL d   1       4.197  -0.521  -1.719  0.00  0.00    -0.007 A 
ATOM      6  C5  UNL d   1       5.006   0.607  -1.586  0.00  0.00     0.039 A 
ENDROOT
BRANCH   4   7
ATOM      7  O   UNL d   1       2.318  -1.787  -1.071  0.00  0.00    -0.526 OA
ATOM      8  H5  UNL d   1       1.566  -1.741  -0.457  0.00  0.00     0.418 HD
ENDBRANCH   4   7
TORSDOF 1
ENDMDL
