MODEL 1
REMARK minimizedAffinity 2.38294935
REMARK minimizedRMSD -1
REMARK  1 active torsions:
REMARK  status: ('A' for Active; 'I' for Inactive)
REMARK    1  A    between atoms: C3_4  and  O_7 
ROOT
ATOM      1  C   UNL d   1       4.082  -0.309  -0.644  0.00  0.00    -0.033 A 
ATOM      2  C1  UNL d   1       4.567   0.216   0.555  0.00  0.00     0.039 A 
ATOM      3  C2  UNL d   1       5.215   1.453   0.567  0.00  0.00    -0.080 A 
ATOM      4  C3  UNL d   1       5.370   2.154  -0.626  0.00  0.00     0.150 A 
ATOM      5  C4  UNL d   1       4.886   1.638  -1.824  0.00  0.00    -0.007 A 
ATOM      6  C5  UNL d   1       4.241   0.403  -1.833  0.00  0.00     0.039 A 
ENDROOT
BRANCH   4   7
ATOM      7  O   UNL d   1       6.000   3.362  -0.665  0.00  0.00    -0.526 OA
ATOM      8  H5  UNL d   1       6.306   3.579   0.231  0.00  0.00     0.418 HD
ENDBRANCH   4   7
TORSDOF 1
ENDMDL
