MODEL 1
REMARK minimizedAffinity 3.07273889
REMARK minimizedRMSD -1
REMARK  1 active torsions:
REMARK  status: ('A' for Active; 'I' for Inactive)
REMARK    1  A    between atoms: C3_4  and  O_7 
ROOT
ATOM      1  C   UNL d   1       2.242  -3.064  -0.272  0.00  0.00    -0.033 A 
ATOM      2  C1  UNL d   1       3.181  -2.381   0.504  0.00  0.00     0.039 A 
ATOM      3  C2  UNL d   1       3.706  -1.166   0.059  0.00  0.00    -0.080 A 
ATOM      4  C3  UNL d   1       3.284  -0.645  -1.160  0.00  0.00     0.150 A 
ATOM      5  C4  UNL d   1       2.346  -1.317  -1.937  0.00  0.00    -0.007 A 
ATOM      6  C5  UNL d   1       1.824  -2.531  -1.491  0.00  0.00     0.039 A 
ENDROOT
BRANCH   4   7
ATOM      7  O   UNL d   1       3.771   0.535  -1.638  0.00  0.00    -0.526 OA
ATOM      8  H5  UNL d   1       4.432   0.872  -1.010  0.00  0.00     0.418 HD
ENDBRANCH   4   7
TORSDOF 1
ENDMDL
