MODEL 1
REMARK minimizedAffinity 9.44291592
REMARK minimizedRMSD -1
REMARK  1 active torsions:
REMARK  status: ('A' for Active; 'I' for Inactive)
REMARK    1  A    between atoms: C3_4  and  O_7 
ROOT
ATOM      1  C   UNL d   1       5.018   0.720   0.374  0.00  0.00    -0.033 A 
ATOM      2  C1  UNL d   1       4.864   1.166  -0.941  0.00  0.00     0.039 A 
ATOM      3  C2  UNL d   1       3.758   0.763  -1.692  0.00  0.00    -0.080 A 
ATOM      4  C3  UNL d   1       2.815  -0.084  -1.118  0.00  0.00     0.150 A 
ATOM      5  C4  UNL d   1       2.959  -0.529   0.192  0.00  0.00    -0.007 A 
ATOM      6  C5  UNL d   1       4.065  -0.126   0.940  0.00  0.00     0.039 A 
ENDROOT
BRANCH   4   7
ATOM      7  O   UNL d   1       1.721  -0.509  -1.813  0.00  0.00    -0.526 OA
ATOM      8  H5  UNL d   1       1.769  -0.144  -2.713  0.00  0.00     0.418 HD
ENDBRANCH   4   7
TORSDOF 1
ENDMDL
