MODEL 1
REMARK minimizedAffinity -2.11319065
REMARK minimizedRMSD -1
REMARK  0 active torsions:
REMARK  status: ('A' for Active; 'I' for Inactive)
ROOT
ATOM      1  C   UNL d   1       2.781  -0.868   0.106  0.00  0.00     0.077 C 
ATOM      2  C1  UNL d   1       1.324  -0.695  -0.202  0.00  0.00    -0.074 A 
ATOM      3  C2  UNL d   1       0.798  -1.095  -1.435  0.00  0.00    -0.005 A 
ATOM      4  C3  UNL d   1      -0.562  -0.936  -1.704  0.00  0.00     0.006 A 
ATOM      5  C4  UNL d   1      -1.407  -0.377  -0.745  0.00  0.00    -0.005 A 
ATOM      6  C5  UNL d   1      -0.899   0.027   0.493  0.00  0.00    -0.074 A 
ATOM      7  C6  UNL d   1      -1.796   0.621   1.539  0.00  0.00     0.077 C 
ATOM      8  C7  UNL d   1       0.466  -0.142   0.759  0.00  0.00    -0.001 A 
ENDROOT
TORSDOF 0
ENDMDL
