MODEL 1
REMARK minimizedAffinity -2.32426357
REMARK minimizedRMSD -1
REMARK  0 active torsions:
REMARK  status: ('A' for Active; 'I' for Inactive)
ROOT
ATOM      1  C   UNL d   1       2.797   1.868  -0.024  0.00  0.00     0.077 C 
ATOM      2  C1  UNL d   1       1.843   0.715  -0.135  0.00  0.00    -0.074 A 
ATOM      3  C2  UNL d   1       2.312  -0.598  -0.243  0.00  0.00    -0.005 A 
ATOM      4  C3  UNL d   1       1.413  -1.660  -0.335  0.00  0.00     0.006 A 
ATOM      5  C4  UNL d   1       0.038  -1.421  -0.320  0.00  0.00    -0.005 A 
ATOM      6  C5  UNL d   1      -0.449  -0.114  -0.211  0.00  0.00    -0.074 A 
ATOM      7  C6  UNL d   1      -1.923   0.160  -0.184  0.00  0.00     0.077 C 
ATOM      8  C7  UNL d   1       0.461   0.947  -0.112  0.00  0.00    -0.001 A 
ENDROOT
TORSDOF 0
ENDMDL
