MODEL 1
REMARK minimizedAffinity -0.613551259
REMARK minimizedRMSD -1
REMARK  0 active torsions:
REMARK  status: ('A' for Active; 'I' for Inactive)
ROOT
ATOM      1  C   UNL d   1      -0.438  -1.740  -2.546  0.00  0.00     0.077 C 
ATOM      2  C1  UNL d   1      -0.298  -0.682  -1.492  0.00  0.00    -0.074 A 
ATOM      3  C2  UNL d   1      -1.425  -0.091  -0.911  0.00  0.00    -0.005 A 
ATOM      4  C3  UNL d   1      -1.279   0.885   0.074  0.00  0.00     0.006 A 
ATOM      5  C4  UNL d   1      -0.006   1.279   0.489  0.00  0.00    -0.005 A 
ATOM      6  C5  UNL d   1       1.132   0.700  -0.079  0.00  0.00    -0.074 A 
ATOM      7  C6  UNL d   1       2.507   1.106   0.362  0.00  0.00     0.077 C 
ATOM      8  C7  UNL d   1       0.977  -0.285  -1.064  0.00  0.00    -0.001 A 
ENDROOT
TORSDOF 0
ENDMDL
