MODEL 1
REMARK minimizedAffinity -5.43973541
REMARK minimizedRMSD -1
REMARK  0 active torsions:
REMARK  status: ('A' for Active; 'I' for Inactive)
ROOT
ATOM      1  C   UNL d   1      -0.054   1.878  -0.655  0.00  0.00     0.077 C 
ATOM      2  C1  UNL d   1       0.732   0.613  -0.477  0.00  0.00    -0.074 A 
ATOM      3  C2  UNL d   1       2.085   0.651  -0.124  0.00  0.00    -0.005 A 
ATOM      4  C3  UNL d   1       2.800  -0.534   0.048  0.00  0.00     0.006 A 
ATOM      5  C4  UNL d   1       2.172  -1.766  -0.132  0.00  0.00    -0.005 A 
ATOM      6  C5  UNL d   1       0.820  -1.824  -0.484  0.00  0.00    -0.074 A 
ATOM      7  C6  UNL d   1       0.127  -3.141  -0.671  0.00  0.00     0.077 C 
ATOM      8  C7  UNL d   1       0.106  -0.630  -0.647  0.00  0.00    -0.001 A 
ENDROOT
TORSDOF 0
ENDMDL
