MODEL 1
REMARK minimizedAffinity -2.33361053
REMARK minimizedRMSD -1
REMARK  0 active torsions:
REMARK  status: ('A' for Active; 'I' for Inactive)
ROOT
ATOM      1  C   UNL d   1       1.302  -1.279   2.900  0.00  0.00     0.077 C 
ATOM      2  C1  UNL d   1       0.733  -1.017   1.538  0.00  0.00    -0.074 A 
ATOM      3  C2  UNL d   1       1.217  -1.695   0.414  0.00  0.00    -0.005 A 
ATOM      4  C3  UNL d   1       0.672  -1.447  -0.846  0.00  0.00     0.006 A 
ATOM      5  C4  UNL d   1      -0.362  -0.521  -0.994  0.00  0.00    -0.005 A 
ATOM      6  C5  UNL d   1      -0.859   0.166   0.118  0.00  0.00    -0.074 A 
ATOM      7  C6  UNL d   1      -1.975   1.157  -0.023  0.00  0.00     0.077 C 
ATOM      8  C7  UNL d   1      -0.310  -0.094   1.381  0.00  0.00    -0.001 A 
ENDROOT
TORSDOF 0
ENDMDL
