MODEL 1
REMARK minimizedAffinity -2.10503769
REMARK minimizedRMSD -1
REMARK  0 active torsions:
REMARK  status: ('A' for Active; 'I' for Inactive)
ROOT
ATOM      1  C   UNL d   1      -2.418   1.007  -0.325  0.00  0.00     0.077 C 
ATOM      2  C1  UNL d   1      -0.933   0.839  -0.198  0.00  0.00    -0.074 A 
ATOM      3  C2  UNL d   1      -0.075   1.940  -0.280  0.00  0.00    -0.005 A 
ATOM      4  C3  UNL d   1       1.303   1.770  -0.150  0.00  0.00     0.006 A 
ATOM      5  C4  UNL d   1       1.837   0.498   0.063  0.00  0.00    -0.005 A 
ATOM      6  C5  UNL d   1       0.995  -0.615   0.149  0.00  0.00    -0.074 A 
ATOM      7  C6  UNL d   1       1.551  -1.987   0.387  0.00  0.00     0.077 C 
ATOM      8  C7  UNL d   1      -0.389  -0.434   0.024  0.00  0.00    -0.001 A 
ENDROOT
TORSDOF 0
ENDMDL
