MODEL 1
REMARK minimizedAffinity -0.20878613
REMARK minimizedRMSD -1
REMARK  0 active torsions:
REMARK  status: ('A' for Active; 'I' for Inactive)
ROOT
ATOM      1  C   UNL d   1       2.498  -1.921  -1.143  0.00  0.00     0.077 C 
ATOM      2  C1  UNL d   1       1.386  -0.942  -0.908  0.00  0.00    -0.074 A 
ATOM      3  C2  UNL d   1       0.050  -1.355  -0.925  0.00  0.00    -0.005 A 
ATOM      4  C3  UNL d   1      -0.973  -0.435  -0.695  0.00  0.00     0.006 A 
ATOM      5  C4  UNL d   1      -0.671   0.904  -0.445  0.00  0.00    -0.005 A 
ATOM      6  C5  UNL d   1       0.659   1.335  -0.423  0.00  0.00    -0.074 A 
ATOM      7  C6  UNL d   1       1.002   2.768  -0.146  0.00  0.00     0.077 C 
ATOM      8  C7  UNL d   1       1.682   0.403  -0.648  0.00  0.00    -0.001 A 
ENDROOT
TORSDOF 0
ENDMDL
