MODEL 1
REMARK minimizedAffinity 3.98873615
REMARK minimizedRMSD -1
REMARK  1 active torsions:
REMARK  status: ('A' for Active; 'I' for Inactive)
REMARK    1  A    between atoms: C1_2  and  C2_3 
ROOT
ATOM      1  C2  UNL d   1      -3.217  -0.424   2.023  0.00  0.00    -0.081 A 
ATOM      2  C3  UNL d   1      -1.988  -0.720   1.423  0.00  0.00     0.006 A 
ATOM      3  C4  UNL d   1      -0.851   0.032   1.728  0.00  0.00     0.002 A 
ATOM      4  C5  UNL d   1      -0.923   1.087   2.644  0.00  0.00    -0.080 A 
ATOM      5  C6  UNL d   1       0.297   1.883   3.003  0.00  0.00     0.076 C 
ATOM      6  C7  UNL d   1      -2.155   1.394   3.231  0.00  0.00     0.002 A 
ATOM      7  C8  UNL d   1      -3.292   0.643   2.925  0.00  0.00     0.006 A 
ENDROOT
BRANCH   1   8
ATOM      8  C1  UNL d   1      -4.431  -1.274   1.745  0.00  0.00     0.054 C 
ATOM      9  C   UNL d   1      -4.186  -2.728   2.122  0.00  0.00     0.018 C 
ENDBRANCH   1   8
TORSDOF 1
ENDMDL
