MODEL 1
REMARK minimizedAffinity 9.10722446
REMARK minimizedRMSD -1
REMARK  1 active torsions:
REMARK  status: ('A' for Active; 'I' for Inactive)
REMARK    1  A    between atoms: C1_2  and  C2_3 
ROOT
ATOM      1  C2  UNL d   1       1.460  -2.694  -1.958  0.00  0.00    -0.081 A 
ATOM      2  C3  UNL d   1       2.137  -2.741  -0.733  0.00  0.00     0.006 A 
ATOM      3  C4  UNL d   1       2.664  -1.576  -0.170  0.00  0.00     0.002 A 
ATOM      4  C5  UNL d   1       2.514  -0.344  -0.817  0.00  0.00    -0.080 A 
ATOM      5  C6  UNL d   1       3.048   0.918  -0.209  0.00  0.00     0.076 C 
ATOM      6  C7  UNL d   1       1.853  -0.300  -2.049  0.00  0.00     0.002 A 
ATOM      7  C8  UNL d   1       1.327  -1.465  -2.613  0.00  0.00     0.006 A 
ENDROOT
BRANCH   1   8
ATOM      8  C1  UNL d   1       0.835  -3.938  -2.536  0.00  0.00     0.054 C 
ATOM      9  C   UNL d   1      -0.289  -3.594  -3.504  0.00  0.00     0.018 C 
ENDBRANCH   1   8
TORSDOF 1
ENDMDL
