MODEL 1
REMARK minimizedAffinity 15.112669
REMARK minimizedRMSD -1
REMARK  1 active torsions:
REMARK  status: ('A' for Active; 'I' for Inactive)
REMARK    1  A    between atoms: C1_2  and  C2_3 
ROOT
ATOM      1  C2  UNL d   1      -3.874   2.433   4.370  0.00  0.00    -0.081 A 
ATOM      2  C3  UNL d   1      -2.885   2.391   5.360  0.00  0.00     0.006 A 
ATOM      3  C4  UNL d   1      -1.597   1.944   5.056  0.00  0.00     0.002 A 
ATOM      4  C5  UNL d   1      -1.275   1.539   3.756  0.00  0.00    -0.080 A 
ATOM      5  C6  UNL d   1       0.112   1.086   3.409  0.00  0.00     0.076 C 
ATOM      6  C7  UNL d   1      -2.268   1.565   2.771  0.00  0.00     0.002 A 
ATOM      7  C8  UNL d   1      -3.556   2.011   3.075  0.00  0.00     0.006 A 
ENDROOT
BRANCH   1   8
ATOM      8  C1  UNL d   1      -5.246   2.975   4.680  0.00  0.00     0.054 C 
ATOM      9  C   UNL d   1      -5.999   3.337   3.407  0.00  0.00     0.018 C 
ENDBRANCH   1   8
TORSDOF 1
ENDMDL
