MODEL 1
REMARK minimizedAffinity 7.55380487
REMARK minimizedRMSD -1
REMARK  1 active torsions:
REMARK  status: ('A' for Active; 'I' for Inactive)
REMARK    1  A    between atoms: C1_2  and  C2_3 
ROOT
ATOM      1  C2  UNL d   1       1.190  -4.131  -2.497  0.00  0.00    -0.081 A 
ATOM      2  C3  UNL d   1       2.091  -5.017  -1.894  0.00  0.00     0.006 A 
ATOM      3  C4  UNL d   1       3.031  -4.552  -0.970  0.00  0.00     0.002 A 
ATOM      4  C5  UNL d   1       3.080  -3.196  -0.629  0.00  0.00    -0.080 A 
ATOM      5  C6  UNL d   1       4.063  -2.689   0.383  0.00  0.00     0.076 C 
ATOM      6  C7  UNL d   1       2.191  -2.308  -1.245  0.00  0.00     0.002 A 
ATOM      7  C8  UNL d   1       1.252  -2.773  -2.168  0.00  0.00     0.006 A 
ENDROOT
BRANCH   1   8
ATOM      8  C1  UNL d   1       0.133  -4.640  -3.444  0.00  0.00     0.054 C 
ATOM      9  C   UNL d   1      -1.179  -4.902  -2.720  0.00  0.00     0.018 C 
ENDBRANCH   1   8
TORSDOF 1
ENDMDL
