MODEL 1
REMARK minimizedAffinity 11.9643002
REMARK minimizedRMSD -1
REMARK  1 active torsions:
REMARK  status: ('A' for Active; 'I' for Inactive)
REMARK    1  A    between atoms: C1_2  and  C2_3 
ROOT
ATOM      1  C2  UNL d   1       2.037  -1.846  -0.914  0.00  0.00    -0.081 A 
ATOM      2  C3  UNL d   1       2.828  -2.703  -0.138  0.00  0.00     0.006 A 
ATOM      3  C4  UNL d   1       2.968  -4.048  -0.489  0.00  0.00     0.002 A 
ATOM      4  C5  UNL d   1       2.326  -4.556  -1.623  0.00  0.00    -0.080 A 
ATOM      5  C6  UNL d   1       2.492  -5.991  -2.027  0.00  0.00     0.076 C 
ATOM      6  C7  UNL d   1       1.522  -3.704  -2.388  0.00  0.00     0.002 A 
ATOM      7  C8  UNL d   1       1.382  -2.360  -2.038  0.00  0.00     0.006 A 
ENDROOT
BRANCH   1   8
ATOM      8  C1  UNL d   1       1.937  -0.381  -0.575  0.00  0.00     0.054 C 
ATOM      9  C   UNL d   1       1.939   0.479  -1.832  0.00  0.00     0.018 C 
ENDBRANCH   1   8
TORSDOF 1
ENDMDL
