MODEL 1
REMARK minimizedAffinity 9.33317661
REMARK minimizedRMSD -1
REMARK  1 active torsions:
REMARK  status: ('A' for Active; 'I' for Inactive)
REMARK    1  A    between atoms: C1_2  and  C2_3 
ROOT
ATOM      1  C2  UNL d   1       1.684   1.478   1.631  0.00  0.00    -0.081 A 
ATOM      2  C3  UNL d   1       1.953   0.841   0.413  0.00  0.00     0.006 A 
ATOM      3  C4  UNL d   1       3.134   1.111  -0.282  0.00  0.00     0.002 A 
ATOM      4  C5  UNL d   1       4.069   2.016   0.232  0.00  0.00    -0.080 A 
ATOM      5  C6  UNL d   1       5.354   2.292  -0.489  0.00  0.00     0.076 C 
ATOM      6  C7  UNL d   1       3.793   2.665   1.440  0.00  0.00     0.002 A 
ATOM      7  C8  UNL d   1       2.612   2.396   2.135  0.00  0.00     0.006 A 
ENDROOT
BRANCH   1   8
ATOM      8  C1  UNL d   1       0.442   1.140   2.415  0.00  0.00     0.054 C 
ATOM      9  C   UNL d   1       0.432   1.841   3.766  0.00  0.00     0.018 C 
ENDBRANCH   1   8
TORSDOF 1
ENDMDL
