MODEL 1
REMARK minimizedAffinity 17.8032742
REMARK minimizedRMSD -1
REMARK  1 active torsions:
REMARK  status: ('A' for Active; 'I' for Inactive)
REMARK    1  A    between atoms: C1_2  and  C2_3 
ROOT
ATOM      1  C2  UNL d   1      -1.759   1.341   4.570  0.00  0.00    -0.081 A 
ATOM      2  C3  UNL d   1      -2.302   1.078   3.306  0.00  0.00     0.006 A 
ATOM      3  C4  UNL d   1      -3.668   1.255   3.071  0.00  0.00     0.002 A 
ATOM      4  C5  UNL d   1      -4.511   1.704   4.093  0.00  0.00    -0.080 A 
ATOM      5  C6  UNL d   1      -5.974   1.927   3.846  0.00  0.00     0.076 C 
ATOM      6  C7  UNL d   1      -3.972   1.950   5.360  0.00  0.00     0.002 A 
ATOM      7  C8  UNL d   1      -2.607   1.773   5.596  0.00  0.00     0.006 A 
ENDROOT
BRANCH   1   8
ATOM      8  C1  UNL d   1      -0.276   1.214   4.808  0.00  0.00     0.054 C 
ATOM      9  C   UNL d   1       0.167   2.053   5.998  0.00  0.00     0.018 C 
ENDBRANCH   1   8
TORSDOF 1
ENDMDL
