MODEL 1
REMARK minimizedAffinity 20.421442
REMARK minimizedRMSD -1
REMARK  1 active torsions:
REMARK  status: ('A' for Active; 'I' for Inactive)
REMARK    1  A    between atoms: C1_2  and  C2_3 
ROOT
ATOM      1  C2  UNL d   1      -2.227   1.206   2.898  0.00  0.00    -0.081 A 
ATOM      2  C3  UNL d   1      -1.677   2.443   2.538  0.00  0.00     0.006 A 
ATOM      3  C4  UNL d   1      -0.295   2.590   2.397  0.00  0.00     0.002 A 
ATOM      4  C5  UNL d   1       0.559   1.502   2.605  0.00  0.00    -0.080 A 
ATOM      5  C6  UNL d   1       2.042   1.638   2.427  0.00  0.00     0.076 C 
ATOM      6  C7  UNL d   1       0.012   0.270   2.982  0.00  0.00     0.002 A 
ATOM      7  C8  UNL d   1      -1.370   0.123   3.123  0.00  0.00     0.006 A 
ENDROOT
BRANCH   1   8
ATOM      8  C1  UNL d   1      -3.721   1.028   2.988  0.00  0.00     0.054 C 
ATOM      9  C   UNL d   1      -4.320   1.919   4.066  0.00  0.00     0.018 C 
ENDBRANCH   1   8
TORSDOF 1
ENDMDL
