MODEL 1
REMARK minimizedAffinity 17.0623188
REMARK minimizedRMSD -1
REMARK  1 active torsions:
REMARK  status: ('A' for Active; 'I' for Inactive)
REMARK    1  A    between atoms: C1_2  and  C2_3 
ROOT
ATOM      1  C2  UNL d   1       2.806  -2.098  -0.364  0.00  0.00    -0.081 A 
ATOM      2  C3  UNL d   1       1.943  -3.165  -0.082  0.00  0.00     0.006 A 
ATOM      3  C4  UNL d   1       2.454  -4.432   0.208  0.00  0.00     0.002 A 
ATOM      4  C5  UNL d   1       3.836  -4.652   0.230  0.00  0.00    -0.080 A 
ATOM      5  C6  UNL d   1       4.399  -6.000   0.570  0.00  0.00     0.076 C 
ATOM      6  C7  UNL d   1       4.697  -3.591  -0.069  0.00  0.00     0.002 A 
ATOM      7  C8  UNL d   1       4.186  -2.324  -0.360  0.00  0.00     0.006 A 
ENDROOT
BRANCH   1   8
ATOM      8  C1  UNL d   1       2.259  -0.716  -0.615  0.00  0.00     0.054 C 
ATOM      9  C   UNL d   1       1.572  -0.630  -1.970  0.00  0.00     0.018 C 
ENDBRANCH   1   8
TORSDOF 1
ENDMDL
