MODEL 1
REMARK minimizedAffinity 11.5291033
REMARK minimizedRMSD -1
REMARK  1 active torsions:
REMARK  status: ('A' for Active; 'I' for Inactive)
REMARK    1  A    between atoms: C1_2  and  C2_3 
ROOT
ATOM      1  C2  UNL d   1       1.268  -2.882  -1.745  0.00  0.00    -0.081 A 
ATOM      2  C3  UNL d   1       1.911  -3.237  -0.553  0.00  0.00     0.006 A 
ATOM      3  C4  UNL d   1       2.329  -2.253   0.347  0.00  0.00     0.002 A 
ATOM      4  C5  UNL d   1       2.103  -0.900   0.074  0.00  0.00    -0.080 A 
ATOM      5  C6  UNL d   1       2.519   0.164   1.045  0.00  0.00     0.076 C 
ATOM      6  C7  UNL d   1       1.476  -0.544  -1.125  0.00  0.00     0.002 A 
ATOM      7  C8  UNL d   1       1.059  -1.527  -2.025  0.00  0.00     0.006 A 
ENDROOT
BRANCH   1   8
ATOM      8  C1  UNL d   1       0.759  -3.943  -2.687  0.00  0.00     0.054 C 
ATOM      9  C   UNL d   1      -0.660  -4.363  -2.332  0.00  0.00     0.018 C 
ENDBRANCH   1   8
TORSDOF 1
ENDMDL
