MODEL 1
REMARK minimizedAffinity 16.108778
REMARK minimizedRMSD -1
REMARK  1 active torsions:
REMARK  status: ('A' for Active; 'I' for Inactive)
REMARK    1  A    between atoms: C1_2  and  C2_3 
ROOT
ATOM      1  C2  UNL d   1       2.476  -4.428  -1.372  0.00  0.00    -0.081 A 
ATOM      2  C3  UNL d   1       1.963  -5.542  -2.047  0.00  0.00     0.006 A 
ATOM      3  C4  UNL d   1       1.100  -5.376  -3.133  0.00  0.00     0.002 A 
ATOM      4  C5  UNL d   1       0.742  -4.095  -3.566  0.00  0.00    -0.080 A 
ATOM      5  C6  UNL d   1      -0.159  -3.903  -4.749  0.00  0.00     0.076 C 
ATOM      6  C7  UNL d   1       1.241  -2.982  -2.880  0.00  0.00     0.002 A 
ATOM      7  C8  UNL d   1       2.103  -3.147  -1.794  0.00  0.00     0.006 A 
ENDROOT
BRANCH   1   8
ATOM      8  C1  UNL d   1       3.458  -4.602  -0.241  0.00  0.00     0.054 C 
ATOM      9  C   UNL d   1       4.196  -3.304   0.056  0.00  0.00     0.018 C 
ENDBRANCH   1   8
TORSDOF 1
ENDMDL
