MODEL 1
REMARK minimizedAffinity 11.5022793
REMARK minimizedRMSD -1
REMARK  1 active torsions:
REMARK  status: ('A' for Active; 'I' for Inactive)
REMARK    1  A    between atoms: C1_2  and  C2_3 
ROOT
ATOM      1  C2  UNL d   1      -3.287  -0.108   5.107  0.00  0.00    -0.081 A 
ATOM      2  C3  UNL d   1      -3.587   0.928   5.999  0.00  0.00     0.006 A 
ATOM      3  C4  UNL d   1      -4.220   2.089   5.549  0.00  0.00     0.002 A 
ATOM      4  C5  UNL d   1      -4.571   2.229   4.202  0.00  0.00    -0.080 A 
ATOM      5  C6  UNL d   1      -5.279   3.457   3.711  0.00  0.00     0.076 C 
ATOM      6  C7  UNL d   1      -4.256   1.201   3.307  0.00  0.00     0.002 A 
ATOM      7  C8  UNL d   1      -3.622   0.041   3.756  0.00  0.00     0.006 A 
ENDROOT
BRANCH   1   8
ATOM      8  C1  UNL d   1      -2.662  -1.388   5.601  0.00  0.00     0.054 C 
ATOM      9  C   UNL d   1      -3.299  -2.604   4.944  0.00  0.00     0.018 C 
ENDBRANCH   1   8
TORSDOF 1
ENDMDL
