MODEL 1
REMARK minimizedAffinity 15.2700272
REMARK minimizedRMSD -1
REMARK  1 active torsions:
REMARK  status: ('A' for Active; 'I' for Inactive)
REMARK    1  A    between atoms: C1_2  and  C2_3 
ROOT
ATOM      1  C2  UNL d   1      -3.213  -3.954  -5.108  0.00  0.00    -0.081 A 
ATOM      2  C3  UNL d   1      -1.937  -4.149  -5.650  0.00  0.00     0.006 A 
ATOM      3  C4  UNL d   1      -0.868  -4.521  -4.831  0.00  0.00     0.002 A 
ATOM      4  C5  UNL d   1      -1.060  -4.711  -3.458  0.00  0.00    -0.080 A 
ATOM      5  C6  UNL d   1       0.072  -5.140  -2.573  0.00  0.00     0.076 C 
ATOM      6  C7  UNL d   1      -2.331  -4.500  -2.914  0.00  0.00     0.002 A 
ATOM      7  C8  UNL d   1      -3.399  -4.127  -3.732  0.00  0.00     0.006 A 
ENDROOT
BRANCH   1   8
ATOM      8  C1  UNL d   1      -4.381  -3.616  -5.999  0.00  0.00     0.054 C 
ATOM      9  C   UNL d   1      -5.289  -2.580  -5.352  0.00  0.00     0.018 C 
ENDBRANCH   1   8
TORSDOF 1
ENDMDL
