MODEL 1
REMARK minimizedAffinity 4.07550859
REMARK minimizedRMSD -1
REMARK  1 active torsions:
REMARK  status: ('A' for Active; 'I' for Inactive)
REMARK    1  A    between atoms: C1_2  and  C2_3 
ROOT
ATOM      1  C2  UNL d   1       2.231  -2.165  -2.108  0.00  0.00    -0.081 A 
ATOM      2  C3  UNL d   1       1.482  -3.304  -2.426  0.00  0.00     0.006 A 
ATOM      3  C4  UNL d   1       1.825  -4.549  -1.893  0.00  0.00     0.002 A 
ATOM      4  C5  UNL d   1       2.918  -4.674  -1.028  0.00  0.00    -0.080 A 
ATOM      5  C6  UNL d   1       3.279  -5.999  -0.426  0.00  0.00     0.076 C 
ATOM      6  C7  UNL d   1       3.677  -3.539  -0.725  0.00  0.00     0.002 A 
ATOM      7  C8  UNL d   1       3.335  -2.294  -1.257  0.00  0.00     0.006 A 
ENDROOT
BRANCH   1   8
ATOM      8  C1  UNL d   1       1.825  -0.810  -2.629  0.00  0.00     0.054 C 
ATOM      9  C   UNL d   1       2.333   0.305  -1.727  0.00  0.00     0.018 C 
ENDBRANCH   1   8
TORSDOF 1
ENDMDL
