MODEL 1
REMARK minimizedAffinity 16.8200264
REMARK minimizedRMSD -1
REMARK  1 active torsions:
REMARK  status: ('A' for Active; 'I' for Inactive)
REMARK    1  A    between atoms: C1_2  and  C2_3 
ROOT
ATOM      1  C2  UNL d   1       2.487  -0.640  -0.452  0.00  0.00    -0.081 A 
ATOM      2  C3  UNL d   1       2.058  -0.421  -1.767  0.00  0.00     0.006 A 
ATOM      3  C4  UNL d   1       1.477  -1.455  -2.504  0.00  0.00     0.002 A 
ATOM      4  C5  UNL d   1       1.308  -2.723  -1.937  0.00  0.00    -0.080 A 
ATOM      5  C6  UNL d   1       0.658  -3.834  -2.707  0.00  0.00     0.076 C 
ATOM      6  C7  UNL d   1       1.752  -2.947  -0.629  0.00  0.00     0.002 A 
ATOM      7  C8  UNL d   1       2.333  -1.913   0.108  0.00  0.00     0.006 A 
ENDROOT
BRANCH   1   8
ATOM      8  C1  UNL d   1       3.054   0.491   0.368  0.00  0.00     0.054 C 
ATOM      9  C   UNL d   1       3.900   1.424  -0.487  0.00  0.00     0.018 C 
ENDBRANCH   1   8
TORSDOF 1
ENDMDL
