MODEL 1
REMARK minimizedAffinity 18.1954021
REMARK minimizedRMSD -1
REMARK  1 active torsions:
REMARK  status: ('A' for Active; 'I' for Inactive)
REMARK    1  A    between atoms: C1_2  and  C2_3 
ROOT
ATOM      1  C2  UNL d   1       2.661  -2.286  -0.413  0.00  0.00    -0.081 A 
ATOM      2  C3  UNL d   1       4.042  -2.280  -0.179  0.00  0.00     0.006 A 
ATOM      3  C4  UNL d   1       4.735  -3.479   0.002  0.00  0.00     0.002 A 
ATOM      4  C5  UNL d   1       4.061  -4.704  -0.056  0.00  0.00    -0.080 A 
ATOM      5  C6  UNL d   1       4.798  -6.000   0.107  0.00  0.00     0.076 C 
ATOM      6  C7  UNL d   1       2.679  -4.709  -0.272  0.00  0.00     0.002 A 
ATOM      7  C8  UNL d   1       1.985  -3.510  -0.453  0.00  0.00     0.006 A 
ENDROOT
BRANCH   1   8
ATOM      8  C1  UNL d   1       1.923  -0.998  -0.674  0.00  0.00     0.054 C 
ATOM      9  C   UNL d   1       1.743  -0.755  -2.165  0.00  0.00     0.018 C 
ENDBRANCH   1   8
TORSDOF 1
ENDMDL
