MODEL 1
REMARK minimizedAffinity 4.00517416
REMARK minimizedRMSD -1
REMARK  0 active torsions:
REMARK  status: ('A' for Active; 'I' for Inactive)
ROOT
ATOM      1  C1  BNZ d   1       3.373  -0.513  -0.187  0.00  0.00     0.000 A 
ATOM      2  C2  BNZ d   1       4.437   0.328  -0.374  0.00  0.00     0.000 A 
ATOM      3  C3  BNZ d   1       4.388   1.625   0.057  0.00  0.00     0.000 A 
ATOM      4  C4  BNZ d   1       3.262   2.089   0.637  0.00  0.00     0.000 A 
ATOM      5  C5  BNZ d   1       2.178   1.255   0.824  0.00  0.00     0.000 A 
ATOM      6  C6  BNZ d   1       2.245  -0.060   0.425  0.00  0.00     0.000 A 
ENDROOT
TORSDOF 0
ENDMDL
