MODEL 1
REMARK minimizedAffinity 9.43096352
REMARK minimizedRMSD -1
REMARK  0 active torsions:
REMARK  status: ('A' for Active; 'I' for Inactive)
ROOT
ATOM      1  C1  BNZ d   1       1.638  -5.915   5.864  0.00  0.00     0.000 A 
ATOM      2  C2  BNZ d   1       2.246  -4.689   5.802  0.00  0.00     0.000 A 
ATOM      3  C3  BNZ d   1       1.510  -3.539   5.860  0.00  0.00     0.000 A 
ATOM      4  C4  BNZ d   1       0.166  -3.615   5.939  0.00  0.00     0.000 A 
ATOM      5  C5  BNZ d   1      -0.463  -4.843   5.993  0.00  0.00     0.000 A 
ATOM      6  C6  BNZ d   1       0.284  -5.998   5.973  0.00  0.00     0.000 A 
ENDROOT
TORSDOF 0
ENDMDL
