MODEL 1
REMARK minimizedAffinity -2.41240382
REMARK minimizedRMSD -1
REMARK  0 active torsions:
REMARK  status: ('A' for Active; 'I' for Inactive)
ROOT
ATOM      1  C1  BNZ d   1       4.618   3.881   5.419  0.00  0.00     0.000 A 
ATOM      2  C2  BNZ d   1       4.314   3.892   4.083  0.00  0.00     0.000 A 
ATOM      3  C3  BNZ d   1       4.695   4.936   3.288  0.00  0.00     0.000 A 
ATOM      4  C4  BNZ d   1       5.343   5.985   3.834  0.00  0.00     0.000 A 
ATOM      5  C5  BNZ d   1       5.648   5.993   5.181  0.00  0.00     0.000 A 
ATOM      6  C6  BNZ d   1       5.298   4.923   5.971  0.00  0.00     0.000 A 
ENDROOT
TORSDOF 0
ENDMDL
