MODEL 1
REMARK minimizedAffinity -2.54035616
REMARK minimizedRMSD -1
REMARK  0 active torsions:
REMARK  status: ('A' for Active; 'I' for Inactive)
ROOT
ATOM      1  C1  BNZ d   1      -5.737   4.176   4.702  0.00  0.00     0.000 A 
ATOM      2  C2  BNZ d   1      -4.517   4.126   4.081  0.00  0.00     0.000 A 
ATOM      3  C3  BNZ d   1      -3.518   4.991   4.431  0.00  0.00     0.000 A 
ATOM      4  C4  BNZ d   1      -3.753   5.930   5.370  0.00  0.00     0.000 A 
ATOM      5  C5  BNZ d   1      -4.980   5.999   5.998  0.00  0.00     0.000 A 
ATOM      6  C6  BNZ d   1      -5.971   5.102   5.671  0.00  0.00     0.000 A 
ENDROOT
TORSDOF 0
ENDMDL
