MODEL 1
REMARK minimizedAffinity 5.585217
REMARK minimizedRMSD -1
REMARK  0 active torsions:
REMARK  status: ('A' for Active; 'I' for Inactive)
ROOT
ATOM      1  C1  BNZ d   1       4.418   1.024  -0.271  0.00  0.00     0.000 A 
ATOM      2  C2  BNZ d   1       4.531  -0.334  -0.405  0.00  0.00     0.000 A 
ATOM      3  C3  BNZ d   1       3.436  -1.142  -0.281  0.00  0.00     0.000 A 
ATOM      4  C4  BNZ d   1       2.239  -0.596   0.017  0.00  0.00     0.000 A 
ATOM      5  C5  BNZ d   1       2.111   0.770   0.164  0.00  0.00     0.000 A 
ATOM      6  C6  BNZ d   1       3.208   1.585  -0.000  0.00  0.00     0.000 A 
ENDROOT
TORSDOF 0
ENDMDL
