MODEL 1
REMARK minimizedAffinity 10.4087534
REMARK minimizedRMSD -1
REMARK  0 active torsions:
REMARK  status: ('A' for Active; 'I' for Inactive)
ROOT
ATOM      1  C1  BNZ d   1      -5.316   4.708   3.651  0.00  0.00     0.000 A 
ATOM      2  C2  BNZ d   1      -5.504   5.405   4.814  0.00  0.00     0.000 A 
ATOM      3  C3  BNZ d   1      -5.813   4.757   5.977  0.00  0.00     0.000 A 
ATOM      4  C4  BNZ d   1      -5.971   3.418   5.968  0.00  0.00     0.000 A 
ATOM      5  C5  BNZ d   1      -5.794   2.701   4.801  0.00  0.00     0.000 A 
ATOM      6  C6  BNZ d   1      -5.445   3.353   3.641  0.00  0.00     0.000 A 
ENDROOT
TORSDOF 0
ENDMDL
