MODEL 1
REMARK minimizedAffinity -3.85177255
REMARK minimizedRMSD -1
REMARK  2 active torsions:
REMARK  status: ('A' for Active; 'I' for Inactive)
REMARK    1  A    between atoms: C2'_3  and  C1'_4 
REMARK    2  A    between atoms: C1'_4  and  C1_5 
ROOT
ATOM      1  C1  I4B d   1       0.026   0.939   0.646  0.00  0.00    -0.075 A 
ATOM      2  C2  I4B d   1      -0.545   1.927   1.407  0.00  0.00     0.003 A 
ATOM      3  C3  I4B d   1      -0.052   3.253   1.343  0.00  0.00     0.002 A 
ATOM      4  C4  I4B d   1       1.040   3.533   0.546  0.00  0.00    -0.004 A 
ATOM      5  C5  I4B d   1       1.604   2.535  -0.243  0.00  0.00     0.002 A 
ATOM      6  C6  I4B d   1       1.086   1.232  -0.203  0.00  0.00     0.003 A 
ENDROOT
BRANCH   1   7
ATOM      7  C1' I4B d   1      -0.499  -0.457   0.764  0.00  0.00     0.060 C 
BRANCH   7   8
ATOM      8  C2' I4B d   1       0.452  -1.377   0.026  0.00  0.00    -0.013 C 
ATOM      9  C4' I4B d   1       1.584  -1.818   0.916  0.00  0.00     0.013 C 
ATOM     10  C3' I4B d   1      -0.335  -2.553  -0.472  0.00  0.00     0.013 C 
ENDBRANCH   7   8
ENDBRANCH   1   7
TORSDOF 2
ENDMDL
