MODEL 1
REMARK minimizedAffinity -0.350721896
REMARK minimizedRMSD -1
REMARK  2 active torsions:
REMARK  status: ('A' for Active; 'I' for Inactive)
REMARK    1  A    between atoms: C2'_3  and  C1'_4 
REMARK    2  A    between atoms: C1'_4  and  C1_5 
ROOT
ATOM      1  C1  I4B d   1      -1.386  -2.337   0.655  0.00  0.00    -0.075 A 
ATOM      2  C2  I4B d   1      -1.450  -3.565   1.265  0.00  0.00     0.003 A 
ATOM      3  C3  I4B d   1      -1.423  -4.749   0.489  0.00  0.00     0.002 A 
ATOM      4  C4  I4B d   1      -1.383  -4.659  -0.888  0.00  0.00    -0.004 A 
ATOM      5  C5  I4B d   1      -1.296  -3.414  -1.504  0.00  0.00     0.002 A 
ATOM      6  C6  I4B d   1      -1.285  -2.245  -0.728  0.00  0.00     0.003 A 
ENDROOT
BRANCH   1   7
ATOM      7  C1' I4B d   1      -1.450  -1.106   1.503  0.00  0.00     0.060 C 
BRANCH   7   8
ATOM      8  C2' I4B d   1      -2.908  -0.818   1.797  0.00  0.00    -0.013 C 
ATOM      9  C4' I4B d   1      -3.123  -0.537   3.261  0.00  0.00     0.013 C 
ATOM     10  C3' I4B d   1      -3.328   0.349   0.954  0.00  0.00     0.013 C 
ENDBRANCH   7   8
ENDBRANCH   1   7
TORSDOF 2
ENDMDL
