MODEL 1
REMARK minimizedAffinity 1.73074424
REMARK minimizedRMSD -1
REMARK  2 active torsions:
REMARK  status: ('A' for Active; 'I' for Inactive)
REMARK    1  A    between atoms: C2'_3  and  C1'_4 
REMARK    2  A    between atoms: C1'_4  and  C1_5 
ROOT
ATOM      1  C1  I4B d   1      -0.764  -3.834   0.751  0.00  0.00    -0.075 A 
ATOM      2  C2  I4B d   1       0.181  -4.174  -0.184  0.00  0.00     0.003 A 
ATOM      3  C3  I4B d   1      -0.195  -4.390  -1.532  0.00  0.00     0.002 A 
ATOM      4  C4  I4B d   1      -1.525  -4.305  -1.888  0.00  0.00    -0.004 A 
ATOM      5  C5  I4B d   1      -2.479  -3.938  -0.944  0.00  0.00     0.002 A 
ATOM      6  C6  I4B d   1      -2.095  -3.688   0.382  0.00  0.00     0.003 A 
ENDROOT
BRANCH   1   7
ATOM      7  C1' I4B d   1      -0.338  -3.645   2.172  0.00  0.00     0.060 C 
BRANCH   7   8
ATOM      8  C2' I4B d   1       0.119  -4.988   2.704  0.00  0.00    -0.013 C 
ATOM      9  C4' I4B d   1       0.386  -4.926   4.185  0.00  0.00     0.013 C 
ATOM     10  C3' I4B d   1      -0.943  -5.998   2.387  0.00  0.00     0.013 C 
ENDBRANCH   7   8
ENDBRANCH   1   7
TORSDOF 2
ENDMDL
