MODEL 1
REMARK minimizedAffinity 3.45283222
REMARK minimizedRMSD -1
REMARK  2 active torsions:
REMARK  status: ('A' for Active; 'I' for Inactive)
REMARK    1  A    between atoms: C2'_3  and  C1'_4 
REMARK    2  A    between atoms: C1'_4  and  C1_5 
ROOT
ATOM      1  C1  I4B d   1       2.481   3.757   1.489  0.00  0.00    -0.075 A 
ATOM      2  C2  I4B d   1       1.875   3.251   2.611  0.00  0.00     0.003 A 
ATOM      3  C3  I4B d   1       1.448   1.901   2.642  0.00  0.00     0.002 A 
ATOM      4  C4  I4B d   1       1.599   1.114   1.519  0.00  0.00    -0.004 A 
ATOM      5  C5  I4B d   1       2.235   1.623   0.390  0.00  0.00     0.002 A 
ATOM      6  C6  I4B d   1       2.690   2.949   0.379  0.00  0.00     0.003 A 
ENDROOT
BRANCH   1   7
ATOM      7  C1' I4B d   1       2.891   5.196   1.478  0.00  0.00     0.060 C 
BRANCH   7   8
ATOM      8  C2' I4B d   1       4.327   5.276   1.953  0.00  0.00    -0.013 C 
ATOM      9  C4' I4B d   1       5.192   6.000   0.954  0.00  0.00     0.013 C 
ATOM     10  C3' I4B d   1       4.338   5.971   3.282  0.00  0.00     0.013 C 
ENDBRANCH   7   8
ENDBRANCH   1   7
TORSDOF 2
ENDMDL
