MODEL 1
REMARK minimizedAffinity -1.41580522
REMARK minimizedRMSD -1
REMARK  2 active torsions:
REMARK  status: ('A' for Active; 'I' for Inactive)
REMARK    1  A    between atoms: C2'_3  and  C1'_4 
REMARK    2  A    between atoms: C1'_4  and  C1_5 
ROOT
ATOM      1  C1  I4B d   1      -0.616  -2.350   0.355  0.00  0.00    -0.075 A 
ATOM      2  C2  I4B d   1      -0.464  -2.422  -1.007  0.00  0.00     0.003 A 
ATOM      3  C3  I4B d   1      -1.307  -3.260  -1.776  0.00  0.00     0.002 A 
ATOM      4  C4  I4B d   1      -2.250  -4.043  -1.141  0.00  0.00    -0.004 A 
ATOM      5  C5  I4B d   1      -2.418  -3.952   0.238  0.00  0.00     0.002 A 
ATOM      6  C6  I4B d   1      -1.605  -3.091   0.990  0.00  0.00     0.003 A 
ENDROOT
BRANCH   1   7
ATOM      7  C1' I4B d   1       0.313  -1.480   1.139  0.00  0.00     0.060 C 
BRANCH   7   8
ATOM      8  C2' I4B d   1      -0.014  -0.036   0.814  0.00  0.00    -0.013 C 
ATOM      9  C4' I4B d   1      -1.344   0.366   1.394  0.00  0.00     0.013 C 
ATOM     10  C3' I4B d   1       1.093   0.821   1.352  0.00  0.00     0.013 C 
ENDBRANCH   7   8
ENDBRANCH   1   7
TORSDOF 2
ENDMDL
