MODEL 1
REMARK minimizedAffinity 1.93893754
REMARK minimizedRMSD -1
REMARK  2 active torsions:
REMARK  status: ('A' for Active; 'I' for Inactive)
REMARK    1  A    between atoms: C2'_3  and  C1'_4 
REMARK    2  A    between atoms: C1'_4  and  C1_5 
ROOT
ATOM      1  C1  I4B d   1      -1.338   2.627  -3.780  0.00  0.00    -0.075 A 
ATOM      2  C2  I4B d   1      -1.930   3.430  -4.723  0.00  0.00     0.003 A 
ATOM      3  C3  I4B d   1      -1.201   3.851  -5.861  0.00  0.00     0.002 A 
ATOM      4  C4  I4B d   1       0.125   3.490  -5.990  0.00  0.00    -0.004 A 
ATOM      5  C5  I4B d   1       0.717   2.657  -5.046  0.00  0.00     0.002 A 
ATOM      6  C6  I4B d   1      -0.022   2.213  -3.940  0.00  0.00     0.003 A 
ENDROOT
BRANCH   1   7
ATOM      7  C1' I4B d   1      -2.127   2.228  -2.574  0.00  0.00     0.060 C 
BRANCH   7   8
ATOM      8  C2' I4B d   1      -3.592   2.212  -2.959  0.00  0.00    -0.013 C 
ATOM      9  C4' I4B d   1      -3.883   1.119  -3.953  0.00  0.00     0.013 C 
ATOM     10  C3' I4B d   1      -4.398   2.034  -1.707  0.00  0.00     0.013 C 
ENDBRANCH   7   8
ENDBRANCH   1   7
TORSDOF 2
ENDMDL
