MODEL 1
REMARK minimizedAffinity 4.05880117
REMARK minimizedRMSD -1
REMARK  2 active torsions:
REMARK  status: ('A' for Active; 'I' for Inactive)
REMARK    1  A    between atoms: C2'_3  and  C1'_4 
REMARK    2  A    between atoms: C1'_4  and  C1_5 
ROOT
ATOM      1  C1  I4B d   1      -1.280  -3.116   0.361  0.00  0.00    -0.075 A 
ATOM      2  C2  I4B d   1      -1.181  -2.969  -1.000  0.00  0.00     0.003 A 
ATOM      3  C3  I4B d   1      -1.899  -3.830  -1.865  0.00  0.00     0.002 A 
ATOM      4  C4  I4B d   1      -2.659  -4.850  -1.330  0.00  0.00    -0.004 A 
ATOM      5  C5  I4B d   1      -2.776  -4.984   0.051  0.00  0.00     0.002 A 
ATOM      6  C6  I4B d   1      -2.093  -4.103   0.902  0.00  0.00     0.003 A 
ENDROOT
BRANCH   1   7
ATOM      7  C1' I4B d   1      -0.482  -2.209   1.244  0.00  0.00     0.060 C 
BRANCH   7   8
ATOM      8  C2' I4B d   1       0.804  -1.867   0.520  0.00  0.00    -0.013 C 
ATOM      9  C4' I4B d   1       1.236  -0.454   0.815  0.00  0.00     0.013 C 
ATOM     10  C3' I4B d   1       1.851  -2.853   0.945  0.00  0.00     0.013 C 
ENDBRANCH   7   8
ENDBRANCH   1   7
TORSDOF 2
ENDMDL
