MODEL 1
REMARK minimizedAffinity 5.89498949
REMARK minimizedRMSD -1
REMARK  2 active torsions:
REMARK  status: ('A' for Active; 'I' for Inactive)
REMARK    1  A    between atoms: C2'_3  and  C1'_4 
REMARK    2  A    between atoms: C1'_4  and  C1_5 
ROOT
ATOM      1  C1  I4B d   1      -0.775   2.704  -4.678  0.00  0.00    -0.075 A 
ATOM      2  C2  I4B d   1      -1.109   3.857  -5.344  0.00  0.00     0.003 A 
ATOM      3  C3  I4B d   1      -2.361   3.967  -5.996  0.00  0.00     0.002 A 
ATOM      4  C4  I4B d   1      -3.222   2.888  -5.999  0.00  0.00    -0.004 A 
ATOM      5  C5  I4B d   1      -2.892   1.729  -5.304  0.00  0.00     0.002 A 
ATOM      6  C6  I4B d   1      -1.666   1.640  -4.629  0.00  0.00     0.003 A 
ENDROOT
BRANCH   1   7
ATOM      7  C1' I4B d   1       0.569   2.610  -4.029  0.00  0.00     0.060 C 
BRANCH   7   8
ATOM      8  C2' I4B d   1       1.488   1.851  -4.965  0.00  0.00    -0.013 C 
ATOM      9  C4' I4B d   1       2.235   2.788  -5.876  0.00  0.00     0.013 C 
ATOM     10  C3' I4B d   1       2.432   1.040  -4.129  0.00  0.00     0.013 C 
ENDBRANCH   7   8
ENDBRANCH   1   7
TORSDOF 2
ENDMDL
