MODEL 1
REMARK minimizedAffinity 12.0315685
REMARK minimizedRMSD -1
REMARK  2 active torsions:
REMARK  status: ('A' for Active; 'I' for Inactive)
REMARK    1  A    between atoms: C2'_3  and  C1'_4 
REMARK    2  A    between atoms: C1'_4  and  C1_5 
ROOT
ATOM      1  C1  I4B d   1      -1.498   2.959  -5.557  0.00  0.00    -0.075 A 
ATOM      2  C2  I4B d   1      -2.017   1.754  -5.153  0.00  0.00     0.003 A 
ATOM      3  C3  I4B d   1      -3.416   1.538  -5.173  0.00  0.00     0.002 A 
ATOM      4  C4  I4B d   1      -4.257   2.563  -5.555  0.00  0.00    -0.004 A 
ATOM      5  C5  I4B d   1      -3.728   3.776  -5.987  0.00  0.00     0.002 A 
ATOM      6  C6  I4B d   1      -2.339   3.972  -6.000  0.00  0.00     0.003 A 
ENDROOT
BRANCH   1   7
ATOM      7  C1' I4B d   1      -0.018   3.165  -5.492  0.00  0.00     0.060 C 
BRANCH   7   8
ATOM      8  C2' I4B d   1       0.543   2.201  -4.466  0.00  0.00    -0.013 C 
ATOM      9  C4' I4B d   1       2.044   2.120  -4.557  0.00  0.00     0.013 C 
ATOM     10  C3' I4B d   1       0.106   2.665  -3.108  0.00  0.00     0.013 C 
ENDBRANCH   7   8
ENDBRANCH   1   7
TORSDOF 2
ENDMDL
