MODEL 1
REMARK minimizedAffinity 12.5221138
REMARK minimizedRMSD -1
REMARK  2 active torsions:
REMARK  status: ('A' for Active; 'I' for Inactive)
REMARK    1  A    between atoms: C2'_3  and  C1'_4 
REMARK    2  A    between atoms: C1'_4  and  C1_5 
ROOT
ATOM      1  C1  I4B d   1       0.243  -2.686  -0.006  0.00  0.00    -0.075 A 
ATOM      2  C2  I4B d   1       0.561  -3.818  -0.716  0.00  0.00     0.003 A 
ATOM      3  C3  I4B d   1      -0.434  -4.492  -1.464  0.00  0.00     0.002 A 
ATOM      4  C4  I4B d   1      -1.735  -4.032  -1.435  0.00  0.00    -0.004 A 
ATOM      5  C5  I4B d   1      -2.050  -2.872  -0.734  0.00  0.00     0.002 A 
ATOM      6  C6  I4B d   1      -1.052  -2.187  -0.025  0.00  0.00     0.003 A 
ENDROOT
BRANCH   1   7
ATOM      7  C1' I4B d   1       1.312  -2.018   0.800  0.00  0.00     0.060 C 
BRANCH   7   8
ATOM      8  C2' I4B d   1       1.715  -0.748   0.079  0.00  0.00    -0.013 C 
ATOM      9  C4' I4B d   1       1.765   0.423   1.024  0.00  0.00     0.013 C 
ATOM     10  C3' I4B d   1       3.051  -0.984  -0.562  0.00  0.00     0.013 C 
ENDBRANCH   7   8
ENDBRANCH   1   7
TORSDOF 2
ENDMDL
