MODEL 1
REMARK minimizedAffinity -4.44054699
REMARK minimizedRMSD -1
REMARK  1 active torsions:
REMARK  status: ('A' for Active; 'I' for Inactive)
REMARK    1  A    between atoms: C1_2  and  C2_3 
ROOT
ATOM      1  C2  UNL d   1      -0.489  -1.652  -0.716  0.00  0.00    -0.077 A 
ATOM      2  C3  UNL d   1       0.705  -0.950  -0.936  0.00  0.00     0.002 A 
ATOM      3  C4  UNL d   1       1.152  -0.007  -0.008  0.00  0.00     0.002 A 
ATOM      4  C5  UNL d   1       0.413   0.239   1.148  0.00  0.00    -0.004 A 
ATOM      5  C6  UNL d   1      -0.776  -0.452   1.375  0.00  0.00     0.002 A 
ATOM      6  C7  UNL d   1      -1.225  -1.394   0.448  0.00  0.00     0.002 A 
ENDROOT
BRANCH   1   7
ATOM      7  C1  UNL d   1      -0.946  -2.704  -1.691  0.00  0.00     0.055 C 
ATOM      8  C   UNL d   1      -0.676  -4.105  -1.162  0.00  0.00     0.019 C 
ENDBRANCH   1   7
TORSDOF 1
ENDMDL
