MODEL 1
REMARK minimizedAffinity 4.26658058
REMARK minimizedRMSD -1
REMARK  1 active torsions:
REMARK  status: ('A' for Active; 'I' for Inactive)
REMARK    1  A    between atoms: C1_2  and  C2_3 
ROOT
ATOM      1  C2  UNL d   1       3.810  -4.528  -2.062  0.00  0.00    -0.077 A 
ATOM      2  C3  UNL d   1       4.479  -3.813  -1.058  0.00  0.00     0.002 A 
ATOM      3  C4  UNL d   1       5.505  -2.926  -1.387  0.00  0.00     0.002 A 
ATOM      4  C5  UNL d   1       5.869  -2.742  -2.719  0.00  0.00    -0.004 A 
ATOM      5  C6  UNL d   1       5.212  -3.450  -3.725  0.00  0.00     0.002 A 
ATOM      6  C7  UNL d   1       4.186  -4.338  -3.398  0.00  0.00     0.002 A 
ENDROOT
BRANCH   1   7
ATOM      7  C1  UNL d   1       2.670  -5.449  -1.713  0.00  0.00     0.055 C 
ATOM      8  C   UNL d   1       1.432  -4.666  -1.301  0.00  0.00     0.019 C 
ENDBRANCH   1   7
TORSDOF 1
ENDMDL
