MODEL 1
REMARK minimizedAffinity 10.8350935
REMARK minimizedRMSD -1
REMARK  0 active torsions:
REMARK  status: ('A' for Active; 'I' for Inactive)
ROOT
ATOM      1  O1  BZF d   1      -1.809  -3.447  -5.893  0.00  0.00    -0.204 OA
ATOM      2  C2  BZF d   1      -3.184  -3.363  -6.000  0.00  0.00     0.174 A 
ATOM      3  C3  BZF d   1      -3.777  -3.731  -4.846  0.00  0.00    -0.012 A 
ATOM      4  C3A BZF d   1      -2.704  -3.977  -3.933  0.00  0.00    -0.107 A 
ATOM      5  C4  BZF d   1      -2.655  -4.359  -2.622  0.00  0.00     0.055 A 
ATOM      6  C5  BZF d   1      -1.445  -4.582  -2.044  0.00  0.00    -0.016 A 
ATOM      7  C6  BZF d   1      -0.267  -4.439  -2.747  0.00  0.00     0.022 A 
ATOM      8  C7  BZF d   1      -0.265  -4.058  -4.048  0.00  0.00     0.029 A 
ATOM      9  C7A BZF d   1      -1.484  -3.799  -4.626  0.00  0.00     0.058 A 
ENDROOT
TORSDOF 0
ENDMDL
