MODEL 1
REMARK minimizedAffinity 3.28998876
REMARK minimizedRMSD -1
REMARK  0 active torsions:
REMARK  status: ('A' for Active; 'I' for Inactive)
ROOT
ATOM      1  O1  BZF d   1      -1.640  -3.370  -5.887  0.00  0.00    -0.204 OA
ATOM      2  C2  BZF d   1      -3.005  -3.193  -6.000  0.00  0.00     0.174 A 
ATOM      3  C3  BZF d   1      -3.647  -3.740  -4.948  0.00  0.00    -0.012 A 
ATOM      4  C3A BZF d   1      -2.613  -4.214  -4.080  0.00  0.00    -0.107 A 
ATOM      5  C4  BZF d   1      -2.619  -4.839  -2.866  0.00  0.00     0.055 A 
ATOM      6  C5  BZF d   1      -1.438  -5.235  -2.321  0.00  0.00    -0.016 A 
ATOM      7  C6  BZF d   1      -0.236  -5.025  -2.964  0.00  0.00     0.022 A 
ATOM      8  C7  BZF d   1      -0.179  -4.404  -4.167  0.00  0.00     0.029 A 
ATOM      9  C7A BZF d   1      -1.367  -3.974  -4.705  0.00  0.00     0.058 A 
ENDROOT
TORSDOF 0
ENDMDL
