MODEL 1
REMARK minimizedAffinity 12.4974089
REMARK minimizedRMSD -1
REMARK  0 active torsions:
REMARK  status: ('A' for Active; 'I' for Inactive)
ROOT
ATOM      1  O1  BZF d   1      -5.038  -2.254  -5.310  0.00  0.00    -0.204 OA
ATOM      2  C2  BZF d   1      -5.990  -2.979  -6.000  0.00  0.00     0.174 A 
ATOM      3  C3  BZF d   1      -5.710  -4.297  -5.959  0.00  0.00    -0.012 A 
ATOM      4  C3A BZF d   1      -4.558  -4.411  -5.118  0.00  0.00    -0.107 A 
ATOM      5  C4  BZF d   1      -3.815  -5.471  -4.681  0.00  0.00     0.055 A 
ATOM      6  C5  BZF d   1      -2.708  -5.236  -3.929  0.00  0.00    -0.016 A 
ATOM      7  C6  BZF d   1      -2.312  -3.956  -3.599  0.00  0.00     0.022 A 
ATOM      8  C7  BZF d   1      -3.020  -2.874  -4.004  0.00  0.00     0.029 A 
ATOM      9  C7A BZF d   1      -4.158  -3.109  -4.737  0.00  0.00     0.058 A 
ENDROOT
TORSDOF 0
ENDMDL
