MODEL 1
REMARK minimizedAffinity 13.0402689
REMARK minimizedRMSD -1
REMARK  0 active torsions:
REMARK  status: ('A' for Active; 'I' for Inactive)
ROOT
ATOM      1  O1  BZF d   1       0.657   0.475   2.558  0.00  0.00    -0.204 OA
ATOM      2  C2  BZF d   1      -0.294   1.112   1.784  0.00  0.00     0.174 A 
ATOM      3  C3  BZF d   1      -0.933   2.061   2.497  0.00  0.00    -0.012 A 
ATOM      4  C3A BZF d   1      -0.282   2.078   3.771  0.00  0.00    -0.107 A 
ATOM      5  C4  BZF d   1      -0.456   2.819   4.904  0.00  0.00     0.055 A 
ATOM      6  C5  BZF d   1       0.296   2.537   6.000  0.00  0.00    -0.016 A 
ATOM      7  C6  BZF d   1       1.227   1.519   5.999  0.00  0.00     0.022 A 
ATOM      8  C7  BZF d   1       1.439   0.759   4.896  0.00  0.00     0.029 A 
ATOM      9  C7A BZF d   1       0.703   1.063   3.777  0.00  0.00     0.058 A 
ENDROOT
TORSDOF 0
ENDMDL
