MODEL 1
REMARK minimizedAffinity 9.20134258
REMARK minimizedRMSD -1
REMARK  0 active torsions:
REMARK  status: ('A' for Active; 'I' for Inactive)
ROOT
ATOM      1  O1  BZF d   1       2.697   0.508  -4.156  0.00  0.00    -0.204 OA
ATOM      2  C2  BZF d   1       2.239  -0.694  -4.659  0.00  0.00     0.174 A 
ATOM      3  C3  BZF d   1       1.752  -1.472  -3.670  0.00  0.00    -0.012 A 
ATOM      4  C3A BZF d   1       1.832  -0.670  -2.487  0.00  0.00    -0.107 A 
ATOM      5  C4  BZF d   1       1.486  -0.883  -1.184  0.00  0.00     0.055 A 
ATOM      6  C5  BZF d   1       1.763   0.076  -0.261  0.00  0.00    -0.016 A 
ATOM      7  C6  BZF d   1       2.389   1.255  -0.606  0.00  0.00     0.022 A 
ATOM      8  C7  BZF d   1       2.747   1.514  -1.888  0.00  0.00     0.029 A 
ATOM      9  C7A BZF d   1       2.439   0.561  -2.827  0.00  0.00     0.058 A 
ENDROOT
TORSDOF 0
ENDMDL
