MODEL 1
REMARK minimizedAffinity 15.1579037
REMARK minimizedRMSD -1
REMARK  0 active torsions:
REMARK  status: ('A' for Active; 'I' for Inactive)
ROOT
ATOM      1  O1  BZF d   1      -3.632   0.918   2.624  0.00  0.00    -0.204 OA
ATOM      2  C2  BZF d   1      -2.251   0.906   2.645  0.00  0.00     0.174 A 
ATOM      3  C3  BZF d   1      -1.782   1.600   3.702  0.00  0.00    -0.012 A 
ATOM      4  C3A BZF d   1      -2.944   1.999   4.435  0.00  0.00    -0.107 A 
ATOM      5  C4  BZF d   1      -3.129   2.702   5.591  0.00  0.00     0.055 A 
ATOM      6  C5  BZF d   1      -4.395   2.982   5.998  0.00  0.00    -0.016 A 
ATOM      7  C6  BZF d   1      -5.497   2.581   5.272  0.00  0.00     0.022 A 
ATOM      8  C7  BZF d   1      -5.364   1.877   4.122  0.00  0.00     0.029 A 
ATOM      9  C7A BZF d   1      -4.087   1.563   3.725  0.00  0.00     0.058 A 
ENDROOT
TORSDOF 0
ENDMDL
