MODEL 1
REMARK minimizedAffinity 16.3837128
REMARK minimizedRMSD -1
REMARK  0 active torsions:
REMARK  status: ('A' for Active; 'I' for Inactive)
ROOT
ATOM      1  O1  BZF d   1      -5.545  -1.502   1.523  0.00  0.00    -0.204 OA
ATOM      2  C2  BZF d   1      -5.999  -2.586   2.250  0.00  0.00     0.174 A 
ATOM      3  C3  BZF d   1      -5.341  -2.685   3.422  0.00  0.00    -0.012 A 
ATOM      4  C3A BZF d   1      -4.482  -1.542   3.470  0.00  0.00    -0.107 A 
ATOM      5  C4  BZF d   1      -3.589  -1.076   4.392  0.00  0.00     0.055 A 
ATOM      6  C5  BZF d   1      -2.857   0.031   4.102  0.00  0.00    -0.016 A 
ATOM      7  C6  BZF d   1      -2.987   0.693   2.898  0.00  0.00     0.022 A 
ATOM      8  C7  BZF d   1      -3.863   0.271   1.954  0.00  0.00     0.029 A 
ATOM      9  C7A BZF d   1      -4.629  -0.828   2.258  0.00  0.00     0.058 A 
ENDROOT
TORSDOF 0
ENDMDL
