MODEL 1
REMARK minimizedAffinity 9.88567162
REMARK minimizedRMSD -1
REMARK  0 active torsions:
REMARK  status: ('A' for Active; 'I' for Inactive)
ROOT
ATOM      1  O1  BZF d   1       2.998  -2.318  -0.438  0.00  0.00    -0.204 OA
ATOM      2  C2  BZF d   1       2.335  -3.322  -1.117  0.00  0.00     0.174 A 
ATOM      3  C3  BZF d   1       1.561  -2.810  -2.095  0.00  0.00    -0.012 A 
ATOM      4  C3A BZF d   1       1.823  -1.403  -2.084  0.00  0.00    -0.107 A 
ATOM      5  C4  BZF d   1       1.367  -0.357  -2.833  0.00  0.00     0.055 A 
ATOM      6  C5  BZF d   1       1.764   0.904  -2.519  0.00  0.00    -0.016 A 
ATOM      7  C6  BZF d   1       2.611   1.155  -1.459  0.00  0.00     0.022 A 
ATOM      8  C7  BZF d   1       3.094   0.150  -0.690  0.00  0.00     0.029 A 
ATOM      9  C7A BZF d   1       2.721  -1.129  -1.026  0.00  0.00     0.058 A 
ENDROOT
TORSDOF 0
ENDMDL
