MODEL 1
REMARK minimizedAffinity 7.98017454
REMARK minimizedRMSD -1
REMARK  0 active torsions:
REMARK  status: ('A' for Active; 'I' for Inactive)
ROOT
ATOM      1  O1  BZF d   1       0.754  -1.415  -1.971  0.00  0.00    -0.204 OA
ATOM      2  C2  BZF d   1       2.008  -1.922  -1.692  0.00  0.00     0.174 A 
ATOM      3  C3  BZF d   1       2.024  -3.263  -1.833  0.00  0.00    -0.012 A 
ATOM      4  C3A BZF d   1       0.721  -3.607  -2.313  0.00  0.00    -0.107 A 
ATOM      5  C4  BZF d   1       0.128  -4.788  -2.658  0.00  0.00     0.055 A 
ATOM      6  C5  BZF d   1      -1.182  -4.789  -3.018  0.00  0.00    -0.016 A 
ATOM      7  C6  BZF d   1      -1.930  -3.630  -3.040  0.00  0.00     0.022 A 
ATOM      8  C7  BZF d   1      -1.385  -2.434  -2.711  0.00  0.00     0.029 A 
ATOM      9  C7A BZF d   1      -0.052  -2.425  -2.378  0.00  0.00     0.058 A 
ENDROOT
TORSDOF 0
ENDMDL
