MODEL 1
REMARK minimizedAffinity 13.2241926
REMARK minimizedRMSD -1
REMARK  0 active torsions:
REMARK  status: ('A' for Active; 'I' for Inactive)
ROOT
ATOM      1  O1  BZF d   1       3.657   1.744  -1.388  0.00  0.00    -0.204 OA
ATOM      2  C2  BZF d   1       4.367   1.618  -0.210  0.00  0.00     0.174 A 
ATOM      3  C3  BZF d   1       4.161   0.407   0.346  0.00  0.00    -0.012 A 
ATOM      4  C3A BZF d   1       3.340  -0.301  -0.587  0.00  0.00    -0.107 A 
ATOM      5  C4  BZF d   1       2.811  -1.560  -0.607  0.00  0.00     0.055 A 
ATOM      6  C5  BZF d   1       1.992  -1.917  -1.630  0.00  0.00    -0.016 A 
ATOM      7  C6  BZF d   1       1.675  -1.039  -2.647  0.00  0.00     0.022 A 
ATOM      8  C7  BZF d   1       2.179   0.218  -2.673  0.00  0.00     0.029 A 
ATOM      9  C7A BZF d   1       3.034   0.571  -1.658  0.00  0.00     0.058 A 
ENDROOT
TORSDOF 0
ENDMDL
