MODEL 1
REMARK minimizedAffinity 16.355114
REMARK minimizedRMSD -1
REMARK  0 active torsions:
REMARK  status: ('A' for Active; 'I' for Inactive)
ROOT
ATOM      1  O1  BZF d   1      -3.659   1.119   2.414  0.00  0.00    -0.204 OA
ATOM      2  C2  BZF d   1      -2.346   0.721   2.575  0.00  0.00     0.174 A 
ATOM      3  C3  BZF d   1      -1.874   1.105   3.779  0.00  0.00    -0.012 A 
ATOM      4  C3A BZF d   1      -2.989   1.704   4.447  0.00  0.00    -0.107 A 
ATOM      5  C4  BZF d   1      -3.153   2.264   5.681  0.00  0.00     0.055 A 
ATOM      6  C5  BZF d   1      -4.350   2.826   5.998  0.00  0.00    -0.016 A 
ATOM      7  C6  BZF d   1      -5.400   2.850   5.103  0.00  0.00     0.022 A 
ATOM      8  C7  BZF d   1      -5.286   2.302   3.869  0.00  0.00     0.029 A 
ATOM      9  C7A BZF d   1      -4.089   1.705   3.558  0.00  0.00     0.058 A 
ENDROOT
TORSDOF 0
ENDMDL
