MODEL 1
REMARK minimizedAffinity 19.4880219
REMARK minimizedRMSD -1
REMARK  0 active torsions:
REMARK  status: ('A' for Active; 'I' for Inactive)
ROOT
ATOM      1  O1  BZF d   1       1.901  -1.629  -5.594  0.00  0.00    -0.204 OA
ATOM      2  C2  BZF d   1       2.797  -0.587  -5.451  0.00  0.00     0.174 A 
ATOM      3  C3  BZF d   1       2.660   0.001  -4.245  0.00  0.00    -0.012 A 
ATOM      4  C3A BZF d   1       1.676  -0.777  -3.557  0.00  0.00    -0.107 A 
ATOM      5  C4  BZF d   1       1.122  -0.702  -2.311  0.00  0.00     0.055 A 
ATOM      6  C5  BZF d   1       0.133  -1.570  -1.974  0.00  0.00    -0.016 A 
ATOM      7  C6  BZF d   1      -0.330  -2.523  -2.859  0.00  0.00     0.022 A 
ATOM      8  C7  BZF d   1       0.192  -2.639  -4.104  0.00  0.00     0.029 A 
ATOM      9  C7A BZF d   1       1.215  -1.784  -4.436  0.00  0.00     0.058 A 
ENDROOT
TORSDOF 0
ENDMDL
