MODEL 1
REMARK minimizedAffinity 20.5826969
REMARK minimizedRMSD -1
REMARK  0 active torsions:
REMARK  status: ('A' for Active; 'I' for Inactive)
ROOT
ATOM      1  O1  BZF d   1      -2.992   1.126   2.567  0.00  0.00    -0.204 OA
ATOM      2  C2  BZF d   1      -3.825   1.377   3.641  0.00  0.00     0.174 A 
ATOM      3  C3  BZF d   1      -3.116   1.468   4.785  0.00  0.00    -0.012 A 
ATOM      4  C3A BZF d   1      -1.746   1.354   4.389  0.00  0.00    -0.107 A 
ATOM      5  C4  BZF d   1      -0.565   1.385   5.074  0.00  0.00     0.055 A 
ATOM      6  C5  BZF d   1       0.595   1.170   4.401  0.00  0.00    -0.016 A 
ATOM      7  C6  BZF d   1       0.611   0.916   3.045  0.00  0.00     0.022 A 
ATOM      8  C7  BZF d   1      -0.534   0.880   2.321  0.00  0.00     0.029 A 
ATOM      9  C7A BZF d   1      -1.706   1.130   2.993  0.00  0.00     0.058 A 
ENDROOT
TORSDOF 0
ENDMDL
