MODEL 1
REMARK minimizedAffinity 11.7109709
REMARK minimizedRMSD -1
REMARK  0 active torsions:
REMARK  status: ('A' for Active; 'I' for Inactive)
ROOT
ATOM      1  O1  BZF d   1      -3.803  -3.690  -3.516  0.00  0.00    -0.204 OA
ATOM      2  C2  BZF d   1      -3.819  -5.031  -3.183  0.00  0.00     0.174 A 
ATOM      3  C3  BZF d   1      -2.661  -5.392  -2.595  0.00  0.00    -0.012 A 
ATOM      4  C3A BZF d   1      -1.906  -4.182  -2.474  0.00  0.00    -0.107 A 
ATOM      5  C4  BZF d   1      -0.677  -3.890  -1.957  0.00  0.00     0.055 A 
ATOM      6  C5  BZF d   1      -0.201  -2.622  -2.061  0.00  0.00    -0.016 A 
ATOM      7  C6  BZF d   1      -0.924  -1.623  -2.680  0.00  0.00     0.022 A 
ATOM      8  C7  BZF d   1      -2.151  -1.864  -3.204  0.00  0.00     0.029 A 
ATOM      9  C7A BZF d   1      -2.649  -3.137  -3.071  0.00  0.00     0.058 A 
ENDROOT
TORSDOF 0
ENDMDL
