MODEL 1
REMARK minimizedAffinity 14.9680071
REMARK minimizedRMSD -1
REMARK  0 active torsions:
REMARK  status: ('A' for Active; 'I' for Inactive)
ROOT
ATOM      1  O1  BZF d   1       1.489   0.747   5.037  0.00  0.00    -0.204 OA
ATOM      2  C2  BZF d   1       1.183   1.689   6.000  0.00  0.00     0.174 A 
ATOM      3  C3  BZF d   1       0.030   2.321   5.701  0.00  0.00    -0.012 A 
ATOM      4  C3A BZF d   1      -0.460   1.674   4.523  0.00  0.00    -0.107 A 
ATOM      5  C4  BZF d   1      -1.575   1.844   3.753  0.00  0.00     0.055 A 
ATOM      6  C5  BZF d   1      -1.720   1.098   2.627  0.00  0.00    -0.016 A 
ATOM      7  C6  BZF d   1      -0.769   0.177   2.238  0.00  0.00     0.022 A 
ATOM      8  C7  BZF d   1       0.351  -0.030   2.972  0.00  0.00     0.029 A 
ATOM      9  C7A BZF d   1       0.485   0.699   4.128  0.00  0.00     0.058 A 
ENDROOT
TORSDOF 0
ENDMDL
