MODEL 1
REMARK minimizedAffinity 7.18466234
REMARK minimizedRMSD -1
REMARK  0 active torsions:
REMARK  status: ('A' for Active; 'I' for Inactive)
ROOT
ATOM      1  O1  BZF d   1      -3.005  -2.925  -5.685  0.00  0.00    -0.204 OA
ATOM      2  C2  BZF d   1      -4.267  -3.391  -6.000  0.00  0.00     0.174 A 
ATOM      3  C3  BZF d   1      -4.578  -4.470  -5.253  0.00  0.00    -0.012 A 
ATOM      4  C3A BZF d   1      -3.477  -4.636  -4.354  0.00  0.00    -0.107 A 
ATOM      5  C4  BZF d   1      -3.207  -5.526  -3.354  0.00  0.00     0.055 A 
ATOM      6  C5  BZF d   1      -2.009  -5.459  -2.716  0.00  0.00    -0.016 A 
ATOM      7  C6  BZF d   1      -1.058  -4.519  -3.054  0.00  0.00     0.022 A 
ATOM      8  C7  BZF d   1      -1.282  -3.611  -4.036  0.00  0.00     0.029 A 
ATOM      9  C7A BZF d   1      -2.505  -3.656  -4.660  0.00  0.00     0.058 A 
ENDROOT
TORSDOF 0
ENDMDL
