MODEL 1
REMARK minimizedAffinity -3.71991301
REMARK minimizedRMSD -1
REMARK  0 active torsions:
REMARK  status: ('A' for Active; 'I' for Inactive)
ROOT
ATOM      1  O1  BZF d   1       2.457  -3.226  -0.008  0.00  0.00    -0.204 OA
ATOM      2  C2  BZF d   1       2.782  -4.546  -0.253  0.00  0.00     0.174 A 
ATOM      3  C3  BZF d   1       2.880  -4.777  -1.578  0.00  0.00    -0.012 A 
ATOM      4  C3A BZF d   1       2.688  -3.502  -2.197  0.00  0.00    -0.107 A 
ATOM      5  C4  BZF d   1       2.688  -3.080  -3.496  0.00  0.00     0.055 A 
ATOM      6  C5  BZF d   1       2.397  -1.781  -3.768  0.00  0.00    -0.016 A 
ATOM      7  C6  BZF d   1       2.097  -0.879  -2.768  0.00  0.00     0.022 A 
ATOM      8  C7  BZF d   1       2.090  -1.250  -1.465  0.00  0.00     0.029 A 
ATOM      9  C7A BZF d   1       2.416  -2.554  -1.184  0.00  0.00     0.058 A 
ENDROOT
TORSDOF 0
ENDMDL
