MODEL 1
REMARK minimizedAffinity 9.81161976
REMARK minimizedRMSD -1
REMARK  0 active torsions:
REMARK  status: ('A' for Active; 'I' for Inactive)
ROOT
ATOM      1  O1  BZF d   1       1.496  -4.414  -2.085  0.00  0.00    -0.204 OA
ATOM      2  C2  BZF d   1       1.081  -4.024  -3.343  0.00  0.00     0.174 A 
ATOM      3  C3  BZF d   1       1.180  -2.686  -3.486  0.00  0.00    -0.012 A 
ATOM      4  C3A BZF d   1       1.777  -2.221  -2.272  0.00  0.00    -0.107 A 
ATOM      5  C4  BZF d   1       2.145  -0.986  -1.819  0.00  0.00     0.055 A 
ATOM      6  C5  BZF d   1       2.633  -0.864  -0.557  0.00  0.00    -0.016 A 
ATOM      7  C6  BZF d   1       2.761  -1.952   0.281  0.00  0.00     0.022 A 
ATOM      8  C7  BZF d   1       2.414  -3.198  -0.125  0.00  0.00     0.029 A 
ATOM      9  C7A BZF d   1       1.951  -3.330  -1.412  0.00  0.00     0.058 A 
ENDROOT
TORSDOF 0
ENDMDL
