MODEL 1
REMARK minimizedAffinity 6.75230265
REMARK minimizedRMSD -1
REMARK  1 active torsions:
REMARK  status: ('A' for Active; 'I' for Inactive)
REMARK    1  A    between atoms: C3_4  and  O_7 
ROOT
ATOM      1  C   UNL d   1       2.478   0.332   0.413  0.00  0.00    -0.033 A 
ATOM      2  C1  UNL d   1       1.896   1.539   0.021  0.00  0.00     0.039 A 
ATOM      3  C2  UNL d   1       1.671   2.546   0.961  0.00  0.00    -0.080 A 
ATOM      4  C3  UNL d   1       2.033   2.335   2.288  0.00  0.00     0.150 A 
ATOM      5  C4  UNL d   1       2.617   1.137   2.686  0.00  0.00    -0.007 A 
ATOM      6  C5  UNL d   1       2.840   0.132   1.746  0.00  0.00     0.039 A 
ENDROOT
BRANCH   4   7
ATOM      7  O   UNL d   1       1.829   3.287   3.243  0.00  0.00    -0.526 OA
ATOM      8  H5  UNL d   1       1.392   4.049   2.828  0.00  0.00     0.418 HD
ENDBRANCH   4   7
TORSDOF 1
ENDMDL
