MODEL 1
REMARK minimizedAffinity 8.73198414
REMARK minimizedRMSD -1
REMARK  1 active torsions:
REMARK  status: ('A' for Active; 'I' for Inactive)
REMARK    1  A    between atoms: C3_4  and  O_7 
ROOT
ATOM      1  C   UNL d   1       0.883  -0.717  -1.296  0.00  0.00    -0.033 A 
ATOM      2  C1  UNL d   1      -0.045   0.152  -1.872  0.00  0.00     0.039 A 
ATOM      3  C2  UNL d   1      -0.055   1.502  -1.515  0.00  0.00    -0.080 A 
ATOM      4  C3  UNL d   1       0.868   1.969  -0.583  0.00  0.00     0.150 A 
ATOM      5  C4  UNL d   1       1.798   1.109  -0.008  0.00  0.00    -0.007 A 
ATOM      6  C5  UNL d   1       1.806  -0.238  -0.365  0.00  0.00     0.039 A 
ENDROOT
BRANCH   4   7
ATOM      7  O   UNL d   1       0.894   3.277  -0.200  0.00  0.00    -0.526 OA
ATOM      8  H5  UNL d   1       0.176   3.746  -0.658  0.00  0.00     0.418 HD
ENDBRANCH   4   7
TORSDOF 1
ENDMDL
