MODEL 1
REMARK minimizedAffinity 6.60860968
REMARK minimizedRMSD -1
REMARK  1 active torsions:
REMARK  status: ('A' for Active; 'I' for Inactive)
REMARK    1  A    between atoms: C3_4  and  O_7 
ROOT
ATOM      1  C   UNL d   1       4.133   3.862   5.752  0.00  0.00    -0.033 A 
ATOM      2  C1  UNL d   1       3.574   3.854   4.472  0.00  0.00     0.039 A 
ATOM      3  C2  UNL d   1       4.183   4.568   3.438  0.00  0.00    -0.080 A 
ATOM      4  C3  UNL d   1       5.349   5.284   3.697  0.00  0.00     0.150 A 
ATOM      5  C4  UNL d   1       5.912   5.294   4.968  0.00  0.00    -0.007 A 
ATOM      6  C5  UNL d   1       5.302   4.581   6.000  0.00  0.00     0.039 A 
ENDROOT
BRANCH   4   7
ATOM      7  O   UNL d   1       5.976   6.000   2.721  0.00  0.00    -0.526 OA
ATOM      8  H5  UNL d   1       5.458   5.924   1.902  0.00  0.00     0.418 HD
ENDBRANCH   4   7
TORSDOF 1
ENDMDL
