MODEL 1
REMARK minimizedAffinity 1.00415444
REMARK minimizedRMSD -1
REMARK  1 active torsions:
REMARK  status: ('A' for Active; 'I' for Inactive)
REMARK    1  A    between atoms: C3_4  and  O_7 
ROOT
ATOM      1  C   UNL d   1      -0.845   1.315  -1.667  0.00  0.00    -0.033 A 
ATOM      2  C1  UNL d   1      -0.077   1.714  -0.572  0.00  0.00     0.039 A 
ATOM      3  C2  UNL d   1       1.026   0.954  -0.177  0.00  0.00    -0.080 A 
ATOM      4  C3  UNL d   1       1.350  -0.200  -0.885  0.00  0.00     0.150 A 
ATOM      5  C4  UNL d   1       0.591  -0.601  -1.979  0.00  0.00    -0.007 A 
ATOM      6  C5  UNL d   1      -0.511   0.158  -2.371  0.00  0.00     0.039 A 
ENDROOT
BRANCH   4   7
ATOM      7  O   UNL d   1       2.415  -0.976  -0.535  0.00  0.00    -0.526 OA
ATOM      8  H5  UNL d   1       2.828  -0.592   0.256  0.00  0.00     0.418 HD
ENDBRANCH   4   7
TORSDOF 1
ENDMDL
