MODEL 1
REMARK minimizedAffinity -0.756828845
REMARK minimizedRMSD -1
REMARK  1 active torsions:
REMARK  status: ('A' for Active; 'I' for Inactive)
REMARK    1  A    between atoms: C3_4  and  O_7 
ROOT
ATOM      1  C   UNL d   1       3.078   2.030   0.088  0.00  0.00    -0.033 A 
ATOM      2  C1  UNL d   1       4.231   1.247   0.011  0.00  0.00     0.039 A 
ATOM      3  C2  UNL d   1       4.145  -0.141   0.138  0.00  0.00    -0.080 A 
ATOM      4  C3  UNL d   1       2.901  -0.732   0.341  0.00  0.00     0.150 A 
ATOM      5  C4  UNL d   1       1.747   0.042   0.415  0.00  0.00    -0.007 A 
ATOM      6  C5  UNL d   1       1.836   1.427   0.288  0.00  0.00     0.039 A 
ENDROOT
BRANCH   4   7
ATOM      7  O   UNL d   1       2.767  -2.082   0.475  0.00  0.00    -0.526 OA
ATOM      8  H5  UNL d   1       3.650  -2.485   0.432  0.00  0.00     0.418 HD
ENDBRANCH   4   7
TORSDOF 1
ENDMDL
