MODEL 1
REMARK minimizedAffinity 0.150455907
REMARK minimizedRMSD -1
REMARK  1 active torsions:
REMARK  status: ('A' for Active; 'I' for Inactive)
REMARK    1  A    between atoms: C3_4  and  O_7 
ROOT
ATOM      1  C   UNL d   1      -4.883   0.902  -1.147  0.00  0.00    -0.033 A 
ATOM      2  C1  UNL d   1      -4.499   0.776  -2.483  0.00  0.00     0.039 A 
ATOM      3  C2  UNL d   1      -4.866   1.751  -3.412  0.00  0.00    -0.080 A 
ATOM      4  C3  UNL d   1      -5.614   2.847  -2.993  0.00  0.00     0.150 A 
ATOM      5  C4  UNL d   1      -5.997   2.982  -1.662  0.00  0.00    -0.007 A 
ATOM      6  C5  UNL d   1      -5.631   2.006  -0.736  0.00  0.00     0.039 A 
ENDROOT
BRANCH   4   7
ATOM      7  O   UNL d   1      -5.999   3.823  -3.864  0.00  0.00    -0.526 OA
ATOM      8  H5  UNL d   1      -5.688   3.582  -4.752  0.00  0.00     0.418 HD
ENDBRANCH   4   7
TORSDOF 1
ENDMDL
