MODEL 1
REMARK minimizedAffinity -5.51592112
REMARK minimizedRMSD -1
REMARK  1 active torsions:
REMARK  status: ('A' for Active; 'I' for Inactive)
REMARK    1  A    between atoms: C3_4  and  O_7 
ROOT
ATOM      1  C   UNL d   1      -0.150  -0.536  -0.653  0.00  0.00    -0.033 A 
ATOM      2  C1  UNL d   1       0.269   0.050   0.542  0.00  0.00     0.039 A 
ATOM      3  C2  UNL d   1       1.466  -0.354   1.138  0.00  0.00    -0.080 A 
ATOM      4  C3  UNL d   1       2.233  -1.343   0.529  0.00  0.00     0.150 A 
ATOM      5  C4  UNL d   1       1.822  -1.929  -0.664  0.00  0.00    -0.007 A 
ATOM      6  C5  UNL d   1       0.627  -1.525  -1.257  0.00  0.00     0.039 A 
ENDROOT
BRANCH   4   7
ATOM      7  O   UNL d   1       3.405  -1.773   1.075  0.00  0.00    -0.526 OA
ATOM      8  H5  UNL d   1       3.547  -1.300   1.912  0.00  0.00     0.418 HD
ENDBRANCH   4   7
TORSDOF 1
ENDMDL
