MODEL 1
REMARK minimizedAffinity -2.27057672
REMARK minimizedRMSD -1
REMARK  0 active torsions:
REMARK  status: ('A' for Active; 'I' for Inactive)
ROOT
ATOM      1  C   UNL d   1       2.054  -1.287  -0.605  0.00  0.00     0.078 C 
ATOM      2  C1  UNL d   1       0.864  -0.885   0.214  0.00  0.00    -0.077 A 
ATOM      3  C2  UNL d   1       0.824  -1.121   1.593  0.00  0.00    -0.001 A 
ATOM      4  C3  UNL d   1      -0.294  -0.751   2.341  0.00  0.00     0.003 A 
ATOM      5  C4  UNL d   1      -1.383  -0.144   1.718  0.00  0.00    -0.005 A 
ATOM      6  C5  UNL d   1      -1.354   0.093   0.345  0.00  0.00     0.003 A 
ATOM      7  C6  UNL d   1      -0.236  -0.276  -0.404  0.00  0.00    -0.001 A 
ENDROOT
TORSDOF 0
ENDMDL
