MODEL 1
REMARK minimizedAffinity -5.38751078
REMARK minimizedRMSD -1
REMARK  0 active torsions:
REMARK  status: ('A' for Active; 'I' for Inactive)
ROOT
ATOM      1  C   UNL d   1      -0.052   0.145  -0.730  0.00  0.00     0.078 C 
ATOM      2  C1  UNL d   1       0.682  -0.635   0.320  0.00  0.00    -0.077 A 
ATOM      3  C2  UNL d   1       1.772  -1.447  -0.016  0.00  0.00    -0.001 A 
ATOM      4  C3  UNL d   1       2.440  -2.175   0.970  0.00  0.00     0.003 A 
ATOM      5  C4  UNL d   1       2.025  -2.099   2.298  0.00  0.00    -0.005 A 
ATOM      6  C5  UNL d   1       0.940  -1.294   2.641  0.00  0.00     0.003 A 
ATOM      7  C6  UNL d   1       0.271  -0.566   1.657  0.00  0.00    -0.001 A 
ENDROOT
TORSDOF 0
ENDMDL
