MODEL 1
REMARK minimizedAffinity -3.3811183
REMARK minimizedRMSD -1
REMARK  0 active torsions:
REMARK  status: ('A' for Active; 'I' for Inactive)
ROOT
ATOM      1  C   UNL d   1      -0.216  -0.016  -0.485  0.00  0.00     0.078 C 
ATOM      2  C1  UNL d   1      -0.431   1.203  -1.332  0.00  0.00    -0.077 A 
ATOM      3  C2  UNL d   1      -1.646   1.415  -1.995  0.00  0.00    -0.001 A 
ATOM      4  C3  UNL d   1      -1.828   2.548  -2.789  0.00  0.00     0.003 A 
ATOM      5  C4  UNL d   1      -0.800   3.479  -2.927  0.00  0.00    -0.005 A 
ATOM      6  C5  UNL d   1       0.413   3.275  -2.273  0.00  0.00     0.003 A 
ATOM      7  C6  UNL d   1       0.598   2.142  -1.479  0.00  0.00    -0.001 A 
ENDROOT
TORSDOF 0
ENDMDL
