MODEL 1
REMARK minimizedAffinity -2.16861224
REMARK minimizedRMSD -1
REMARK  0 active torsions:
REMARK  status: ('A' for Active; 'I' for Inactive)
ROOT
ATOM      1  C   UNL d   1      -0.566   2.150  -0.808  0.00  0.00     0.078 C 
ATOM      2  C1  UNL d   1      -0.540   1.055   0.216  0.00  0.00    -0.077 A 
ATOM      3  C2  UNL d   1      -0.039  -0.214  -0.098  0.00  0.00    -0.001 A 
ATOM      4  C3  UNL d   1      -0.030  -1.227   0.863  0.00  0.00     0.003 A 
ATOM      5  C4  UNL d   1      -0.520  -0.980   2.144  0.00  0.00    -0.005 A 
ATOM      6  C5  UNL d   1      -1.022   0.279   2.465  0.00  0.00     0.003 A 
ATOM      7  C6  UNL d   1      -1.032   1.293   1.505  0.00  0.00    -0.001 A 
ENDROOT
TORSDOF 0
ENDMDL
