MODEL 1
REMARK minimizedAffinity -3.23212242
REMARK minimizedRMSD -1
REMARK  0 active torsions:
REMARK  status: ('A' for Active; 'I' for Inactive)
ROOT
ATOM      1  C   UNL d   1      -0.151   3.030  -2.262  0.00  0.00     0.078 C 
ATOM      2  C1  UNL d   1      -0.453   1.992  -1.224  0.00  0.00    -0.077 A 
ATOM      3  C2  UNL d   1      -0.620   0.647  -1.576  0.00  0.00    -0.001 A 
ATOM      4  C3  UNL d   1      -0.911  -0.308  -0.599  0.00  0.00     0.003 A 
ATOM      5  C4  UNL d   1      -1.039   0.073   0.735  0.00  0.00    -0.005 A 
ATOM      6  C5  UNL d   1      -0.877   1.409   1.094  0.00  0.00     0.003 A 
ATOM      7  C6  UNL d   1      -0.586   2.365   0.120  0.00  0.00    -0.001 A 
ENDROOT
TORSDOF 0
ENDMDL
