MODEL 1
REMARK minimizedAffinity -4.33289003
REMARK minimizedRMSD -1
REMARK  0 active torsions:
REMARK  status: ('A' for Active; 'I' for Inactive)
ROOT
ATOM      1  C   UNL d   1      -0.166  -0.336  -1.041  0.00  0.00     0.078 C 
ATOM      2  C1  UNL d   1       0.487  -1.144   0.041  0.00  0.00    -0.077 A 
ATOM      3  C2  UNL d   1       1.669  -1.855  -0.204  0.00  0.00    -0.001 A 
ATOM      4  C3  UNL d   1       2.261  -2.611   0.809  0.00  0.00     0.003 A 
ATOM      5  C4  UNL d   1       1.677  -2.664   2.074  0.00  0.00    -0.005 A 
ATOM      6  C5  UNL d   1       0.501  -1.962   2.326  0.00  0.00     0.003 A 
ATOM      7  C6  UNL d   1      -0.093  -1.206   1.314  0.00  0.00    -0.001 A 
ENDROOT
TORSDOF 0
ENDMDL
