MODEL 1
REMARK minimizedAffinity -3.90274453
REMARK minimizedRMSD -1
REMARK  0 active torsions:
REMARK  status: ('A' for Active; 'I' for Inactive)
ROOT
ATOM      1  C   UNL d   1      -1.378   0.250   1.160  0.00  0.00     0.078 C 
ATOM      2  C1  UNL d   1      -0.200  -0.649   0.933  0.00  0.00    -0.077 A 
ATOM      3  C2  UNL d   1       0.304  -1.451   1.965  0.00  0.00    -0.001 A 
ATOM      4  C3  UNL d   1       1.408  -2.277   1.742  0.00  0.00     0.003 A 
ATOM      5  C4  UNL d   1       2.017  -2.308   0.489  0.00  0.00    -0.005 A 
ATOM      6  C5  UNL d   1       1.524  -1.512  -0.542  0.00  0.00     0.003 A 
ATOM      7  C6  UNL d   1       0.421  -0.686  -0.322  0.00  0.00    -0.001 A 
ENDROOT
TORSDOF 0
ENDMDL
