MODEL 1
REMARK minimizedAffinity -2.74637985
REMARK minimizedRMSD -1
REMARK  0 active torsions:
REMARK  status: ('A' for Active; 'I' for Inactive)
ROOT
ATOM      1  C   UNL d   1      -1.254   1.723  -2.023  0.00  0.00     0.078 C 
ATOM      2  C1  UNL d   1      -0.973   0.823  -0.857  0.00  0.00    -0.077 A 
ATOM      3  C2  UNL d   1      -1.698   0.939   0.335  0.00  0.00    -0.001 A 
ATOM      4  C3  UNL d   1      -1.418   0.101   1.416  0.00  0.00     0.003 A 
ATOM      5  C4  UNL d   1      -0.413  -0.858   1.316  0.00  0.00    -0.005 A 
ATOM      6  C5  UNL d   1       0.316  -0.979   0.134  0.00  0.00     0.003 A 
ATOM      7  C6  UNL d   1       0.038  -0.142  -0.948  0.00  0.00    -0.001 A 
ENDROOT
TORSDOF 0
ENDMDL
