MODEL 1
REMARK minimizedAffinity -2.1575768
REMARK minimizedRMSD -1
REMARK  0 active torsions:
REMARK  status: ('A' for Active; 'I' for Inactive)
ROOT
ATOM      1  C   UNL d   1      -0.006  -0.038  -0.755  0.00  0.00     0.078 C 
ATOM      2  C1  UNL d   1      -0.276   1.246  -1.481  0.00  0.00    -0.077 A 
ATOM      3  C2  UNL d   1       0.768   2.112  -1.827  0.00  0.00    -0.001 A 
ATOM      4  C3  UNL d   1       0.501   3.308  -2.494  0.00  0.00     0.003 A 
ATOM      5  C4  UNL d   1      -0.810   3.650  -2.819  0.00  0.00    -0.005 A 
ATOM      6  C5  UNL d   1      -1.856   2.796  -2.477  0.00  0.00     0.003 A 
ATOM      7  C6  UNL d   1      -1.591   1.599  -1.810  0.00  0.00    -0.001 A 
ENDROOT
TORSDOF 0
ENDMDL
