MODEL 1
REMARK minimizedAffinity 14.6920357
REMARK minimizedRMSD -1
REMARK  0 active torsions:
REMARK  status: ('A' for Active; 'I' for Inactive)
ROOT
ATOM      1  C   UNL d   1      -1.472   4.375  -6.000  0.00  0.00     0.023 A 
ATOM      2  C1  UNL d   1      -1.740   3.127  -5.437  0.00  0.00     0.003 A 
ATOM      3  C2  UNL d   1      -0.706   2.376  -4.874  0.00  0.00     0.048 A 
ATOM      4  C3  UNL d   1       0.595   2.880  -4.876  0.00  0.00     0.023 A 
ATOM      5  C4  UNL d   1       0.868   4.129  -5.437  0.00  0.00     0.048 A 
ATOM      6  C5  UNL d   1      -0.170   4.875  -6.000  0.00  0.00     0.003 A 
ATOM      7  I   UNL d   1       2.136   1.766  -4.038  0.00  0.00    -0.146 I 
ENDROOT
TORSDOF 0
ENDMDL
