MODEL 1
REMARK minimizedAffinity -1.30823088
REMARK minimizedRMSD -1
REMARK  0 active torsions:
REMARK  status: ('A' for Active; 'I' for Inactive)
ROOT
ATOM      1  C   UNL d   1      -4.080   5.257  -5.999  0.00  0.00     0.023 A 
ATOM      2  C1  UNL d   1      -5.356   4.744  -5.768  0.00  0.00     0.003 A 
ATOM      3  C2  UNL d   1      -5.908   4.794  -4.486  0.00  0.00     0.048 A 
ATOM      4  C3  UNL d   1      -5.179   5.359  -3.441  0.00  0.00     0.023 A 
ATOM      5  C4  UNL d   1      -3.902   5.874  -3.668  0.00  0.00     0.048 A 
ATOM      6  C5  UNL d   1      -3.354   5.822  -4.951  0.00  0.00     0.003 A 
ATOM      7  I   UNL d   1      -5.998   5.434  -1.532  0.00  0.00    -0.146 I 
ENDROOT
TORSDOF 0
ENDMDL
