MODEL 1
REMARK minimizedAffinity -2.85670066
REMARK minimizedRMSD -1
REMARK  0 active torsions:
REMARK  status: ('A' for Active; 'I' for Inactive)
ROOT
ATOM      1  C   UNL d   1      -3.646   2.823  -6.000  0.00  0.00     0.023 A 
ATOM      2  C1  UNL d   1      -4.614   2.266  -5.165  0.00  0.00     0.003 A 
ATOM      3  C2  UNL d   1      -5.290   3.069  -4.244  0.00  0.00     0.048 A 
ATOM      4  C3  UNL d   1      -4.993   4.429  -4.164  0.00  0.00     0.023 A 
ATOM      5  C4  UNL d   1      -4.025   4.991  -4.998  0.00  0.00     0.048 A 
ATOM      6  C5  UNL d   1      -3.351   4.184  -5.917  0.00  0.00     0.003 A 
ATOM      7  I   UNL d   1      -5.998   5.627  -2.795  0.00  0.00    -0.146 I 
ENDROOT
TORSDOF 0
ENDMDL
