MODEL 1
REMARK minimizedAffinity -3.34662008
REMARK minimizedRMSD -1
REMARK  0 active torsions:
REMARK  status: ('A' for Active; 'I' for Inactive)
ROOT
ATOM      1  C   UNL d   1      -5.252   2.257  -1.865  0.00  0.00     0.023 A 
ATOM      2  C1  UNL d   1      -5.999   3.424  -1.703  0.00  0.00     0.003 A 
ATOM      3  C2  UNL d   1      -5.814   4.500  -2.574  0.00  0.00     0.048 A 
ATOM      4  C3  UNL d   1      -4.883   4.401  -3.607  0.00  0.00     0.023 A 
ATOM      5  C4  UNL d   1      -4.134   3.234  -3.774  0.00  0.00     0.048 A 
ATOM      6  C5  UNL d   1      -4.321   2.162  -2.900  0.00  0.00     0.003 A 
ATOM      7  I   UNL d   1      -4.607   6.000  -4.905  0.00  0.00    -0.146 I 
ENDROOT
TORSDOF 0
ENDMDL
