MODEL 1
REMARK minimizedAffinity 5.49097204
REMARK minimizedRMSD -1
REMARK  0 active torsions:
REMARK  status: ('A' for Active; 'I' for Inactive)
ROOT
ATOM      1  C   UNL d   1       5.641   4.139   0.019  0.00  0.00     0.023 A 
ATOM      2  C1  UNL d   1       5.989   5.464   0.282  0.00  0.00     0.003 A 
ATOM      3  C2  UNL d   1       5.791   6.000   1.556  0.00  0.00     0.048 A 
ATOM      4  C3  UNL d   1       5.246   5.204   2.563  0.00  0.00     0.023 A 
ATOM      5  C4  UNL d   1       4.898   3.878   2.305  0.00  0.00     0.048 A 
ATOM      6  C5  UNL d   1       5.096   3.347   1.029  0.00  0.00     0.003 A 
ATOM      7  I   UNL d   1       4.951   5.999   4.461  0.00  0.00    -0.146 I 
ENDROOT
TORSDOF 0
ENDMDL
