MODEL 1
REMARK minimizedAffinity 12.8560247
REMARK minimizedRMSD -1
REMARK  0 active torsions:
REMARK  status: ('A' for Active; 'I' for Inactive)
ROOT
ATOM      1  C   UNL d   1      -1.602  -5.820  -2.025  0.00  0.00     0.023 A 
ATOM      2  C1  UNL d   1      -2.238  -5.212  -3.108  0.00  0.00     0.003 A 
ATOM      3  C2  UNL d   1      -3.500  -4.638  -2.945  0.00  0.00     0.048 A 
ATOM      4  C3  UNL d   1      -4.121  -4.674  -1.697  0.00  0.00     0.023 A 
ATOM      5  C4  UNL d   1      -3.488  -5.280  -0.611  0.00  0.00     0.048 A 
ATOM      6  C5  UNL d   1      -2.226  -5.853  -0.778  0.00  0.00     0.003 A 
ATOM      7  I   UNL d   1      -6.000  -3.820  -1.453  0.00  0.00    -0.146 I 
ENDROOT
TORSDOF 0
ENDMDL
