MODEL 1
REMARK minimizedAffinity -1.32352996
REMARK minimizedRMSD -1
REMARK  0 active torsions:
REMARK  status: ('A' for Active; 'I' for Inactive)
ROOT
ATOM      1  C   UNL d   1       5.514   1.009  -5.253  0.00  0.00     0.023 A 
ATOM      2  C1  UNL d   1       5.470   0.701  -3.893  0.00  0.00     0.003 A 
ATOM      3  C2  UNL d   1       4.417   1.168  -3.104  0.00  0.00     0.048 A 
ATOM      4  C3  UNL d   1       3.410   1.941  -3.682  0.00  0.00     0.023 A 
ATOM      5  C4  UNL d   1       3.449   2.251  -5.042  0.00  0.00     0.048 A 
ATOM      6  C5  UNL d   1       4.505   1.783  -5.827  0.00  0.00     0.003 A 
ATOM      7  I   UNL d   1       1.841   2.637  -2.509  0.00  0.00    -0.146 I 
ENDROOT
TORSDOF 0
ENDMDL
