MODEL 1
REMARK minimizedAffinity -1.83600998
REMARK minimizedRMSD -1
REMARK  0 active torsions:
REMARK  status: ('A' for Active; 'I' for Inactive)
ROOT
ATOM      1  C   UNL d   1      -5.990   1.063   0.701  0.00  0.00     0.023 A 
ATOM      2  C1  UNL d   1      -5.999   2.362   1.208  0.00  0.00     0.003 A 
ATOM      3  C2  UNL d   1      -6.000   3.453   0.336  0.00  0.00     0.048 A 
ATOM      4  C3  UNL d   1      -5.993   3.237  -1.041  0.00  0.00     0.023 A 
ATOM      5  C4  UNL d   1      -5.984   1.939  -1.553  0.00  0.00     0.048 A 
ATOM      6  C5  UNL d   1      -5.982   0.851  -0.678  0.00  0.00     0.003 A 
ATOM      7  I   UNL d   1      -5.994   4.859  -2.341  0.00  0.00    -0.146 I 
ENDROOT
TORSDOF 0
ENDMDL
