MODEL 1
REMARK minimizedAffinity 7.99433804
REMARK minimizedRMSD -1
REMARK  0 active torsions:
REMARK  status: ('A' for Active; 'I' for Inactive)
ROOT
ATOM      1  C   UNL d   1       3.699   4.926  -1.429  0.00  0.00     0.023 A 
ATOM      2  C1  UNL d   1       3.835   3.624  -0.948  0.00  0.00     0.003 A 
ATOM      3  C2  UNL d   1       4.496   3.391   0.260  0.00  0.00     0.048 A 
ATOM      4  C3  UNL d   1       5.016   4.464   0.982  0.00  0.00     0.023 A 
ATOM      5  C4  UNL d   1       4.881   5.769   0.505  0.00  0.00     0.048 A 
ATOM      6  C5  UNL d   1       4.221   5.997  -0.704  0.00  0.00     0.003 A 
ATOM      7  I   UNL d   1       6.000   4.120   2.781  0.00  0.00    -0.146 I 
ENDROOT
TORSDOF 0
ENDMDL
