MODEL 1
REMARK minimizedAffinity 10.0540819
REMARK minimizedRMSD -1
REMARK  0 active torsions:
REMARK  status: ('A' for Active; 'I' for Inactive)
ROOT
ATOM      1  C   UNL d   1       1.262   3.620  -5.527  0.00  0.00     0.023 A 
ATOM      2  C1  UNL d   1       1.166   4.930  -5.999  0.00  0.00     0.003 A 
ATOM      3  C2  UNL d   1      -0.048   5.614  -5.922  0.00  0.00     0.048 A 
ATOM      4  C3  UNL d   1      -1.163   4.983  -5.371  0.00  0.00     0.023 A 
ATOM      5  C4  UNL d   1      -1.072   3.674  -4.896  0.00  0.00     0.048 A 
ATOM      6  C5  UNL d   1       0.144   2.993  -4.976  0.00  0.00     0.003 A 
ATOM      7  I   UNL d   1      -2.973   6.000  -5.255  0.00  0.00    -0.146 I 
ENDROOT
TORSDOF 0
ENDMDL
