MODEL 1
REMARK minimizedAffinity 0.694655061
REMARK minimizedRMSD -1
REMARK  0 active torsions:
REMARK  status: ('A' for Active; 'I' for Inactive)
ROOT
ATOM      1  C   UNL d   1      -5.998   5.508  -4.379  0.00  0.00     0.023 A 
ATOM      2  C1  UNL d   1      -5.025   5.299  -3.401  0.00  0.00     0.003 A 
ATOM      3  C2  UNL d   1      -3.673   5.439  -3.719  0.00  0.00     0.048 A 
ATOM      4  C3  UNL d   1      -3.300   5.789  -5.016  0.00  0.00     0.023 A 
ATOM      5  C4  UNL d   1      -4.269   6.000  -5.997  0.00  0.00     0.048 A 
ATOM      6  C5  UNL d   1      -5.620   5.858  -5.676  0.00  0.00     0.003 A 
ATOM      7  I   UNL d   1      -1.287   5.998  -5.491  0.00  0.00    -0.146 I 
ENDROOT
TORSDOF 0
ENDMDL
