MODEL 1
REMARK minimizedAffinity 2.22261333
REMARK minimizedRMSD -1
REMARK  0 active torsions:
REMARK  status: ('A' for Active; 'I' for Inactive)
ROOT
ATOM      1  C   UNL d   1      -5.984   5.153  -3.620  0.00  0.00     0.023 A 
ATOM      2  C1  UNL d   1      -5.969   3.761  -3.706  0.00  0.00     0.003 A 
ATOM      3  C2  UNL d   1      -5.968   2.989  -2.542  0.00  0.00     0.048 A 
ATOM      4  C3  UNL d   1      -5.984   3.615  -1.296  0.00  0.00     0.023 A 
ATOM      5  C4  UNL d   1      -6.000   5.008  -1.206  0.00  0.00     0.048 A 
ATOM      6  C5  UNL d   1      -6.000   5.776  -2.372  0.00  0.00     0.003 A 
ATOM      7  I   UNL d   1      -5.983   2.468   0.437  0.00  0.00    -0.146 I 
ENDROOT
TORSDOF 0
ENDMDL
