MODEL 1
REMARK minimizedAffinity 2.49106574
REMARK minimizedRMSD -1
REMARK  0 active torsions:
REMARK  status: ('A' for Active; 'I' for Inactive)
ROOT
ATOM      1  C   UNL d   1       5.900   3.996  -5.996  0.00  0.00     0.023 A 
ATOM      2  C1  UNL d   1       4.926   2.998  -5.999  0.00  0.00     0.003 A 
ATOM      3  C2  UNL d   1       3.572   3.343  -5.998  0.00  0.00     0.048 A 
ATOM      4  C3  UNL d   1       3.201   4.687  -5.995  0.00  0.00     0.023 A 
ATOM      5  C4  UNL d   1       4.173   5.688  -5.992  0.00  0.00     0.048 A 
ATOM      6  C5  UNL d   1       5.525   5.339  -5.992  0.00  0.00     0.003 A 
ATOM      7  I   UNL d   1       1.187   5.201  -5.994  0.00  0.00    -0.146 I 
ENDROOT
TORSDOF 0
ENDMDL
