MODEL 1
REMARK minimizedAffinity 12.704915
REMARK minimizedRMSD -1
REMARK  0 active torsions:
REMARK  status: ('A' for Active; 'I' for Inactive)
ROOT
ATOM      1  C   UNL d   1       5.852   4.056  -5.989  0.00  0.00     0.023 A 
ATOM      2  C1  UNL d   1       5.135   2.859  -5.985  0.00  0.00     0.003 A 
ATOM      3  C2  UNL d   1       3.739   2.880  -5.987  0.00  0.00     0.048 A 
ATOM      4  C3  UNL d   1       3.066   4.101  -5.994  0.00  0.00     0.023 A 
ATOM      5  C4  UNL d   1       3.778   5.301  -5.999  0.00  0.00     0.048 A 
ATOM      6  C5  UNL d   1       5.174   5.275  -5.996  0.00  0.00     0.003 A 
ATOM      7  I   UNL d   1       0.988   4.134  -5.997  0.00  0.00    -0.146 I 
ENDROOT
TORSDOF 0
ENDMDL
