MODEL 1
REMARK minimizedAffinity 1.09590244
REMARK minimizedRMSD -1
REMARK  0 active torsions:
REMARK  status: ('A' for Active; 'I' for Inactive)
ROOT
ATOM      1  C   UNL d   1      -4.844   4.616  -5.993  0.00  0.00     0.023 A 
ATOM      2  C1  UNL d   1      -4.065   3.459  -5.995  0.00  0.00     0.003 A 
ATOM      3  C2  UNL d   1      -2.672   3.553  -5.995  0.00  0.00     0.048 A 
ATOM      4  C3  UNL d   1      -2.064   4.808  -5.991  0.00  0.00     0.023 A 
ATOM      5  C4  UNL d   1      -2.839   5.969  -5.988  0.00  0.00     0.048 A 
ATOM      6  C5  UNL d   1      -4.232   5.869  -5.989  0.00  0.00     0.003 A 
ATOM      7  I   UNL d   1       0.010   4.951  -5.990  0.00  0.00    -0.146 I 
ENDROOT
TORSDOF 0
ENDMDL
