MODEL 1
REMARK minimizedAffinity 9.1797514
REMARK minimizedRMSD -1
REMARK  0 active torsions:
REMARK  status: ('A' for Active; 'I' for Inactive)
ROOT
ATOM      1  C   UNL d   1       2.911  -1.427  -1.057  0.00  0.00     0.023 A 
ATOM      2  C1  UNL d   1       1.834  -0.894  -1.765  0.00  0.00     0.003 A 
ATOM      3  C2  UNL d   1       0.616  -0.668  -1.119  0.00  0.00     0.048 A 
ATOM      4  C3  UNL d   1       0.484  -0.976   0.234  0.00  0.00     0.023 A 
ATOM      5  C4  UNL d   1       1.559  -1.509   0.946  0.00  0.00     0.048 A 
ATOM      6  C5  UNL d   1       2.774  -1.734   0.296  0.00  0.00     0.003 A 
ATOM      7  I   UNL d   1      -1.327  -0.641   1.197  0.00  0.00    -0.146 I 
ENDROOT
TORSDOF 0
ENDMDL
