MODEL 1
REMARK minimizedAffinity 7.37600374
REMARK minimizedRMSD -1
REMARK  0 active torsions:
REMARK  status: ('A' for Active; 'I' for Inactive)
ROOT
ATOM      1  C   UNL d   1      -1.165  -1.765   2.045  0.00  0.00     0.023 A 
ATOM      2  C1  UNL d   1      -1.816  -0.564   2.327  0.00  0.00     0.003 A 
ATOM      3  C2  UNL d   1      -1.368   0.627   1.751  0.00  0.00     0.048 A 
ATOM      4  C3  UNL d   1      -0.268   0.610   0.894  0.00  0.00     0.023 A 
ATOM      5  C4  UNL d   1       0.386  -0.590   0.609  0.00  0.00     0.048 A 
ATOM      6  C5  UNL d   1      -0.065  -1.778   1.187  0.00  0.00     0.003 A 
ATOM      7  I   UNL d   1       0.401   2.381   0.037  0.00  0.00    -0.146 I 
ENDROOT
TORSDOF 0
ENDMDL
