MODEL 1
REMARK minimizedAffinity -3.69768739
REMARK minimizedRMSD -1
REMARK  2 active torsions:
REMARK  status: ('A' for Active; 'I' for Inactive)
REMARK    1  A    between atoms: C1_2  and  C2_3 
REMARK    2  A    between atoms: C2_3  and  C3_4 
ROOT
ATOM      1  C3  UNL d   1       3.303   2.428   5.075  0.00  0.00    -0.075 A 
ATOM      2  C4  UNL d   1       3.139   3.627   4.367  0.00  0.00     0.002 A 
ATOM      3  C5  UNL d   1       4.089   4.644   4.465  0.00  0.00     0.002 A 
ATOM      4  C6  UNL d   1       5.208   4.479   5.278  0.00  0.00    -0.004 A 
ATOM      5  C7  UNL d   1       5.373   3.299   6.000  0.00  0.00     0.002 A 
ATOM      6  C8  UNL d   1       4.426   2.278   5.900  0.00  0.00     0.002 A 
ENDROOT
BRANCH   1   7
ATOM      7  C2  UNL d   1       2.293   1.313   4.950  0.00  0.00     0.056 C 
BRANCH   7   8
ATOM      8  C1  UNL d   1       1.942   0.947   3.504  0.00  0.00     0.007 C 
ATOM      9  C   UNL d   1       0.828  -0.085   3.399  0.00  0.00     0.009 C 
ENDBRANCH   7   8
ENDBRANCH   1   7
TORSDOF 2
ENDMDL
