MODEL 1
REMARK minimizedAffinity -2.56724477
REMARK minimizedRMSD -1
REMARK  2 active torsions:
REMARK  status: ('A' for Active; 'I' for Inactive)
REMARK    1  A    between atoms: C1_2  and  C2_3 
REMARK    2  A    between atoms: C2_3  and  C3_4 
ROOT
ATOM      1  C3  UNL d   1       2.918  -1.004  -0.058  0.00  0.00    -0.075 A 
ATOM      2  C4  UNL d   1       2.647  -0.062   0.945  0.00  0.00     0.002 A 
ATOM      3  C5  UNL d   1       3.179   1.226   0.869  0.00  0.00     0.002 A 
ATOM      4  C6  UNL d   1       3.994   1.585  -0.202  0.00  0.00    -0.004 A 
ATOM      5  C7  UNL d   1       4.283   0.652  -1.196  0.00  0.00     0.002 A 
ATOM      6  C8  UNL d   1       3.749  -0.636  -1.125  0.00  0.00     0.002 A 
ENDROOT
BRANCH   1   7
ATOM      7  C2  UNL d   1       2.322  -2.390   0.003  0.00  0.00     0.056 C 
BRANCH   7   8
ATOM      8  C1  UNL d   1       1.066  -2.567  -0.858  0.00  0.00     0.007 C 
ATOM      9  C   UNL d   1       0.184  -3.721  -0.402  0.00  0.00     0.009 C 
ENDBRANCH   7   8
ENDBRANCH   1   7
TORSDOF 2
ENDMDL
