MODEL 1
REMARK minimizedAffinity 2.49564075
REMARK minimizedRMSD -1
REMARK  2 active torsions:
REMARK  status: ('A' for Active; 'I' for Inactive)
REMARK    1  A    between atoms: C1_2  and  C2_3 
REMARK    2  A    between atoms: C2_3  and  C3_4 
ROOT
ATOM      1  C3  UNL d   1       4.160   3.572   4.072  0.00  0.00    -0.075 A 
ATOM      2  C4  UNL d   1       4.903   3.584   5.262  0.00  0.00     0.002 A 
ATOM      3  C5  UNL d   1       5.286   4.792   5.845  0.00  0.00     0.002 A 
ATOM      4  C6  UNL d   1       4.941   6.000   5.244  0.00  0.00    -0.004 A 
ATOM      5  C7  UNL d   1       4.218   6.000   4.053  0.00  0.00     0.002 A 
ATOM      6  C8  UNL d   1       3.829   4.793   3.469  0.00  0.00     0.002 A 
ENDROOT
BRANCH   1   7
ATOM      7  C2  UNL d   1       3.717   2.269   3.451  0.00  0.00     0.056 C 
BRANCH   7   8
ATOM      8  C1  UNL d   1       2.267   1.888   3.768  0.00  0.00     0.007 C 
ATOM      9  C   UNL d   1       2.141   0.934   4.949  0.00  0.00     0.009 C 
ENDBRANCH   7   8
ENDBRANCH   1   7
TORSDOF 2
ENDMDL
