MODEL 1
REMARK minimizedAffinity -1.61922014
REMARK minimizedRMSD -1
REMARK  2 active torsions:
REMARK  status: ('A' for Active; 'I' for Inactive)
REMARK    1  A    between atoms: C1_2  and  C2_3 
REMARK    2  A    between atoms: C2_3  and  C3_4 
ROOT
ATOM      1  C3  UNL d   1       3.457   3.729   5.946  0.00  0.00    -0.075 A 
ATOM      2  C4  UNL d   1       3.241   5.114   5.992  0.00  0.00     0.002 A 
ATOM      3  C5  UNL d   1       4.319   6.000   6.000  0.00  0.00     0.002 A 
ATOM      4  C6  UNL d   1       5.624   5.513   5.972  0.00  0.00    -0.004 A 
ATOM      5  C7  UNL d   1       5.851   4.138   5.943  0.00  0.00     0.002 A 
ATOM      6  C8  UNL d   1       4.773   3.250   5.931  0.00  0.00     0.002 A 
ENDROOT
BRANCH   1   7
ATOM      7  C2  UNL d   1       2.294   2.767   5.908  0.00  0.00     0.056 C 
BRANCH   7   8
ATOM      8  C1  UNL d   1       2.577   1.477   5.130  0.00  0.00     0.007 C 
ATOM      9  C   UNL d   1       3.180   0.377   5.992  0.00  0.00     0.009 C 
ENDBRANCH   7   8
ENDBRANCH   1   7
TORSDOF 2
ENDMDL
