MODEL 1
REMARK minimizedAffinity -5.16507816
REMARK minimizedRMSD -1
REMARK  2 active torsions:
REMARK  status: ('A' for Active; 'I' for Inactive)
REMARK    1  A    between atoms: C1_2  and  C2_3 
REMARK    2  A    between atoms: C2_3  and  C3_4 
ROOT
ATOM      1  C3  UNL d   1       3.402   4.864   4.595  0.00  0.00    -0.075 A 
ATOM      2  C4  UNL d   1       4.626   5.349   5.078  0.00  0.00     0.002 A 
ATOM      3  C5  UNL d   1       5.567   4.477   5.625  0.00  0.00     0.002 A 
ATOM      4  C6  UNL d   1       5.293   3.113   5.706  0.00  0.00    -0.004 A 
ATOM      5  C7  UNL d   1       4.073   2.623   5.244  0.00  0.00     0.002 A 
ATOM      6  C8  UNL d   1       3.132   3.493   4.692  0.00  0.00     0.002 A 
ENDROOT
BRANCH   1   7
ATOM      7  C2  UNL d   1       2.391   5.799   3.974  0.00  0.00     0.056 C 
BRANCH   7   8
ATOM      8  C1  UNL d   1       1.071   5.124   3.589  0.00  0.00     0.007 C 
ATOM      9  C   UNL d   1      -0.056   5.402   4.575  0.00  0.00     0.009 C 
ENDBRANCH   7   8
ENDBRANCH   1   7
TORSDOF 2
ENDMDL
