MODEL 1
REMARK minimizedAffinity -4.89886379
REMARK minimizedRMSD -1
REMARK  2 active torsions:
REMARK  status: ('A' for Active; 'I' for Inactive)
REMARK    1  A    between atoms: C1_2  and  C2_3 
REMARK    2  A    between atoms: C2_3  and  C3_4 
ROOT
ATOM      1  C3  UNL d   1       2.645   4.375   3.422  0.00  0.00    -0.075 A 
ATOM      2  C4  UNL d   1       2.945   3.112   3.954  0.00  0.00     0.002 A 
ATOM      3  C5  UNL d   1       4.035   2.944   4.808  0.00  0.00     0.002 A 
ATOM      4  C6  UNL d   1       4.843   4.032   5.133  0.00  0.00    -0.004 A 
ATOM      5  C7  UNL d   1       4.564   5.287   4.598  0.00  0.00     0.002 A 
ATOM      6  C8  UNL d   1       3.471   5.459   3.746  0.00  0.00     0.002 A 
ENDROOT
BRANCH   1   7
ATOM      7  C2  UNL d   1       1.449   4.569   2.520  0.00  0.00     0.056 C 
BRANCH   7   8
ATOM      8  C1  UNL d   1       0.311   5.371   3.158  0.00  0.00     0.007 C 
ATOM      9  C   UNL d   1       0.279   5.266   4.677  0.00  0.00     0.009 C 
ENDBRANCH   7   8
ENDBRANCH   1   7
TORSDOF 2
ENDMDL
