MODEL 1
REMARK minimizedAffinity -3.89248157
REMARK minimizedRMSD -1
REMARK  2 active torsions:
REMARK  status: ('A' for Active; 'I' for Inactive)
REMARK    1  A    between atoms: C1_2  and  C2_3 
REMARK    2  A    between atoms: C2_3  and  C3_4 
ROOT
ATOM      1  C3  UNL d   1       3.191   4.428   4.902  0.00  0.00    -0.075 A 
ATOM      2  C4  UNL d   1       2.295   4.261   5.968  0.00  0.00     0.002 A 
ATOM      3  C5  UNL d   1       1.039   4.867   5.939  0.00  0.00     0.002 A 
ATOM      4  C6  UNL d   1       0.667   5.655   4.852  0.00  0.00    -0.004 A 
ATOM      5  C7  UNL d   1       1.556   5.841   3.795  0.00  0.00     0.002 A 
ATOM      6  C8  UNL d   1       2.811   5.232   3.819  0.00  0.00     0.002 A 
ENDROOT
BRANCH   1   7
ATOM      7  C2  UNL d   1       4.540   3.750   4.914  0.00  0.00     0.056 C 
BRANCH   7   8
ATOM      8  C1  UNL d   1       5.489   4.268   6.000  0.00  0.00     0.007 C 
ATOM      9  C   UNL d   1       5.635   5.784   5.997  0.00  0.00     0.009 C 
ENDBRANCH   7   8
ENDBRANCH   1   7
TORSDOF 2
ENDMDL
