MODEL 1
REMARK minimizedAffinity 0.783545673
REMARK minimizedRMSD -1
REMARK  2 active torsions:
REMARK  status: ('A' for Active; 'I' for Inactive)
REMARK    1  A    between atoms: C1_2  and  C2_3 
REMARK    2  A    between atoms: C2_3  and  C3_4 
ROOT
ATOM      1  C3  UNL d   1       2.584   4.249   5.474  0.00  0.00    -0.075 A 
ATOM      2  C4  UNL d   1       3.632   5.168   5.631  0.00  0.00     0.002 A 
ATOM      3  C5  UNL d   1       4.900   4.891   5.119  0.00  0.00     0.002 A 
ATOM      4  C6  UNL d   1       5.139   3.690   4.455  0.00  0.00    -0.004 A 
ATOM      5  C7  UNL d   1       4.109   2.762   4.308  0.00  0.00     0.002 A 
ATOM      6  C8  UNL d   1       2.839   3.039   4.815  0.00  0.00     0.002 A 
ENDROOT
BRANCH   1   7
ATOM      7  C2  UNL d   1       1.202   4.557   6.000  0.00  0.00     0.056 C 
BRANCH   7   8
ATOM      8  C1  UNL d   1       0.510   5.725   5.290  0.00  0.00     0.007 C 
ATOM      9  C   UNL d   1       0.802   5.777   3.796  0.00  0.00     0.009 C 
ENDBRANCH   7   8
ENDBRANCH   1   7
TORSDOF 2
ENDMDL
