MODEL 1
REMARK minimizedAffinity 5.30395174
REMARK minimizedRMSD -1
REMARK  2 active torsions:
REMARK  status: ('A' for Active; 'I' for Inactive)
REMARK    1  A    between atoms: C1_2  and  C2_3 
REMARK    2  A    between atoms: C2_3  and  C3_4 
ROOT
ATOM      1  C3  UNL d   1       3.693   3.054   5.282  0.00  0.00    -0.075 A 
ATOM      2  C4  UNL d   1       4.245   4.124   6.000  0.00  0.00     0.002 A 
ATOM      3  C5  UNL d   1       4.838   5.195   5.331  0.00  0.00     0.002 A 
ATOM      4  C6  UNL d   1       4.895   5.205   3.939  0.00  0.00    -0.004 A 
ATOM      5  C7  UNL d   1       4.364   4.139   3.216  0.00  0.00     0.002 A 
ATOM      6  C8  UNL d   1       3.767   3.068   3.883  0.00  0.00     0.002 A 
ENDROOT
BRANCH   1   7
ATOM      7  C2  UNL d   1       3.024   1.906   5.999  0.00  0.00     0.056 C 
BRANCH   7   8
ATOM      8  C1  UNL d   1       2.998   0.600   5.198  0.00  0.00     0.007 C 
ATOM      9  C   UNL d   1       1.681   0.367   4.470  0.00  0.00     0.009 C 
ENDBRANCH   7   8
ENDBRANCH   1   7
TORSDOF 2
ENDMDL
