MODEL 1
REMARK minimizedAffinity 1.41530764
REMARK minimizedRMSD -1
REMARK  1 active torsions:
REMARK  status: ('A' for Active; 'I' for Inactive)
REMARK    1  A    between atoms: C3_4  and  O_7 
ROOT
ATOM      1  C   UNL d   1      -4.561   0.775  -4.565  0.00  0.00    -0.033 A 
ATOM      2  C1  UNL d   1      -3.966   0.200  -3.440  0.00  0.00     0.039 A 
ATOM      3  C2  UNL d   1      -2.986  -0.782  -3.592  0.00  0.00    -0.080 A 
ATOM      4  C3  UNL d   1      -2.609  -1.179  -4.872  0.00  0.00     0.150 A 
ATOM      5  C4  UNL d   1      -3.194  -0.607  -5.997  0.00  0.00    -0.007 A 
ATOM      6  C5  UNL d   1      -4.174   0.373  -5.843  0.00  0.00     0.039 A 
ENDROOT
BRANCH   4   7
ATOM      7  O   UNL d   1      -1.659  -2.137  -5.071  0.00  0.00    -0.526 OA
ATOM      8  H5  UNL d   1      -1.364  -2.462  -4.204  0.00  0.00     0.418 HD
ENDBRANCH   4   7
TORSDOF 1
ENDMDL
