MODEL 1
REMARK minimizedAffinity -3.24124289
REMARK minimizedRMSD -1
REMARK  1 active torsions:
REMARK  status: ('A' for Active; 'I' for Inactive)
REMARK    1  A    between atoms: C3_4  and  O_7 
ROOT
ATOM      1  C   UNL d   1      -4.488   0.570  -5.999  0.00  0.00    -0.033 A 
ATOM      2  C1  UNL d   1      -5.343  -0.187  -5.197  0.00  0.00     0.039 A 
ATOM      3  C2  UNL d   1      -4.843  -0.862  -4.082  0.00  0.00    -0.080 A 
ATOM      4  C3  UNL d   1      -3.487  -0.771  -3.780  0.00  0.00     0.150 A 
ATOM      5  C4  UNL d   1      -2.629  -0.016  -4.572  0.00  0.00    -0.007 A 
ATOM      6  C5  UNL d   1      -3.131   0.657  -5.686  0.00  0.00     0.039 A 
ENDROOT
BRANCH   4   7
ATOM      7  O   UNL d   1      -2.952  -1.417  -2.705  0.00  0.00    -0.526 OA
ATOM      8  H5  UNL d   1      -3.657  -1.922  -2.267  0.00  0.00     0.418 HD
ENDBRANCH   4   7
TORSDOF 1
ENDMDL
