MODEL 1
REMARK minimizedAffinity -0.625098169
REMARK minimizedRMSD -1
REMARK  1 active torsions:
REMARK  status: ('A' for Active; 'I' for Inactive)
REMARK    1  A    between atoms: C3_4  and  O_7 
ROOT
ATOM      1  C   UNL d   1       3.475  -3.194   0.732  0.00  0.00    -0.033 A 
ATOM      2  C1  UNL d   1       2.257  -2.609   0.383  0.00  0.00     0.039 A 
ATOM      3  C2  UNL d   1       2.208  -1.265   0.008  0.00  0.00    -0.080 A 
ATOM      4  C3  UNL d   1       3.383  -0.518  -0.014  0.00  0.00     0.150 A 
ATOM      5  C4  UNL d   1       4.601  -1.096   0.329  0.00  0.00    -0.007 A 
ATOM      6  C5  UNL d   1       4.647  -2.438   0.704  0.00  0.00     0.039 A 
ENDROOT
BRANCH   4   7
ATOM      7  O   UNL d   1       3.384   0.798  -0.368  0.00  0.00    -0.526 OA
ATOM      8  H5  UNL d   1       2.469   1.068  -0.552  0.00  0.00     0.418 HD
ENDBRANCH   4   7
TORSDOF 1
ENDMDL
