MODEL 1
REMARK minimizedAffinity 2.11942554
REMARK minimizedRMSD -1
REMARK  1 active torsions:
REMARK  status: ('A' for Active; 'I' for Inactive)
REMARK    1  A    between atoms: C3_4  and  O_7 
ROOT
ATOM      1  C   UNL d   1       5.218  -4.553   5.999  0.00  0.00    -0.033 A 
ATOM      2  C1  UNL d   1       4.916  -5.788   5.422  0.00  0.00     0.039 A 
ATOM      3  C2  UNL d   1       4.558  -5.862   4.075  0.00  0.00    -0.080 A 
ATOM      4  C3  UNL d   1       4.506  -4.695   3.316  0.00  0.00     0.150 A 
ATOM      5  C4  UNL d   1       4.810  -3.462   3.884  0.00  0.00    -0.007 A 
ATOM      6  C5  UNL d   1       5.167  -3.390   5.230  0.00  0.00     0.039 A 
ENDROOT
BRANCH   4   7
ATOM      7  O   UNL d   1       4.157  -4.717   1.999  0.00  0.00    -0.526 OA
ATOM      8  H5  UNL d   1       3.947  -5.633   1.751  0.00  0.00     0.418 HD
ENDBRANCH   4   7
TORSDOF 1
ENDMDL
