MODEL 1
REMARK minimizedAffinity -3.67602706
REMARK minimizedRMSD -1
REMARK  1 active torsions:
REMARK  status: ('A' for Active; 'I' for Inactive)
REMARK    1  A    between atoms: C3_4  and  O_7 
ROOT
ATOM      1  C   UNL d   1      -3.816   0.529  -5.999  0.00  0.00    -0.033 A 
ATOM      2  C1  UNL d   1      -2.606  -0.084  -5.667  0.00  0.00     0.039 A 
ATOM      3  C2  UNL d   1      -2.526  -0.912  -4.546  0.00  0.00    -0.080 A 
ATOM      4  C3  UNL d   1      -3.661  -1.119  -3.767  0.00  0.00     0.150 A 
ATOM      5  C4  UNL d   1      -4.870  -0.515  -4.094  0.00  0.00    -0.007 A 
ATOM      6  C5  UNL d   1      -4.949   0.312  -5.214  0.00  0.00     0.039 A 
ENDROOT
BRANCH   4   7
ATOM      7  O   UNL d   1      -3.630  -1.915  -2.661  0.00  0.00    -0.526 OA
ATOM      8  H5  UNL d   1      -2.722  -2.242  -2.542  0.00  0.00     0.418 HD
ENDBRANCH   4   7
TORSDOF 1
ENDMDL
