MODEL 1
REMARK minimizedAffinity -0.166649953
REMARK minimizedRMSD -1
REMARK  1 active torsions:
REMARK  status: ('A' for Active; 'I' for Inactive)
REMARK    1  A    between atoms: C1_2  and  C2_3 
ROOT
ATOM      1  C2  UNL d   1      -0.397  -2.573   3.651  0.00  0.00    -0.073 A 
ATOM      2  C3  UNL d   1      -1.607  -1.967   4.008  0.00  0.00    -0.002 A 
ATOM      3  C4  UNL d   1      -2.131  -0.931   3.234  0.00  0.00     0.004 A 
ATOM      4  C5  UNL d   1      -1.456  -0.495   2.094  0.00  0.00    -0.004 A 
ATOM      5  C6  UNL d   1      -0.252  -1.096   1.715  0.00  0.00    -0.075 A 
ATOM      6  C7  UNL d   1       0.488  -0.638   0.492  0.00  0.00     0.076 C 
ATOM      7  C8  UNL d   1       0.270  -2.134   2.498  0.00  0.00     0.001 A 
ENDROOT
BRANCH   1   8
ATOM      8  C1  UNL d   1       0.170  -3.696   4.480  0.00  0.00     0.053 C 
ATOM      9  C   UNL d   1       1.687  -3.753   4.402  0.00  0.00     0.018 C 
ENDBRANCH   1   8
TORSDOF 1
ENDMDL
