MODEL 1
REMARK minimizedAffinity 3.99480462
REMARK minimizedRMSD -1
REMARK  1 active torsions:
REMARK  status: ('A' for Active; 'I' for Inactive)
REMARK    1  A    between atoms: C1_2  and  C2_3 
ROOT
ATOM      1  C2  UNL d   1       1.848  -1.757   1.085  0.00  0.00    -0.073 A 
ATOM      2  C3  UNL d   1       1.483  -0.445   0.762  0.00  0.00    -0.002 A 
ATOM      3  C4  UNL d   1       2.455   0.552   0.660  0.00  0.00     0.004 A 
ATOM      4  C5  UNL d   1       3.799   0.246   0.873  0.00  0.00    -0.004 A 
ATOM      5  C6  UNL d   1       4.184  -1.061   1.185  0.00  0.00    -0.075 A 
ATOM      6  C7  UNL d   1       5.626  -1.405   1.419  0.00  0.00     0.076 C 
ATOM      7  C8  UNL d   1       3.203  -2.056   1.288  0.00  0.00     0.001 A 
ENDROOT
BRANCH   1   8
ATOM      8  C1  UNL d   1       0.803  -2.838   1.190  0.00  0.00     0.053 C 
ATOM      9  C   UNL d   1       0.175  -2.891   2.574  0.00  0.00     0.018 C 
ENDBRANCH   1   8
TORSDOF 1
ENDMDL
