MODEL 1
REMARK minimizedAffinity 4.51862955
REMARK minimizedRMSD -1
REMARK  1 active torsions:
REMARK  status: ('A' for Active; 'I' for Inactive)
REMARK    1  A    between atoms: C1_2  and  C2_3 
ROOT
ATOM      1  C2  UNL d   1       0.543  -1.996   1.880  0.00  0.00    -0.073 A 
ATOM      2  C3  UNL d   1       1.788  -1.985   1.241  0.00  0.00    -0.002 A 
ATOM      3  C4  UNL d   1       2.058  -1.053   0.238  0.00  0.00     0.004 A 
ATOM      4  C5  UNL d   1       1.090  -0.119  -0.131  0.00  0.00    -0.004 A 
ATOM      5  C6  UNL d   1      -0.156  -0.106   0.504  0.00  0.00    -0.075 A 
ATOM      6  C7  UNL d   1      -1.210   0.890   0.117  0.00  0.00     0.076 C 
ATOM      7  C8  UNL d   1      -0.421  -1.048   1.508  0.00  0.00     0.001 A 
ENDROOT
BRANCH   1   8
ATOM      8  C1  UNL d   1       0.250  -2.997   2.968  0.00  0.00     0.053 C 
ATOM      9  C   UNL d   1      -0.072  -2.322   4.291  0.00  0.00     0.018 C 
ENDBRANCH   1   8
TORSDOF 1
ENDMDL
