MODEL 1
REMARK minimizedAffinity -0.634495497
REMARK minimizedRMSD -1
REMARK  1 active torsions:
REMARK  status: ('A' for Active; 'I' for Inactive)
REMARK    1  A    between atoms: C1_2  and  C2_3 
ROOT
ATOM      1  C2  UNL d   1       3.538  -0.588   0.750  0.00  0.00    -0.073 A 
ATOM      2  C3  UNL d   1       3.814   0.761   0.996  0.00  0.00    -0.002 A 
ATOM      3  C4  UNL d   1       2.807   1.720   0.876  0.00  0.00     0.004 A 
ATOM      4  C5  UNL d   1       1.515   1.339   0.516  0.00  0.00    -0.004 A 
ATOM      5  C6  UNL d   1       1.216  -0.006   0.278  0.00  0.00    -0.075 A 
ATOM      6  C7  UNL d   1      -0.169  -0.432  -0.112  0.00  0.00     0.076 C 
ATOM      7  C8  UNL d   1       2.234  -0.963   0.397  0.00  0.00     0.001 A 
ENDROOT
BRANCH   1   8
ATOM      8  C1  UNL d   1       4.621  -1.628   0.884  0.00  0.00     0.053 C 
ATOM      9  C   UNL d   1       5.921  -1.033   1.402  0.00  0.00     0.018 C 
ENDBRANCH   1   8
TORSDOF 1
ENDMDL
