MODEL 1
REMARK minimizedAffinity -0.679588735
REMARK minimizedRMSD -1
REMARK  1 active torsions:
REMARK  status: ('A' for Active; 'I' for Inactive)
REMARK    1  A    between atoms: C1_2  and  C2_3 
ROOT
ATOM      1  C2  UNL d   1       0.374  -2.132   1.969  0.00  0.00    -0.073 A 
ATOM      2  C3  UNL d   1       1.548  -2.485   1.294  0.00  0.00    -0.002 A 
ATOM      3  C4  UNL d   1       1.940  -1.788   0.150  0.00  0.00     0.004 A 
ATOM      4  C5  UNL d   1       1.168  -0.729  -0.325  0.00  0.00    -0.004 A 
ATOM      5  C6  UNL d   1      -0.002  -0.353   0.342  0.00  0.00    -0.075 A 
ATOM      6  C7  UNL d   1      -0.845   0.783  -0.158  0.00  0.00     0.076 C 
ATOM      7  C8  UNL d   1      -0.391  -1.059   1.488  0.00  0.00     0.001 A 
ENDROOT
BRANCH   1   8
ATOM      8  C1  UNL d   1      -0.050  -2.877   3.208  0.00  0.00     0.053 C 
ATOM      9  C   UNL d   1       1.136  -3.473   3.949  0.00  0.00     0.018 C 
ENDBRANCH   1   8
TORSDOF 1
ENDMDL
