MODEL 1
REMARK minimizedAffinity 1.09428644
REMARK minimizedRMSD -1
REMARK  1 active torsions:
REMARK  status: ('A' for Active; 'I' for Inactive)
REMARK    1  A    between atoms: C1_2  and  C2_3 
ROOT
ATOM      1  C2  UNL d   1      -0.312  -0.306   0.620  0.00  0.00    -0.073 A 
ATOM      2  C3  UNL d   1       0.897  -0.635  -0.004  0.00  0.00    -0.002 A 
ATOM      3  C4  UNL d   1       1.692  -1.665   0.500  0.00  0.00     0.004 A 
ATOM      4  C5  UNL d   1       1.284  -2.380   1.626  0.00  0.00    -0.004 A 
ATOM      5  C6  UNL d   1       0.074  -2.074   2.256  0.00  0.00    -0.075 A 
ATOM      6  C7  UNL d   1      -0.378  -2.832   3.470  0.00  0.00     0.076 C 
ATOM      7  C8  UNL d   1      -0.718  -1.036   1.746  0.00  0.00     0.001 A 
ENDROOT
BRANCH   1   8
ATOM      8  C1  UNL d   1      -1.177   0.802   0.075  0.00  0.00     0.053 C 
ATOM      9  C   UNL d   1      -2.478   0.274  -0.509  0.00  0.00     0.018 C 
ENDBRANCH   1   8
TORSDOF 1
ENDMDL
