MODEL 1
REMARK minimizedAffinity 12.0755892
REMARK minimizedRMSD -1
REMARK  1 active torsions:
REMARK  status: ('A' for Active; 'I' for Inactive)
REMARK    1  A    between atoms: C1_2  and  C2_3 
ROOT
ATOM      1  C2  UNL d   1       0.296  -1.876   2.419  0.00  0.00    -0.073 A 
ATOM      2  C3  UNL d   1      -0.809  -1.685   3.257  0.00  0.00    -0.002 A 
ATOM      3  C4  UNL d   1      -0.884  -2.344   4.485  0.00  0.00     0.004 A 
ATOM      4  C5  UNL d   1       0.146  -3.193   4.891  0.00  0.00    -0.004 A 
ATOM      5  C6  UNL d   1       1.263  -3.386   4.073  0.00  0.00    -0.075 A 
ATOM      6  C7  UNL d   1       2.379  -4.298   4.494  0.00  0.00     0.076 C 
ATOM      7  C8  UNL d   1       1.330  -2.724   2.840  0.00  0.00     0.001 A 
ENDROOT
BRANCH   1   8
ATOM      8  C1  UNL d   1       0.385  -1.162   1.095  0.00  0.00     0.053 C 
ATOM      9  C   UNL d   1      -0.614  -0.020   0.995  0.00  0.00     0.018 C 
ENDBRANCH   1   8
TORSDOF 1
ENDMDL
