MODEL 1
REMARK minimizedAffinity -6.65347195
REMARK minimizedRMSD -1
REMARK  1 active torsions:
REMARK  status: ('A' for Active; 'I' for Inactive)
REMARK    1  A    between atoms: C1_2  and  C2_3 
ROOT
ATOM      1  C2  UNL d   1      -3.362  -2.298   3.148  0.00  0.00    -0.073 A 
ATOM      2  C3  UNL d   1      -2.237  -2.034   3.937  0.00  0.00    -0.002 A 
ATOM      3  C4  UNL d   1      -0.979  -1.895   3.348  0.00  0.00     0.004 A 
ATOM      4  C5  UNL d   1      -0.835  -2.011   1.966  0.00  0.00    -0.004 A 
ATOM      5  C6  UNL d   1      -1.949  -2.263   1.159  0.00  0.00    -0.075 A 
ATOM      6  C7  UNL d   1      -1.810  -2.394  -0.329  0.00  0.00     0.076 C 
ATOM      7  C8  UNL d   1      -3.208  -2.404   1.758  0.00  0.00     0.001 A 
ENDROOT
BRANCH   1   8
ATOM      8  C1  UNL d   1      -4.722  -2.443   3.778  0.00  0.00     0.053 C 
ATOM      9  C   UNL d   1      -4.648  -3.087   5.154  0.00  0.00     0.018 C 
ENDBRANCH   1   8
TORSDOF 1
ENDMDL
