MODEL 1
REMARK minimizedAffinity -0.481821984
REMARK minimizedRMSD -1
REMARK  1 active torsions:
REMARK  status: ('A' for Active; 'I' for Inactive)
REMARK    1  A    between atoms: C1_2  and  C2_3 
ROOT
ATOM      1  C2  UNL d   1       1.126   2.353  -3.407  0.00  0.00    -0.073 A 
ATOM      2  C3  UNL d   1       1.463   3.226  -4.447  0.00  0.00    -0.002 A 
ATOM      3  C4  UNL d   1       0.506   4.089  -4.982  0.00  0.00     0.004 A 
ATOM      4  C5  UNL d   1      -0.795   4.093  -4.478  0.00  0.00    -0.004 A 
ATOM      5  C6  UNL d   1      -1.148   3.236  -3.430  0.00  0.00    -0.075 A 
ATOM      6  C7  UNL d   1      -2.543   3.227  -2.878  0.00  0.00     0.076 C 
ATOM      7  C8  UNL d   1      -0.181   2.371  -2.901  0.00  0.00     0.001 A 
ENDROOT
BRANCH   1   8
ATOM      8  C1  UNL d   1       2.159   1.424  -2.822  0.00  0.00     0.053 C 
ATOM      9  C   UNL d   1       3.559   2.014  -2.888  0.00  0.00     0.018 C 
ENDBRANCH   1   8
TORSDOF 1
ENDMDL
