MODEL 1
REMARK minimizedAffinity -0.447464079
REMARK minimizedRMSD -1
REMARK  1 active torsions:
REMARK  status: ('A' for Active; 'I' for Inactive)
REMARK    1  A    between atoms: C1_2  and  C2_3 
ROOT
ATOM      1  C2  UNL d   1       0.288  -1.727   1.877  0.00  0.00    -0.073 A 
ATOM      2  C3  UNL d   1      -0.875  -1.462   2.609  0.00  0.00    -0.002 A 
ATOM      3  C4  UNL d   1      -1.055  -2.023   3.873  0.00  0.00     0.004 A 
ATOM      4  C5  UNL d   1      -0.073  -2.849   4.421  0.00  0.00    -0.004 A 
ATOM      5  C6  UNL d   1       1.101  -3.116   3.710  0.00  0.00    -0.075 A 
ATOM      6  C7  UNL d   1       2.166  -4.004   4.284  0.00  0.00     0.076 C 
ATOM      7  C8  UNL d   1       1.273  -2.551   2.439  0.00  0.00     0.001 A 
ENDROOT
BRANCH   1   8
ATOM      8  C1  UNL d   1       0.490  -1.117   0.513  0.00  0.00     0.053 C 
ATOM      9  C   UNL d   1       0.721   0.384   0.588  0.00  0.00     0.018 C 
ENDBRANCH   1   8
TORSDOF 1
ENDMDL
