MODEL 1
REMARK minimizedAffinity 0.334674776
REMARK minimizedRMSD -1
REMARK  1 active torsions:
REMARK  status: ('A' for Active; 'I' for Inactive)
REMARK    1  A    between atoms: C1_2  and  C2_3 
ROOT
ATOM      1  C2  UNL d   1      -2.612  -4.806  -5.504  0.00  0.00    -0.073 A 
ATOM      2  C3  UNL d   1      -3.300  -5.999  -5.750  0.00  0.00    -0.002 A 
ATOM      3  C4  UNL d   1      -4.674  -5.984  -5.993  0.00  0.00     0.004 A 
ATOM      4  C5  UNL d   1      -5.372  -4.777  -6.000  0.00  0.00    -0.004 A 
ATOM      5  C6  UNL d   1      -4.700  -3.572  -5.768  0.00  0.00    -0.075 A 
ATOM      6  C7  UNL d   1      -5.437  -2.265  -5.770  0.00  0.00     0.076 C 
ATOM      7  C8  UNL d   1      -3.321  -3.596  -5.522  0.00  0.00     0.001 A 
ENDROOT
BRANCH   1   8
ATOM      8  C1  UNL d   1      -1.127  -4.817  -5.247  0.00  0.00     0.053 C 
ATOM      9  C   UNL d   1      -0.806  -4.847  -3.762  0.00  0.00     0.018 C 
ENDBRANCH   1   8
TORSDOF 1
ENDMDL
