MODEL 1
REMARK minimizedAffinity -3.81131482
REMARK minimizedRMSD -1
REMARK  1 active torsions:
REMARK  status: ('A' for Active; 'I' for Inactive)
REMARK    1  A    between atoms: C1_2  and  C2_3 
ROOT
ATOM      1  C2  UNL d   1      -0.779   0.097  -0.158  0.00  0.00    -0.073 A 
ATOM      2  C3  UNL d   1       0.023   1.173   0.238  0.00  0.00    -0.002 A 
ATOM      3  C4  UNL d   1       1.399   1.005   0.399  0.00  0.00     0.004 A 
ATOM      4  C5  UNL d   1       1.987  -0.237   0.160  0.00  0.00    -0.004 A 
ATOM      5  C6  UNL d   1       1.204  -1.322  -0.248  0.00  0.00    -0.075 A 
ATOM      6  C7  UNL d   1       1.820  -2.665  -0.507  0.00  0.00     0.076 C 
ATOM      7  C8  UNL d   1      -0.178  -1.146  -0.405  0.00  0.00     0.001 A 
ENDROOT
BRANCH   1   8
ATOM      8  C1  UNL d   1      -2.264   0.275  -0.339  0.00  0.00     0.053 C 
ATOM      9  C   UNL d   1      -2.901   0.992   0.842  0.00  0.00     0.018 C 
ENDBRANCH   1   8
TORSDOF 1
ENDMDL
