MODEL 1
REMARK minimizedAffinity -0.81066674
REMARK minimizedRMSD -1
REMARK  1 active torsions:
REMARK  status: ('A' for Active; 'I' for Inactive)
REMARK    1  A    between atoms: C1_2  and  C2_3 
ROOT
ATOM      1  C2  UNL d   1      -1.629   0.474  -0.156  0.00  0.00    -0.073 A 
ATOM      2  C3  UNL d   1      -1.249  -0.842  -0.443  0.00  0.00    -0.002 A 
ATOM      3  C4  UNL d   1       0.101  -1.184  -0.528  0.00  0.00     0.004 A 
ATOM      4  C5  UNL d   1       1.085  -0.217  -0.321  0.00  0.00    -0.004 A 
ATOM      5  C6  UNL d   1       0.725   1.101  -0.021  0.00  0.00    -0.075 A 
ATOM      6  C7  UNL d   1       1.771   2.154   0.202  0.00  0.00     0.076 C 
ATOM      7  C8  UNL d   1      -0.633   1.437   0.060  0.00  0.00     0.001 A 
ENDROOT
BRANCH   1   8
ATOM      8  C1  UNL d   1      -3.085   0.846  -0.057  0.00  0.00     0.053 C 
ATOM      9  C   UNL d   1      -3.599   0.761   1.372  0.00  0.00     0.018 C 
ENDBRANCH   1   8
TORSDOF 1
ENDMDL
