MODEL 1
REMARK minimizedAffinity 1.16397071
REMARK minimizedRMSD -1
REMARK  1 active torsions:
REMARK  status: ('A' for Active; 'I' for Inactive)
REMARK    1  A    between atoms: C1_2  and  C2_3 
ROOT
ATOM      1  C2  UNL d   1       0.147  -1.060  -0.625  0.00  0.00    -0.073 A 
ATOM      2  C3  UNL d   1       0.544  -1.437   0.663  0.00  0.00    -0.002 A 
ATOM      3  C4  UNL d   1       1.765  -2.080   0.865  0.00  0.00     0.004 A 
ATOM      4  C5  UNL d   1       2.605  -2.347  -0.217  0.00  0.00    -0.004 A 
ATOM      5  C6  UNL d   1       2.231  -1.968  -1.510  0.00  0.00    -0.075 A 
ATOM      6  C7  UNL d   1       3.122  -2.249  -2.684  0.00  0.00     0.076 C 
ATOM      7  C8  UNL d   1       1.002  -1.324  -1.705  0.00  0.00     0.001 A 
ENDROOT
BRANCH   1   8
ATOM      8  C1  UNL d   1      -1.169  -0.360  -0.846  0.00  0.00     0.053 C 
ATOM      9  C   UNL d   1      -1.126   1.090  -0.391  0.00  0.00     0.018 C 
ENDBRANCH   1   8
TORSDOF 1
ENDMDL
