MODEL 1
REMARK minimizedAffinity -4.7428174
REMARK minimizedRMSD -1
REMARK  1 active torsions:
REMARK  status: ('A' for Active; 'I' for Inactive)
REMARK    1  A    between atoms: C1_2  and  C2_3 
ROOT
ATOM      1  C2  UNL d   1       0.231  -0.117  -0.040  0.00  0.00    -0.073 A 
ATOM      2  C3  UNL d   1      -0.097  -1.211  -0.849  0.00  0.00    -0.002 A 
ATOM      3  C4  UNL d   1       0.774  -2.297  -0.953  0.00  0.00     0.004 A 
ATOM      4  C5  UNL d   1       1.976  -2.303  -0.246  0.00  0.00    -0.004 A 
ATOM      5  C6  UNL d   1       2.316  -1.224   0.577  0.00  0.00    -0.075 A 
ATOM      6  C7  UNL d   1       3.607  -1.214   1.342  0.00  0.00     0.076 C 
ATOM      7  C8  UNL d   1       1.438  -0.137   0.674  0.00  0.00     0.001 A 
ENDROOT
BRANCH   1   8
ATOM      8  C1  UNL d   1      -0.709   1.054   0.081  0.00  0.00     0.053 C 
ATOM      9  C   UNL d   1      -2.166   0.621   0.051  0.00  0.00     0.018 C 
ENDBRANCH   1   8
TORSDOF 1
ENDMDL
