MODEL 1
REMARK minimizedAffinity -2.31809974
REMARK minimizedRMSD -1
REMARK  1 active torsions:
REMARK  status: ('A' for Active; 'I' for Inactive)
REMARK    1  A    between atoms: C1_2  and  C2_3 
ROOT
ATOM      1  C2  UNL d   1      -1.383   0.184  -0.477  0.00  0.00    -0.073 A 
ATOM      2  C3  UNL d   1      -0.971  -1.149  -0.592  0.00  0.00    -0.002 A 
ATOM      3  C4  UNL d   1       0.383  -1.477  -0.523  0.00  0.00     0.004 A 
ATOM      4  C5  UNL d   1       1.338  -0.478  -0.330  0.00  0.00    -0.004 A 
ATOM      5  C6  UNL d   1       0.945   0.858  -0.201  0.00  0.00    -0.075 A 
ATOM      6  C7  UNL d   1       1.960   1.944   0.005  0.00  0.00     0.076 C 
ATOM      7  C8  UNL d   1      -0.417   1.179  -0.275  0.00  0.00     0.001 A 
ENDROOT
BRANCH   1   8
ATOM      8  C1  UNL d   1      -2.845   0.542  -0.545  0.00  0.00     0.053 C 
ATOM      9  C   UNL d   1      -3.321   1.240   0.719  0.00  0.00     0.018 C 
ENDBRANCH   1   8
TORSDOF 1
ENDMDL
