MODEL 1
REMARK minimizedAffinity -5.11523914
REMARK minimizedRMSD -1
REMARK  1 active torsions:
REMARK  status: ('A' for Active; 'I' for Inactive)
REMARK    1  A    between atoms: C1_2  and  C2_3 
ROOT
ATOM      1  C2  UNL d   1      -0.142   0.434  -0.263  0.00  0.00    -0.073 A 
ATOM      2  C3  UNL d   1      -0.584  -0.587  -1.112  0.00  0.00    -0.002 A 
ATOM      3  C4  UNL d   1       0.166  -1.754  -1.261  0.00  0.00     0.004 A 
ATOM      4  C5  UNL d   1       1.359  -1.916  -0.558  0.00  0.00    -0.004 A 
ATOM      5  C6  UNL d   1       1.811  -0.913   0.305  0.00  0.00    -0.075 A 
ATOM      6  C7  UNL d   1       3.094  -1.071   1.067  0.00  0.00     0.076 C 
ATOM      7  C8  UNL d   1       1.054   0.258   0.447  0.00  0.00     0.001 A 
ENDROOT
BRANCH   1   8
ATOM      8  C1  UNL d   1      -0.952   1.693  -0.094  0.00  0.00     0.053 C 
ATOM      9  C   UNL d   1      -2.421   1.397   0.165  0.00  0.00     0.018 C 
ENDBRANCH   1   8
TORSDOF 1
ENDMDL
