MODEL 1
REMARK minimizedAffinity 1.46579576
REMARK minimizedRMSD -1
REMARK  0 active torsions:
REMARK  status: ('A' for Active; 'I' for Inactive)
ROOT
ATOM      1  C   UNL d   1       4.759   0.859  -1.466  0.00  0.00     0.077 C 
ATOM      2  C1  UNL d   1       3.473   0.873  -0.693  0.00  0.00    -0.074 A 
ATOM      3  C2  UNL d   1       3.114   1.980   0.083  0.00  0.00    -0.005 A 
ATOM      4  C3  UNL d   1       1.910   1.983   0.789  0.00  0.00     0.006 A 
ATOM      5  C4  UNL d   1       1.056   0.882   0.725  0.00  0.00    -0.005 A 
ATOM      6  C5  UNL d   1       1.398  -0.233  -0.046  0.00  0.00    -0.074 A 
ATOM      7  C6  UNL d   1       0.486  -1.421  -0.133  0.00  0.00     0.077 C 
ATOM      8  C7  UNL d   1       2.606  -0.226  -0.758  0.00  0.00    -0.001 A 
ENDROOT
TORSDOF 0
ENDMDL
