MODEL 1
REMARK minimizedAffinity 4.91011429
REMARK minimizedRMSD -1
REMARK  0 active torsions:
REMARK  status: ('A' for Active; 'I' for Inactive)
ROOT
ATOM      1  C   UNL d   1       1.874  -2.162  -0.536  0.00  0.00     0.077 C 
ATOM      2  C1  UNL d   1       2.577  -1.132   0.296  0.00  0.00    -0.074 A 
ATOM      3  C2  UNL d   1       3.477  -1.509   1.298  0.00  0.00    -0.005 A 
ATOM      4  C3  UNL d   1       4.131  -0.539   2.058  0.00  0.00     0.006 A 
ATOM      5  C4  UNL d   1       3.893   0.816   1.824  0.00  0.00    -0.005 A 
ATOM      6  C5  UNL d   1       2.997   1.212   0.825  0.00  0.00    -0.074 A 
ATOM      7  C6  UNL d   1       2.737   2.664   0.554  0.00  0.00     0.077 C 
ATOM      8  C7  UNL d   1       2.349   0.232   0.062  0.00  0.00    -0.001 A 
ENDROOT
TORSDOF 0
ENDMDL
