MODEL 1
REMARK minimizedAffinity 3.17628884
REMARK minimizedRMSD -1
REMARK  0 active torsions:
REMARK  status: ('A' for Active; 'I' for Inactive)
ROOT
ATOM      1  C   UNL d   1       5.636   1.863  -0.767  0.00  0.00     0.077 C 
ATOM      2  C1  UNL d   1       4.327   1.291  -0.310  0.00  0.00    -0.074 A 
ATOM      3  C2  UNL d   1       3.335   2.111   0.238  0.00  0.00    -0.005 A 
ATOM      4  C3  UNL d   1       2.119   1.565   0.649  0.00  0.00     0.006 A 
ATOM      5  C4  UNL d   1       1.884   0.196   0.518  0.00  0.00    -0.005 A 
ATOM      6  C5  UNL d   1       2.863  -0.640  -0.027  0.00  0.00    -0.074 A 
ATOM      7  C6  UNL d   1       2.622  -2.112  -0.184  0.00  0.00     0.077 C 
ATOM      8  C7  UNL d   1       4.080  -0.083  -0.445  0.00  0.00    -0.001 A 
ENDROOT
TORSDOF 0
ENDMDL
