MODEL 1
REMARK minimizedAffinity 2.63033772
REMARK minimizedRMSD -1
REMARK  0 active torsions:
REMARK  status: ('A' for Active; 'I' for Inactive)
ROOT
ATOM      1  C   UNL d   1       0.334   1.862   1.893  0.00  0.00     0.077 C 
ATOM      2  C1  UNL d   1       1.555   1.515   1.093  0.00  0.00    -0.074 A 
ATOM      3  C2  UNL d   1       2.425   2.511   0.640  0.00  0.00    -0.005 A 
ATOM      4  C3  UNL d   1       3.561   2.172  -0.095  0.00  0.00     0.006 A 
ATOM      5  C4  UNL d   1       3.838   0.835  -0.384  0.00  0.00    -0.005 A 
ATOM      6  C5  UNL d   1       2.979  -0.175   0.061  0.00  0.00    -0.074 A 
ATOM      7  C6  UNL d   1       3.267  -1.617  -0.233  0.00  0.00     0.077 C 
ATOM      8  C7  UNL d   1       1.843   0.173   0.805  0.00  0.00    -0.001 A 
ENDROOT
TORSDOF 0
ENDMDL
