MODEL 1
REMARK minimizedAffinity 7.31073856
REMARK minimizedRMSD -1
REMARK  0 active torsions:
REMARK  status: ('A' for Active; 'I' for Inactive)
ROOT
ATOM      1  C   UNL d   1       3.029   2.776   0.261  0.00  0.00     0.077 C 
ATOM      2  C1  UNL d   1       3.202   1.316   0.560  0.00  0.00    -0.074 A 
ATOM      3  C2  UNL d   1       3.876   0.894   1.710  0.00  0.00    -0.005 A 
ATOM      4  C3  UNL d   1       4.021  -0.467   1.980  0.00  0.00     0.006 A 
ATOM      5  C4  UNL d   1       3.495  -1.417   1.104  0.00  0.00    -0.005 A 
ATOM      6  C5  UNL d   1       2.817  -1.013  -0.050  0.00  0.00    -0.074 A 
ATOM      7  C6  UNL d   1       2.236  -2.021  -0.997  0.00  0.00     0.077 C 
ATOM      8  C7  UNL d   1       2.669   0.356  -0.311  0.00  0.00    -0.001 A 
ENDROOT
TORSDOF 0
ENDMDL
