MODEL 1
REMARK minimizedAffinity 3.52947044
REMARK minimizedRMSD -1
REMARK  0 active torsions:
REMARK  status: ('A' for Active; 'I' for Inactive)
ROOT
ATOM      1  C   UNL d   1       2.881  -2.273   0.119  0.00  0.00     0.077 C 
ATOM      2  C1  UNL d   1       2.744  -0.780   0.102  0.00  0.00    -0.074 A 
ATOM      3  C2  UNL d   1       3.862   0.046   0.255  0.00  0.00    -0.005 A 
ATOM      4  C3  UNL d   1       3.720   1.434   0.227  0.00  0.00     0.006 A 
ATOM      5  C4  UNL d   1       2.461   2.008   0.047  0.00  0.00    -0.005 A 
ATOM      6  C5  UNL d   1       1.332   1.198  -0.109  0.00  0.00    -0.074 A 
ATOM      7  C6  UNL d   1      -0.027   1.798  -0.314  0.00  0.00     0.077 C 
ATOM      8  C7  UNL d   1       1.484  -0.196  -0.087  0.00  0.00    -0.001 A 
ENDROOT
TORSDOF 0
ENDMDL
