MODEL 1
REMARK minimizedAffinity -1.04090142
REMARK minimizedRMSD -1
REMARK  0 active torsions:
REMARK  status: ('A' for Active; 'I' for Inactive)
ROOT
ATOM      1  C   UNL d   1       3.608   0.609   0.312  0.00  0.00     0.077 C 
ATOM      2  C1  UNL d   1       2.199   1.010   0.635  0.00  0.00    -0.074 A 
ATOM      3  C2  UNL d   1       1.492   1.884  -0.197  0.00  0.00    -0.005 A 
ATOM      4  C3  UNL d   1       0.179   2.241   0.111  0.00  0.00     0.006 A 
ATOM      5  C4  UNL d   1      -0.438   1.729   1.253  0.00  0.00    -0.005 A 
ATOM      6  C5  UNL d   1       0.253   0.854   2.097  0.00  0.00    -0.074 A 
ATOM      7  C6  UNL d   1      -0.399   0.287   3.323  0.00  0.00     0.077 C 
ATOM      8  C7  UNL d   1       1.569   0.494   1.776  0.00  0.00    -0.001 A 
ENDROOT
TORSDOF 0
ENDMDL
