MODEL 1
REMARK minimizedAffinity 4.51803589
REMARK minimizedRMSD -1
REMARK  0 active torsions:
REMARK  status: ('A' for Active; 'I' for Inactive)
ROOT
ATOM      1  C   UNL d   1      -1.295  -0.420  -0.869  0.00  0.00     0.077 C 
ATOM      2  C1  UNL d   1       0.113  -0.937  -0.888  0.00  0.00    -0.074 A 
ATOM      3  C2  UNL d   1       0.377  -2.307  -0.785  0.00  0.00    -0.005 A 
ATOM      4  C3  UNL d   1       1.691  -2.774  -0.814  0.00  0.00     0.006 A 
ATOM      5  C4  UNL d   1       2.752  -1.878  -0.947  0.00  0.00    -0.005 A 
ATOM      6  C5  UNL d   1       2.508  -0.505  -1.053  0.00  0.00    -0.074 A 
ATOM      7  C6  UNL d   1       3.636   0.471  -1.206  0.00  0.00     0.077 C 
ATOM      8  C7  UNL d   1       1.184  -0.044  -1.030  0.00  0.00    -0.001 A 
ENDROOT
TORSDOF 0
ENDMDL
