MODEL 1
REMARK minimizedAffinity 3.02405572
REMARK minimizedRMSD -1
REMARK  0 active torsions:
REMARK  status: ('A' for Active; 'I' for Inactive)
ROOT
ATOM      1  C   UNL d   1       4.287   1.447  -0.797  0.00  0.00     0.077 C 
ATOM      2  C1  UNL d   1       2.990   0.714  -0.620  0.00  0.00    -0.074 A 
ATOM      3  C2  UNL d   1       1.797   1.408  -0.396  0.00  0.00    -0.005 A 
ATOM      4  C3  UNL d   1       0.597   0.714  -0.243  0.00  0.00     0.006 A 
ATOM      5  C4  UNL d   1       0.578  -0.680  -0.312  0.00  0.00    -0.005 A 
ATOM      6  C5  UNL d   1       1.761  -1.391  -0.535  0.00  0.00    -0.074 A 
ATOM      7  C6  UNL d   1       1.757  -2.889  -0.621  0.00  0.00     0.077 C 
ATOM      8  C7  UNL d   1       2.962  -0.686  -0.695  0.00  0.00    -0.001 A 
ENDROOT
TORSDOF 0
ENDMDL
