MODEL 1
REMARK minimizedAffinity 3.53725982
REMARK minimizedRMSD -1
REMARK  0 active torsions:
REMARK  status: ('A' for Active; 'I' for Inactive)
ROOT
ATOM      1  C   UNL d   1       4.719   4.389   3.945  0.00  0.00     0.020 A 
ATOM      2  C1  UNL d   1       4.254   5.702   3.980  0.00  0.00     0.020 A 
ATOM      3  C2  UNL d   1       3.048   5.999   4.619  0.00  0.00     0.034 A 
ATOM      4  C3  UNL d   1       2.304   4.981   5.226  0.00  0.00     0.017 A 
ATOM      5  C4  UNL d   1       2.772   3.663   5.190  0.00  0.00     0.017 A 
ATOM      6  C5  UNL d   1       3.979   3.371   4.548  0.00  0.00     0.034 A 
ATOM      7 Cl   UNL d   1       1.909   2.353   5.916  0.00  0.00    -0.070 Cl
ATOM      8 Cl1  UNL d   1       0.822   5.421   5.999  0.00  0.00    -0.070 Cl
ENDROOT
TORSDOF 0
ENDMDL
