MODEL 1
REMARK minimizedAffinity 11.2408686
REMARK minimizedRMSD -1
REMARK  0 active torsions:
REMARK  status: ('A' for Active; 'I' for Inactive)
ROOT
ATOM      1  C   UNL d   1       1.631   1.786  -0.976  0.00  0.00     0.020 A 
ATOM      2  C1  UNL d   1       2.571   1.038  -0.267  0.00  0.00     0.020 A 
ATOM      3  C2  UNL d   1       2.193   0.366   0.897  0.00  0.00     0.034 A 
ATOM      4  C3  UNL d   1       0.874   0.440   1.356  0.00  0.00     0.017 A 
ATOM      5  C4  UNL d   1      -0.069   1.191   0.645  0.00  0.00     0.017 A 
ATOM      6  C5  UNL d   1       0.314   1.862  -0.521  0.00  0.00     0.034 A 
ATOM      7 Cl   UNL d   1      -1.716   1.330   1.150  0.00  0.00    -0.070 Cl
ATOM      8 Cl1  UNL d   1       0.477  -0.417   2.803  0.00  0.00    -0.070 Cl
ENDROOT
TORSDOF 0
ENDMDL
