MODEL 1
REMARK minimizedAffinity -0.938132823
REMARK minimizedRMSD -1
REMARK  0 active torsions:
REMARK  status: ('A' for Active; 'I' for Inactive)
ROOT
ATOM      1  C   UNL d   1       2.389   5.993   4.880  0.00  0.00     0.020 A 
ATOM      2  C1  UNL d   1       1.379   5.986   5.841  0.00  0.00     0.020 A 
ATOM      3  C2  UNL d   1       0.040   5.983   5.446  0.00  0.00     0.034 A 
ATOM      4  C3  UNL d   1      -0.294   5.986   4.087  0.00  0.00     0.017 A 
ATOM      5  C4  UNL d   1       0.721   5.993   3.123  0.00  0.00     0.017 A 
ATOM      6  C5  UNL d   1       2.060   5.996   3.524  0.00  0.00     0.034 A 
ATOM      7 Cl   UNL d   1       0.388   5.997   1.427  0.00  0.00    -0.070 Cl
ATOM      8 Cl1  UNL d   1      -1.971   5.982   3.671  0.00  0.00    -0.070 Cl
ENDROOT
TORSDOF 0
ENDMDL
