MODEL 1
REMARK minimizedAffinity 5.08871984
REMARK minimizedRMSD -1
REMARK  0 active torsions:
REMARK  status: ('A' for Active; 'I' for Inactive)
ROOT
ATOM      1  C   UNL d   1       3.185   2.262   5.692  0.00  0.00     0.020 A 
ATOM      2  C1  UNL d   1       2.602   3.491   5.998  0.00  0.00     0.020 A 
ATOM      3  C2  UNL d   1       2.557   4.502   5.035  0.00  0.00     0.034 A 
ATOM      4  C3  UNL d   1       3.096   4.285   3.762  0.00  0.00     0.017 A 
ATOM      5  C4  UNL d   1       3.681   3.051   3.456  0.00  0.00     0.017 A 
ATOM      6  C5  UNL d   1       3.723   2.043   4.424  0.00  0.00     0.034 A 
ATOM      7 Cl   UNL d   1       4.367   2.710   1.907  0.00  0.00    -0.070 Cl
ATOM      8 Cl1  UNL d   1       3.006   5.579   2.621  0.00  0.00    -0.070 Cl
ENDROOT
TORSDOF 0
ENDMDL
