MODEL 1
REMARK minimizedAffinity 3.05711961
REMARK minimizedRMSD -1
REMARK  0 active torsions:
REMARK  status: ('A' for Active; 'I' for Inactive)
ROOT
ATOM      1  C   UNL d   1       0.032   1.637   1.868  0.00  0.00     0.020 A 
ATOM      2  C1  UNL d   1      -0.846   2.643   1.466  0.00  0.00     0.020 A 
ATOM      3  C2  UNL d   1      -0.508   3.983   1.664  0.00  0.00     0.034 A 
ATOM      4  C3  UNL d   1       0.710   4.321   2.265  0.00  0.00     0.017 A 
ATOM      5  C4  UNL d   1       1.590   3.310   2.668  0.00  0.00     0.017 A 
ATOM      6  C5  UNL d   1       1.247   1.970   2.468  0.00  0.00     0.034 A 
ATOM      7 Cl   UNL d   1       3.111   3.649   3.416  0.00  0.00    -0.070 Cl
ATOM      8 Cl1  UNL d   1       1.063   5.999   2.478  0.00  0.00    -0.070 Cl
ENDROOT
TORSDOF 0
ENDMDL
