MODEL 1
REMARK minimizedAffinity 7.68612623
REMARK minimizedRMSD -1
REMARK  0 active torsions:
REMARK  status: ('A' for Active; 'I' for Inactive)
ROOT
ATOM      1  C   UNL d   1       2.258   0.585  -0.382  0.00  0.00     0.020 A 
ATOM      2  C1  UNL d   1       2.311   0.979   0.955  0.00  0.00     0.020 A 
ATOM      3  C2  UNL d   1       3.476   1.553   1.468  0.00  0.00     0.034 A 
ATOM      4  C3  UNL d   1       4.593   1.734   0.645  0.00  0.00     0.017 A 
ATOM      5  C4  UNL d   1       4.539   1.339  -0.697  0.00  0.00     0.017 A 
ATOM      6  C5  UNL d   1       3.370   0.765  -1.206  0.00  0.00     0.034 A 
ATOM      7 Cl   UNL d   1       5.877   1.531  -1.774  0.00  0.00    -0.070 Cl
ATOM      8 Cl1  UNL d   1       6.000   2.451   1.346  0.00  0.00    -0.070 Cl
ENDROOT
TORSDOF 0
ENDMDL
