MODEL 1
REMARK minimizedAffinity 5.64670515
REMARK minimizedRMSD -1
REMARK  0 active torsions:
REMARK  status: ('A' for Active; 'I' for Inactive)
ROOT
ATOM      1  C   UNL d   1       3.708   5.999   4.545  0.00  0.00     0.020 A 
ATOM      2  C1  UNL d   1       3.068   5.511   5.683  0.00  0.00     0.020 A 
ATOM      3  C2  UNL d   1       3.146   4.153   6.000  0.00  0.00     0.034 A 
ATOM      4  C3  UNL d   1       3.865   3.278   5.177  0.00  0.00     0.017 A 
ATOM      5  C4  UNL d   1       4.507   3.769   4.034  0.00  0.00     0.017 A 
ATOM      6  C5  UNL d   1       4.426   5.130   3.722  0.00  0.00     0.034 A 
ATOM      7 Cl   UNL d   1       5.413   2.752   2.971  0.00  0.00    -0.070 Cl
ATOM      8 Cl1  UNL d   1       3.920   1.612   5.630  0.00  0.00    -0.070 Cl
ENDROOT
TORSDOF 0
ENDMDL
