MODEL 1
REMARK minimizedAffinity 7.2644372
REMARK minimizedRMSD -1
REMARK  0 active torsions:
REMARK  status: ('A' for Active; 'I' for Inactive)
ROOT
ATOM      1  C   UNL d   1       1.008   0.362   1.872  0.00  0.00     0.020 A 
ATOM      2  C1  UNL d   1       1.855   0.061   0.806  0.00  0.00     0.020 A 
ATOM      3  C2  UNL d   1       1.455  -0.859  -0.165  0.00  0.00     0.034 A 
ATOM      4  C3  UNL d   1       0.205  -1.481  -0.073  0.00  0.00     0.017 A 
ATOM      5  C4  UNL d   1      -0.645  -1.178   0.997  0.00  0.00     0.017 A 
ATOM      6  C5  UNL d   1      -0.239  -0.256   1.967  0.00  0.00     0.034 A 
ATOM      7 Cl   UNL d   1      -2.202  -1.905   1.178  0.00  0.00    -0.070 Cl
ATOM      8 Cl1  UNL d   1      -0.225  -2.608  -1.310  0.00  0.00    -0.070 Cl
ENDROOT
TORSDOF 0
ENDMDL
