MODEL 1
REMARK minimizedAffinity 7.42111015
REMARK minimizedRMSD -1
REMARK  1 active torsions:
REMARK  status: ('A' for Active; 'I' for Inactive)
REMARK    1  A    between atoms: C1_2  and  C2_3 
ROOT
ATOM      1  C2  UNL d   1      -0.913   5.856  -4.098  0.00  0.00    -0.081 A 
ATOM      2  C3  UNL d   1      -0.370   5.879  -2.807  0.00  0.00     0.006 A 
ATOM      3  C4  UNL d   1      -1.205   5.900  -1.688  0.00  0.00     0.002 A 
ATOM      4  C5  UNL d   1      -2.596   5.891  -1.840  0.00  0.00    -0.080 A 
ATOM      5  C6  UNL d   1      -3.504   5.882  -0.646  0.00  0.00     0.076 C 
ATOM      6  C7  UNL d   1      -3.139   5.885  -3.129  0.00  0.00     0.002 A 
ATOM      7  C8  UNL d   1      -2.304   5.865  -4.249  0.00  0.00     0.006 A 
ENDROOT
BRANCH   1   8
ATOM      8  C1  UNL d   1      -0.015   5.768  -5.306  0.00  0.00     0.054 C 
ATOM      9  C   UNL d   1       1.445   5.967  -4.925  0.00  0.00     0.018 C 
ENDBRANCH   1   8
TORSDOF 1
ENDMDL
