MODEL 1
REMARK minimizedAffinity 3.60831785
REMARK minimizedRMSD -1
REMARK  1 active torsions:
REMARK  status: ('A' for Active; 'I' for Inactive)
REMARK    1  A    between atoms: C1_2  and  C2_3 
ROOT
ATOM      1  C2  UNL d   1       0.007   5.579  -4.890  0.00  0.00    -0.081 A 
ATOM      2  C3  UNL d   1      -1.334   5.862  -5.175  0.00  0.00     0.006 A 
ATOM      3  C4  UNL d   1      -2.267   5.986  -4.142  0.00  0.00     0.002 A 
ATOM      4  C5  UNL d   1      -1.873   5.838  -2.808  0.00  0.00    -0.080 A 
ATOM      5  C6  UNL d   1      -2.858   6.000  -1.689  0.00  0.00     0.076 C 
ATOM      6  C7  UNL d   1      -0.536   5.538  -2.524  0.00  0.00     0.002 A 
ATOM      7  C8  UNL d   1       0.397   5.413  -3.556  0.00  0.00     0.006 A 
ENDROOT
BRANCH   1   8
ATOM      8  C1  UNL d   1       1.028   5.508  -5.997  0.00  0.00     0.054 C 
ATOM      9  C   UNL d   1       2.443   5.643  -5.454  0.00  0.00     0.018 C 
ENDBRANCH   1   8
TORSDOF 1
ENDMDL
