MODEL 1
REMARK minimizedAffinity 11.4208364
REMARK minimizedRMSD -1
REMARK  1 active torsions:
REMARK  status: ('A' for Active; 'I' for Inactive)
REMARK    1  A    between atoms: C1_2  and  C2_3 
ROOT
ATOM      1  C2  UNL d   1       0.400   0.872   1.233  0.00  0.00    -0.081 A 
ATOM      2  C3  UNL d   1       0.969   0.053   0.250  0.00  0.00     0.006 A 
ATOM      3  C4  UNL d   1       1.607   0.616  -0.858  0.00  0.00     0.002 A 
ATOM      4  C5  UNL d   1       1.695   2.005  -0.997  0.00  0.00    -0.080 A 
ATOM      5  C6  UNL d   1       2.404   2.621  -2.166  0.00  0.00     0.076 C 
ATOM      6  C7  UNL d   1       1.111   2.823  -0.024  0.00  0.00     0.002 A 
ATOM      7  C8  UNL d   1       0.472   2.262   1.084  0.00  0.00     0.006 A 
ENDROOT
BRANCH   1   8
ATOM      8  C1  UNL d   1      -0.232   0.269   2.462  0.00  0.00     0.054 C 
ATOM      9  C   UNL d   1      -0.838   1.342   3.355  0.00  0.00     0.018 C 
ENDBRANCH   1   8
TORSDOF 1
ENDMDL
