MODEL 1
REMARK minimizedAffinity -3.20087385
REMARK minimizedRMSD -1
REMARK  1 active torsions:
REMARK  status: ('A' for Active; 'I' for Inactive)
REMARK    1  A    between atoms: C1_2  and  C2_3 
ROOT
ATOM      1  C2  UNL d   1      -1.845   5.945  -3.836  0.00  0.00    -0.081 A 
ATOM      2  C3  UNL d   1      -1.843   5.810  -5.230  0.00  0.00     0.006 A 
ATOM      3  C4  UNL d   1      -0.638   5.710  -5.930  0.00  0.00     0.002 A 
ATOM      4  C5  UNL d   1       0.583   5.734  -5.248  0.00  0.00    -0.080 A 
ATOM      5  C6  UNL d   1       1.882   5.597  -5.985  0.00  0.00     0.076 C 
ATOM      6  C7  UNL d   1       0.582   5.887  -3.858  0.00  0.00     0.002 A 
ATOM      7  C8  UNL d   1      -0.622   5.988  -3.157  0.00  0.00     0.006 A 
ENDROOT
BRANCH   1   8
ATOM      8  C1  UNL d   1      -3.143   5.989  -3.072  0.00  0.00     0.054 C 
ATOM      9  C   UNL d   1      -2.901   6.000  -1.569  0.00  0.00     0.018 C 
ENDBRANCH   1   8
TORSDOF 1
ENDMDL
