MODEL 1
REMARK minimizedAffinity -2.78826761
REMARK minimizedRMSD -1
REMARK  1 active torsions:
REMARK  status: ('A' for Active; 'I' for Inactive)
REMARK    1  A    between atoms: C1_2  and  C2_3 
ROOT
ATOM      1  C2  UNL d   1       1.530   5.718  -5.278  0.00  0.00    -0.081 A 
ATOM      2  C3  UNL d   1       0.400   5.271  -5.973  0.00  0.00     0.006 A 
ATOM      3  C4  UNL d   1      -0.822   5.118  -5.314  0.00  0.00     0.002 A 
ATOM      4  C5  UNL d   1      -0.936   5.416  -3.952  0.00  0.00    -0.080 A 
ATOM      5  C6  UNL d   1      -2.250   5.285  -3.239  0.00  0.00     0.076 C 
ATOM      6  C7  UNL d   1       0.197   5.847  -3.253  0.00  0.00     0.002 A 
ATOM      7  C8  UNL d   1       1.419   5.999  -3.911  0.00  0.00     0.006 A 
ENDROOT
BRANCH   1   8
ATOM      8  C1  UNL d   1       2.834   5.946  -6.000  0.00  0.00     0.054 C 
ATOM      9  C   UNL d   1       4.009   5.949  -5.032  0.00  0.00     0.018 C 
ENDBRANCH   1   8
TORSDOF 1
ENDMDL
