MODEL 1
REMARK minimizedAffinity 8.67682934
REMARK minimizedRMSD -1
REMARK  1 active torsions:
REMARK  status: ('A' for Active; 'I' for Inactive)
REMARK    1  A    between atoms: C1_2  and  C2_3 
ROOT
ATOM      1  C2  UNL d   1      -0.825  -1.312  -3.115  0.00  0.00    -0.081 A 
ATOM      2  C3  UNL d   1      -1.799  -0.970  -2.169  0.00  0.00     0.006 A 
ATOM      3  C4  UNL d   1      -1.426  -0.548  -0.890  0.00  0.00     0.002 A 
ATOM      4  C5  UNL d   1      -0.076  -0.453  -0.539  0.00  0.00    -0.080 A 
ATOM      5  C6  UNL d   1       0.338   0.027   0.820  0.00  0.00     0.076 C 
ATOM      6  C7  UNL d   1       0.897  -0.811  -1.478  0.00  0.00     0.002 A 
ATOM      7  C8  UNL d   1       0.526  -1.234  -2.757  0.00  0.00     0.006 A 
ENDROOT
BRANCH   1   8
ATOM      8  C1  UNL d   1      -1.221  -1.705  -4.515  0.00  0.00     0.054 C 
ATOM      9  C   UNL d   1      -1.202  -0.506  -5.453  0.00  0.00     0.018 C 
ENDBRANCH   1   8
TORSDOF 1
ENDMDL
