MODEL 1
REMARK minimizedAffinity 10.7292957
REMARK minimizedRMSD -1
REMARK  1 active torsions:
REMARK  status: ('A' for Active; 'I' for Inactive)
REMARK    1  A    between atoms: C1_2  and  C2_3 
ROOT
ATOM      1  C2  UNL d   1      -1.721  -0.660  -3.911  0.00  0.00    -0.081 A 
ATOM      2  C3  UNL d   1      -1.939  -0.263  -2.586  0.00  0.00     0.006 A 
ATOM      3  C4  UNL d   1      -2.810  -0.984  -1.765  0.00  0.00     0.002 A 
ATOM      4  C5  UNL d   1      -3.471  -2.116  -2.252  0.00  0.00    -0.080 A 
ATOM      5  C6  UNL d   1      -4.385  -2.916  -1.373  0.00  0.00     0.076 C 
ATOM      6  C7  UNL d   1      -3.267  -2.502  -3.582  0.00  0.00     0.002 A 
ATOM      7  C8  UNL d   1      -2.397  -1.782  -4.403  0.00  0.00     0.006 A 
ENDROOT
BRANCH   1   8
ATOM      8  C1  UNL d   1      -0.733   0.077  -4.779  0.00  0.00     0.054 C 
ATOM      9  C   UNL d   1       0.698  -0.327  -4.453  0.00  0.00     0.018 C 
ENDBRANCH   1   8
TORSDOF 1
ENDMDL
