MODEL 1
REMARK minimizedAffinity -3.32263851
REMARK minimizedRMSD -1
REMARK  1 active torsions:
REMARK  status: ('A' for Active; 'I' for Inactive)
REMARK    1  A    between atoms: C1_2  and  C2_3 
ROOT
ATOM      1  C2  UNL d   1       0.361   5.113  -4.653  0.00  0.00    -0.081 A 
ATOM      2  C3  UNL d   1       1.270   5.997  -4.058  0.00  0.00     0.006 A 
ATOM      3  C4  UNL d   1       2.615   5.989  -4.433  0.00  0.00     0.002 A 
ATOM      4  C5  UNL d   1       3.073   5.103  -5.415  0.00  0.00    -0.080 A 
ATOM      5  C6  UNL d   1       4.508   5.106  -5.850  0.00  0.00     0.076 C 
ATOM      6  C7  UNL d   1       2.169   4.208  -5.998  0.00  0.00     0.002 A 
ATOM      7  C8  UNL d   1       0.823   4.215  -5.622  0.00  0.00     0.006 A 
ENDROOT
BRANCH   1   8
ATOM      8  C1  UNL d   1      -1.102   5.163  -4.296  0.00  0.00     0.054 C 
ATOM      9  C   UNL d   1      -1.321   5.835  -2.948  0.00  0.00     0.018 C 
ENDBRANCH   1   8
TORSDOF 1
ENDMDL
