MODEL 1
REMARK minimizedAffinity 3.8609457
REMARK minimizedRMSD -1
REMARK  1 active torsions:
REMARK  status: ('A' for Active; 'I' for Inactive)
REMARK    1  A    between atoms: C1_2  and  C2_3 
ROOT
ATOM      1  C2  UNL d   1      -2.324   5.933  -2.795  0.00  0.00    -0.081 A 
ATOM      2  C3  UNL d   1      -0.969   5.860  -2.449  0.00  0.00     0.006 A 
ATOM      3  C4  UNL d   1       0.015   5.859  -3.440  0.00  0.00     0.002 A 
ATOM      4  C5  UNL d   1      -0.338   5.940  -4.791  0.00  0.00    -0.080 A 
ATOM      5  C6  UNL d   1       0.711   5.971  -5.864  0.00  0.00     0.076 C 
ATOM      6  C7  UNL d   1      -1.692   5.996  -5.138  0.00  0.00     0.002 A 
ATOM      7  C8  UNL d   1      -2.677   5.996  -4.147  0.00  0.00     0.006 A 
ENDROOT
BRANCH   1   8
ATOM      8  C1  UNL d   1      -3.385   6.000  -1.726  0.00  0.00     0.054 C 
ATOM      9  C   UNL d   1      -4.781   5.995  -2.332  0.00  0.00     0.018 C 
ENDBRANCH   1   8
TORSDOF 1
ENDMDL
