MODEL 1
REMARK minimizedAffinity 1.34446371
REMARK minimizedRMSD -1
REMARK  1 active torsions:
REMARK  status: ('A' for Active; 'I' for Inactive)
REMARK    1  A    between atoms: C1_2  and  C2_3 
ROOT
ATOM      1  C2  UNL d   1       2.015   5.928  -5.184  0.00  0.00    -0.081 A 
ATOM      2  C3  UNL d   1       0.766   5.904  -5.816  0.00  0.00     0.006 A 
ATOM      3  C4  UNL d   1      -0.410   5.914  -5.062  0.00  0.00     0.002 A 
ATOM      4  C5  UNL d   1      -0.356   5.956  -3.664  0.00  0.00    -0.080 A 
ATOM      5  C6  UNL d   1      -1.611   5.998  -2.844  0.00  0.00     0.076 C 
ATOM      6  C7  UNL d   1       0.892   5.962  -3.032  0.00  0.00     0.002 A 
ATOM      7  C8  UNL d   1       2.068   5.951  -3.786  0.00  0.00     0.006 A 
ENDROOT
BRANCH   1   8
ATOM      8  C1  UNL d   1       3.284   5.982  -5.996  0.00  0.00     0.054 C 
ATOM      9  C   UNL d   1       4.515   5.910  -5.104  0.00  0.00     0.018 C 
ENDBRANCH   1   8
TORSDOF 1
ENDMDL
