MODEL 1
REMARK minimizedAffinity 5.62099695
REMARK minimizedRMSD -1
REMARK  1 active torsions:
REMARK  status: ('A' for Active; 'I' for Inactive)
REMARK    1  A    between atoms: C1_2  and  C2_3 
ROOT
ATOM      1  C2  UNL d   1       3.805   5.288  -5.745  0.00  0.00    -0.081 A 
ATOM      2  C3  UNL d   1       2.624   5.999  -5.995  0.00  0.00     0.006 A 
ATOM      3  C4  UNL d   1       1.387   5.352  -5.952  0.00  0.00     0.002 A 
ATOM      4  C5  UNL d   1       1.308   3.988  -5.651  0.00  0.00    -0.080 A 
ATOM      5  C6  UNL d   1      -0.017   3.289  -5.572  0.00  0.00     0.076 C 
ATOM      6  C7  UNL d   1       2.489   3.275  -5.418  0.00  0.00     0.002 A 
ATOM      7  C8  UNL d   1       3.726   3.921  -5.461  0.00  0.00     0.006 A 
ENDROOT
BRANCH   1   8
ATOM      8  C1  UNL d   1       5.136   5.996  -5.726  0.00  0.00     0.054 C 
ATOM      9  C   UNL d   1       5.953   5.606  -4.503  0.00  0.00     0.018 C 
ENDBRANCH   1   8
TORSDOF 1
ENDMDL
