MODEL 1
REMARK minimizedAffinity 1.09629643
REMARK minimizedRMSD -1
REMARK  1 active torsions:
REMARK  status: ('A' for Active; 'I' for Inactive)
REMARK    1  A    between atoms: C1_2  and  C2_3 
ROOT
ATOM      1  C2  UNL d   1       0.047   0.376   0.773  0.00  0.00    -0.076 A 
ATOM      2  C3  UNL d   1       0.899  -0.586   1.344  0.00  0.00     0.004 A 
ATOM      3  C4  UNL d   1       1.609  -1.479   0.545  0.00  0.00    -0.003 A 
ATOM      4  C5  UNL d   1       1.480  -1.426  -0.839  0.00  0.00     0.000 A 
ATOM      5  C6  UNL d   1       0.653  -0.467  -1.423  0.00  0.00     0.000 A 
ATOM      6  C7  UNL d   1      -0.058   0.452  -0.632  0.00  0.00    -0.073 A 
ATOM      7  C8  UNL d   1      -0.940   1.462  -1.314  0.00  0.00     0.078 C 
ENDROOT
BRANCH   1   8
ATOM      8  C1  UNL d   1      -0.719   1.301   1.692  0.00  0.00     0.053 C 
ATOM      9  C   UNL d   1       0.193   2.244   2.462  0.00  0.00     0.018 C 
ENDBRANCH   1   8
TORSDOF 1
ENDMDL
