MODEL 1
REMARK minimizedAffinity 0.23037374
REMARK minimizedRMSD -1
REMARK  1 active torsions:
REMARK  status: ('A' for Active; 'I' for Inactive)
REMARK    1  A    between atoms: C1_2  and  C2_3 
ROOT
ATOM      1  C2  UNL d   1       4.518  -3.329  -1.696  0.00  0.00    -0.076 A 
ATOM      2  C3  UNL d   1       4.952  -4.350  -0.833  0.00  0.00     0.004 A 
ATOM      3  C4  UNL d   1       5.020  -5.673  -1.264  0.00  0.00    -0.003 A 
ATOM      4  C5  UNL d   1       4.656  -5.997  -2.567  0.00  0.00     0.000 A 
ATOM      5  C6  UNL d   1       4.240  -4.995  -3.442  0.00  0.00     0.000 A 
ATOM      6  C7  UNL d   1       4.181  -3.653  -3.028  0.00  0.00    -0.073 A 
ATOM      7  C8  UNL d   1       3.719  -2.613  -4.011  0.00  0.00     0.078 C 
ENDROOT
BRANCH   1   8
ATOM      8  C1  UNL d   1       4.439  -1.916  -1.164  0.00  0.00     0.053 C 
ATOM      9  C   UNL d   1       3.272  -1.717  -0.209  0.00  0.00     0.018 C 
ENDBRANCH   1   8
TORSDOF 1
ENDMDL
