MODEL 1
REMARK minimizedAffinity 5.87402725
REMARK minimizedRMSD -1
REMARK  1 active torsions:
REMARK  status: ('A' for Active; 'I' for Inactive)
REMARK    1  A    between atoms: C1_2  and  C2_3 
ROOT
ATOM      1  C2  UNL d   1       4.411  -3.396  -1.734  0.00  0.00    -0.076 A 
ATOM      2  C3  UNL d   1       4.564  -4.730  -1.318  0.00  0.00     0.004 A 
ATOM      3  C4  UNL d   1       4.228  -5.788  -2.161  0.00  0.00    -0.003 A 
ATOM      4  C5  UNL d   1       3.734  -5.529  -3.435  0.00  0.00     0.000 A 
ATOM      5  C6  UNL d   1       3.592  -4.212  -3.871  0.00  0.00     0.000 A 
ATOM      6  C7  UNL d   1       3.941  -3.134  -3.039  0.00  0.00    -0.073 A 
ATOM      7  C8  UNL d   1       3.762  -1.734  -3.559  0.00  0.00     0.078 C 
ENDROOT
BRANCH   1   8
ATOM      8  C1  UNL d   1       4.766  -2.290  -0.767  0.00  0.00     0.053 C 
ATOM      9  C   UNL d   1       3.584  -1.863   0.089  0.00  0.00     0.018 C 
ENDBRANCH   1   8
TORSDOF 1
ENDMDL
