MODEL 1
REMARK minimizedAffinity -0.501255393
REMARK minimizedRMSD -1
REMARK  1 active torsions:
REMARK  status: ('A' for Active; 'I' for Inactive)
REMARK    1  A    between atoms: C1_2  and  C2_3 
ROOT
ATOM      1  C2  UNL d   1       3.998  -3.675  -2.975  0.00  0.00    -0.076 A 
ATOM      2  C3  UNL d   1       4.080  -2.698  -1.969  0.00  0.00     0.004 A 
ATOM      3  C4  UNL d   1       4.770  -2.945  -0.783  0.00  0.00    -0.003 A 
ATOM      4  C5  UNL d   1       5.389  -4.174  -0.585  0.00  0.00     0.000 A 
ATOM      5  C6  UNL d   1       5.333  -5.149  -1.580  0.00  0.00     0.000 A 
ATOM      6  C7  UNL d   1       4.656  -4.910  -2.788  0.00  0.00    -0.073 A 
ATOM      7  C8  UNL d   1       4.622  -5.999  -3.825  0.00  0.00     0.078 C 
ENDROOT
BRANCH   1   8
ATOM      8  C1  UNL d   1       3.213  -3.360  -4.229  0.00  0.00     0.053 C 
ATOM      9  C   UNL d   1       1.944  -4.190  -4.346  0.00  0.00     0.018 C 
ENDBRANCH   1   8
TORSDOF 1
ENDMDL
