MODEL 1
REMARK minimizedAffinity 1.0607537
REMARK minimizedRMSD -1
REMARK  1 active torsions:
REMARK  status: ('A' for Active; 'I' for Inactive)
REMARK    1  A    between atoms: C1_2  and  C2_3 
ROOT
ATOM      1  C2  UNL d   1       4.723  -3.300  -1.284  0.00  0.00    -0.076 A 
ATOM      2  C3  UNL d   1       5.081  -4.520  -0.683  0.00  0.00     0.004 A 
ATOM      3  C4  UNL d   1       4.892  -5.730  -1.349  0.00  0.00    -0.003 A 
ATOM      4  C5  UNL d   1       4.343  -5.740  -2.627  0.00  0.00     0.000 A 
ATOM      5  C6  UNL d   1       3.999  -4.538  -3.245  0.00  0.00     0.000 A 
ATOM      6  C7  UNL d   1       4.197  -3.308  -2.594  0.00  0.00    -0.073 A 
ATOM      7  C8  UNL d   1       3.802  -2.043  -3.304  0.00  0.00     0.078 C 
ENDROOT
BRANCH   1   8
ATOM      8  C1  UNL d   1       4.925  -2.022  -0.502  0.00  0.00     0.053 C 
ATOM      9  C   UNL d   1       3.699  -1.635   0.310  0.00  0.00     0.018 C 
ENDBRANCH   1   8
TORSDOF 1
ENDMDL
