MODEL 1
REMARK minimizedAffinity 0.569392264
REMARK minimizedRMSD -1
REMARK  1 active torsions:
REMARK  status: ('A' for Active; 'I' for Inactive)
REMARK    1  A    between atoms: C1_2  and  C2_3 
ROOT
ATOM      1  C2  UNL d   1      -1.792   3.005  -1.591  0.00  0.00    -0.076 A 
ATOM      2  C3  UNL d   1      -2.282   4.291  -1.878  0.00  0.00     0.004 A 
ATOM      3  C4  UNL d   1      -1.573   5.430  -1.501  0.00  0.00    -0.003 A 
ATOM      4  C5  UNL d   1      -0.361   5.302  -0.830  0.00  0.00     0.000 A 
ATOM      5  C6  UNL d   1       0.149   4.034  -0.553  0.00  0.00     0.000 A 
ATOM      6  C7  UNL d   1      -0.546   2.875  -0.941  0.00  0.00    -0.073 A 
ATOM      7  C8  UNL d   1       0.048   1.533  -0.610  0.00  0.00     0.078 C 
ENDROOT
BRANCH   1   8
ATOM      8  C1  UNL d   1      -2.618   1.807  -2.000  0.00  0.00     0.053 C 
ATOM      9  C   UNL d   1      -4.087   2.150  -2.195  0.00  0.00     0.018 C 
ENDBRANCH   1   8
TORSDOF 1
ENDMDL
