MODEL 1
REMARK minimizedAffinity 0.451812416
REMARK minimizedRMSD -1
REMARK  1 active torsions:
REMARK  status: ('A' for Active; 'I' for Inactive)
REMARK    1  A    between atoms: C1_2  and  C2_3 
ROOT
ATOM      1  C2  UNL d   1       3.296  -4.279  -1.679  0.00  0.00    -0.076 A 
ATOM      2  C3  UNL d   1       3.114  -3.295  -0.692  0.00  0.00     0.004 A 
ATOM      3  C4  UNL d   1       4.119  -2.372  -0.405  0.00  0.00    -0.003 A 
ATOM      4  C5  UNL d   1       5.321  -2.419  -1.101  0.00  0.00     0.000 A 
ATOM      5  C6  UNL d   1       5.512  -3.377  -2.096  0.00  0.00     0.000 A 
ATOM      6  C7  UNL d   1       4.503  -4.305  -2.409  0.00  0.00    -0.073 A 
ATOM      7  C8  UNL d   1       4.765  -5.320  -3.487  0.00  0.00     0.078 C 
ENDROOT
BRANCH   1   8
ATOM      8  C1  UNL d   1       2.181  -5.270  -1.928  0.00  0.00     0.053 C 
ATOM      9  C   UNL d   1       1.066  -5.164  -0.898  0.00  0.00     0.018 C 
ENDBRANCH   1   8
TORSDOF 1
ENDMDL
