MODEL 1
REMARK minimizedAffinity 8.3585186
REMARK minimizedRMSD -1
REMARK  1 active torsions:
REMARK  status: ('A' for Active; 'I' for Inactive)
REMARK    1  A    between atoms: C1_2  and  C2_3 
ROOT
ATOM      1  C2  UNL d   1      -0.535   2.488  -1.326  0.00  0.00    -0.076 A 
ATOM      2  C3  UNL d   1      -0.834   1.288  -0.658  0.00  0.00     0.004 A 
ATOM      3  C4  UNL d   1      -0.579   1.143   0.705  0.00  0.00    -0.003 A 
ATOM      4  C5  UNL d   1      -0.023   2.196   1.422  0.00  0.00     0.000 A 
ATOM      5  C6  UNL d   1       0.263   3.400   0.779  0.00  0.00     0.000 A 
ATOM      6  C7  UNL d   1      -0.002   3.568  -0.590  0.00  0.00    -0.073 A 
ATOM      7  C8  UNL d   1       0.332   4.886  -1.234  0.00  0.00     0.078 C 
ENDROOT
BRANCH   1   8
ATOM      8  C1  UNL d   1      -0.807   2.578  -2.810  0.00  0.00     0.053 C 
ATOM      9  C   UNL d   1      -2.116   1.911  -3.204  0.00  0.00     0.018 C 
ENDBRANCH   1   8
TORSDOF 1
ENDMDL
