MODEL 1
REMARK minimizedAffinity 4.24009275
REMARK minimizedRMSD -1
REMARK  1 active torsions:
REMARK  status: ('A' for Active; 'I' for Inactive)
REMARK    1  A    between atoms: C1_2  and  C2_3 
ROOT
ATOM      1  C2  UNL d   1       0.031   3.160  -0.276  0.00  0.00    -0.076 A 
ATOM      2  C3  UNL d   1       0.189   3.340   1.109  0.00  0.00     0.004 A 
ATOM      3  C4  UNL d   1      -0.224   2.362   2.012  0.00  0.00    -0.003 A 
ATOM      4  C5  UNL d   1      -0.801   1.186   1.545  0.00  0.00     0.000 A 
ATOM      5  C6  UNL d   1      -0.949   0.983   0.173  0.00  0.00     0.000 A 
ATOM      6  C7  UNL d   1      -0.524   1.952  -0.751  0.00  0.00    -0.073 A 
ATOM      7  C8  UNL d   1      -0.713   1.683  -2.219  0.00  0.00     0.078 C 
ENDROOT
BRANCH   1   8
ATOM      8  C1  UNL d   1       0.472   4.267  -1.205  0.00  0.00     0.053 C 
ATOM      9  C   UNL d   1       1.650   5.056  -0.655  0.00  0.00     0.018 C 
ENDBRANCH   1   8
TORSDOF 1
ENDMDL
