MODEL 1
REMARK minimizedAffinity 7.0199585
REMARK minimizedRMSD -1
REMARK  1 active torsions:
REMARK  status: ('A' for Active; 'I' for Inactive)
REMARK    1  A    between atoms: C1_2  and  C2_3 
ROOT
ATOM      1  C2  UNL d   1       3.394  -3.567  -1.822  0.00  0.00    -0.076 A 
ATOM      2  C3  UNL d   1       3.321  -2.167  -1.721  0.00  0.00     0.004 A 
ATOM      3  C4  UNL d   1       3.744  -1.349  -2.768  0.00  0.00    -0.003 A 
ATOM      4  C5  UNL d   1       4.246  -1.919  -3.933  0.00  0.00     0.000 A 
ATOM      5  C6  UNL d   1       4.309  -3.306  -4.057  0.00  0.00     0.000 A 
ATOM      6  C7  UNL d   1       3.872  -4.145  -3.018  0.00  0.00    -0.073 A 
ATOM      7  C8  UNL d   1       3.968  -5.635  -3.204  0.00  0.00     0.078 C 
ENDROOT
BRANCH   1   8
ATOM      8  C1  UNL d   1       2.946  -4.403  -0.644  0.00  0.00     0.053 C 
ATOM      9  C   UNL d   1       1.434  -4.417  -0.481  0.00  0.00     0.018 C 
ENDBRANCH   1   8
TORSDOF 1
ENDMDL
