MODEL 1
REMARK minimizedAffinity 0.877696991
REMARK minimizedRMSD -1
REMARK  1 active torsions:
REMARK  status: ('A' for Active; 'I' for Inactive)
REMARK    1  A    between atoms: C1_2  and  C2_3 
ROOT
ATOM      1  C2  UNL d   1       3.773  -4.314  -1.707  0.00  0.00    -0.076 A 
ATOM      2  C3  UNL d   1       3.065  -4.117  -2.906  0.00  0.00     0.004 A 
ATOM      3  C4  UNL d   1       3.384  -4.839  -4.054  0.00  0.00    -0.003 A 
ATOM      4  C5  UNL d   1       4.416  -5.771  -4.023  0.00  0.00     0.000 A 
ATOM      5  C6  UNL d   1       5.117  -5.992  -2.838  0.00  0.00     0.000 A 
ATOM      6  C7  UNL d   1       4.797  -5.284  -1.667  0.00  0.00    -0.073 A 
ATOM      7  C8  UNL d   1       5.590  -5.558  -0.418  0.00  0.00     0.078 C 
ENDROOT
BRANCH   1   8
ATOM      8  C1  UNL d   1       3.400  -3.482  -0.501  0.00  0.00     0.053 C 
ATOM      9  C   UNL d   1       4.247  -2.225  -0.376  0.00  0.00     0.018 C 
ENDBRANCH   1   8
TORSDOF 1
ENDMDL
