MODEL 1
REMARK minimizedAffinity 9.43344879
REMARK minimizedRMSD -1
REMARK  1 active torsions:
REMARK  status: ('A' for Active; 'I' for Inactive)
REMARK    1  A    between atoms: C1_2  and  C2_3 
ROOT
ATOM      1  C2  UNL d   1      -0.071   3.086   0.679  0.00  0.00    -0.076 A 
ATOM      2  C3  UNL d   1       0.128   4.465   0.865  0.00  0.00     0.004 A 
ATOM      3  C4  UNL d   1       0.295   5.319  -0.225  0.00  0.00    -0.003 A 
ATOM      4  C5  UNL d   1       0.266   4.807  -1.517  0.00  0.00     0.000 A 
ATOM      5  C6  UNL d   1       0.052   3.444  -1.720  0.00  0.00     0.000 A 
ATOM      6  C7  UNL d   1      -0.135   2.572  -0.634  0.00  0.00    -0.073 A 
ATOM      7  C8  UNL d   1      -0.355   1.110  -0.910  0.00  0.00     0.078 C 
ENDROOT
BRANCH   1   8
ATOM      8  C1  UNL d   1      -0.220   2.205   1.899  0.00  0.00     0.053 C 
ATOM      9  C   UNL d   1      -1.663   2.097   2.368  0.00  0.00     0.018 C 
ENDBRANCH   1   8
TORSDOF 1
ENDMDL
