MODEL 1
REMARK minimizedAffinity -6.16403627
REMARK minimizedRMSD -1
REMARK  1 active torsions:
REMARK  status: ('A' for Active; 'I' for Inactive)
REMARK    1  A    between atoms: C1_2  and  C2_3 
ROOT
ATOM      1  C2  UNL d   1       0.449  -0.338  -0.708  0.00  0.00    -0.081 A 
ATOM      2  C3  UNL d   1      -0.207  -0.728   0.466  0.00  0.00     0.006 A 
ATOM      3  C4  UNL d   1      -0.982   0.189   1.181  0.00  0.00     0.002 A 
ATOM      4  C5  UNL d   1      -1.119   1.506   0.731  0.00  0.00    -0.080 A 
ATOM      5  C6  UNL d   1      -1.972   2.492   1.473  0.00  0.00     0.076 C 
ATOM      6  C7  UNL d   1      -0.449   1.900  -0.433  0.00  0.00     0.002 A 
ATOM      7  C8  UNL d   1       0.326   0.984  -1.148  0.00  0.00     0.006 A 
ENDROOT
BRANCH   1   8
ATOM      8  C1  UNL d   1       1.232  -1.341  -1.517  0.00  0.00     0.054 C 
ATOM      9  C   UNL d   1       0.355  -2.505  -1.955  0.00  0.00     0.018 C 
ENDBRANCH   1   8
TORSDOF 1
ENDMDL
