MODEL 1
REMARK minimizedAffinity -5.14690685
REMARK minimizedRMSD -1
REMARK  1 active torsions:
REMARK  status: ('A' for Active; 'I' for Inactive)
REMARK    1  A    between atoms: C1_2  and  C2_3 
ROOT
ATOM      1  C2  UNL d   1       0.818  -0.153   0.011  0.00  0.00    -0.081 A 
ATOM      2  C3  UNL d   1      -0.042  -0.436   1.080  0.00  0.00     0.006 A 
ATOM      3  C4  UNL d   1      -1.001   0.495   1.484  0.00  0.00     0.002 A 
ATOM      4  C5  UNL d   1      -1.121   1.722   0.823  0.00  0.00    -0.080 A 
ATOM      5  C6  UNL d   1      -2.167   2.719   1.227  0.00  0.00     0.076 C 
ATOM      6  C7  UNL d   1      -0.251   2.013  -0.234  0.00  0.00     0.002 A 
ATOM      7  C8  UNL d   1       0.708   1.082  -0.638  0.00  0.00     0.006 A 
ENDROOT
BRANCH   1   8
ATOM      8  C1  UNL d   1       1.809  -1.181  -0.469  0.00  0.00     0.054 C 
ATOM      9  C   UNL d   1       1.193  -2.098  -1.516  0.00  0.00     0.018 C 
ENDBRANCH   1   8
TORSDOF 1
ENDMDL
