MODEL 1
REMARK minimizedAffinity -4.39154959
REMARK minimizedRMSD -1
REMARK  1 active torsions:
REMARK  status: ('A' for Active; 'I' for Inactive)
REMARK    1  A    between atoms: C1_2  and  C2_3 
ROOT
ATOM      1  C2  UNL d   1       0.271  -0.754  -0.465  0.00  0.00    -0.081 A 
ATOM      2  C3  UNL d   1      -0.335  -0.913   0.788  0.00  0.00     0.006 A 
ATOM      3  C4  UNL d   1      -1.095   0.120   1.342  0.00  0.00     0.002 A 
ATOM      4  C5  UNL d   1      -1.269   1.324   0.651  0.00  0.00    -0.080 A 
ATOM      5  C6  UNL d   1      -2.107   2.429   1.221  0.00  0.00     0.076 C 
ATOM      6  C7  UNL d   1      -0.649   1.489  -0.593  0.00  0.00     0.002 A 
ATOM      7  C8  UNL d   1       0.112   0.457  -1.147  0.00  0.00     0.006 A 
ENDROOT
BRANCH   1   8
ATOM      8  C1  UNL d   1       1.037  -1.890  -1.094  0.00  0.00     0.054 C 
ATOM      9  C   UNL d   1       0.179  -2.648  -2.096  0.00  0.00     0.018 C 
ENDBRANCH   1   8
TORSDOF 1
ENDMDL
