MODEL 1
REMARK minimizedAffinity -4.92491913
REMARK minimizedRMSD -1
REMARK  1 active torsions:
REMARK  status: ('A' for Active; 'I' for Inactive)
REMARK    1  A    between atoms: C1_2  and  C2_3 
ROOT
ATOM      1  C2  UNL d   1       0.298  -0.684  -0.346  0.00  0.00    -0.081 A 
ATOM      2  C3  UNL d   1       0.024  -0.608   1.025  0.00  0.00     0.006 A 
ATOM      3  C4  UNL d   1      -0.808   0.396   1.526  0.00  0.00     0.002 A 
ATOM      4  C5  UNL d   1      -1.385   1.335   0.665  0.00  0.00    -0.080 A 
ATOM      5  C6  UNL d   1      -2.305   2.399   1.186  0.00  0.00     0.076 C 
ATOM      6  C7  UNL d   1      -1.098   1.269  -0.703  0.00  0.00     0.002 A 
ATOM      7  C8  UNL d   1      -0.265   0.266  -1.205  0.00  0.00     0.006 A 
ENDROOT
BRANCH   1   8
ATOM      8  C1  UNL d   1       1.143  -1.804  -0.898  0.00  0.00     0.054 C 
ATOM      9  C   UNL d   1       0.324  -2.729  -1.787  0.00  0.00     0.018 C 
ENDBRANCH   1   8
TORSDOF 1
ENDMDL
