MODEL 1
REMARK minimizedAffinity -3.71960568
REMARK minimizedRMSD -1
REMARK  1 active torsions:
REMARK  status: ('A' for Active; 'I' for Inactive)
REMARK    1  A    between atoms: C1_2  and  C2_3 
ROOT
ATOM      1  C2  UNL d   1       0.613  -0.206  -0.483  0.00  0.00    -0.081 A 
ATOM      2  C3  UNL d   1      -0.715   0.230  -0.392  0.00  0.00     0.006 A 
ATOM      3  C4  UNL d   1      -1.069   1.513  -0.815  0.00  0.00     0.002 A 
ATOM      4  C5  UNL d   1      -0.105   2.378  -1.343  0.00  0.00    -0.080 A 
ATOM      5  C6  UNL d   1      -0.477   3.748  -1.829  0.00  0.00     0.076 C 
ATOM      6  C7  UNL d   1       1.225   1.949  -1.417  0.00  0.00     0.002 A 
ATOM      7  C8  UNL d   1       1.580   0.667  -0.994  0.00  0.00     0.006 A 
ENDROOT
BRANCH   1   8
ATOM      8  C1  UNL d   1       0.986  -1.612  -0.088  0.00  0.00     0.054 C 
ATOM      9  C   UNL d   1       1.133  -2.509  -1.309  0.00  0.00     0.018 C 
ENDBRANCH   1   8
TORSDOF 1
ENDMDL
