MODEL 1
REMARK minimizedAffinity -3.9638226
REMARK minimizedRMSD -1
REMARK  1 active torsions:
REMARK  status: ('A' for Active; 'I' for Inactive)
REMARK    1  A    between atoms: C1_2  and  C2_3 
ROOT
ATOM      1  C2  UNL d   1      -1.041   2.256   0.684  0.00  0.00    -0.081 A 
ATOM      2  C3  UNL d   1      -2.146   2.034   1.515  0.00  0.00     0.006 A 
ATOM      3  C4  UNL d   1      -2.324   0.799   2.143  0.00  0.00     0.002 A 
ATOM      4  C5  UNL d   1      -1.396  -0.232   1.956  0.00  0.00    -0.080 A 
ATOM      5  C6  UNL d   1      -1.559  -1.553   2.648  0.00  0.00     0.076 C 
ATOM      6  C7  UNL d   1      -0.302  -0.017   1.112  0.00  0.00     0.002 A 
ATOM      7  C8  UNL d   1      -0.124   1.218   0.484  0.00  0.00     0.006 A 
ENDROOT
BRANCH   1   8
ATOM      8  C1  UNL d   1      -0.812   3.607   0.057  0.00  0.00     0.054 C 
ATOM      9  C   UNL d   1       0.067   3.502  -1.181  0.00  0.00     0.018 C 
ENDBRANCH   1   8
TORSDOF 1
ENDMDL
