MODEL 1
REMARK minimizedAffinity -4.72246075
REMARK minimizedRMSD -1
REMARK  1 active torsions:
REMARK  status: ('A' for Active; 'I' for Inactive)
REMARK    1  A    between atoms: C1_2  and  C2_3 
ROOT
ATOM      1  C2  UNL d   1       0.578  -0.885  -0.551  0.00  0.00    -0.081 A 
ATOM      2  C3  UNL d   1       0.161  -1.132   0.762  0.00  0.00     0.006 A 
ATOM      3  C4  UNL d   1      -0.690  -0.237   1.415  0.00  0.00     0.002 A 
ATOM      4  C5  UNL d   1      -1.145   0.914   0.763  0.00  0.00    -0.080 A 
ATOM      5  C6  UNL d   1      -2.083   1.867   1.442  0.00  0.00     0.076 C 
ATOM      6  C7  UNL d   1      -0.714   1.169  -0.543  0.00  0.00     0.002 A 
ATOM      7  C8  UNL d   1       0.137   0.275  -1.196  0.00  0.00     0.006 A 
ENDROOT
BRANCH   1   8
ATOM      8  C1  UNL d   1       1.445  -1.881  -1.280  0.00  0.00     0.054 C 
ATOM      9  C   UNL d   1       0.713  -2.484  -2.471  0.00  0.00     0.018 C 
ENDBRANCH   1   8
TORSDOF 1
ENDMDL
