MODEL 1
REMARK minimizedAffinity -4.85157728
REMARK minimizedRMSD -1
REMARK  1 active torsions:
REMARK  status: ('A' for Active; 'I' for Inactive)
REMARK    1  A    between atoms: C1_2  and  C2_3 
ROOT
ATOM      1  C2  UNL d   1      -0.535  -0.484   0.609  0.00  0.00    -0.081 A 
ATOM      2  C3  UNL d   1      -1.402  -1.259  -0.170  0.00  0.00     0.006 A 
ATOM      3  C4  UNL d   1      -0.921  -1.966  -1.275  0.00  0.00     0.002 A 
ATOM      4  C5  UNL d   1       0.436  -1.915  -1.614  0.00  0.00    -0.080 A 
ATOM      5  C6  UNL d   1       0.971  -2.694  -2.779  0.00  0.00     0.076 C 
ATOM      6  C7  UNL d   1       1.299  -1.127  -0.845  0.00  0.00     0.002 A 
ATOM      7  C8  UNL d   1       0.818  -0.419   0.259  0.00  0.00     0.006 A 
ENDROOT
BRANCH   1   8
ATOM      8  C1  UNL d   1      -1.039   0.228   1.839  0.00  0.00     0.054 C 
ATOM      9  C   UNL d   1      -1.102   1.733   1.621  0.00  0.00     0.018 C 
ENDBRANCH   1   8
TORSDOF 1
ENDMDL
