MODEL 1
REMARK minimizedAffinity -5.09662199
REMARK minimizedRMSD -1
REMARK  1 active torsions:
REMARK  status: ('A' for Active; 'I' for Inactive)
REMARK    1  A    between atoms: C1_2  and  C2_3 
ROOT
ATOM      1  C2  UNL d   1       0.575  -0.009  -0.044  0.00  0.00    -0.081 A 
ATOM      2  C3  UNL d   1      -0.037  -0.088   1.213  0.00  0.00     0.006 A 
ATOM      3  C4  UNL d   1      -1.039   0.818   1.571  0.00  0.00     0.002 A 
ATOM      4  C5  UNL d   1      -1.450   1.811   0.676  0.00  0.00    -0.080 A 
ATOM      5  C6  UNL d   1      -2.545   2.771   1.036  0.00  0.00     0.076 C 
ATOM      6  C7  UNL d   1      -0.826   1.901  -0.573  0.00  0.00     0.002 A 
ATOM      7  C8  UNL d   1       0.176   0.996  -0.931  0.00  0.00     0.006 A 
ENDROOT
BRANCH   1   8
ATOM      8  C1  UNL d   1       1.610  -1.024  -0.457  0.00  0.00     0.054 C 
ATOM      9  C   UNL d   1       0.977  -2.185  -1.210  0.00  0.00     0.018 C 
ENDBRANCH   1   8
TORSDOF 1
ENDMDL
