MODEL 1
REMARK minimizedAffinity 7.99544764
REMARK minimizedRMSD -1
REMARK  0 active torsions:
REMARK  status: ('A' for Active; 'I' for Inactive)
ROOT
ATOM      1  C1  DEN d   1       1.622   1.442   0.348  0.00  0.00     0.130 A 
ATOM      2  C2  DEN d   1       2.274   2.717   0.638  0.00  0.00    -0.031 A 
ATOM      3  C3  DEN d   1       3.561   2.430   1.302  0.00  0.00     0.027 A 
ATOM      4  C4  DEN d   1       4.606   0.150   1.902  0.00  0.00     0.027 A 
ATOM      5  C5  DEN d   1       4.420  -1.214   1.864  0.00  0.00    -0.003 A 
ATOM      6  C6  DEN d   1       3.284  -1.783   1.353  0.00  0.00     0.001 A 
ATOM      7  C7  DEN d   1       2.307  -0.985   0.818  0.00  0.00     0.017 A 
ATOM      8  C8  DEN d   1       2.484   0.392   0.859  0.00  0.00    -0.094 A 
ATOM      9  C9  DEN d   1       3.645   0.947   1.368  0.00  0.00    -0.072 A 
ENDROOT
TORSDOF 0
ENDMDL
