MODEL 1
REMARK minimizedAffinity 0.0612000301
REMARK minimizedRMSD -1
REMARK  0 active torsions:
REMARK  status: ('A' for Active; 'I' for Inactive)
ROOT
ATOM      1  C1  DEN d   1       4.443  -0.054  -2.212  0.00  0.00     0.130 A 
ATOM      2  C2  DEN d   1       4.311  -1.338  -2.893  0.00  0.00    -0.031 A 
ATOM      3  C3  DEN d   1       3.608  -2.267  -1.985  0.00  0.00     0.027 A 
ATOM      4  C4  DEN d   1       2.712  -1.841   0.396  0.00  0.00     0.027 A 
ATOM      5  C5  DEN d   1       2.599  -0.907   1.402  0.00  0.00    -0.003 A 
ATOM      6  C6  DEN d   1       3.118   0.355   1.288  0.00  0.00     0.001 A 
ATOM      7  C7  DEN d   1       3.735   0.734   0.125  0.00  0.00     0.017 A 
ATOM      8  C8  DEN d   1       3.860  -0.204  -0.891  0.00  0.00    -0.094 A 
ATOM      9  C9  DEN d   1       3.318  -1.472  -0.762  0.00  0.00    -0.072 A 
ENDROOT
TORSDOF 0
ENDMDL
