MODEL 1
REMARK minimizedAffinity 4.65887451
REMARK minimizedRMSD -1
REMARK  0 active torsions:
REMARK  status: ('A' for Active; 'I' for Inactive)
ROOT
ATOM      1  C1  DEN d   1       3.393  -1.858  -0.648  0.00  0.00     0.130 A 
ATOM      2  C2  DEN d   1       2.060  -2.259  -0.208  0.00  0.00    -0.031 A 
ATOM      3  C3  DEN d   1       1.387  -1.069   0.352  0.00  0.00     0.027 A 
ATOM      4  C4  DEN d   1       2.274   1.342   0.574  0.00  0.00     0.027 A 
ATOM      5  C5  DEN d   1       3.355   2.166   0.349  0.00  0.00    -0.003 A 
ATOM      6  C6  DEN d   1       4.527   1.702  -0.187  0.00  0.00     0.001 A 
ATOM      7  C7  DEN d   1       4.630   0.388  -0.560  0.00  0.00     0.017 A 
ATOM      8  C8  DEN d   1       3.547  -0.450  -0.330  0.00  0.00    -0.094 A 
ATOM      9  C9  DEN d   1       2.366   0.040   0.202  0.00  0.00    -0.072 A 
ENDROOT
TORSDOF 0
ENDMDL
