MODEL 1
REMARK minimizedAffinity 4.84770346
REMARK minimizedRMSD -1
REMARK  0 active torsions:
REMARK  status: ('A' for Active; 'I' for Inactive)
ROOT
ATOM      1  C1  DEN d   1       1.224   2.318  -0.001  0.00  0.00     0.130 A 
ATOM      2  C2  DEN d   1       0.002   1.796  -0.607  0.00  0.00    -0.031 A 
ATOM      3  C3  DEN d   1       0.200   0.355  -0.864  0.00  0.00     0.027 A 
ATOM      4  C4  DEN d   1       2.266  -1.111  -0.381  0.00  0.00     0.027 A 
ATOM      5  C5  DEN d   1       3.551  -1.111   0.117  0.00  0.00    -0.003 A 
ATOM      6  C6  DEN d   1       4.157   0.028   0.575  0.00  0.00     0.001 A 
ATOM      7  C7  DEN d   1       3.462   1.209   0.587  0.00  0.00     0.017 A 
ATOM      8  C8  DEN d   1       2.169   1.219   0.080  0.00  0.00    -0.094 A 
ATOM      9  C9  DEN d   1       1.569   0.054  -0.367  0.00  0.00    -0.072 A 
ENDROOT
TORSDOF 0
ENDMDL
