MODEL 1
REMARK minimizedAffinity 5.4898715
REMARK minimizedRMSD -1
REMARK  0 active torsions:
REMARK  status: ('A' for Active; 'I' for Inactive)
ROOT
ATOM      1  C1  DEN d   1       1.901  -1.141  -0.634  0.00  0.00     0.130 A 
ATOM      2  C2  DEN d   1       3.219  -1.750  -0.479  0.00  0.00    -0.031 A 
ATOM      3  C3  DEN d   1       4.121  -0.742   0.115  0.00  0.00     0.027 A 
ATOM      4  C4  DEN d   1       3.605   1.687   0.811  0.00  0.00     0.027 A 
ATOM      5  C5  DEN d   1       2.628   2.657   0.862  0.00  0.00    -0.003 A 
ATOM      6  C6  DEN d   1       1.360   2.441   0.390  0.00  0.00     0.001 A 
ATOM      7  C7  DEN d   1       1.022   1.212  -0.112  0.00  0.00     0.017 A 
ATOM      8  C8  DEN d   1       2.004   0.232  -0.173  0.00  0.00    -0.094 A 
ATOM      9  C9  DEN d   1       3.277   0.465   0.320  0.00  0.00    -0.072 A 
ENDROOT
TORSDOF 0
ENDMDL
