MODEL 1
REMARK minimizedAffinity 7.8402276
REMARK minimizedRMSD -1
REMARK  0 active torsions:
REMARK  status: ('A' for Active; 'I' for Inactive)
ROOT
ATOM      1  C1  DEN d   1       3.380  -1.388   0.200  0.00  0.00     0.130 A 
ATOM      2  C2  DEN d   1       2.386  -2.369  -0.227  0.00  0.00    -0.031 A 
ATOM      3  C3  DEN d   1       1.158  -1.642  -0.605  0.00  0.00     0.027 A 
ATOM      4  C4  DEN d   1       0.702   0.897  -0.574  0.00  0.00     0.027 A 
ATOM      5  C5  DEN d   1       1.239   2.130  -0.277  0.00  0.00    -0.003 A 
ATOM      6  C6  DEN d   1       2.504   2.274   0.228  0.00  0.00     0.001 A 
ATOM      7  C7  DEN d   1       3.292   1.168   0.408  0.00  0.00     0.017 A 
ATOM      8  C8  DEN d   1       2.755  -0.080   0.118  0.00  0.00    -0.094 A 
ATOM      9  C9  DEN d   1       1.479  -0.203  -0.403  0.00  0.00    -0.072 A 
ENDROOT
TORSDOF 0
ENDMDL
