MODEL 1
REMARK minimizedAffinity -0.485418677
REMARK minimizedRMSD -1
REMARK  0 active torsions:
REMARK  status: ('A' for Active; 'I' for Inactive)
ROOT
ATOM      1  C1  DEN d   1       0.259   1.193  -0.925  0.00  0.00     0.130 A 
ATOM      2  C2  DEN d   1       0.642   2.336  -0.101  0.00  0.00    -0.031 A 
ATOM      3  C3  DEN d   1       1.873   1.979   0.632  0.00  0.00     0.027 A 
ATOM      4  C4  DEN d   1       3.220  -0.219   0.567  0.00  0.00     0.027 A 
ATOM      5  C5  DEN d   1       3.280  -1.483   0.024  0.00  0.00    -0.003 A 
ATOM      6  C6  DEN d   1       2.326  -1.953  -0.840  0.00  0.00     0.001 A 
ATOM      7  C7  DEN d   1       1.295  -1.135  -1.222  0.00  0.00     0.017 A 
ATOM      8  C8  DEN d   1       1.224   0.138  -0.673  0.00  0.00    -0.094 A 
ATOM      9  C9  DEN d   1       2.205   0.598   0.190  0.00  0.00    -0.072 A 
ENDROOT
TORSDOF 0
ENDMDL
