MODEL 1
REMARK minimizedAffinity 5.22983217
REMARK minimizedRMSD -1
REMARK  0 active torsions:
REMARK  status: ('A' for Active; 'I' for Inactive)
ROOT
ATOM      1  N1  IND d   1      -2.034  -2.261   5.612  0.00  0.00    -0.196 N 
ATOM      2  C2  IND d   1      -2.624  -3.333   5.002  0.00  0.00     0.054 A 
ATOM      3  C3  IND d   1      -2.055  -3.561   3.797  0.00  0.00    -0.031 A 
ATOM      4  C4  IND d   1      -0.074  -2.362   2.671  0.00  0.00     0.051 A 
ATOM      5  C5  IND d   1       0.769  -1.298   2.825  0.00  0.00    -0.031 A 
ATOM      6  C6  IND d   1       0.723  -0.486   3.939  0.00  0.00     0.015 A 
ATOM      7  C7  IND d   1      -0.166  -0.715   4.951  0.00  0.00    -0.016 A 
ATOM      8  C8  IND d   1      -1.029  -1.791   4.795  0.00  0.00    -0.047 A 
ATOM      9  C9  IND d   1      -1.015  -2.593   3.647  0.00  0.00    -0.096 A 
ATOM     10  HN1 IND d   1      -2.254  -1.935   6.377  0.00  0.00     0.298 HD
ENDROOT
TORSDOF 0
ENDMDL
