MODEL 1
REMARK minimizedAffinity 11.7455015
REMARK minimizedRMSD -1
REMARK  0 active torsions:
REMARK  status: ('A' for Active; 'I' for Inactive)
ROOT
ATOM      1  N1  IND d   1       0.326  -5.723   3.792  0.00  0.00    -0.196 N 
ATOM      2  C2  IND d   1       1.324  -6.000   2.900  0.00  0.00     0.054 A 
ATOM      3  C3  IND d   1       1.443  -4.997   2.001  0.00  0.00    -0.031 A 
ATOM      4  C4  IND d   1       0.174  -2.762   1.867  0.00  0.00     0.051 A 
ATOM      5  C5  IND d   1      -0.856  -2.072   2.442  0.00  0.00    -0.031 A 
ATOM      6  C6  IND d   1      -1.558  -2.572   3.520  0.00  0.00     0.015 A 
ATOM      7  C7  IND d   1      -1.246  -3.782   4.072  0.00  0.00    -0.016 A 
ATOM      8  C8  IND d   1      -0.205  -4.489   3.487  0.00  0.00    -0.047 A 
ATOM      9  C9  IND d   1       0.483  -4.005   2.366  0.00  0.00    -0.096 A 
ATOM     10  HN1 IND d   1       0.073  -6.233   4.436  0.00  0.00     0.298 HD
ENDROOT
TORSDOF 0
ENDMDL
