MODEL 1
REMARK minimizedAffinity 15.5646744
REMARK minimizedRMSD -1
REMARK  0 active torsions:
REMARK  status: ('A' for Active; 'I' for Inactive)
ROOT
ATOM      1  N1  IND d   1      -0.093  -0.464   3.165  0.00  0.00    -0.196 N 
ATOM      2  C2  IND d   1      -0.610  -0.513   4.430  0.00  0.00     0.054 A 
ATOM      3  C3  IND d   1       0.334  -0.179   5.337  0.00  0.00    -0.031 A 
ATOM      4  C4  IND d   1       2.765   0.582   4.964  0.00  0.00     0.051 A 
ATOM      5  C5  IND d   1       3.704   0.748   3.984  0.00  0.00    -0.031 A 
ATOM      6  C6  IND d   1       3.417   0.516   2.654  0.00  0.00     0.015 A 
ATOM      7  C7  IND d   1       2.174   0.120   2.251  0.00  0.00    -0.016 A 
ATOM      8  C8  IND d   1       1.221  -0.057   3.244  0.00  0.00    -0.047 A 
ATOM      9  C9  IND d   1       1.517   0.135   4.600  0.00  0.00    -0.096 A 
ATOM     10  HN1 IND d   1      -0.517  -0.655   2.442  0.00  0.00     0.298 HD
ENDROOT
TORSDOF 0
ENDMDL
