MODEL 1
REMARK minimizedAffinity 15.1024733
REMARK minimizedRMSD -1
REMARK  0 active torsions:
REMARK  status: ('A' for Active; 'I' for Inactive)
ROOT
ATOM      1  N1  IND d   1      -2.289  -2.248   3.997  0.00  0.00    -0.196 N 
ATOM      2  C2  IND d   1      -2.741  -3.225   3.153  0.00  0.00     0.054 A 
ATOM      3  C3  IND d   1      -1.967  -3.285   2.046  0.00  0.00    -0.031 A 
ATOM      4  C4  IND d   1       0.151  -1.946   1.457  0.00  0.00     0.051 A 
ATOM      5  C5  IND d   1       0.931  -0.915   1.898  0.00  0.00    -0.031 A 
ATOM      6  C6  IND d   1       0.674  -0.264   3.088  0.00  0.00     0.015 A 
ATOM      7  C7  IND d   1      -0.371  -0.629   3.889  0.00  0.00    -0.016 A 
ATOM      8  C8  IND d   1      -1.169  -1.672   3.439  0.00  0.00    -0.047 A 
ATOM      9  C9  IND d   1      -0.939  -2.308   2.213  0.00  0.00    -0.096 A 
ATOM     10  HN1 IND d   1      -2.645  -2.031   4.748  0.00  0.00     0.298 HD
ENDROOT
TORSDOF 0
ENDMDL
