MODEL 1
REMARK minimizedAffinity 11.6882505
REMARK minimizedRMSD -1
REMARK  0 active torsions:
REMARK  status: ('A' for Active; 'I' for Inactive)
ROOT
ATOM      1  N1  IND d   1       0.826  -0.077   5.087  0.00  0.00    -0.196 N 
ATOM      2  C2  IND d   1      -0.163  -0.480   5.940  0.00  0.00     0.054 A 
ATOM      3  C3  IND d   1      -0.980  -1.367   5.328  0.00  0.00    -0.031 A 
ATOM      4  C4  IND d   1      -0.821  -2.374   2.964  0.00  0.00     0.051 A 
ATOM      5  C5  IND d   1      -0.109  -2.285   1.801  0.00  0.00    -0.031 A 
ATOM      6  C6  IND d   1       0.975  -1.440   1.672  0.00  0.00     0.015 A 
ATOM      7  C7  IND d   1       1.395  -0.658   2.710  0.00  0.00    -0.016 A 
ATOM      8  C8  IND d   1       0.670  -0.740   3.890  0.00  0.00    -0.047 A 
ATOM      9  C9  IND d   1      -0.456  -1.564   4.014  0.00  0.00    -0.096 A 
ATOM     10  HN1 IND d   1       1.442   0.496   5.268  0.00  0.00     0.298 HD
ENDROOT
TORSDOF 0
ENDMDL
