MODEL 1
REMARK minimizedAffinity 14.4457159
REMARK minimizedRMSD -1
REMARK  0 active torsions:
REMARK  status: ('A' for Active; 'I' for Inactive)
ROOT
ATOM      1  N1  IND d   1      -5.995  -5.341  -0.492  0.00  0.00    -0.196 N 
ATOM      2  C2  IND d   1      -5.008  -5.997  -1.173  0.00  0.00     0.054 A 
ATOM      3  C3  IND d   1      -3.807  -5.768  -0.596  0.00  0.00    -0.031 A 
ATOM      4  C4  IND d   1      -3.242  -4.432   1.531  0.00  0.00     0.051 A 
ATOM      5  C5  IND d   1      -3.807  -3.623   2.476  0.00  0.00    -0.031 A 
ATOM      6  C6  IND d   1      -5.158  -3.341   2.482  0.00  0.00     0.015 A 
ATOM      7  C7  IND d   1      -6.000  -3.870   1.545  0.00  0.00    -0.016 A 
ATOM      8  C8  IND d   1      -5.429  -4.687   0.579  0.00  0.00    -0.047 A 
ATOM      9  C9  IND d   1      -4.052  -4.942   0.543  0.00  0.00    -0.096 A 
ATOM     10  HN1 IND d   1      -6.830  -5.337  -0.699  0.00  0.00     0.298 HD
ENDROOT
TORSDOF 0
ENDMDL
