MODEL 1
REMARK minimizedAffinity 8.23269939
REMARK minimizedRMSD -1
REMARK  0 active torsions:
REMARK  status: ('A' for Active; 'I' for Inactive)
ROOT
ATOM      1  N1  IND d   1      -3.287   3.087  -2.913  0.00  0.00    -0.196 N 
ATOM      2  C2  IND d   1      -4.034   2.375  -2.016  0.00  0.00     0.054 A 
ATOM      3  C3  IND d   1      -3.249   1.900  -1.023  0.00  0.00    -0.031 A 
ATOM      4  C4  IND d   1      -0.732   2.254  -0.616  0.00  0.00     0.051 A 
ATOM      5  C5  IND d   1       0.384   2.802  -1.183  0.00  0.00    -0.031 A 
ATOM      6  C6  IND d   1       0.332   3.490  -2.378  0.00  0.00     0.015 A 
ATOM      7  C7  IND d   1      -0.845   3.665  -3.048  0.00  0.00    -0.016 A 
ATOM      8  C8  IND d   1      -1.980   3.104  -2.479  0.00  0.00    -0.047 A 
ATOM      9  C9  IND d   1      -1.926   2.368  -1.288  0.00  0.00    -0.096 A 
ATOM     10  HN1 IND d   1      -3.584   3.461  -3.627  0.00  0.00     0.298 HD
ENDROOT
TORSDOF 0
ENDMDL
