MODEL 1
REMARK minimizedAffinity 17.7707653
REMARK minimizedRMSD -1
REMARK  0 active torsions:
REMARK  status: ('A' for Active; 'I' for Inactive)
ROOT
ATOM      1  N1  IND d   1       0.146  -0.685   2.610  0.00  0.00    -0.196 N 
ATOM      2  C2  IND d   1      -0.684  -1.435   1.825  0.00  0.00     0.054 A 
ATOM      3  C3  IND d   1       0.032  -2.121   0.905  0.00  0.00    -0.031 A 
ATOM      4  C4  IND d   1       2.582  -2.240   0.573  0.00  0.00     0.051 A 
ATOM      5  C5  IND d   1       3.753  -1.700   1.024  0.00  0.00    -0.031 A 
ATOM      6  C6  IND d   1       3.783  -0.777   2.050  0.00  0.00     0.015 A 
ATOM      7  C7  IND d   1       2.638  -0.367   2.673  0.00  0.00    -0.016 A 
ATOM      8  C8  IND d   1       1.446  -0.908   2.212  0.00  0.00    -0.047 A 
ATOM      9  C9  IND d   1       1.406  -1.813   1.143  0.00  0.00    -0.096 A 
ATOM     10  HN1 IND d   1      -0.102  -0.161   3.245  0.00  0.00     0.298 HD
ENDROOT
TORSDOF 0
ENDMDL
