MODEL 1
REMARK minimizedAffinity 6.00164986
REMARK minimizedRMSD -1
REMARK  0 active torsions:
REMARK  status: ('A' for Active; 'I' for Inactive)
ROOT
ATOM      1  N1  IND d   1      -5.777  -5.971   0.686  0.00  0.00    -0.196 N 
ATOM      2  C2  IND d   1      -5.156  -6.000  -0.532  0.00  0.00     0.054 A 
ATOM      3  C3  IND d   1      -4.068  -5.197  -0.524  0.00  0.00    -0.031 A 
ATOM      4  C4  IND d   1      -3.063  -3.822   1.406  0.00  0.00     0.051 A 
ATOM      5  C5  IND d   1      -3.298  -3.450   2.700  0.00  0.00    -0.031 A 
ATOM      6  C6  IND d   1      -4.392  -3.911   3.404  0.00  0.00     0.015 A 
ATOM      7  C7  IND d   1      -5.289  -4.773   2.841  0.00  0.00    -0.016 A 
ATOM      8  C8  IND d   1      -5.058  -5.148   1.525  0.00  0.00    -0.047 A 
ATOM      9  C9  IND d   1      -3.973  -4.650   0.792  0.00  0.00    -0.096 A 
ATOM     10  HN1 IND d   1      -6.496  -6.395   0.893  0.00  0.00     0.298 HD
ENDROOT
TORSDOF 0
ENDMDL
