MODEL 1
REMARK minimizedAffinity 24.1147308
REMARK minimizedRMSD -1
REMARK  0 active torsions:
REMARK  status: ('A' for Active; 'I' for Inactive)
ROOT
ATOM      1  N1  IND d   1      -1.095   3.743  -1.868  0.00  0.00    -0.196 N 
ATOM      2  C2  IND d   1      -1.497   2.440  -1.976  0.00  0.00     0.054 A 
ATOM      3  C3  IND d   1      -1.974   2.197  -3.217  0.00  0.00    -0.031 A 
ATOM      4  C4  IND d   1      -2.096   3.762  -5.258  0.00  0.00     0.051 A 
ATOM      5  C5  IND d   1      -1.881   5.057  -5.637  0.00  0.00    -0.031 A 
ATOM      6  C6  IND d   1      -1.380   5.999  -4.762  0.00  0.00     0.015 A 
ATOM      7  C7  IND d   1      -1.063   5.676  -3.472  0.00  0.00    -0.016 A 
ATOM      8  C8  IND d   1      -1.287   4.363  -3.082  0.00  0.00    -0.047 A 
ATOM      9  C9  IND d   1      -1.835   3.414  -3.954  0.00  0.00    -0.096 A 
ATOM     10  HN1 IND d   1      -0.775   4.112  -1.160  0.00  0.00     0.298 HD
ENDROOT
TORSDOF 0
ENDMDL
