MODEL 1
REMARK minimizedAffinity 13.129777
REMARK minimizedRMSD -1
REMARK  0 active torsions:
REMARK  status: ('A' for Active; 'I' for Inactive)
ROOT
ATOM      1  N1  IND d   1       2.571  -1.462   1.862  0.00  0.00    -0.196 N 
ATOM      2  C2  IND d   1       1.958  -0.241   1.810  0.00  0.00     0.054 A 
ATOM      3  C3  IND d   1       0.621  -0.392   1.676  0.00  0.00    -0.031 A 
ATOM      4  C4  IND d   1      -0.785  -2.548   1.625  0.00  0.00     0.051 A 
ATOM      5  C5  IND d   1      -0.669  -3.909   1.604  0.00  0.00    -0.031 A 
ATOM      6  C6  IND d   1       0.558  -4.537   1.673  0.00  0.00     0.015 A 
ATOM      7  C7  IND d   1       1.718  -3.824   1.776  0.00  0.00    -0.016 A 
ATOM      8  C8  IND d   1       1.605  -2.441   1.790  0.00  0.00    -0.047 A 
ATOM      9  C9  IND d   1       0.366  -1.797   1.678  0.00  0.00    -0.096 A 
ATOM     10  HN1 IND d   1       3.418  -1.596   1.928  0.00  0.00     0.298 HD
ENDROOT
TORSDOF 0
ENDMDL
