MODEL 1
REMARK minimizedAffinity 1.24848652
REMARK minimizedRMSD -1
REMARK  0 active torsions:
REMARK  status: ('A' for Active; 'I' for Inactive)
ROOT
ATOM      1  N1  IND d   1       4.732  -4.262  -6.000  0.00  0.00    -0.196 N 
ATOM      2  C2  IND d   1       4.799  -2.909  -5.817  0.00  0.00     0.054 A 
ATOM      3  C3  IND d   1       3.570  -2.408  -5.557  0.00  0.00    -0.031 A 
ATOM      4  C4  IND d   1       1.326  -3.640  -5.285  0.00  0.00     0.051 A 
ATOM      5  C5  IND d   1       0.756  -4.877  -5.396  0.00  0.00    -0.031 A 
ATOM      6  C6  IND d   1       1.498  -5.996  -5.719  0.00  0.00     0.015 A 
ATOM      7  C7  IND d   1       2.845  -5.920  -5.931  0.00  0.00    -0.016 A 
ATOM      8  C8  IND d   1       3.426  -4.664  -5.826  0.00  0.00    -0.047 A 
ATOM      9  C9  IND d   1       2.672  -3.519  -5.541  0.00  0.00    -0.096 A 
ATOM     10  HN1 IND d   1       5.395  -4.776  -6.192  0.00  0.00     0.298 HD
ENDROOT
TORSDOF 0
ENDMDL
