MODEL 1
REMARK minimizedAffinity 21.2875652
REMARK minimizedRMSD -1
REMARK  0 active torsions:
REMARK  status: ('A' for Active; 'I' for Inactive)
ROOT
ATOM      1  N1  IND d   1      -2.407   3.734  -5.616  0.00  0.00    -0.196 N 
ATOM      2  C2  IND d   1      -2.194   5.029  -5.998  0.00  0.00     0.054 A 
ATOM      3  C3  IND d   1      -2.331   5.860  -4.940  0.00  0.00    -0.031 A 
ATOM      4  C4  IND d   1      -2.800   5.301  -2.471  0.00  0.00     0.051 A 
ATOM      5  C5  IND d   1      -3.104   4.259  -1.642  0.00  0.00    -0.031 A 
ATOM      6  C6  IND d   1      -3.189   2.961  -2.103  0.00  0.00     0.015 A 
ATOM      7  C7  IND d   1      -2.962   2.655  -3.415  0.00  0.00    -0.016 A 
ATOM      8  C8  IND d   1      -2.661   3.712  -4.262  0.00  0.00    -0.047 A 
ATOM      9  C9  IND d   1      -2.615   5.037  -3.808  0.00  0.00    -0.096 A 
ATOM     10  HN1 IND d   1      -2.385   3.048  -6.134  0.00  0.00     0.298 HD
ENDROOT
TORSDOF 0
ENDMDL
