MODEL 1
REMARK minimizedAffinity 16.3010788
REMARK minimizedRMSD -1
REMARK  0 active torsions:
REMARK  status: ('A' for Active; 'I' for Inactive)
ROOT
ATOM      1  N1  IND d   1       1.011   0.260   4.518  0.00  0.00    -0.196 N 
ATOM      2  C2  IND d   1      -0.187  -0.354   4.282  0.00  0.00     0.054 A 
ATOM      3  C3  IND d   1      -0.166  -0.981   3.084  0.00  0.00    -0.031 A 
ATOM      4  C4  IND d   1       1.761  -1.215   1.394  0.00  0.00     0.051 A 
ATOM      5  C5  IND d   1       3.039  -0.796   1.153  0.00  0.00    -0.031 A 
ATOM      6  C6  IND d   1       3.722   0.011   2.040  0.00  0.00     0.015 A 
ATOM      7  C7  IND d   1       3.152   0.421   3.213  0.00  0.00    -0.016 A 
ATOM      8  C8  IND d   1       1.852   0.003   3.458  0.00  0.00    -0.047 A 
ATOM      9  C9  IND d   1       1.140  -0.781   2.541  0.00  0.00    -0.096 A 
ATOM     10  HN1 IND d   1       1.207   0.728   5.213  0.00  0.00     0.298 HD
ENDROOT
TORSDOF 0
ENDMDL
