MODEL 1
REMARK minimizedAffinity 17.4681301
REMARK minimizedRMSD -1
REMARK  0 active torsions:
REMARK  status: ('A' for Active; 'I' for Inactive)
ROOT
ATOM      1  N1  IND d   1      -4.359   5.250  -1.066  0.00  0.00    -0.196 N 
ATOM      2  C2  IND d   1      -4.873   4.024  -0.747  0.00  0.00     0.054 A 
ATOM      3  C3  IND d   1      -4.230   3.051  -1.431  0.00  0.00    -0.031 A 
ATOM      4  C4  IND d   1      -2.235   3.235  -3.048  0.00  0.00     0.051 A 
ATOM      5  C5  IND d   1      -1.441   4.151  -3.680  0.00  0.00    -0.031 A 
ATOM      6  C6  IND d   1      -1.580   5.507  -3.466  0.00  0.00     0.015 A 
ATOM      7  C7  IND d   1      -2.515   6.000  -2.600  0.00  0.00    -0.016 A 
ATOM      8  C8  IND d   1      -3.328   5.073  -1.962  0.00  0.00    -0.047 A 
ATOM      9  C9  IND d   1      -3.219   3.698  -2.207  0.00  0.00    -0.096 A 
ATOM     10  HN1 IND d   1      -4.633   6.004  -0.758  0.00  0.00     0.298 HD
ENDROOT
TORSDOF 0
ENDMDL
