MODEL 1
REMARK minimizedAffinity 6.75522995
REMARK minimizedRMSD -1
REMARK  0 active torsions:
REMARK  status: ('A' for Active; 'I' for Inactive)
ROOT
ATOM      1  N1  IND d   1      -3.047  -5.051  -0.752  0.00  0.00    -0.196 N 
ATOM      2  C2  IND d   1      -3.996  -6.000  -1.009  0.00  0.00     0.054 A 
ATOM      3  C3  IND d   1      -4.937  -6.000  -0.038  0.00  0.00    -0.031 A 
ATOM      4  C4  IND d   1      -5.171  -4.459   2.012  0.00  0.00     0.051 A 
ATOM      5  C5  IND d   1      -4.527  -3.462   2.689  0.00  0.00    -0.031 A 
ATOM      6  C6  IND d   1      -3.334  -2.931   2.244  0.00  0.00     0.015 A 
ATOM      7  C7  IND d   1      -2.744  -3.371   1.093  0.00  0.00    -0.016 A 
ATOM      8  C8  IND d   1      -3.391  -4.389   0.406  0.00  0.00    -0.047 A 
ATOM      9  C9  IND d   1      -4.580  -4.961   0.876  0.00  0.00    -0.096 A 
ATOM     10  HN1 IND d   1      -2.352  -4.893  -1.232  0.00  0.00     0.298 HD
ENDROOT
TORSDOF 0
ENDMDL
