MODEL 1
REMARK minimizedAffinity -1.99619722
REMARK minimizedRMSD -1
REMARK  1 active torsions:
REMARK  status: ('A' for Active; 'I' for Inactive)
REMARK    1  A    between atoms: N_2  and  C1_3 
ROOT
ATOM      1  C1  UNL d   1      -3.988   2.059  -5.789  0.00  0.00     0.143 A 
ATOM      2  C2  UNL d   1      -5.242   2.660  -5.943  0.00  0.00    -0.057 A 
ATOM      3  C3  UNL d   1      -5.377   4.052  -6.000  0.00  0.00     0.033 A 
ATOM      4  C4  UNL d   1      -4.261   4.872  -5.874  0.00  0.00    -0.042 A 
ATOM      5  C5  UNL d   1      -3.007   4.297  -5.695  0.00  0.00     0.033 A 
ATOM      6  C6  UNL d   1      -2.877   2.906  -5.645  0.00  0.00    -0.057 A 
ENDROOT
BRANCH   1   7
ATOM      7  N   UNL d   1      -3.798   0.685  -5.626  0.00  0.00    -0.732 N 
ATOM      8  C   UNL d   1      -4.838  -0.252  -5.998  0.00  0.00     0.284 C 
ATOM      9  H3  UNL d   1      -2.860   0.388  -5.885  0.00  0.00     0.395 HD
ENDBRANCH   1   7
TORSDOF 1
ENDMDL
