MODEL 1
REMARK minimizedAffinity -1.57436967
REMARK minimizedRMSD -1
REMARK  1 active torsions:
REMARK  status: ('A' for Active; 'I' for Inactive)
REMARK    1  A    between atoms: N_2  and  C1_3 
ROOT
ATOM      1  C1  UNL d   1      -3.749   1.765  -5.242  0.00  0.00     0.143 A 
ATOM      2  C2  UNL d   1      -2.554   1.849  -4.519  0.00  0.00    -0.057 A 
ATOM      3  C3  UNL d   1      -1.790   3.022  -4.512  0.00  0.00     0.033 A 
ATOM      4  C4  UNL d   1      -2.194   4.127  -5.254  0.00  0.00    -0.042 A 
ATOM      5  C5  UNL d   1      -3.366   4.058  -6.000  0.00  0.00     0.033 A 
ATOM      6  C6  UNL d   1      -4.128   2.886  -5.997  0.00  0.00    -0.057 A 
ENDROOT
BRANCH   1   7
ATOM      7  N   UNL d   1      -4.501   0.595  -5.367  0.00  0.00    -0.732 N 
ATOM      8  C   UNL d   1      -4.018  -0.655  -4.820  0.00  0.00     0.284 C 
ATOM      9  H3  UNL d   1      -5.496   0.755  -5.223  0.00  0.00     0.395 HD
ENDBRANCH   1   7
TORSDOF 1
ENDMDL
