MODEL 1
REMARK minimizedAffinity -2.37333465
REMARK minimizedRMSD -1
REMARK  1 active torsions:
REMARK  status: ('A' for Active; 'I' for Inactive)
REMARK    1  A    between atoms: N_2  and  C1_3 
ROOT
ATOM      1  C1  UNL d   1      -0.247  -0.912  -1.614  0.00  0.00     0.143 A 
ATOM      2  C2  UNL d   1      -0.465  -1.368  -0.309  0.00  0.00    -0.057 A 
ATOM      3  C3  UNL d   1      -0.021  -0.637   0.799  0.00  0.00     0.033 A 
ATOM      4  C4  UNL d   1       0.677   0.553   0.621  0.00  0.00    -0.042 A 
ATOM      5  C5  UNL d   1       0.927   1.013  -0.667  0.00  0.00     0.033 A 
ATOM      6  C6  UNL d   1       0.475   0.281  -1.770  0.00  0.00    -0.057 A 
ENDROOT
BRANCH   1   7
ATOM      7  N   UNL d   1      -0.577  -1.642  -2.758  0.00  0.00    -0.732 N 
ATOM      8  C   UNL d   1      -1.703  -1.254  -3.581  0.00  0.00     0.284 C 
ATOM      9  H3  UNL d   1       0.244  -1.930  -3.286  0.00  0.00     0.395 HD
ENDBRANCH   1   7
TORSDOF 1
ENDMDL
