MODEL 1
REMARK minimizedAffinity -1.49368584
REMARK minimizedRMSD -1
REMARK  1 active torsions:
REMARK  status: ('A' for Active; 'I' for Inactive)
REMARK    1  A    between atoms: N_2  and  C1_3 
ROOT
ATOM      1  C1  UNL d   1      -3.148   3.578  -5.988  0.00  0.00     0.143 A 
ATOM      2  C2  UNL d   1      -4.317   2.810  -5.969  0.00  0.00    -0.057 A 
ATOM      3  C3  UNL d   1      -5.581   3.411  -5.955  0.00  0.00     0.033 A 
ATOM      4  C4  UNL d   1      -5.698   4.797  -5.931  0.00  0.00    -0.042 A 
ATOM      5  C5  UNL d   1      -4.550   5.581  -5.924  0.00  0.00     0.033 A 
ATOM      6  C6  UNL d   1      -3.290   4.974  -5.944  0.00  0.00    -0.057 A 
ENDROOT
BRANCH   1   7
ATOM      7  N   UNL d   1      -1.862   3.040  -5.902  0.00  0.00    -0.732 N 
ATOM      8  C   UNL d   1      -1.437   2.330  -4.715  0.00  0.00     0.284 C 
ATOM      9  H3  UNL d   1      -1.563   2.608  -6.774  0.00  0.00     0.395 HD
ENDBRANCH   1   7
TORSDOF 1
ENDMDL
