MODEL 1
REMARK minimizedAffinity -0.804015636
REMARK minimizedRMSD -1
REMARK  1 active torsions:
REMARK  status: ('A' for Active; 'I' for Inactive)
REMARK    1  A    between atoms: N_2  and  C1_3 
ROOT
ATOM      1  C1  UNL d   1      -3.056   4.253  -5.831  0.00  0.00     0.143 A 
ATOM      2  C2  UNL d   1      -3.793   5.439  -5.922  0.00  0.00    -0.057 A 
ATOM      3  C3  UNL d   1      -5.191   5.421  -5.990  0.00  0.00     0.033 A 
ATOM      4  C4  UNL d   1      -5.878   4.212  -5.998  0.00  0.00    -0.042 A 
ATOM      5  C5  UNL d   1      -5.165   3.020  -5.933  0.00  0.00     0.033 A 
ATOM      6  C6  UNL d   1      -3.769   3.044  -5.858  0.00  0.00    -0.057 A 
ENDROOT
BRANCH   1   7
ATOM      7  N   UNL d   1      -1.660   4.201  -5.860  0.00  0.00    -0.732 N 
ATOM      8  C   UNL d   1      -0.971   2.929  -5.915  0.00  0.00     0.284 C 
ATOM      9  H3  UNL d   1      -1.257   4.918  -6.457  0.00  0.00     0.395 HD
ENDBRANCH   1   7
TORSDOF 1
ENDMDL
