MODEL 1
REMARK minimizedAffinity 1.79464447
REMARK minimizedRMSD -1
REMARK  1 active torsions:
REMARK  status: ('A' for Active; 'I' for Inactive)
REMARK    1  A    between atoms: N_2  and  C1_3 
ROOT
ATOM      1  C1  UNL d   1      -3.541   3.995  -5.657  0.00  0.00     0.143 A 
ATOM      2  C2  UNL d   1      -3.607   2.652  -5.270  0.00  0.00    -0.057 A 
ATOM      3  C3  UNL d   1      -4.821   1.955  -5.272  0.00  0.00     0.033 A 
ATOM      4  C4  UNL d   1      -5.999   2.599  -5.634  0.00  0.00    -0.042 A 
ATOM      5  C5  UNL d   1      -5.961   3.941  -5.997  0.00  0.00     0.033 A 
ATOM      6  C6  UNL d   1      -4.745   4.630  -6.000  0.00  0.00    -0.057 A 
ENDROOT
BRANCH   1   7
ATOM      7  N   UNL d   1      -2.380   4.770  -5.582  0.00  0.00    -0.732 N 
ATOM      8  C   UNL d   1      -1.075   4.151  -5.658  0.00  0.00     0.284 C 
ATOM      9  H3  UNL d   1      -2.459   5.639  -6.104  0.00  0.00     0.395 HD
ENDBRANCH   1   7
TORSDOF 1
ENDMDL
