MODEL 1
REMARK minimizedAffinity -4.52420664
REMARK minimizedRMSD -1
REMARK  1 active torsions:
REMARK  status: ('A' for Active; 'I' for Inactive)
REMARK    1  A    between atoms: N_2  and  C1_3 
ROOT
ATOM      1  C1  UNL d   1       4.102  -1.881  -4.673  0.00  0.00     0.143 A 
ATOM      2  C2  UNL d   1       3.319  -0.747  -4.434  0.00  0.00    -0.057 A 
ATOM      3  C3  UNL d   1       2.687  -0.547  -3.201  0.00  0.00     0.033 A 
ATOM      4  C4  UNL d   1       2.803  -1.496  -2.191  0.00  0.00    -0.042 A 
ATOM      5  C5  UNL d   1       3.556  -2.644  -2.414  0.00  0.00     0.033 A 
ATOM      6  C6  UNL d   1       4.191  -2.834  -3.646  0.00  0.00    -0.057 A 
ENDROOT
BRANCH   1   7
ATOM      7  N   UNL d   1       4.675  -2.185  -5.910  0.00  0.00    -0.732 N 
ATOM      8  C   UNL d   1       5.999  -2.765  -5.987  0.00  0.00     0.284 C 
ATOM      9  H3  UNL d   1       4.005  -2.590  -6.559  0.00  0.00     0.395 HD
ENDBRANCH   1   7
TORSDOF 1
ENDMDL
