MODEL 1
REMARK minimizedAffinity -1.52859151
REMARK minimizedRMSD -1
REMARK  1 active torsions:
REMARK  status: ('A' for Active; 'I' for Inactive)
REMARK    1  A    between atoms: N_2  and  C1_3 
ROOT
ATOM      1  C1  UNL d   1      -2.905  -2.331  -5.723  0.00  0.00     0.143 A 
ATOM      2  C2  UNL d   1      -4.161  -2.935  -5.845  0.00  0.00    -0.057 A 
ATOM      3  C3  UNL d   1      -5.323  -2.170  -5.997  0.00  0.00     0.033 A 
ATOM      4  C4  UNL d   1      -5.253  -0.781  -6.000  0.00  0.00    -0.042 A 
ATOM      5  C5  UNL d   1      -4.018  -0.158  -5.855  0.00  0.00     0.033 A 
ATOM      6  C6  UNL d   1      -2.860  -0.928  -5.710  0.00  0.00    -0.057 A 
ENDROOT
BRANCH   1   7
ATOM      7  N   UNL d   1      -1.724  -3.034  -5.471  0.00  0.00    -0.732 N 
ATOM      8  C   UNL d   1      -1.462  -3.589  -4.160  0.00  0.00     0.284 C 
ATOM      9  H3  UNL d   1      -1.465  -3.647  -6.241  0.00  0.00     0.395 HD
ENDBRANCH   1   7
TORSDOF 1
ENDMDL
