MODEL 1
REMARK minimizedAffinity -3.27485871
REMARK minimizedRMSD -1
REMARK  1 active torsions:
REMARK  status: ('A' for Active; 'I' for Inactive)
REMARK    1  A    between atoms: N_2  and  C1_3 
ROOT
ATOM      1  C1  UNL d   1      -4.289  -0.919  -5.994  0.00  0.00     0.143 A 
ATOM      2  C2  UNL d   1      -2.988  -1.433  -5.975  0.00  0.00    -0.057 A 
ATOM      3  C3  UNL d   1      -2.752  -2.813  -5.992  0.00  0.00     0.033 A 
ATOM      4  C4  UNL d   1      -3.818  -3.707  -6.000  0.00  0.00    -0.042 A 
ATOM      5  C5  UNL d   1      -5.120  -3.219  -5.994  0.00  0.00     0.033 A 
ATOM      6  C6  UNL d   1      -5.349  -1.840  -5.983  0.00  0.00    -0.057 A 
ENDROOT
BRANCH   1   7
ATOM      7  N   UNL d   1      -4.591   0.440  -5.878  0.00  0.00    -0.732 N 
ATOM      8  C   UNL d   1      -3.534   1.423  -5.777  0.00  0.00     0.284 C 
ATOM      9  H3  UNL d   1      -5.362   0.719  -6.480  0.00  0.00     0.395 HD
ENDBRANCH   1   7
TORSDOF 1
ENDMDL
