MODEL 1
REMARK minimizedAffinity -1.68329728
REMARK minimizedRMSD -1
REMARK  1 active torsions:
REMARK  status: ('A' for Active; 'I' for Inactive)
REMARK    1  A    between atoms: N_2  and  C1_3 
ROOT
ATOM      1  C1  UNL d   1      -2.931   0.256  -3.984  0.00  0.00     0.143 A 
ATOM      2  C2  UNL d   1      -1.943   0.907  -3.238  0.00  0.00    -0.057 A 
ATOM      3  C3  UNL d   1      -0.911   0.192  -2.619  0.00  0.00     0.033 A 
ATOM      4  C4  UNL d   1      -0.865  -1.196  -2.711  0.00  0.00    -0.042 A 
ATOM      5  C5  UNL d   1      -1.851  -1.866  -3.427  0.00  0.00     0.033 A 
ATOM      6  C6  UNL d   1      -2.875  -1.145  -4.049  0.00  0.00    -0.057 A 
ENDROOT
BRANCH   1   7
ATOM      7  N   UNL d   1      -4.037   0.902  -4.541  0.00  0.00    -0.732 N 
ATOM      8  C   UNL d   1      -3.936   2.268  -5.008  0.00  0.00     0.284 C 
ATOM      9  H3  UNL d   1      -4.576   0.293  -5.153  0.00  0.00     0.395 HD
ENDBRANCH   1   7
TORSDOF 1
ENDMDL
