MODEL 1
REMARK minimizedAffinity -2.1188817
REMARK minimizedRMSD -1
REMARK  1 active torsions:
REMARK  status: ('A' for Active; 'I' for Inactive)
REMARK    1  A    between atoms: C1_2  and  C2_3 
ROOT
ATOM      1  C2  UNL d   1       0.570  -0.608   0.454  0.00  0.00    -0.073 A 
ATOM      2  C3  UNL d   1      -0.341  -0.791   1.501  0.00  0.00    -0.002 A 
ATOM      3  C4  UNL d   1      -1.513  -0.036   1.556  0.00  0.00     0.004 A 
ATOM      4  C5  UNL d   1      -1.790   0.903   0.563  0.00  0.00    -0.004 A 
ATOM      5  C6  UNL d   1      -0.899   1.092  -0.498  0.00  0.00    -0.075 A 
ATOM      6  C7  UNL d   1      -1.181   2.100  -1.573  0.00  0.00     0.076 C 
ATOM      7  C8  UNL d   1       0.278   0.332  -0.545  0.00  0.00     0.001 A 
ENDROOT
BRANCH   1   8
ATOM      8  C1  UNL d   1       1.834  -1.426   0.386  0.00  0.00     0.053 C 
ATOM      9  C   UNL d   1       1.578  -2.896   0.679  0.00  0.00     0.018 C 
ENDBRANCH   1   8
TORSDOF 1
ENDMDL
