MODEL 1
REMARK minimizedAffinity -5.76583385
REMARK minimizedRMSD -1
REMARK  1 active torsions:
REMARK  status: ('A' for Active; 'I' for Inactive)
REMARK    1  A    between atoms: C1_2  and  C2_3 
ROOT
ATOM      1  C2  UNL d   1      -0.148   0.397  -0.396  0.00  0.00    -0.073 A 
ATOM      2  C3  UNL d   1       1.051   0.953  -0.858  0.00  0.00    -0.002 A 
ATOM      3  C4  UNL d   1       2.257   0.274  -0.680  0.00  0.00     0.004 A 
ATOM      4  C5  UNL d   1       2.276  -0.968  -0.046  0.00  0.00    -0.004 A 
ATOM      5  C6  UNL d   1       1.088  -1.545   0.412  0.00  0.00    -0.075 A 
ATOM      6  C7  UNL d   1       1.092  -2.880   1.098  0.00  0.00     0.076 C 
ATOM      7  C8  UNL d   1      -0.119  -0.856   0.232  0.00  0.00     0.001 A 
ENDROOT
BRANCH   1   8
ATOM      8  C1  UNL d   1      -1.453   1.124  -0.591  0.00  0.00     0.053 C 
ATOM      9  C   UNL d   1      -1.949   1.030  -2.026  0.00  0.00     0.018 C 
ENDBRANCH   1   8
TORSDOF 1
ENDMDL
