MODEL 1
REMARK minimizedAffinity -3.35089493
REMARK minimizedRMSD -1
REMARK  1 active torsions:
REMARK  status: ('A' for Active; 'I' for Inactive)
REMARK    1  A    between atoms: C1_2  and  C2_3 
ROOT
ATOM      1  C2  UNL d   1      -0.104   0.182   0.082  0.00  0.00    -0.073 A 
ATOM      2  C3  UNL d   1       1.080   0.685  -0.470  0.00  0.00    -0.002 A 
ATOM      3  C4  UNL d   1       2.245  -0.082  -0.459  0.00  0.00     0.004 A 
ATOM      4  C5  UNL d   1       2.238  -1.362   0.097  0.00  0.00    -0.004 A 
ATOM      5  C6  UNL d   1       1.062  -1.886   0.643  0.00  0.00    -0.075 A 
ATOM      6  C7  UNL d   1       1.038  -3.260   1.247  0.00  0.00     0.076 C 
ATOM      7  C8  UNL d   1      -0.103  -1.108   0.631  0.00  0.00     0.001 A 
ENDROOT
BRANCH   1   8
ATOM      8  C1  UNL d   1      -1.366   1.005   0.067  0.00  0.00     0.053 C 
ATOM      9  C   UNL d   1      -1.429   1.931  -1.138  0.00  0.00     0.018 C 
ENDBRANCH   1   8
TORSDOF 1
ENDMDL
