MODEL 1
REMARK minimizedAffinity -5.88241529
REMARK minimizedRMSD -1
REMARK  1 active torsions:
REMARK  status: ('A' for Active; 'I' for Inactive)
REMARK    1  A    between atoms: C1_2  and  C2_3 
ROOT
ATOM      1  C2  UNL d   1       0.138   0.257  -0.041  0.00  0.00    -0.073 A 
ATOM      2  C3  UNL d   1       0.061  -0.877   0.776  0.00  0.00    -0.002 A 
ATOM      3  C4  UNL d   1       1.106  -1.802   0.799  0.00  0.00     0.004 A 
ATOM      4  C5  UNL d   1       2.240  -1.599   0.014  0.00  0.00    -0.004 A 
ATOM      5  C6  UNL d   1       2.342  -0.466  -0.800  0.00  0.00    -0.075 A 
ATOM      6  C7  UNL d   1       3.555  -0.234  -1.652  0.00  0.00     0.076 C 
ATOM      7  C8  UNL d   1       1.287   0.457  -0.820  0.00  0.00     0.001 A 
ENDROOT
BRANCH   1   8
ATOM      8  C1  UNL d   1      -0.985   1.261  -0.065  0.00  0.00     0.053 C 
ATOM      9  C   UNL d   1      -1.350   1.674  -1.481  0.00  0.00     0.018 C 
ENDBRANCH   1   8
TORSDOF 1
ENDMDL
