MODEL 1
REMARK minimizedAffinity -4.08795309
REMARK minimizedRMSD -1
REMARK  1 active torsions:
REMARK  status: ('A' for Active; 'I' for Inactive)
REMARK    1  A    between atoms: C1_2  and  C2_3 
ROOT
ATOM      1  C2  UNL d   1      -0.043   0.171  -0.202  0.00  0.00    -0.073 A 
ATOM      2  C3  UNL d   1       1.083   0.764  -0.784  0.00  0.00    -0.002 A 
ATOM      3  C4  UNL d   1       2.333   0.152  -0.683  0.00  0.00     0.004 A 
ATOM      4  C5  UNL d   1       2.469  -1.060  -0.007  0.00  0.00    -0.004 A 
ATOM      5  C6  UNL d   1       1.353  -1.675   0.570  0.00  0.00    -0.075 A 
ATOM      6  C7  UNL d   1       1.483  -2.978   1.302  0.00  0.00     0.076 C 
ATOM      7  C8  UNL d   1       0.102  -1.053   0.467  0.00  0.00     0.001 A 
ENDROOT
BRANCH   1   8
ATOM      8  C1  UNL d   1      -1.396   0.825  -0.314  0.00  0.00     0.053 C 
ATOM      9  C   UNL d   1      -1.906   0.839  -1.746  0.00  0.00     0.018 C 
ENDBRANCH   1   8
TORSDOF 1
ENDMDL
