MODEL 1
REMARK minimizedAffinity 2.7942369
REMARK minimizedRMSD -1
REMARK  1 active torsions:
REMARK  status: ('A' for Active; 'I' for Inactive)
REMARK    1  A    between atoms: C1_2  and  C2_3 
ROOT
ATOM      1  C2  UNL d   1      -0.607  -0.193  -0.475  0.00  0.00    -0.073 A 
ATOM      2  C3  UNL d   1      -0.821  -0.191   0.908  0.00  0.00    -0.002 A 
ATOM      3  C4  UNL d   1      -1.118  -1.380   1.576  0.00  0.00     0.004 A 
ATOM      4  C5  UNL d   1      -1.198  -2.581   0.871  0.00  0.00    -0.004 A 
ATOM      5  C6  UNL d   1      -0.975  -2.604  -0.509  0.00  0.00    -0.075 A 
ATOM      6  C7  UNL d   1      -1.059  -3.888  -1.282  0.00  0.00     0.076 C 
ATOM      7  C8  UNL d   1      -0.680  -1.407  -1.174  0.00  0.00     0.001 A 
ENDROOT
BRANCH   1   8
ATOM      8  C1  UNL d   1      -0.279   1.087  -1.200  0.00  0.00     0.053 C 
ATOM      9  C   UNL d   1      -1.239   1.353  -2.349  0.00  0.00     0.018 C 
ENDBRANCH   1   8
TORSDOF 1
ENDMDL
