MODEL 1
REMARK minimizedAffinity -4.16821766
REMARK minimizedRMSD -1
REMARK  1 active torsions:
REMARK  status: ('A' for Active; 'I' for Inactive)
REMARK    1  A    between atoms: C1_2  and  C2_3 
ROOT
ATOM      1  C2  UNL d   1      -0.173  -0.119   0.059  0.00  0.00    -0.073 A 
ATOM      2  C3  UNL d   1       0.956   0.137  -0.727  0.00  0.00    -0.002 A 
ATOM      3  C4  UNL d   1       2.098  -0.656  -0.602  0.00  0.00     0.004 A 
ATOM      4  C5  UNL d   1       2.120  -1.716   0.304  0.00  0.00    -0.004 A 
ATOM      5  C6  UNL d   1       0.998  -1.996   1.090  0.00  0.00    -0.075 A 
ATOM      6  C7  UNL d   1       1.007  -3.131   2.072  0.00  0.00     0.076 C 
ATOM      7  C8  UNL d   1      -0.144  -1.193   0.961  0.00  0.00     0.001 A 
ENDROOT
BRANCH   1   8
ATOM      8  C1  UNL d   1      -1.410   0.730  -0.077  0.00  0.00     0.053 C 
ATOM      9  C   UNL d   1      -1.558   1.300  -1.478  0.00  0.00     0.018 C 
ENDBRANCH   1   8
TORSDOF 1
ENDMDL
