MODEL 1
REMARK minimizedAffinity -3.77141953
REMARK minimizedRMSD -1
REMARK  1 active torsions:
REMARK  status: ('A' for Active; 'I' for Inactive)
REMARK    1  A    between atoms: C1_2  and  C2_3 
ROOT
ATOM      1  C2  UNL d   1      -0.185   0.381  -0.260  0.00  0.00    -0.073 A 
ATOM      2  C3  UNL d   1       0.977   1.073  -0.621  0.00  0.00    -0.002 A 
ATOM      3  C4  UNL d   1       2.231   0.489  -0.434  0.00  0.00     0.004 A 
ATOM      4  C5  UNL d   1       2.336  -0.791   0.108  0.00  0.00    -0.004 A 
ATOM      5  C6  UNL d   1       1.186  -1.503   0.464  0.00  0.00    -0.075 A 
ATOM      6  C7  UNL d   1       1.281  -2.881   1.051  0.00  0.00     0.076 C 
ATOM      7  C8  UNL d   1      -0.070  -0.909   0.276  0.00  0.00     0.001 A 
ENDROOT
BRANCH   1   8
ATOM      8  C1  UNL d   1      -1.541   1.004  -0.466  0.00  0.00     0.053 C 
ATOM      9  C   UNL d   1      -1.748   1.457  -1.903  0.00  0.00     0.018 C 
ENDBRANCH   1   8
TORSDOF 1
ENDMDL
