MODEL 1
REMARK minimizedAffinity -5.62246656
REMARK minimizedRMSD -1
REMARK  1 active torsions:
REMARK  status: ('A' for Active; 'I' for Inactive)
REMARK    1  A    between atoms: C1_2  and  C2_3 
ROOT
ATOM      1  C2  UNL d   1      -0.641   0.408  -0.246  0.00  0.00    -0.073 A 
ATOM      2  C3  UNL d   1       0.483   0.931  -0.896  0.00  0.00    -0.002 A 
ATOM      3  C4  UNL d   1       1.670   0.200  -0.950  0.00  0.00     0.004 A 
ATOM      4  C5  UNL d   1       1.745  -1.063  -0.363  0.00  0.00    -0.004 A 
ATOM      5  C6  UNL d   1       0.629  -1.608   0.281  0.00  0.00    -0.075 A 
ATOM      6  C7  UNL d   1       0.693  -2.964   0.920  0.00  0.00     0.076 C 
ATOM      7  C8  UNL d   1      -0.559  -0.867   0.334  0.00  0.00     0.001 A 
ENDROOT
BRANCH   1   8
ATOM      8  C1  UNL d   1      -1.927   1.191  -0.190  0.00  0.00     0.053 C 
ATOM      9  C   UNL d   1      -2.304   1.765  -1.547  0.00  0.00     0.018 C 
ENDBRANCH   1   8
TORSDOF 1
ENDMDL
