MODEL 1
REMARK minimizedAffinity -3.66171336
REMARK minimizedRMSD -1
REMARK  1 active torsions:
REMARK  status: ('A' for Active; 'I' for Inactive)
REMARK    1  A    between atoms: C1_2  and  C2_3 
ROOT
ATOM      1  C2  UNL d   1      -0.359   0.236   0.285  0.00  0.00    -0.073 A 
ATOM      2  C3  UNL d   1      -0.736  -0.868   1.058  0.00  0.00    -0.002 A 
ATOM      3  C4  UNL d   1       0.132  -1.949   1.213  0.00  0.00     0.004 A 
ATOM      4  C5  UNL d   1       1.387  -1.935   0.604  0.00  0.00    -0.004 A 
ATOM      5  C6  UNL d   1       1.786  -0.835  -0.163  0.00  0.00    -0.075 A 
ATOM      6  C7  UNL d   1       3.132  -0.805  -0.826  0.00  0.00     0.076 C 
ATOM      7  C8  UNL d   1       0.908   0.246  -0.316  0.00  0.00     0.001 A 
ENDROOT
BRANCH   1   8
ATOM      8  C1  UNL d   1      -1.291   1.409   0.120  0.00  0.00     0.053 C 
ATOM      9  C   UNL d   1      -1.534   1.743  -1.343  0.00  0.00     0.018 C 
ENDBRANCH   1   8
TORSDOF 1
ENDMDL
