MODEL 1
REMARK minimizedAffinity -3.81578875
REMARK minimizedRMSD -1
REMARK  1 active torsions:
REMARK  status: ('A' for Active; 'I' for Inactive)
REMARK    1  A    between atoms: C1_2  and  C2_3 
ROOT
ATOM      1  C2  UNL d   1      -0.039   0.257  -0.200  0.00  0.00    -0.073 A 
ATOM      2  C3  UNL d   1       1.174   0.825  -0.606  0.00  0.00    -0.002 A 
ATOM      3  C4  UNL d   1       2.363   0.104  -0.490  0.00  0.00     0.004 A 
ATOM      4  C5  UNL d   1       2.351  -1.192   0.026  0.00  0.00    -0.004 A 
ATOM      5  C6  UNL d   1       1.148  -1.781   0.425  0.00  0.00    -0.075 A 
ATOM      6  C7  UNL d   1       1.118  -3.173   0.984  0.00  0.00     0.076 C 
ATOM      7  C8  UNL d   1      -0.042  -1.050   0.308  0.00  0.00     0.001 A 
ENDROOT
BRANCH   1   8
ATOM      8  C1  UNL d   1      -1.327   1.029  -0.329  0.00  0.00     0.053 C 
ATOM      9  C   UNL d   1      -1.733   1.220  -1.782  0.00  0.00     0.018 C 
ENDBRANCH   1   8
TORSDOF 1
ENDMDL
