MODEL 1
REMARK minimizedAffinity -3.59045911
REMARK minimizedRMSD -1
REMARK  0 active torsions:
REMARK  status: ('A' for Active; 'I' for Inactive)
ROOT
ATOM      1  C   UNL d   1      -1.119   0.240   0.754  0.00  0.00     0.078 C 
ATOM      2  C1  UNL d   1      -0.074  -0.011  -0.292  0.00  0.00    -0.077 A 
ATOM      3  C2  UNL d   1       0.673  -1.195  -0.295  0.00  0.00    -0.001 A 
ATOM      4  C3  UNL d   1       1.650  -1.411  -1.268  0.00  0.00     0.003 A 
ATOM      5  C4  UNL d   1       1.889  -0.447  -2.246  0.00  0.00    -0.005 A 
ATOM      6  C5  UNL d   1       1.152   0.735  -2.250  0.00  0.00     0.003 A 
ATOM      7  C6  UNL d   1       0.175   0.953  -1.277  0.00  0.00    -0.001 A 
ENDROOT
TORSDOF 0
ENDMDL
