MODEL 1
REMARK minimizedAffinity -2.60749841
REMARK minimizedRMSD -1
REMARK  0 active torsions:
REMARK  status: ('A' for Active; 'I' for Inactive)
ROOT
ATOM      1  C   UNL d   1       0.294  -1.162  -0.061  0.00  0.00     0.078 C 
ATOM      2  C1  UNL d   1      -0.676  -0.305   0.697  0.00  0.00    -0.077 A 
ATOM      3  C2  UNL d   1      -1.137  -0.685   1.964  0.00  0.00    -0.001 A 
ATOM      4  C3  UNL d   1      -2.047   0.117   2.653  0.00  0.00     0.003 A 
ATOM      5  C4  UNL d   1      -2.505   1.304   2.085  0.00  0.00    -0.005 A 
ATOM      6  C5  UNL d   1      -2.053   1.689   0.824  0.00  0.00     0.003 A 
ATOM      7  C6  UNL d   1      -1.143   0.888   0.133  0.00  0.00    -0.001 A 
ENDROOT
TORSDOF 0
ENDMDL
