MODEL 1
REMARK minimizedAffinity -5.06635046
REMARK minimizedRMSD -1
REMARK  0 active torsions:
REMARK  status: ('A' for Active; 'I' for Inactive)
ROOT
ATOM      1  C   UNL d   1      -1.459   0.351   0.819  0.00  0.00     0.078 C 
ATOM      2  C1  UNL d   1      -0.259  -0.146   0.070  0.00  0.00    -0.077 A 
ATOM      3  C2  UNL d   1       0.166  -1.475   0.190  0.00  0.00    -0.001 A 
ATOM      4  C3  UNL d   1       1.291  -1.922  -0.505  0.00  0.00     0.003 A 
ATOM      5  C4  UNL d   1       2.001  -1.047  -1.324  0.00  0.00    -0.005 A 
ATOM      6  C5  UNL d   1       1.587   0.278  -1.449  0.00  0.00     0.003 A 
ATOM      7  C6  UNL d   1       0.462   0.727  -0.754  0.00  0.00    -0.001 A 
ENDROOT
TORSDOF 0
ENDMDL
