MODEL 1
REMARK minimizedAffinity -3.29358673
REMARK minimizedRMSD -1
REMARK  0 active torsions:
REMARK  status: ('A' for Active; 'I' for Inactive)
ROOT
ATOM      1  C   UNL d   1      -1.808   0.327   4.150  0.00  0.00     0.078 C 
ATOM      2  C1  UNL d   1      -1.246   0.825   2.851  0.00  0.00    -0.077 A 
ATOM      3  C2  UNL d   1      -1.334   0.055   1.685  0.00  0.00    -0.001 A 
ATOM      4  C3  UNL d   1      -0.799   0.527   0.486  0.00  0.00     0.003 A 
ATOM      5  C4  UNL d   1      -0.170   1.770   0.441  0.00  0.00    -0.005 A 
ATOM      6  C5  UNL d   1      -0.075   2.542   1.597  0.00  0.00     0.003 A 
ATOM      7  C6  UNL d   1      -0.610   2.072   2.798  0.00  0.00    -0.001 A 
ENDROOT
TORSDOF 0
ENDMDL
