MODEL 1
REMARK minimizedAffinity -1.22313058
REMARK minimizedRMSD -1
REMARK  0 active torsions:
REMARK  status: ('A' for Active; 'I' for Inactive)
ROOT
ATOM      1  C   UNL d   1      -0.883   0.736   1.088  0.00  0.00     0.078 C 
ATOM      2  C1  UNL d   1      -0.003  -0.264   0.399  0.00  0.00    -0.077 A 
ATOM      3  C2  UNL d   1       0.517  -1.365   1.091  0.00  0.00    -0.001 A 
ATOM      4  C3  UNL d   1       1.342  -2.282   0.439  0.00  0.00     0.003 A 
ATOM      5  C4  UNL d   1       1.656  -2.108  -0.907  0.00  0.00    -0.005 A 
ATOM      6  C5  UNL d   1       1.146  -1.014  -1.603  0.00  0.00     0.003 A 
ATOM      7  C6  UNL d   1       0.320  -0.095  -0.953  0.00  0.00    -0.001 A 
ENDROOT
TORSDOF 0
ENDMDL
