MODEL 1
REMARK minimizedAffinity -4.35933256
REMARK minimizedRMSD -1
REMARK  0 active torsions:
REMARK  status: ('A' for Active; 'I' for Inactive)
ROOT
ATOM      1  C   UNL d   1       2.561  -1.097  -1.228  0.00  0.00     0.078 C 
ATOM      2  C1  UNL d   1       1.268  -0.601  -0.652  0.00  0.00    -0.077 A 
ATOM      3  C2  UNL d   1       0.555  -1.362   0.282  0.00  0.00    -0.001 A 
ATOM      4  C3  UNL d   1      -0.651  -0.891   0.802  0.00  0.00     0.003 A 
ATOM      5  C4  UNL d   1      -1.156   0.341   0.393  0.00  0.00    -0.005 A 
ATOM      6  C5  UNL d   1      -0.455   1.105  -0.538  0.00  0.00     0.003 A 
ATOM      7  C6  UNL d   1       0.752   0.636  -1.059  0.00  0.00    -0.001 A 
ENDROOT
TORSDOF 0
ENDMDL
