MODEL 1
REMARK minimizedAffinity -5.58573246
REMARK minimizedRMSD -1
REMARK  0 active torsions:
REMARK  status: ('A' for Active; 'I' for Inactive)
ROOT
ATOM      1  C   UNL d   1       0.556   2.124  -2.389  0.00  0.00     0.078 C 
ATOM      2  C1  UNL d   1       1.076   0.787  -1.952  0.00  0.00    -0.077 A 
ATOM      3  C2  UNL d   1       0.579   0.160  -0.803  0.00  0.00    -0.001 A 
ATOM      4  C3  UNL d   1       1.080  -1.081  -0.403  0.00  0.00     0.003 A 
ATOM      5  C4  UNL d   1       2.080  -1.704  -1.146  0.00  0.00    -0.005 A 
ATOM      6  C5  UNL d   1       2.583  -1.086  -2.290  0.00  0.00     0.003 A 
ATOM      7  C6  UNL d   1       2.083   0.154  -2.691  0.00  0.00    -0.001 A 
ENDROOT
TORSDOF 0
ENDMDL
