MODEL 1
REMARK minimizedAffinity -1.8321259
REMARK minimizedRMSD -1
REMARK  0 active torsions:
REMARK  status: ('A' for Active; 'I' for Inactive)
ROOT
ATOM      1  C   UNL d   1       1.588   0.946  -3.900  0.00  0.00     0.078 C 
ATOM      2  C1  UNL d   1       1.436   0.151  -2.638  0.00  0.00    -0.077 A 
ATOM      3  C2  UNL d   1       2.156  -1.033  -2.440  0.00  0.00    -0.001 A 
ATOM      4  C3  UNL d   1       1.997  -1.769  -1.264  0.00  0.00     0.003 A 
ATOM      5  C4  UNL d   1       1.118  -1.328  -0.277  0.00  0.00    -0.005 A 
ATOM      6  C5  UNL d   1       0.395  -0.152  -0.466  0.00  0.00     0.003 A 
ATOM      7  C6  UNL d   1       0.553   0.585  -1.641  0.00  0.00    -0.001 A 
ENDROOT
TORSDOF 0
ENDMDL
