MODEL 1
REMARK minimizedAffinity -2.91891623
REMARK minimizedRMSD -1
REMARK  0 active torsions:
REMARK  status: ('A' for Active; 'I' for Inactive)
ROOT
ATOM      1  C   UNL d   1      -0.875  -0.180  -0.307  0.00  0.00     0.078 C 
ATOM      2  C1  UNL d   1      -1.433   0.285   1.005  0.00  0.00    -0.077 A 
ATOM      3  C2  UNL d   1      -0.947   1.442   1.626  0.00  0.00    -0.001 A 
ATOM      4  C3  UNL d   1      -1.469   1.858   2.852  0.00  0.00     0.003 A 
ATOM      5  C4  UNL d   1      -2.480   1.122   3.467  0.00  0.00    -0.005 A 
ATOM      6  C5  UNL d   1      -2.969  -0.031   2.857  0.00  0.00     0.003 A 
ATOM      7  C6  UNL d   1      -2.448  -0.449   1.632  0.00  0.00    -0.001 A 
ENDROOT
TORSDOF 0
ENDMDL
