MODEL 1
REMARK minimizedAffinity -2.7134409
REMARK minimizedRMSD -1
REMARK  0 active torsions:
REMARK  status: ('A' for Active; 'I' for Inactive)
ROOT
ATOM      1  C   UNL d   1      -0.794   0.094  -0.299  0.00  0.00     0.078 C 
ATOM      2  C1  UNL d   1      -1.157   0.487   1.102  0.00  0.00    -0.077 A 
ATOM      3  C2  UNL d   1      -2.351   0.049   1.687  0.00  0.00    -0.001 A 
ATOM      4  C3  UNL d   1      -2.681   0.430   2.989  0.00  0.00     0.003 A 
ATOM      5  C4  UNL d   1      -1.822   1.252   3.716  0.00  0.00    -0.005 A 
ATOM      6  C5  UNL d   1      -0.632   1.695   3.141  0.00  0.00     0.003 A 
ATOM      7  C6  UNL d   1      -0.301   1.314   1.840  0.00  0.00    -0.001 A 
ENDROOT
TORSDOF 0
ENDMDL
