MODEL 1
REMARK minimizedAffinity -5.26023054
REMARK minimizedRMSD -1
REMARK  0 active torsions:
REMARK  status: ('A' for Active; 'I' for Inactive)
ROOT
ATOM      1  C   UNL d   1       1.099   1.467  -2.323  0.00  0.00     0.078 C 
ATOM      2  C1  UNL d   1       0.846   0.338  -1.370  0.00  0.00    -0.077 A 
ATOM      3  C2  UNL d   1       1.696  -0.774  -1.327  0.00  0.00    -0.001 A 
ATOM      4  C3  UNL d   1       1.442  -1.823  -0.442  0.00  0.00     0.003 A 
ATOM      5  C4  UNL d   1       0.338  -1.771   0.407  0.00  0.00    -0.005 A 
ATOM      6  C5  UNL d   1      -0.514  -0.669   0.370  0.00  0.00     0.003 A 
ATOM      7  C6  UNL d   1      -0.262   0.380  -0.515  0.00  0.00    -0.001 A 
ENDROOT
TORSDOF 0
ENDMDL
