MODEL 1
REMARK minimizedAffinity 0.0204060972
REMARK minimizedRMSD -1
REMARK  0 active torsions:
REMARK  status: ('A' for Active; 'I' for Inactive)
ROOT
ATOM      1  C   UNL d   1      -1.822   0.759   0.115  0.00  0.00     0.078 C 
ATOM      2  C1  UNL d   1      -1.792   0.734   1.614  0.00  0.00    -0.077 A 
ATOM      3  C2  UNL d   1      -1.321   1.832   2.345  0.00  0.00    -0.001 A 
ATOM      4  C3  UNL d   1      -1.290   1.791   3.739  0.00  0.00     0.003 A 
ATOM      5  C4  UNL d   1      -1.728   0.654   4.416  0.00  0.00    -0.005 A 
ATOM      6  C5  UNL d   1      -2.198  -0.443   3.698  0.00  0.00     0.003 A 
ATOM      7  C6  UNL d   1      -2.229  -0.404   2.303  0.00  0.00    -0.001 A 
ENDROOT
TORSDOF 0
ENDMDL
