MODEL 1
REMARK minimizedAffinity 6.54181671
REMARK minimizedRMSD -1
REMARK  0 active torsions:
REMARK  status: ('A' for Active; 'I' for Inactive)
ROOT
ATOM      1  C1  DEN d   1       5.625  -1.849   4.177  0.00  0.00     0.130 A 
ATOM      2  C2  DEN d   1       4.869  -2.452   5.272  0.00  0.00    -0.031 A 
ATOM      3  C3  DEN d   1       4.127  -3.608   4.732  0.00  0.00     0.027 A 
ATOM      4  C4  DEN d   1       4.078  -4.523   2.320  0.00  0.00     0.027 A 
ATOM      5  C5  DEN d   1       4.549  -4.337   1.040  0.00  0.00    -0.003 A 
ATOM      6  C6  DEN d   1       5.378  -3.297   0.710  0.00  0.00     0.001 A 
ATOM      7  C7  DEN d   1       5.798  -2.429   1.683  0.00  0.00     0.017 A 
ATOM      8  C8  DEN d   1       5.321  -2.606   2.976  0.00  0.00    -0.094 A 
ATOM      9  C9  DEN d   1       4.493  -3.670   3.291  0.00  0.00    -0.072 A 
ENDROOT
TORSDOF 0
ENDMDL
