MODEL 1
REMARK minimizedAffinity 3.71657705
REMARK minimizedRMSD -1
REMARK  0 active torsions:
REMARK  status: ('A' for Active; 'I' for Inactive)
ROOT
ATOM      1  C1  DEN d   1      -3.366   1.138  -5.999  0.00  0.00     0.130 A 
ATOM      2  C2  DEN d   1      -3.270   2.271  -5.082  0.00  0.00    -0.031 A 
ATOM      3  C3  DEN d   1      -3.651   1.800  -3.735  0.00  0.00     0.027 A 
ATOM      4  C4  DEN d   1      -4.372  -0.560  -2.984  0.00  0.00     0.027 A 
ATOM      5  C5  DEN d   1      -4.614  -1.848  -3.408  0.00  0.00    -0.003 A 
ATOM      6  C6  DEN d   1      -4.492  -2.219  -4.721  0.00  0.00     0.001 A 
ATOM      7  C7  DEN d   1      -4.072  -1.303  -5.649  0.00  0.00     0.017 A 
ATOM      8  C8  DEN d   1      -3.833  -0.001  -5.230  0.00  0.00    -0.094 A 
ATOM      9  C9  DEN d   1      -3.951   0.352  -3.897  0.00  0.00    -0.072 A 
ENDROOT
TORSDOF 0
ENDMDL
