MODEL 1
REMARK minimizedAffinity 14.8765688
REMARK minimizedRMSD -1
REMARK  0 active torsions:
REMARK  status: ('A' for Active; 'I' for Inactive)
ROOT
ATOM      1  C1  DEN d   1       5.992  -2.361   4.643  0.00  0.00     0.130 A 
ATOM      2  C2  DEN d   1       5.549  -2.677   5.998  0.00  0.00    -0.031 A 
ATOM      3  C3  DEN d   1       5.032  -4.060   6.000  0.00  0.00     0.027 A 
ATOM      4  C4  DEN d   1       4.879  -5.736   4.046  0.00  0.00     0.027 A 
ATOM      5  C5  DEN d   1       5.120  -5.919   2.702  0.00  0.00    -0.003 A 
ATOM      6  C6  DEN d   1       5.633  -4.926   1.910  0.00  0.00     0.001 A 
ATOM      7  C7  DEN d   1       5.964  -3.718   2.466  0.00  0.00     0.017 A 
ATOM      8  C8  DEN d   1       5.716  -3.524   3.818  0.00  0.00    -0.094 A 
ATOM      9  C9  DEN d   1       5.209  -4.544   4.604  0.00  0.00    -0.072 A 
ENDROOT
TORSDOF 0
ENDMDL
