MODEL 1
REMARK minimizedAffinity -4.79105568
REMARK minimizedRMSD -1
REMARK  0 active torsions:
REMARK  status: ('A' for Active; 'I' for Inactive)
ROOT
ATOM      1  C1  DEN d   1      -2.892   1.319  -5.535  0.00  0.00     0.130 A 
ATOM      2  C2  DEN d   1      -1.635   1.325  -4.792  0.00  0.00    -0.031 A 
ATOM      3  C3  DEN d   1      -1.737   0.322  -3.713  0.00  0.00     0.027 A 
ATOM      4  C4  DEN d   1      -3.708  -1.235  -3.127  0.00  0.00     0.027 A 
ATOM      5  C5  DEN d   1      -4.994  -1.595  -3.466  0.00  0.00    -0.003 A 
ATOM      6  C6  DEN d   1      -5.675  -0.990  -4.489  0.00  0.00     0.001 A 
ATOM      7  C7  DEN d   1      -5.058  -0.023  -5.238  0.00  0.00     0.017 A 
ATOM      8  C8  DEN d   1      -3.765   0.350  -4.897  0.00  0.00    -0.094 A 
ATOM      9  C9  DEN d   1      -3.088  -0.281  -3.867  0.00  0.00    -0.072 A 
ENDROOT
TORSDOF 0
ENDMDL
