MODEL 1
REMARK minimizedAffinity 0.964984238
REMARK minimizedRMSD -1
REMARK  0 active torsions:
REMARK  status: ('A' for Active; 'I' for Inactive)
ROOT
ATOM      1  C1  DEN d   1      -5.998   0.543  -4.014  0.00  0.00     0.130 A 
ATOM      2  C2  DEN d   1      -6.000   1.482  -5.133  0.00  0.00    -0.031 A 
ATOM      3  C3  DEN d   1      -4.848   1.161  -6.000  0.00  0.00     0.027 A 
ATOM      4  C4  DEN d   1      -3.074  -0.691  -5.722  0.00  0.00     0.027 A 
ATOM      5  C5  DEN d   1      -2.651  -1.728  -4.921  0.00  0.00    -0.003 A 
ATOM      6  C6  DEN d   1      -3.288  -2.057  -3.754  0.00  0.00     0.001 A 
ATOM      7  C7  DEN d   1      -4.411  -1.370  -3.377  0.00  0.00     0.017 A 
ATOM      8  C8  DEN d   1      -4.840  -0.318  -4.175  0.00  0.00    -0.094 A 
ATOM      9  C9  DEN d   1      -4.189  -0.009  -5.358  0.00  0.00    -0.072 A 
ENDROOT
TORSDOF 0
ENDMDL
