MODEL 1
REMARK minimizedAffinity 2.43690538
REMARK minimizedRMSD -1
REMARK  0 active torsions:
REMARK  status: ('A' for Active; 'I' for Inactive)
ROOT
ATOM      1  C1  DEN d   1      -1.858   2.635  -5.729  0.00  0.00     0.130 A 
ATOM      2  C2  DEN d   1      -0.712   3.498  -5.998  0.00  0.00    -0.031 A 
ATOM      3  C3  DEN d   1      -1.184   4.897  -5.999  0.00  0.00     0.027 A 
ATOM      4  C4  DEN d   1      -3.566   5.806  -5.609  0.00  0.00     0.027 A 
ATOM      5  C5  DEN d   1      -4.873   5.456  -5.355  0.00  0.00    -0.003 A 
ATOM      6  C6  DEN d   1      -5.270   4.150  -5.242  0.00  0.00     0.001 A 
ATOM      7  C7  DEN d   1      -4.342   3.147  -5.339  0.00  0.00     0.017 A 
ATOM      8  C8  DEN d   1      -3.023   3.492  -5.603  0.00  0.00    -0.094 A 
ATOM      9  C9  DEN d   1      -2.639   4.819  -5.702  0.00  0.00    -0.072 A 
ENDROOT
TORSDOF 0
ENDMDL
