MODEL 1
REMARK minimizedAffinity 2.98259759
REMARK minimizedRMSD -1
REMARK  0 active torsions:
REMARK  status: ('A' for Active; 'I' for Inactive)
ROOT
ATOM      1  C1  DEN d   1      -4.781   0.743  -6.000  0.00  0.00     0.130 A 
ATOM      2  C2  DEN d   1      -6.000   1.049  -5.256  0.00  0.00    -0.031 A 
ATOM      3  C3  DEN d   1      -5.827   0.558  -3.874  0.00  0.00     0.027 A 
ATOM      4  C4  DEN d   1      -3.798  -0.636  -2.818  0.00  0.00     0.027 A 
ATOM      5  C5  DEN d   1      -2.533  -1.125  -3.059  0.00  0.00    -0.003 A 
ATOM      6  C6  DEN d   1      -1.947  -1.057  -4.295  0.00  0.00     0.001 A 
ATOM      7  C7  DEN d   1      -2.609  -0.446  -5.328  0.00  0.00     0.017 A 
ATOM      8  C8  DEN d   1      -3.888   0.043  -5.094  0.00  0.00    -0.094 A 
ATOM      9  C9  DEN d   1      -4.458  -0.024  -3.835  0.00  0.00    -0.072 A 
ENDROOT
TORSDOF 0
ENDMDL
