MODEL 1
REMARK minimizedAffinity 2.36597419
REMARK minimizedRMSD -1
REMARK  0 active torsions:
REMARK  status: ('A' for Active; 'I' for Inactive)
ROOT
ATOM      1  C1  DEN d   1      -2.150   0.704  -5.201  0.00  0.00     0.130 A 
ATOM      2  C2  DEN d   1      -2.660   1.819  -5.994  0.00  0.00    -0.031 A 
ATOM      3  C3  DEN d   1      -4.135   1.756  -5.972  0.00  0.00     0.027 A 
ATOM      4  C4  DEN d   1      -5.670   0.053  -4.791  0.00  0.00     0.027 A 
ATOM      5  C5  DEN d   1      -5.697  -1.080  -4.007  0.00  0.00    -0.003 A 
ATOM      6  C6  DEN d   1      -4.552  -1.711  -3.598  0.00  0.00     0.001 A 
ATOM      7  C7  DEN d   1      -3.331  -1.189  -3.933  0.00  0.00     0.017 A 
ATOM      8  C8  DEN d   1      -3.297  -0.051  -4.729  0.00  0.00    -0.094 A 
ATOM      9  C9  DEN d   1      -4.465   0.580  -5.123  0.00  0.00    -0.072 A 
ENDROOT
TORSDOF 0
ENDMDL
