MODEL 1
REMARK minimizedAffinity 5.14059782
REMARK minimizedRMSD -1
REMARK  0 active torsions:
REMARK  status: ('A' for Active; 'I' for Inactive)
ROOT
ATOM      1  C1  BNZ d   1      -1.228  -1.164   0.599  0.00  0.00     0.000 A 
ATOM      2  C2  BNZ d   1      -0.982  -2.277  -0.159  0.00  0.00     0.000 A 
ATOM      3  C3  BNZ d   1      -0.688  -3.474   0.432  0.00  0.00     0.000 A 
ATOM      4  C4  BNZ d   1      -0.600  -3.547   1.776  0.00  0.00     0.000 A 
ATOM      5  C5  BNZ d   1      -0.836  -2.431   2.553  0.00  0.00     0.000 A 
ATOM      6  C6  BNZ d   1      -1.171  -1.237   1.957  0.00  0.00     0.000 A 
ENDROOT
TORSDOF 0
ENDMDL
