MODEL 1
REMARK minimizedAffinity 7.67273331
REMARK minimizedRMSD -1
REMARK  0 active torsions:
REMARK  status: ('A' for Active; 'I' for Inactive)
ROOT
ATOM      1  C1  BNZ d   1      -3.955   4.835  -4.187  0.00  0.00     0.000 A 
ATOM      2  C2  BNZ d   1      -4.293   3.697  -4.869  0.00  0.00     0.000 A 
ATOM      3  C3  BNZ d   1      -5.302   3.707  -5.790  0.00  0.00     0.000 A 
ATOM      4  C4  BNZ d   1      -5.999   4.843  -5.999  0.00  0.00     0.000 A 
ATOM      5  C5  BNZ d   1      -5.676   5.996  -5.312  0.00  0.00     0.000 A 
ATOM      6  C6  BNZ d   1      -4.634   5.993  -4.414  0.00  0.00     0.000 A 
ENDROOT
TORSDOF 0
ENDMDL
