MODEL 1
REMARK minimizedAffinity 9.84762478
REMARK minimizedRMSD -1
REMARK  0 active torsions:
REMARK  status: ('A' for Active; 'I' for Inactive)
ROOT
ATOM      1  C1  BNZ d   1      -2.564  -0.773   0.054  0.00  0.00     0.000 A 
ATOM      2  C2  BNZ d   1      -2.648  -1.570   1.164  0.00  0.00     0.000 A 
ATOM      3  C3  BNZ d   1      -1.759  -2.588   1.364  0.00  0.00     0.000 A 
ATOM      4  C4  BNZ d   1      -0.812  -2.834   0.435  0.00  0.00     0.000 A 
ATOM      5  C5  BNZ d   1      -0.720  -2.045  -0.694  0.00  0.00     0.000 A 
ATOM      6  C6  BNZ d   1      -1.593  -0.996  -0.873  0.00  0.00     0.000 A 
ENDROOT
TORSDOF 0
ENDMDL
