MODEL 1
REMARK minimizedAffinity -0.237484843
REMARK minimizedRMSD -1
REMARK  0 active torsions:
REMARK  status: ('A' for Active; 'I' for Inactive)
ROOT
ATOM      1  C1  BNZ d   1      -1.960  -2.847  -0.162  0.00  0.00     0.000 A 
ATOM      2  C2  BNZ d   1      -1.130  -3.795   0.373  0.00  0.00     0.000 A 
ATOM      3  C3  BNZ d   1      -0.523  -3.593   1.581  0.00  0.00     0.000 A 
ATOM      4  C4  BNZ d   1      -0.715  -2.428   2.233  0.00  0.00     0.000 A 
ATOM      5  C5  BNZ d   1      -1.542  -1.459   1.702  0.00  0.00     0.000 A 
ATOM      6  C6  BNZ d   1      -2.182  -1.681   0.504  0.00  0.00     0.000 A 
ENDROOT
TORSDOF 0
ENDMDL
