MODEL 1
REMARK minimizedAffinity 7.48203278
REMARK minimizedRMSD -1
REMARK  0 active torsions:
REMARK  status: ('A' for Active; 'I' for Inactive)
ROOT
ATOM      1  C1  BNZ d   1       5.140   2.118   0.247  0.00  0.00     0.000 A 
ATOM      2  C2  BNZ d   1       5.994   1.125   0.646  0.00  0.00     0.000 A 
ATOM      3  C3  BNZ d   1       5.999   0.684   1.939  0.00  0.00     0.000 A 
ATOM      4  C4  BNZ d   1       5.179   1.263   2.840  0.00  0.00     0.000 A 
ATOM      5  C5  BNZ d   1       4.319   2.272   2.456  0.00  0.00     0.000 A 
ATOM      6  C6  BNZ d   1       4.289   2.686   1.144  0.00  0.00     0.000 A 
ENDROOT
TORSDOF 0
ENDMDL
