MODEL 1
REMARK minimizedAffinity 1.15007627
REMARK minimizedRMSD -1
REMARK  0 active torsions:
REMARK  status: ('A' for Active; 'I' for Inactive)
ROOT
ATOM      1  C1  BNZ d   1      -0.850  -3.237   0.244  0.00  0.00     0.000 A 
ATOM      2  C2  BNZ d   1      -1.051  -3.464  -1.092  0.00  0.00     0.000 A 
ATOM      3  C3  BNZ d   1      -1.800  -2.602  -1.843  0.00  0.00     0.000 A 
ATOM      4  C4  BNZ d   1      -2.380  -1.538  -1.251  0.00  0.00     0.000 A 
ATOM      5  C5  BNZ d   1      -2.195  -1.301   0.097  0.00  0.00     0.000 A 
ATOM      6  C6  BNZ d   1      -1.408  -2.150   0.842  0.00  0.00     0.000 A 
ENDROOT
TORSDOF 0
ENDMDL
