MODEL 1
REMARK minimizedAffinity 4.69510698
REMARK minimizedRMSD -1
REMARK  0 active torsions:
REMARK  status: ('A' for Active; 'I' for Inactive)
ROOT
ATOM      1  C1  BNZ d   1      -1.467  -1.040   3.011  0.00  0.00     0.000 A 
ATOM      2  C2  BNZ d   1      -1.056  -2.346   2.998  0.00  0.00     0.000 A 
ATOM      3  C3  BNZ d   1      -0.743  -2.970   1.822  0.00  0.00     0.000 A 
ATOM      4  C4  BNZ d   1      -0.880  -2.300   0.659  0.00  0.00     0.000 A 
ATOM      5  C5  BNZ d   1      -1.303  -0.985   0.656  0.00  0.00     0.000 A 
ATOM      6  C6  BNZ d   1      -1.579  -0.349   1.844  0.00  0.00     0.000 A 
ENDROOT
TORSDOF 0
ENDMDL
