MODEL 1
REMARK minimizedAffinity 4.82967806
REMARK minimizedRMSD -1
REMARK  0 active torsions:
REMARK  status: ('A' for Active; 'I' for Inactive)
ROOT
ATOM      1  C1  BNZ d   1      -0.680  -3.341   1.869  0.00  0.00     0.000 A 
ATOM      2  C2  BNZ d   1      -0.825  -2.903   3.158  0.00  0.00     0.000 A 
ATOM      3  C3  BNZ d   1      -1.169  -1.607   3.423  0.00  0.00     0.000 A 
ATOM      4  C4  BNZ d   1      -1.329  -0.742   2.401  0.00  0.00     0.000 A 
ATOM      5  C5  BNZ d   1      -1.177  -1.165   1.096  0.00  0.00     0.000 A 
ATOM      6  C6  BNZ d   1      -0.869  -2.480   0.832  0.00  0.00     0.000 A 
ENDROOT
TORSDOF 0
ENDMDL
