MODEL 1
REMARK minimizedAffinity 0.00374345109
REMARK minimizedRMSD -1
REMARK  0 active torsions:
REMARK  status: ('A' for Active; 'I' for Inactive)
ROOT
ATOM      1  C1  BNZ d   1      -3.032  -5.459   1.302  0.00  0.00     0.000 A 
ATOM      2  C2  BNZ d   1      -3.197  -4.100   1.321  0.00  0.00     0.000 A 
ATOM      3  C3  BNZ d   1      -2.227  -3.270   0.833  0.00  0.00     0.000 A 
ATOM      4  C4  BNZ d   1      -1.078  -3.798   0.362  0.00  0.00     0.000 A 
ATOM      5  C5  BNZ d   1      -0.893  -5.166   0.344  0.00  0.00     0.000 A 
ATOM      6  C6  BNZ d   1      -1.888  -6.000   0.801  0.00  0.00     0.000 A 
ENDROOT
TORSDOF 0
ENDMDL
