MODEL 1
REMARK minimizedAffinity 4.97689056
REMARK minimizedRMSD -1
REMARK  0 active torsions:
REMARK  status: ('A' for Active; 'I' for Inactive)
ROOT
ATOM      1  C1  BNZ d   1      -1.991  -1.206   0.885  0.00  0.00     0.000 A 
ATOM      2  C2  BNZ d   1      -1.303  -1.974  -0.016  0.00  0.00     0.000 A 
ATOM      3  C3  BNZ d   1      -0.424  -2.932   0.408  0.00  0.00     0.000 A 
ATOM      4  C4  BNZ d   1      -0.205  -3.093   1.729  0.00  0.00     0.000 A 
ATOM      5  C5  BNZ d   1      -0.884  -2.320   2.649  0.00  0.00     0.000 A 
ATOM      6  C6  BNZ d   1      -1.797  -1.384   2.221  0.00  0.00     0.000 A 
ENDROOT
TORSDOF 0
ENDMDL
