MODEL 1
REMARK minimizedAffinity 1.50244319
REMARK minimizedRMSD -1
REMARK  0 active torsions:
REMARK  status: ('A' for Active; 'I' for Inactive)
ROOT
ATOM      1  C1  BNZ d   1      -1.313  -2.170   0.420  0.00  0.00     0.000 A 
ATOM      2  C2  BNZ d   1      -0.963  -3.449   0.081  0.00  0.00     0.000 A 
ATOM      3  C3  BNZ d   1      -0.888  -4.429   1.031  0.00  0.00     0.000 A 
ATOM      4  C4  BNZ d   1      -1.124  -4.120   2.323  0.00  0.00     0.000 A 
ATOM      5  C5  BNZ d   1      -1.470  -2.832   2.681  0.00  0.00     0.000 A 
ATOM      6  C6  BNZ d   1      -1.582  -1.857   1.717  0.00  0.00     0.000 A 
ENDROOT
TORSDOF 0
ENDMDL
