MODEL 1
REMARK minimizedAffinity -1.73425734
REMARK minimizedRMSD -1
REMARK  0 active torsions:
REMARK  status: ('A' for Active; 'I' for Inactive)
ROOT
ATOM      1  C1  BNZ d   1      -0.725  -4.101   1.311  0.00  0.00     0.000 A 
ATOM      2  C2  BNZ d   1      -1.573  -4.093   0.236  0.00  0.00     0.000 A 
ATOM      3  C3  BNZ d   1      -2.145  -2.929  -0.195  0.00  0.00     0.000 A 
ATOM      4  C4  BNZ d   1      -1.901  -1.783   0.471  0.00  0.00     0.000 A 
ATOM      5  C5  BNZ d   1      -1.055  -1.776   1.563  0.00  0.00     0.000 A 
ATOM      6  C6  BNZ d   1      -0.450  -2.942   1.971  0.00  0.00     0.000 A 
ENDROOT
TORSDOF 0
ENDMDL
