MODEL 1
REMARK minimizedAffinity 4.61837435
REMARK minimizedRMSD -1
REMARK  0 active torsions:
REMARK  status: ('A' for Active; 'I' for Inactive)
ROOT
ATOM      1  C1  BNZ d   1      -1.248  -2.808   0.564  0.00  0.00     0.000 A 
ATOM      2  C2  BNZ d   1      -1.264  -1.451   0.750  0.00  0.00     0.000 A 
ATOM      3  C3  BNZ d   1      -1.317  -0.918   2.007  0.00  0.00     0.000 A 
ATOM      4  C4  BNZ d   1      -1.395  -1.740   3.074  0.00  0.00     0.000 A 
ATOM      5  C5  BNZ d   1      -1.389  -3.110   2.902  0.00  0.00     0.000 A 
ATOM      6  C6  BNZ d   1      -1.297  -3.643   1.637  0.00  0.00     0.000 A 
ENDROOT
TORSDOF 0
ENDMDL
