MODEL 1
REMARK minimizedAffinity 0.655671239
REMARK minimizedRMSD -1
REMARK  0 active torsions:
REMARK  status: ('A' for Active; 'I' for Inactive)
ROOT
ATOM      1  C1  BNZ d   1      -0.690  -3.396   1.399  0.00  0.00     0.000 A 
ATOM      2  C2  BNZ d   1      -1.329  -2.584   2.298  0.00  0.00     0.000 A 
ATOM      3  C3  BNZ d   1      -2.337  -1.754   1.896  0.00  0.00     0.000 A 
ATOM      4  C4  BNZ d   1      -2.678  -1.707   0.592  0.00  0.00     0.000 A 
ATOM      5  C5  BNZ d   1      -2.037  -2.513  -0.327  0.00  0.00     0.000 A 
ATOM      6  C6  BNZ d   1      -1.049  -3.376   0.087  0.00  0.00     0.000 A 
ENDROOT
TORSDOF 0
ENDMDL
