MODEL 1
REMARK minimizedAffinity 5.40139151
REMARK minimizedRMSD -1
REMARK  0 active torsions:
REMARK  status: ('A' for Active; 'I' for Inactive)
ROOT
ATOM      1  C1  BNZ d   1       3.935   2.376   6.000  0.00  0.00     0.000 A 
ATOM      2  C2  BNZ d   1       3.767   1.017   5.998  0.00  0.00     0.000 A 
ATOM      3  C3  BNZ d   1       4.171   0.263   4.932  0.00  0.00     0.000 A 
ATOM      4  C4  BNZ d   1       4.706   0.872   3.854  0.00  0.00     0.000 A 
ATOM      5  C5  BNZ d   1       4.873   2.242   3.837  0.00  0.00     0.000 A 
ATOM      6  C6  BNZ d   1       4.500   2.994   4.927  0.00  0.00     0.000 A 
ENDROOT
TORSDOF 0
ENDMDL
