MODEL 1
REMARK minimizedAffinity 0.104115121
REMARK minimizedRMSD -1
REMARK  0 active torsions:
REMARK  status: ('A' for Active; 'I' for Inactive)
ROOT
ATOM      1  C1  BNZ d   1      -3.611   0.484   5.973  0.00  0.00     0.000 A 
ATOM      2  C2  BNZ d   1      -4.800  -0.195   6.000  0.00  0.00     0.000 A 
ATOM      3  C3  BNZ d   1      -5.990   0.478   5.993  0.00  0.00     0.000 A 
ATOM      4  C4  BNZ d   1      -5.990   1.827   6.000  0.00  0.00     0.000 A 
ATOM      5  C5  BNZ d   1      -4.799   2.525   5.982  0.00  0.00     0.000 A 
ATOM      6  C6  BNZ d   1      -3.604   1.845   5.949  0.00  0.00     0.000 A 
ENDROOT
TORSDOF 0
ENDMDL
