MODEL 1
REMARK minimizedAffinity 20.5423679
REMARK minimizedRMSD -1
REMARK  0 active torsions:
REMARK  status: ('A' for Active; 'I' for Inactive)
ROOT
ATOM      1  C4' PXY d   1       0.787   0.406  -5.947  0.00  0.00     0.077 C 
ATOM      2  C1' PXY d   1       4.243  -4.227  -5.979  0.00  0.00     0.077 C 
ATOM      3  C1  PXY d   1       3.346  -3.005  -5.966  0.00  0.00    -0.082 A 
ATOM      4  C2  PXY d   1       2.032  -3.158  -5.935  0.00  0.00     0.003 A 
ATOM      5  C3  PXY d   1       1.206  -2.064  -5.955  0.00  0.00     0.003 A 
ATOM      6  C4  PXY d   1       1.731  -0.799  -5.952  0.00  0.00    -0.082 A 
ATOM      7  C5  PXY d   1       3.071  -0.635  -5.973  0.00  0.00     0.003 A 
ATOM      8  C6  PXY d   1       3.892  -1.759  -5.994  0.00  0.00     0.003 A 
ENDROOT
TORSDOF 0
ENDMDL
