MODEL 1
REMARK minimizedAffinity 6.25954151
REMARK minimizedRMSD -1
REMARK  0 active torsions:
REMARK  status: ('A' for Active; 'I' for Inactive)
ROOT
ATOM      1  C4' PXY d   1      -0.863   2.316   0.167  0.00  0.00     0.077 C 
ATOM      2  C1' PXY d   1      -2.716  -1.241   4.330  0.00  0.00     0.077 C 
ATOM      3  C1  PXY d   1      -2.218  -0.307   3.244  0.00  0.00    -0.082 A 
ATOM      4  C2  PXY d   1      -3.088   0.398   2.539  0.00  0.00     0.003 A 
ATOM      5  C3  PXY d   1      -2.657   1.223   1.532  0.00  0.00     0.003 A 
ATOM      6  C4  PXY d   1      -1.319   1.368   1.280  0.00  0.00    -0.082 A 
ATOM      7  C5  PXY d   1      -0.425   0.660   2.002  0.00  0.00     0.003 A 
ATOM      8  C6  PXY d   1      -0.885  -0.203   2.993  0.00  0.00     0.003 A 
ENDROOT
TORSDOF 0
ENDMDL
