MODEL 1
REMARK minimizedAffinity 13.3902388
REMARK minimizedRMSD -1
REMARK  0 active torsions:
REMARK  status: ('A' for Active; 'I' for Inactive)
ROOT
ATOM      1  C4' PXY d   1      -6.000  -3.065   5.943  0.00  0.00     0.077 C 
ATOM      2  C1' PXY d   1      -0.615  -3.753   3.955  0.00  0.00     0.077 C 
ATOM      3  C1  PXY d   1      -2.032  -3.576   4.465  0.00  0.00    -0.082 A 
ATOM      4  C2  PXY d   1      -2.260  -2.791   5.505  0.00  0.00     0.003 A 
ATOM      5  C3  PXY d   1      -3.531  -2.645   5.999  0.00  0.00     0.003 A 
ATOM      6  C4  PXY d   1      -4.587  -3.266   5.388  0.00  0.00    -0.082 A 
ATOM      7  C5  PXY d   1      -4.364  -4.060   4.320  0.00  0.00     0.003 A 
ATOM      8  C6  PXY d   1      -3.061  -4.228   3.859  0.00  0.00     0.003 A 
ENDROOT
TORSDOF 0
ENDMDL
