MODEL 1
REMARK minimizedAffinity 7.28816843
REMARK minimizedRMSD -1
REMARK  0 active torsions:
REMARK  status: ('A' for Active; 'I' for Inactive)
ROOT
ATOM      1  C4' PXY d   1       2.244  -4.875  -1.902  0.00  0.00     0.077 C 
ATOM      2  C1' PXY d   1       1.588  -0.850  -5.999  0.00  0.00     0.077 C 
ATOM      3  C1  PXY d   1       1.752  -1.898  -4.917  0.00  0.00    -0.082 A 
ATOM      4  C2  PXY d   1       2.829  -2.667  -4.909  0.00  0.00     0.003 A 
ATOM      5  C3  PXY d   1       2.978  -3.642  -3.956  0.00  0.00     0.003 A 
ATOM      6  C4  PXY d   1       2.041  -3.796  -2.970  0.00  0.00    -0.082 A 
ATOM      7  C5  PXY d   1       0.945  -3.009  -2.965  0.00  0.00     0.003 A 
ATOM      8  C6  PXY d   1       0.792  -2.053  -3.965  0.00  0.00     0.003 A 
ENDROOT
TORSDOF 0
ENDMDL
