MODEL 1
REMARK minimizedAffinity 14.3926172
REMARK minimizedRMSD -1
REMARK  0 active torsions:
REMARK  status: ('A' for Active; 'I' for Inactive)
ROOT
ATOM      1  C4' PXY d   1      -4.860   5.999   3.439  0.00  0.00     0.077 C 
ATOM      2  C1' PXY d   1      -4.579   5.575  -2.319  0.00  0.00     0.077 C 
ATOM      3  C1  PXY d   1      -4.642   5.679  -0.808  0.00  0.00    -0.082 A 
ATOM      4  C2  PXY d   1      -5.808   5.871  -0.213  0.00  0.00     0.003 A 
ATOM      5  C3  PXY d   1      -5.879   6.000   1.150  0.00  0.00     0.003 A 
ATOM      6  C4  PXY d   1      -4.751   5.878   1.917  0.00  0.00    -0.082 A 
ATOM      7  C5  PXY d   1      -3.558   5.672   1.318  0.00  0.00     0.003 A 
ATOM      8  C6  PXY d   1      -3.503   5.585  -0.070  0.00  0.00     0.003 A 
ENDROOT
TORSDOF 0
ENDMDL
