MODEL 1
REMARK minimizedAffinity 15.9939308
REMARK minimizedRMSD -1
REMARK  0 active torsions:
REMARK  status: ('A' for Active; 'I' for Inactive)
ROOT
ATOM      1  C4' PXY d   1      -5.095   5.990   3.351  0.00  0.00     0.077 C 
ATOM      2  C1' PXY d   1      -4.535   5.426  -2.375  0.00  0.00     0.077 C 
ATOM      3  C1  PXY d   1      -4.671   5.567  -0.871  0.00  0.00    -0.082 A 
ATOM      4  C2  PXY d   1      -5.854   5.838  -0.344  0.00  0.00     0.003 A 
ATOM      5  C3  PXY d   1      -5.989   6.000   1.011  0.00  0.00     0.003 A 
ATOM      6  C4  PXY d   1      -4.912   5.830   1.839  0.00  0.00    -0.082 A 
ATOM      7  C5  PXY d   1      -3.704   5.543   1.310  0.00  0.00     0.003 A 
ATOM      8  C6  PXY d   1      -3.580   5.423  -0.071  0.00  0.00     0.003 A 
ENDROOT
TORSDOF 0
ENDMDL
