MODEL 1
REMARK minimizedAffinity 15.1946535
REMARK minimizedRMSD -1
REMARK  0 active torsions:
REMARK  status: ('A' for Active; 'I' for Inactive)
ROOT
ATOM      1  C4' PXY d   1       1.812  -6.000  -1.949  0.00  0.00     0.077 C 
ATOM      2  C1' PXY d   1       2.528  -1.939  -6.000  0.00  0.00     0.077 C 
ATOM      3  C1  PXY d   1       2.351  -3.000  -4.931  0.00  0.00    -0.082 A 
ATOM      4  C2  PXY d   1       1.655  -4.092  -5.203  0.00  0.00     0.003 A 
ATOM      5  C3  PXY d   1       1.458  -5.047  -4.238  0.00  0.00     0.003 A 
ATOM      6  C4  PXY d   1       2.024  -4.907  -3.000  0.00  0.00    -0.082 A 
ATOM      7  C5  PXY d   1       2.745  -3.800  -2.718  0.00  0.00     0.003 A 
ATOM      8  C6  PXY d   1       2.898  -2.824  -3.698  0.00  0.00     0.003 A 
ENDROOT
TORSDOF 0
ENDMDL
