MODEL 1
REMARK minimizedAffinity 15.8435326
REMARK minimizedRMSD -1
REMARK  0 active torsions:
REMARK  status: ('A' for Active; 'I' for Inactive)
ROOT
ATOM      1  C4' PXY d   1       5.977  -5.728   1.894  0.00  0.00     0.077 C 
ATOM      2  C1' PXY d   1       2.340  -1.261   1.406  0.00  0.00     0.077 C 
ATOM      3  C1  PXY d   1       3.303  -2.426   1.527  0.00  0.00    -0.082 A 
ATOM      4  C2  PXY d   1       2.830  -3.651   1.692  0.00  0.00     0.003 A 
ATOM      5  C3  PXY d   1       3.688  -4.711   1.836  0.00  0.00     0.003 A 
ATOM      6  C4  PXY d   1       5.041  -4.523   1.757  0.00  0.00    -0.082 A 
ATOM      7  C5  PXY d   1       5.531  -3.278   1.578  0.00  0.00     0.003 A 
ATOM      8  C6  PXY d   1       4.645  -2.209   1.476  0.00  0.00     0.003 A 
ENDROOT
TORSDOF 0
ENDMDL
