MODEL 1
REMARK minimizedAffinity 15.3564224
REMARK minimizedRMSD -1
REMARK  0 active torsions:
REMARK  status: ('A' for Active; 'I' for Inactive)
ROOT
ATOM      1  C4' PXY d   1      -5.110   5.998   3.317  0.00  0.00     0.077 C 
ATOM      2  C1' PXY d   1      -4.433   5.607  -2.410  0.00  0.00     0.077 C 
ATOM      3  C1  PXY d   1      -4.600   5.703  -0.907  0.00  0.00    -0.082 A 
ATOM      4  C2  PXY d   1      -5.806   5.879  -0.392  0.00  0.00     0.003 A 
ATOM      5  C3  PXY d   1      -5.970   6.000   0.964  0.00  0.00     0.003 A 
ATOM      6  C4  PXY d   1      -4.896   5.886   1.805  0.00  0.00    -0.082 A 
ATOM      7  C5  PXY d   1      -3.664   5.695   1.288  0.00  0.00     0.003 A 
ATOM      8  C6  PXY d   1      -3.512   5.616  -0.093  0.00  0.00     0.003 A 
ENDROOT
TORSDOF 0
ENDMDL
