MODEL 1
REMARK minimizedAffinity 15.8641129
REMARK minimizedRMSD -1
REMARK  0 active torsions:
REMARK  status: ('A' for Active; 'I' for Inactive)
ROOT
ATOM      1  C4' PXY d   1      -4.457   5.205  -1.763  0.00  0.00     0.077 C 
ATOM      2  C1' PXY d   1      -5.048   5.808   3.956  0.00  0.00     0.077 C 
ATOM      3  C1  PXY d   1      -4.905   5.647   2.455  0.00  0.00    -0.082 A 
ATOM      4  C2  PXY d   1      -3.726   5.341   1.939  0.00  0.00     0.003 A 
ATOM      5  C3  PXY d   1      -3.573   5.223   0.582  0.00  0.00     0.003 A 
ATOM      6  C4  PXY d   1      -4.649   5.368  -0.252  0.00  0.00    -0.082 A 
ATOM      7  C5  PXY d   1      -5.858   5.669   0.267  0.00  0.00     0.003 A 
ATOM      8  C6  PXY d   1      -5.984   5.825   1.645  0.00  0.00     0.003 A 
ENDROOT
TORSDOF 0
ENDMDL
