MODEL 1
REMARK minimizedAffinity 8.55279636
REMARK minimizedRMSD -1
REMARK  0 active torsions:
REMARK  status: ('A' for Active; 'I' for Inactive)
ROOT
ATOM      1  C4' PXY d   1       0.423   6.000  -1.747  0.00  0.00     0.077 C 
ATOM      2  C1' PXY d   1      -1.287   1.594   1.581  0.00  0.00     0.077 C 
ATOM      3  C1  PXY d   1      -0.849   2.756   0.712  0.00  0.00    -0.082 A 
ATOM      4  C2  PXY d   1      -0.096   2.530  -0.352  0.00  0.00     0.003 A 
ATOM      5  C3  PXY d   1       0.335   3.573  -1.131  0.00  0.00     0.003 A 
ATOM      6  C4  PXY d   1      -0.051   4.856  -0.847  0.00  0.00    -0.082 A 
ATOM      7  C5  PXY d   1      -0.827   5.093   0.232  0.00  0.00     0.003 A 
ATOM      8  C6  PXY d   1      -1.221   4.025   1.033  0.00  0.00     0.003 A 
ENDROOT
TORSDOF 0
ENDMDL
