MODEL 1
REMARK minimizedAffinity 17.0413227
REMARK minimizedRMSD -1
REMARK  0 active torsions:
REMARK  status: ('A' for Active; 'I' for Inactive)
ROOT
ATOM      1  C4' PXY d   1      -0.261   2.079   0.486  0.00  0.00     0.077 C 
ATOM      2  C1' PXY d   1      -1.339   5.669  -3.914  0.00  0.00     0.077 C 
ATOM      3  C1  PXY d   1      -1.045   4.734  -2.758  0.00  0.00    -0.082 A 
ATOM      4  C2  PXY d   1      -1.627   3.546  -2.713  0.00  0.00     0.003 A 
ATOM      5  C3  PXY d   1      -1.396   2.700  -1.659  0.00  0.00     0.003 A 
ATOM      6  C4  PXY d   1      -0.521   3.052  -0.667  0.00  0.00    -0.082 A 
ATOM      7  C5  PXY d   1       0.085   4.258  -0.710  0.00  0.00     0.003 A 
ATOM      8  C6  PXY d   1      -0.194   5.118  -1.768  0.00  0.00     0.003 A 
ENDROOT
TORSDOF 0
ENDMDL
