MODEL 1
REMARK minimizedAffinity -3.14178586
REMARK minimizedRMSD -1
REMARK  0 active torsions:
REMARK  status: ('A' for Active; 'I' for Inactive)
ROOT
ATOM      1  C4' PXY d   1      -2.376   0.039   4.030  0.00  0.00     0.077 C 
ATOM      2  C1' PXY d   1      -0.325   3.191  -0.361  0.00  0.00     0.077 C 
ATOM      3  C1  PXY d   1      -0.872   2.373   0.793  0.00  0.00    -0.082 A 
ATOM      4  C2  PXY d   1      -0.083   1.514   1.418  0.00  0.00     0.003 A 
ATOM      5  C3  PXY d   1      -0.570   0.744   2.443  0.00  0.00     0.003 A 
ATOM      6  C4  PXY d   1      -1.864   0.892   2.866  0.00  0.00    -0.082 A 
ATOM      7  C5  PXY d   1      -2.672   1.774   2.241  0.00  0.00     0.003 A 
ATOM      8  C6  PXY d   1      -2.170   2.517   1.176  0.00  0.00     0.003 A 
ENDROOT
TORSDOF 0
ENDMDL
