MODEL 1
REMARK minimizedAffinity 4.07766056
REMARK minimizedRMSD -1
REMARK  0 active torsions:
REMARK  status: ('A' for Active; 'I' for Inactive)
ROOT
ATOM      1  C4' PXY d   1      -1.199   1.777   2.367  0.00  0.00     0.077 C 
ATOM      2  C1' PXY d   1       0.414   4.656  -2.379  0.00  0.00     0.077 C 
ATOM      3  C1  PXY d   1      -0.014   3.892  -1.141  0.00  0.00    -0.082 A 
ATOM      4  C2  PXY d   1      -0.220   4.543  -0.008  0.00  0.00     0.003 A 
ATOM      5  C3  PXY d   1      -0.576   3.864   1.128  0.00  0.00     0.003 A 
ATOM      6  C4  PXY d   1      -0.775   2.510   1.091  0.00  0.00    -0.082 A 
ATOM      7  C5  PXY d   1      -0.578   1.839  -0.063  0.00  0.00     0.003 A 
ATOM      8  C6  PXY d   1      -0.176   2.542  -1.196  0.00  0.00     0.003 A 
ENDROOT
TORSDOF 0
ENDMDL
