MODEL 1
REMARK minimizedAffinity 7.25872517
REMARK minimizedRMSD -1
REMARK  0 active torsions:
REMARK  status: ('A' for Active; 'I' for Inactive)
ROOT
ATOM      1  C4' PXY d   1      -5.389  -5.473   3.745  0.00  0.00     0.077 C 
ATOM      2  C1' PXY d   1      -4.837  -1.317  -0.235  0.00  0.00     0.077 C 
ATOM      3  C1  PXY d   1      -4.970  -2.404   0.813  0.00  0.00    -0.082 A 
ATOM      4  C2  PXY d   1      -5.845  -3.381   0.635  0.00  0.00     0.003 A 
ATOM      5  C3  PXY d   1      -6.000  -4.355   1.588  0.00  0.00     0.003 A 
ATOM      6  C4  PXY d   1      -5.214  -4.359   2.709  0.00  0.00    -0.082 A 
ATOM      7  C5  PXY d   1      -4.312  -3.372   2.893  0.00  0.00     0.003 A 
ATOM      8  C6  PXY d   1      -4.198  -2.370   1.933  0.00  0.00     0.003 A 
ENDROOT
TORSDOF 0
ENDMDL
