MODEL 1
REMARK minimizedAffinity 2.7883532
REMARK minimizedRMSD -1
REMARK  0 active torsions:
REMARK  status: ('A' for Active; 'I' for Inactive)
ROOT
ATOM      1  C4' PXY d   1      -1.386   1.803   1.002  0.00  0.00     0.077 C 
ATOM      2  C1' PXY d   1       1.128   6.000  -2.077  0.00  0.00     0.077 C 
ATOM      3  C1  PXY d   1       0.459   4.898  -1.279  0.00  0.00    -0.082 A 
ATOM      4  C2  PXY d   1       0.611   4.858   0.035  0.00  0.00     0.003 A 
ATOM      5  C3  PXY d   1       0.040   3.850   0.768  0.00  0.00     0.003 A 
ATOM      6  C4  PXY d   1      -0.738   2.903   0.157  0.00  0.00    -0.082 A 
ATOM      7  C5  PXY d   1      -0.906   2.943  -1.182  0.00  0.00     0.003 A 
ATOM      8  C6  PXY d   1      -0.284   3.951  -1.913  0.00  0.00     0.003 A 
ENDROOT
TORSDOF 0
ENDMDL
