MODEL 1
REMARK minimizedAffinity 9.5309267
REMARK minimizedRMSD -1
REMARK  0 active torsions:
REMARK  status: ('A' for Active; 'I' for Inactive)
ROOT
ATOM      1  C4' PXY d   1      -5.992  -5.445   5.984  0.00  0.00     0.077 C 
ATOM      2  C1' PXY d   1      -1.930  -1.786   4.105  0.00  0.00     0.077 C 
ATOM      3  C1  PXY d   1      -2.994  -2.752   4.587  0.00  0.00    -0.082 A 
ATOM      4  C2  PXY d   1      -3.842  -2.375   5.530  0.00  0.00     0.003 A 
ATOM      5  C3  PXY d   1      -4.790  -3.246   6.000  0.00  0.00     0.003 A 
ATOM      6  C4  PXY d   1      -4.907  -4.500   5.461  0.00  0.00    -0.082 A 
ATOM      7  C5  PXY d   1      -4.053  -4.889   4.491  0.00  0.00     0.003 A 
ATOM      8  C6  PXY d   1      -3.071  -4.003   4.056  0.00  0.00     0.003 A 
ENDROOT
TORSDOF 0
ENDMDL
