MODEL 1
REMARK minimizedAffinity 4.83105612
REMARK minimizedRMSD -1
REMARK  0 active torsions:
REMARK  status: ('A' for Active; 'I' for Inactive)
ROOT
ATOM      1  C4' PXY d   1      -1.529   3.059  -3.406  0.00  0.00     0.077 C 
ATOM      2  C1' PXY d   1       1.198   5.399   1.122  0.00  0.00     0.077 C 
ATOM      3  C1  PXY d   1       0.478   4.797  -0.068  0.00  0.00    -0.082 A 
ATOM      4  C2  PXY d   1       0.183   3.507  -0.071  0.00  0.00     0.003 A 
ATOM      5  C3  PXY d   1      -0.439   2.940  -1.153  0.00  0.00     0.003 A 
ATOM      6  C4  PXY d   1      -0.811   3.712  -2.221  0.00  0.00    -0.082 A 
ATOM      7  C5  PXY d   1      -0.523   5.031  -2.221  0.00  0.00     0.003 A 
ATOM      8  C6  PXY d   1       0.146   5.579  -1.131  0.00  0.00     0.003 A 
ENDROOT
TORSDOF 0
ENDMDL
