MODEL 1
REMARK minimizedAffinity 9.90494919
REMARK minimizedRMSD -1
REMARK  0 active torsions:
REMARK  status: ('A' for Active; 'I' for Inactive)
ROOT
ATOM      1  C4' PXY d   1      -1.959   2.347  -3.015  0.00  0.00     0.077 C 
ATOM      2  C1' PXY d   1       1.231   5.442   0.681  0.00  0.00     0.077 C 
ATOM      3  C1  PXY d   1       0.389   4.641  -0.292  0.00  0.00    -0.082 A 
ATOM      4  C2  PXY d   1       0.152   3.362  -0.054  0.00  0.00     0.003 A 
ATOM      5  C3  PXY d   1      -0.581   2.615  -0.940  0.00  0.00     0.003 A 
ATOM      6  C4  PXY d   1      -1.122   3.197  -2.055  0.00  0.00    -0.082 A 
ATOM      7  C5  PXY d   1      -0.894   4.505  -2.300  0.00  0.00     0.003 A 
ATOM      8  C6  PXY d   1      -0.113   5.235  -1.409  0.00  0.00     0.003 A 
ENDROOT
TORSDOF 0
ENDMDL
