MODEL 1
REMARK minimizedAffinity 6.44936991
REMARK minimizedRMSD -1
REMARK  0 active torsions:
REMARK  status: ('A' for Active; 'I' for Inactive)
ROOT
ATOM      1  C4' PXY d   1      -0.563   2.291   2.961  0.00  0.00     0.077 C 
ATOM      2  C1' PXY d   1      -0.084   3.381  -2.696  0.00  0.00     0.077 C 
ATOM      3  C1  PXY d   1      -0.201   3.104  -1.210  0.00  0.00    -0.082 A 
ATOM      4  C2  PXY d   1      -0.644   1.928  -0.796  0.00  0.00     0.003 A 
ATOM      5  C3  PXY d   1      -0.785   1.672   0.544  0.00  0.00     0.003 A 
ATOM      6  C4  PXY d   1      -0.420   2.611   1.471  0.00  0.00    -0.082 A 
ATOM      7  C5  PXY d   1       0.043   3.810   1.057  0.00  0.00     0.003 A 
ATOM      8  C6  PXY d   1       0.140   4.064  -0.308  0.00  0.00     0.003 A 
ENDROOT
TORSDOF 0
ENDMDL
