MODEL 1
REMARK minimizedAffinity 6.61403942
REMARK minimizedRMSD -1
REMARK  0 active torsions:
REMARK  status: ('A' for Active; 'I' for Inactive)
ROOT
ATOM      1  C   UNL d   1       1.010  -1.713   2.022  0.00  0.00     0.023 A 
ATOM      2  C1  UNL d   1      -0.137  -1.504   1.258  0.00  0.00     0.003 A 
ATOM      3  C2  UNL d   1      -1.122  -0.619   1.702  0.00  0.00     0.048 A 
ATOM      4  C3  UNL d   1      -0.952   0.054   2.911  0.00  0.00     0.023 A 
ATOM      5  C4  UNL d   1       0.195  -0.151   3.679  0.00  0.00     0.048 A 
ATOM      6  C5  UNL d   1       1.177  -1.038   3.231  0.00  0.00     0.003 A 
ATOM      7  I   UNL d   1      -2.416   1.373   3.573  0.00  0.00    -0.146 I 
ENDROOT
TORSDOF 0
ENDMDL
