MODEL 1
REMARK minimizedAffinity 3.63417792
REMARK minimizedRMSD -1
REMARK  0 active torsions:
REMARK  status: ('A' for Active; 'I' for Inactive)
ROOT
ATOM      1  C   UNL d   1      -3.728  -0.220  -5.163  0.00  0.00     0.023 A 
ATOM      2  C1  UNL d   1      -4.795   0.234  -4.387  0.00  0.00     0.003 A 
ATOM      3  C2  UNL d   1      -5.156   1.582  -4.414  0.00  0.00     0.048 A 
ATOM      4  C3  UNL d   1      -4.446   2.472  -5.220  0.00  0.00     0.023 A 
ATOM      5  C4  UNL d   1      -3.378   2.022  -5.999  0.00  0.00     0.048 A 
ATOM      6  C5  UNL d   1      -3.021   0.673  -5.968  0.00  0.00     0.003 A 
ATOM      7  I   UNL d   1      -4.981   4.480  -5.262  0.00  0.00    -0.146 I 
ENDROOT
TORSDOF 0
ENDMDL
