MODEL 1
REMARK minimizedAffinity 5.07659101
REMARK minimizedRMSD -1
REMARK  0 active torsions:
REMARK  status: ('A' for Active; 'I' for Inactive)
ROOT
ATOM      1  C   UNL d   1      -0.190  -0.795   3.451  0.00  0.00     0.023 A 
ATOM      2  C1  UNL d   1      -0.634  -1.345   2.249  0.00  0.00     0.003 A 
ATOM      3  C2  UNL d   1       0.269  -1.569   1.206  0.00  0.00     0.048 A 
ATOM      4  C3  UNL d   1       1.613  -1.240   1.374  0.00  0.00     0.023 A 
ATOM      5  C4  UNL d   1       2.062  -0.689   2.575  0.00  0.00     0.048 A 
ATOM      6  C5  UNL d   1       1.156  -0.467   3.614  0.00  0.00     0.003 A 
ATOM      7  I   UNL d   1       2.958  -1.571  -0.176  0.00  0.00    -0.146 I 
ENDROOT
TORSDOF 0
ENDMDL
