MODEL 1
REMARK minimizedAffinity 4.96676779
REMARK minimizedRMSD -1
REMARK  0 active torsions:
REMARK  status: ('A' for Active; 'I' for Inactive)
ROOT
ATOM      1  C   UNL d   1       0.981  -1.376   2.090  0.00  0.00     0.023 A 
ATOM      2  C1  UNL d   1       1.135  -0.322   2.991  0.00  0.00     0.003 A 
ATOM      3  C2  UNL d   1       0.021   0.413   3.404  0.00  0.00     0.048 A 
ATOM      4  C3  UNL d   1      -1.243   0.087   2.914  0.00  0.00     0.023 A 
ATOM      5  C4  UNL d   1      -1.402  -0.967   2.013  0.00  0.00     0.048 A 
ATOM      6  C5  UNL d   1      -0.286  -1.698   1.601  0.00  0.00     0.003 A 
ATOM      7  I   UNL d   1      -2.901   1.179   3.529  0.00  0.00    -0.146 I 
ENDROOT
TORSDOF 0
ENDMDL
