MODEL 1
REMARK minimizedAffinity 4.6507659
REMARK minimizedRMSD -1
REMARK  0 active torsions:
REMARK  status: ('A' for Active; 'I' for Inactive)
ROOT
ATOM      1  C   UNL d   1       1.482  -1.666   2.562  0.00  0.00     0.023 A 
ATOM      2  C1  UNL d   1       0.467  -1.500   1.619  0.00  0.00     0.003 A 
ATOM      3  C2  UNL d   1      -0.601  -0.641   1.886  0.00  0.00     0.048 A 
ATOM      4  C3  UNL d   1      -0.648   0.050   3.096  0.00  0.00     0.023 A 
ATOM      5  C4  UNL d   1       0.366  -0.112   4.042  0.00  0.00     0.048 A 
ATOM      6  C5  UNL d   1       1.431  -0.973   3.771  0.00  0.00     0.003 A 
ATOM      7  I   UNL d   1      -2.236   1.329   3.495  0.00  0.00    -0.146 I 
ENDROOT
TORSDOF 0
ENDMDL
