MODEL 1
REMARK minimizedAffinity 6.23566198
REMARK minimizedRMSD -1
REMARK  0 active torsions:
REMARK  status: ('A' for Active; 'I' for Inactive)
ROOT
ATOM      1  C   UNL d   1       1.781  -1.108   3.004  0.00  0.00     0.023 A 
ATOM      2  C1  UNL d   1       0.421  -0.803   3.061  0.00  0.00     0.003 A 
ATOM      3  C2  UNL d   1      -0.310  -0.641   1.882  0.00  0.00     0.048 A 
ATOM      4  C3  UNL d   1       0.326  -0.786   0.649  0.00  0.00     0.023 A 
ATOM      5  C4  UNL d   1       1.687  -1.091   0.587  0.00  0.00     0.048 A 
ATOM      6  C5  UNL d   1       2.413  -1.251   1.768  0.00  0.00     0.003 A 
ATOM      7  I   UNL d   1      -0.759  -0.546  -1.107  0.00  0.00    -0.146 I 
ENDROOT
TORSDOF 0
ENDMDL
