MODEL 1
REMARK minimizedAffinity 9.32152176
REMARK minimizedRMSD -1
REMARK  0 active torsions:
REMARK  status: ('A' for Active; 'I' for Inactive)
ROOT
ATOM      1  C   UNL d   1       1.802  -1.597   2.078  0.00  0.00     0.023 A 
ATOM      2  C1  UNL d   1       1.973  -0.859   3.250  0.00  0.00     0.003 A 
ATOM      3  C2  UNL d   1       0.948  -0.030   3.711  0.00  0.00     0.048 A 
ATOM      4  C3  UNL d   1      -0.246   0.055   2.996  0.00  0.00     0.023 A 
ATOM      5  C4  UNL d   1      -0.423  -0.682   1.824  0.00  0.00     0.048 A 
ATOM      6  C5  UNL d   1       0.605  -1.508   1.366  0.00  0.00     0.003 A 
ATOM      7  I   UNL d   1      -1.773   1.288   3.681  0.00  0.00    -0.146 I 
ENDROOT
TORSDOF 0
ENDMDL
