MODEL 1
REMARK minimizedAffinity 1.37601411
REMARK minimizedRMSD -1
REMARK  0 active torsions:
REMARK  status: ('A' for Active; 'I' for Inactive)
ROOT
ATOM      1  C   UNL d   1      -1.032  -0.505   2.088  0.00  0.00     0.023 A 
ATOM      2  C1  UNL d   1      -1.011  -0.651   0.700  0.00  0.00     0.003 A 
ATOM      3  C2  UNL d   1       0.149  -1.090   0.061  0.00  0.00     0.048 A 
ATOM      4  C3  UNL d   1       1.286  -1.383   0.814  0.00  0.00     0.023 A 
ATOM      5  C4  UNL d   1       1.269  -1.238   2.203  0.00  0.00     0.048 A 
ATOM      6  C5  UNL d   1       0.107  -0.798   2.838  0.00  0.00     0.003 A 
ATOM      7  I   UNL d   1       3.015  -2.037  -0.135  0.00  0.00    -0.146 I 
ENDROOT
TORSDOF 0
ENDMDL
