MODEL 1
REMARK minimizedAffinity -2.17146802
REMARK minimizedRMSD -1
REMARK  0 active torsions:
REMARK  status: ('A' for Active; 'I' for Inactive)
ROOT
ATOM      1  C   UNL d   1       0.200   0.438   1.653  0.00  0.00     0.124 A 
ATOM      2  C1  UNL d   1      -0.765  -0.428   2.147  0.00  0.00     0.062 A 
ATOM      3  C2  UNL d   1      -1.958   0.072   2.660  0.00  0.00     0.162 A 
ATOM      4  C3  UNL d   1      -2.194   1.447   2.680  0.00  0.00    -0.034 A 
ATOM      5  C4  UNL d   1      -1.217   2.312   2.183  0.00  0.00     0.162 A 
ATOM      6  C5  UNL d   1      -0.026   1.807   1.671  0.00  0.00     0.062 A 
ATOM      7  F   UNL d   1       0.905   2.645   1.195  0.00  0.00    -0.097 F 
ATOM      8  F1  UNL d   1      -1.411   3.639   2.187  0.00  0.00    -0.096 F 
ATOM      9  I   UNL d   1      -3.976   2.200   3.446  0.00  0.00    -0.060 I 
ATOM     10  F2  UNL d   1      -2.874  -0.788   3.130  0.00  0.00    -0.096 F 
ATOM     11  F3  UNL d   1      -0.548  -1.751   2.131  0.00  0.00    -0.097 F 
ATOM     12  F4  UNL d   1       1.348  -0.047   1.161  0.00  0.00    -0.092 F 
ENDROOT
TORSDOF 0
ENDMDL
