MODEL 1
REMARK minimizedAffinity 8.39269352
REMARK minimizedRMSD -1
REMARK  0 active torsions:
REMARK  status: ('A' for Active; 'I' for Inactive)
ROOT
ATOM      1  C   UNL d   1       0.380   1.933   1.490  0.00  0.00     0.124 A 
ATOM      2  C1  UNL d   1       0.464   0.569   1.731  0.00  0.00     0.062 A 
ATOM      3  C2  UNL d   1      -0.674  -0.152   2.078  0.00  0.00     0.162 A 
ATOM      4  C3  UNL d   1      -1.908   0.490   2.187  0.00  0.00    -0.034 A 
ATOM      5  C4  UNL d   1      -1.984   1.863   1.945  0.00  0.00     0.162 A 
ATOM      6  C5  UNL d   1      -0.843   2.579   1.598  0.00  0.00     0.062 A 
ATOM      7  F   UNL d   1      -0.927   3.897   1.366  0.00  0.00    -0.097 F 
ATOM      8  F1  UNL d   1      -3.154   2.511   2.040  0.00  0.00    -0.096 F 
ATOM      9  I   UNL d   1      -3.613  -0.585   2.707  0.00  0.00    -0.060 I 
ATOM     10  F2  UNL d   1      -0.564  -1.470   2.305  0.00  0.00    -0.096 F 
ATOM     11  F3  UNL d   1       1.646  -0.057   1.629  0.00  0.00    -0.097 F 
ATOM     12  F4  UNL d   1       1.478   2.625   1.157  0.00  0.00    -0.092 F 
ENDROOT
TORSDOF 0
ENDMDL
