MODEL 1
REMARK minimizedAffinity 6.47532129
REMARK minimizedRMSD -1
REMARK  0 active torsions:
REMARK  status: ('A' for Active; 'I' for Inactive)
ROOT
ATOM      1  C   UNL d   1      -1.370   1.043   1.613  0.00  0.00     0.124 A 
ATOM      2  C1  UNL d   1      -2.129  -0.067   1.955  0.00  0.00     0.062 A 
ATOM      3  C2  UNL d   1      -3.149   0.044   2.896  0.00  0.00     0.162 A 
ATOM      4  C3  UNL d   1      -3.416   1.272   3.502  0.00  0.00    -0.034 A 
ATOM      5  C4  UNL d   1      -2.648   2.385   3.153  0.00  0.00     0.162 A 
ATOM      6  C5  UNL d   1      -1.630   2.268   2.212  0.00  0.00     0.062 A 
ATOM      7  F   UNL d   1      -0.898   3.342   1.883  0.00  0.00    -0.097 F 
ATOM      8  F1  UNL d   1      -2.879   3.580   3.716  0.00  0.00    -0.096 F 
ATOM      9  I   UNL d   1      -4.940   1.443   4.909  0.00  0.00    -0.060 I 
ATOM     10  F2  UNL d   1      -3.866  -1.045   3.207  0.00  0.00    -0.096 F 
ATOM     11  F3  UNL d   1      -1.879  -1.252   1.379  0.00  0.00    -0.097 F 
ATOM     12  F4  UNL d   1      -0.389   0.933   0.708  0.00  0.00    -0.092 F 
ENDROOT
TORSDOF 0
ENDMDL
