MODEL 1
REMARK minimizedAffinity -1.53451538
REMARK minimizedRMSD -1
REMARK  0 active torsions:
REMARK  status: ('A' for Active; 'I' for Inactive)
ROOT
ATOM      1  C   UNL d   1       0.252   0.086   1.599  0.00  0.00     0.124 A 
ATOM      2  C1  UNL d   1      -0.071   1.433   1.519  0.00  0.00     0.062 A 
ATOM      3  C2  UNL d   1      -1.261   1.902   2.069  0.00  0.00     0.162 A 
ATOM      4  C3  UNL d   1      -2.136   1.022   2.706  0.00  0.00    -0.034 A 
ATOM      5  C4  UNL d   1      -1.805  -0.332   2.781  0.00  0.00     0.162 A 
ATOM      6  C5  UNL d   1      -0.615  -0.795   2.229  0.00  0.00     0.062 A 
ATOM      7  F   UNL d   1      -0.305  -2.098   2.308  0.00  0.00    -0.097 F 
ATOM      8  F1  UNL d   1      -2.624  -1.205   3.386  0.00  0.00    -0.096 F 
ATOM      9  I   UNL d   1      -3.916   1.718   3.530  0.00  0.00    -0.060 I 
ATOM     10  F2  UNL d   1      -1.547   3.209   1.977  0.00  0.00    -0.096 F 
ATOM     11  F3  UNL d   1       0.764   2.286   0.909  0.00  0.00    -0.097 F 
ATOM     12  F4  UNL d   1       1.396  -0.362   1.067  0.00  0.00    -0.092 F 
ENDROOT
TORSDOF 0
ENDMDL
