MODEL 1
REMARK minimizedAffinity 4.36360884
REMARK minimizedRMSD -1
REMARK  0 active torsions:
REMARK  status: ('A' for Active; 'I' for Inactive)
ROOT
ATOM      1  C   UNL d   1      -0.180   0.233   1.442  0.00  0.00     0.124 A 
ATOM      2  C1  UNL d   1      -0.375   1.594   1.634  0.00  0.00     0.062 A 
ATOM      3  C2  UNL d   1      -1.470   2.049   2.362  0.00  0.00     0.162 A 
ATOM      4  C3  UNL d   1      -2.381   1.142   2.904  0.00  0.00    -0.034 A 
ATOM      5  C4  UNL d   1      -2.179  -0.225   2.707  0.00  0.00     0.162 A 
ATOM      6  C5  UNL d   1      -1.082  -0.675   1.979  0.00  0.00     0.062 A 
ATOM      7  F   UNL d   1      -0.896  -1.990   1.794  0.00  0.00    -0.097 F 
ATOM      8  F1  UNL d   1      -3.034  -1.125   3.215  0.00  0.00    -0.096 F 
ATOM      9  I   UNL d   1      -4.020   1.818   3.993  0.00  0.00    -0.060 I 
ATOM     10  F2  UNL d   1      -1.633   3.370   2.531  0.00  0.00    -0.096 F 
ATOM     11  F3  UNL d   1       0.495   2.474   1.116  0.00  0.00    -0.097 F 
ATOM     12  F4  UNL d   1       0.874  -0.201   0.741  0.00  0.00    -0.092 F 
ENDROOT
TORSDOF 0
ENDMDL
