MODEL 1
REMARK minimizedAffinity 1.6107285
REMARK minimizedRMSD -1
REMARK  0 active torsions:
REMARK  status: ('A' for Active; 'I' for Inactive)
ROOT
ATOM      1  C   UNL d   1       0.158   0.674   0.707  0.00  0.00     0.124 A 
ATOM      2  C1  UNL d   1      -0.786  -0.182   1.258  0.00  0.00     0.062 A 
ATOM      3  C2  UNL d   1      -1.816   0.325   2.044  0.00  0.00     0.162 A 
ATOM      4  C3  UNL d   1      -1.910   1.696   2.283  0.00  0.00    -0.034 A 
ATOM      5  C4  UNL d   1      -0.956   2.551   1.726  0.00  0.00     0.162 A 
ATOM      6  C5  UNL d   1       0.072   2.039   0.941  0.00  0.00     0.062 A 
ATOM      7  F   UNL d   1       0.983   2.867   0.410  0.00  0.00    -0.097 F 
ATOM      8  F1  UNL d   1      -1.016   3.874   1.936  0.00  0.00    -0.096 F 
ATOM      9  I   UNL d   1      -3.449   2.459   3.458  0.00  0.00    -0.060 I 
ATOM     10  F2  UNL d   1      -2.715  -0.525   2.563  0.00  0.00    -0.096 F 
ATOM     11  F3  UNL d   1      -0.705  -1.501   1.033  0.00  0.00    -0.097 F 
ATOM     12  F4  UNL d   1       1.149   0.183  -0.049  0.00  0.00    -0.092 F 
ENDROOT
TORSDOF 0
ENDMDL
