MODEL 1
REMARK minimizedAffinity 2.89684582
REMARK minimizedRMSD -1
REMARK  0 active torsions:
REMARK  status: ('A' for Active; 'I' for Inactive)
ROOT
ATOM      1  C   UNL d   1       0.291   0.606   1.021  0.00  0.00     0.124 A 
ATOM      2  C1  UNL d   1      -0.750  -0.295   1.203  0.00  0.00     0.062 A 
ATOM      3  C2  UNL d   1      -1.906   0.097   1.871  0.00  0.00     0.162 A 
ATOM      4  C3  UNL d   1      -2.030   1.397   2.362  0.00  0.00    -0.034 A 
ATOM      5  C4  UNL d   1      -0.979   2.297   2.176  0.00  0.00     0.162 A 
ATOM      6  C5  UNL d   1       0.175   1.901   1.507  0.00  0.00     0.062 A 
ATOM      7  F   UNL d   1       1.179   2.772   1.333  0.00  0.00    -0.097 F 
ATOM      8  F1  UNL d   1      -1.064   3.555   2.634  0.00  0.00    -0.096 F 
ATOM      9  I   UNL d   1      -3.757   1.987   3.361  0.00  0.00    -0.060 I 
ATOM     10  F2  UNL d   1      -2.895  -0.795   2.033  0.00  0.00    -0.096 F 
ATOM     11  F3  UNL d   1      -0.640  -1.547   0.735  0.00  0.00    -0.097 F 
ATOM     12  F4  UNL d   1       1.403   0.226   0.379  0.00  0.00    -0.092 F 
ENDROOT
TORSDOF 0
ENDMDL
