MODEL 1
REMARK minimizedAffinity 7.78809547
REMARK minimizedRMSD -1
REMARK  0 active torsions:
REMARK  status: ('A' for Active; 'I' for Inactive)
ROOT
ATOM      1  C   UNL d   1      -0.157   0.498   1.292  0.00  0.00     0.124 A 
ATOM      2  C1  UNL d   1      -0.513   1.835   1.400  0.00  0.00     0.062 A 
ATOM      3  C2  UNL d   1      -1.591   2.210   2.197  0.00  0.00     0.162 A 
ATOM      4  C3  UNL d   1      -2.320   1.247   2.894  0.00  0.00    -0.034 A 
ATOM      5  C4  UNL d   1      -1.956  -0.096   2.780  0.00  0.00     0.162 A 
ATOM      6  C5  UNL d   1      -0.878  -0.466   1.982  0.00  0.00     0.062 A 
ATOM      7  F   UNL d   1      -0.535  -1.758   1.879  0.00  0.00    -0.097 F 
ATOM      8  F1  UNL d   1      -2.635  -1.049   3.436  0.00  0.00    -0.096 F 
ATOM      9  I   UNL d   1      -3.932   1.803   4.087  0.00  0.00    -0.060 I 
ATOM     10  F2  UNL d   1      -1.913   3.510   2.283  0.00  0.00    -0.096 F 
ATOM     11  F3  UNL d   1       0.181   2.769   0.734  0.00  0.00    -0.097 F 
ATOM     12  F4  UNL d   1       0.880   0.140   0.523  0.00  0.00    -0.092 F 
ENDROOT
TORSDOF 0
ENDMDL
