MODEL 1
REMARK minimizedAffinity -4.31072664
REMARK minimizedRMSD -1
REMARK  0 active torsions:
REMARK  status: ('A' for Active; 'I' for Inactive)
ROOT
ATOM      1  C   UNL d   1       0.048   0.421   0.845  0.00  0.00     0.124 A 
ATOM      2  C1  UNL d   1      -0.867  -0.418   1.466  0.00  0.00     0.062 A 
ATOM      3  C2  UNL d   1      -1.864   0.113   2.279  0.00  0.00     0.162 A 
ATOM      4  C3  UNL d   1      -1.952   1.491   2.476  0.00  0.00    -0.034 A 
ATOM      5  C4  UNL d   1      -1.028   2.329   1.849  0.00  0.00     0.162 A 
ATOM      6  C5  UNL d   1      -0.034   1.793   1.037  0.00  0.00     0.062 A 
ATOM      7  F   UNL d   1       0.849   2.606   0.438  0.00  0.00    -0.097 F 
ATOM      8  F1  UNL d   1      -1.085   3.658   2.017  0.00  0.00    -0.096 F 
ATOM      9  I   UNL d   1      -3.442   2.288   3.692  0.00  0.00    -0.060 I 
ATOM     10  F2  UNL d   1      -2.734  -0.722   2.867  0.00  0.00    -0.096 F 
ATOM     11  F3  UNL d   1      -0.790  -1.744   1.283  0.00  0.00    -0.097 F 
ATOM     12  F4  UNL d   1       1.006  -0.092   0.063  0.00  0.00    -0.092 F 
ENDROOT
TORSDOF 0
ENDMDL
