MODEL 1
REMARK minimizedAffinity -0.392368644
REMARK minimizedRMSD -1
REMARK  0 active torsions:
REMARK  status: ('A' for Active; 'I' for Inactive)
ROOT
ATOM      1  C   UNL d   1      -0.050   0.297   0.830  0.00  0.00     0.124 A 
ATOM      2  C1  UNL d   1      -1.016  -0.533   1.385  0.00  0.00     0.062 A 
ATOM      3  C2  UNL d   1      -2.044   0.006   2.152  0.00  0.00     0.162 A 
ATOM      4  C3  UNL d   1      -2.114   1.383   2.368  0.00  0.00    -0.034 A 
ATOM      5  C4  UNL d   1      -1.140   2.210   1.808  0.00  0.00     0.162 A 
ATOM      6  C5  UNL d   1      -0.113   1.667   1.042  0.00  0.00     0.062 A 
ATOM      7  F   UNL d   1       0.818   2.469   0.507  0.00  0.00    -0.097 F 
ATOM      8  F1  UNL d   1      -1.177   3.538   1.996  0.00  0.00    -0.096 F 
ATOM      9  I   UNL d   1      -3.651   2.192   3.514  0.00  0.00    -0.060 I 
ATOM     10  F2  UNL d   1      -2.963  -0.819   2.675  0.00  0.00    -0.096 F 
ATOM     11  F3  UNL d   1      -0.957  -1.857   1.182  0.00  0.00    -0.097 F 
ATOM     12  F4  UNL d   1       0.939  -0.225   0.093  0.00  0.00    -0.092 F 
ENDROOT
TORSDOF 0
ENDMDL
