MODEL 1
REMARK minimizedAffinity 13.1421089
REMARK minimizedRMSD -1
REMARK  0 active torsions:
REMARK  status: ('A' for Active; 'I' for Inactive)
ROOT
ATOM      1  C   UNL d   1      -2.095   1.184   2.447  0.00  0.00     0.124 A 
ATOM      2  C1  UNL d   1      -0.994   0.483   1.972  0.00  0.00     0.062 A 
ATOM      3  C2  UNL d   1       0.054   1.161   1.357  0.00  0.00     0.162 A 
ATOM      4  C3  UNL d   1       0.009   2.547   1.213  0.00  0.00    -0.034 A 
ATOM      5  C4  UNL d   1      -1.102   3.245   1.692  0.00  0.00     0.162 A 
ATOM      6  C5  UNL d   1      -2.147   2.563   2.306  0.00  0.00     0.062 A 
ATOM      7  F   UNL d   1      -3.210   3.242   2.764  0.00  0.00    -0.097 F 
ATOM      8  F1  UNL d   1      -1.178   4.578   1.570  0.00  0.00    -0.096 F 
ATOM      9  I   UNL d   1       1.575   3.564   0.294  0.00  0.00    -0.060 I 
ATOM     10  F2  UNL d   1       1.105   0.458   0.908  0.00  0.00    -0.096 F 
ATOM     11  F3  UNL d   1      -0.941  -0.850   2.106  0.00  0.00    -0.097 F 
ATOM     12  F4  UNL d   1      -3.103   0.529   3.038  0.00  0.00    -0.092 F 
ENDROOT
TORSDOF 0
ENDMDL
