MODEL 1
REMARK minimizedAffinity 8.2214365
REMARK minimizedRMSD -1
REMARK  0 active torsions:
REMARK  status: ('A' for Active; 'I' for Inactive)
ROOT
ATOM      1  C   UNL d   1       0.506   0.127   0.932  0.00  0.00     0.124 A 
ATOM      2  C1  UNL d   1      -0.621  -0.573   1.339  0.00  0.00     0.062 A 
ATOM      3  C2  UNL d   1      -1.545   0.022   2.193  0.00  0.00     0.162 A 
ATOM      4  C3  UNL d   1      -1.346   1.326   2.646  0.00  0.00    -0.034 A 
ATOM      5  C4  UNL d   1      -0.210   2.024   2.234  0.00  0.00     0.162 A 
ATOM      6  C5  UNL d   1       0.711   1.425   1.380  0.00  0.00     0.062 A 
ATOM      7  F   UNL d   1       1.799   2.103   0.989  0.00  0.00    -0.097 F 
ATOM      8  F1  UNL d   1       0.012   3.279   2.651  0.00  0.00    -0.096 F 
ATOM      9  I   UNL d   1      -2.726   2.219   3.923  0.00  0.00    -0.060 I 
ATOM     10  F2  UNL d   1      -2.625  -0.679   2.569  0.00  0.00    -0.096 F 
ATOM     11  F3  UNL d   1      -0.821  -1.827   0.908  0.00  0.00    -0.097 F 
ATOM     12  F4  UNL d   1       1.394  -0.448   0.111  0.00  0.00    -0.092 F 
ENDROOT
TORSDOF 0
ENDMDL
