MODEL 1
REMARK minimizedAffinity 11.4350767
REMARK minimizedRMSD -1
REMARK  0 active torsions:
REMARK  status: ('A' for Active; 'I' for Inactive)
ROOT
ATOM      1  C   UNL d   1      -1.228   1.482   2.462  0.00  0.00     0.124 A 
ATOM      2  C1  UNL d   1      -0.992   0.115   2.495  0.00  0.00     0.062 A 
ATOM      3  C2  UNL d   1       0.129  -0.417   1.864  0.00  0.00     0.162 A 
ATOM      4  C3  UNL d   1       1.023   0.419   1.194  0.00  0.00    -0.034 A 
ATOM      5  C4  UNL d   1       0.778   1.793   1.164  0.00  0.00     0.162 A 
ATOM      6  C5  UNL d   1      -0.344   2.320   1.797  0.00  0.00     0.062 A 
ATOM      7  F   UNL d   1      -0.571   3.641   1.764  0.00  0.00    -0.097 F 
ATOM      8  F1  UNL d   1       1.616   2.626   0.530  0.00  0.00    -0.096 F 
ATOM      9  I   UNL d   1       2.700  -0.372   0.249  0.00  0.00    -0.060 I 
ATOM     10  F2  UNL d   1       0.333  -1.742   1.912  0.00  0.00    -0.096 F 
ATOM     11  F3  UNL d   1      -1.845  -0.696   3.136  0.00  0.00    -0.097 F 
ATOM     12  F4  UNL d   1      -2.308   1.991   3.069  0.00  0.00    -0.092 F 
ENDROOT
TORSDOF 0
ENDMDL
