MODEL 1
REMARK minimizedAffinity -5.11338663
REMARK minimizedRMSD -1
REMARK  1 active torsions:
REMARK  status: ('A' for Active; 'I' for Inactive)
REMARK    1  A    between atoms: C1_2  and  C2_3 
ROOT
ATOM      1  C2  UNL d   1       0.066  -0.041   0.375  0.00  0.00    -0.077 A 
ATOM      2  C3  UNL d   1       1.243   0.714   0.482  0.00  0.00     0.002 A 
ATOM      3  C4  UNL d   1       2.086   0.555   1.583  0.00  0.00     0.002 A 
ATOM      4  C5  UNL d   1       1.764  -0.360   2.584  0.00  0.00    -0.004 A 
ATOM      5  C6  UNL d   1       0.594  -1.113   2.487  0.00  0.00     0.002 A 
ATOM      6  C7  UNL d   1      -0.250  -0.955   1.388  0.00  0.00     0.002 A 
ENDROOT
BRANCH   1   7
ATOM      7  C1  UNL d   1      -0.819   0.093  -0.837  0.00  0.00     0.055 C 
ATOM      8  C   UNL d   1      -0.259   1.108  -1.822  0.00  0.00     0.019 C 
ENDBRANCH   1   7
TORSDOF 1
ENDMDL
