MODEL 1
REMARK minimizedAffinity -2.63336277
REMARK minimizedRMSD -1
REMARK  1 active torsions:
REMARK  status: ('A' for Active; 'I' for Inactive)
REMARK    1  A    between atoms: C1_2  and  C2_3 
ROOT
ATOM      1  C2  UNL d   1       1.045  -1.959   1.284  0.00  0.00    -0.077 A 
ATOM      2  C3  UNL d   1      -0.048  -1.357   1.921  0.00  0.00     0.002 A 
ATOM      3  C4  UNL d   1      -0.750  -0.325   1.295  0.00  0.00     0.002 A 
ATOM      4  C5  UNL d   1      -0.370   0.110   0.027  0.00  0.00    -0.004 A 
ATOM      5  C6  UNL d   1       0.718  -0.482  -0.614  0.00  0.00     0.002 A 
ATOM      6  C7  UNL d   1       1.422  -1.512   0.011  0.00  0.00     0.002 A 
ENDROOT
BRANCH   1   7
ATOM      7  C1  UNL d   1       1.773  -3.105   1.937  0.00  0.00     0.055 C 
ATOM      8  C   UNL d   1       2.371  -4.045   0.899  0.00  0.00     0.019 C 
ENDBRANCH   1   7
TORSDOF 1
ENDMDL
