MODEL 1
REMARK minimizedAffinity -6.11549854
REMARK minimizedRMSD -1
REMARK  1 active torsions:
REMARK  status: ('A' for Active; 'I' for Inactive)
REMARK    1  A    between atoms: C1_2  and  C2_3 
ROOT
ATOM      1  C2  UNL d   1       0.748  -0.376   0.387  0.00  0.00    -0.077 A 
ATOM      2  C3  UNL d   1       1.817  -1.189  -0.015  0.00  0.00     0.002 A 
ATOM      3  C4  UNL d   1       2.604  -1.842   0.936  0.00  0.00     0.002 A 
ATOM      4  C5  UNL d   1       2.328  -1.692   2.293  0.00  0.00    -0.004 A 
ATOM      5  C6  UNL d   1       1.268  -0.884   2.703  0.00  0.00     0.002 A 
ATOM      6  C7  UNL d   1       0.481  -0.229   1.755  0.00  0.00     0.002 A 
ENDROOT
BRANCH   1   7
ATOM      7  C1  UNL d   1      -0.133   0.290  -0.638  0.00  0.00     0.055 C 
ATOM      8  C   UNL d   1      -0.410  -0.635  -1.814  0.00  0.00     0.019 C 
ENDBRANCH   1   7
TORSDOF 1
ENDMDL
