MODEL 1
REMARK minimizedAffinity -5.26969719
REMARK minimizedRMSD -1
REMARK  1 active torsions:
REMARK  status: ('A' for Active; 'I' for Inactive)
REMARK    1  A    between atoms: C1_2  and  C2_3 
ROOT
ATOM      1  C2  UNL d   1       0.094  -0.189   0.131  0.00  0.00    -0.077 A 
ATOM      2  C3  UNL d   1      -1.016   0.012   0.963  0.00  0.00     0.002 A 
ATOM      3  C4  UNL d   1      -0.857   0.079   2.349  0.00  0.00     0.002 A 
ATOM      4  C5  UNL d   1       0.411  -0.050   2.913  0.00  0.00    -0.004 A 
ATOM      5  C6  UNL d   1       1.521  -0.252   2.094  0.00  0.00     0.002 A 
ATOM      6  C7  UNL d   1       1.363  -0.320   0.709  0.00  0.00     0.002 A 
ENDROOT
BRANCH   1   7
ATOM      7  C1  UNL d   1      -0.069  -0.212  -1.367  0.00  0.00     0.055 C 
ATOM      8  C   UNL d   1      -1.043   0.860  -1.834  0.00  0.00     0.019 C 
ENDBRANCH   1   7
TORSDOF 1
ENDMDL
