MODEL 1
REMARK minimizedAffinity -3.20146227
REMARK minimizedRMSD -1
REMARK  1 active torsions:
REMARK  status: ('A' for Active; 'I' for Inactive)
REMARK    1  A    between atoms: C1_2  and  C2_3 
ROOT
ATOM      1  C2  UNL d   1       0.404  -0.636   1.464  0.00  0.00    -0.077 A 
ATOM      2  C3  UNL d   1      -0.936  -0.234   1.553  0.00  0.00     0.002 A 
ATOM      3  C4  UNL d   1      -1.629   0.171   0.411  0.00  0.00     0.002 A 
ATOM      4  C5  UNL d   1      -0.993   0.175  -0.828  0.00  0.00    -0.004 A 
ATOM      5  C6  UNL d   1       0.341  -0.220  -0.927  0.00  0.00     0.002 A 
ATOM      6  C7  UNL d   1       1.036  -0.625   0.214  0.00  0.00     0.002 A 
ENDROOT
BRANCH   1   7
ATOM      7  C1  UNL d   1       1.139  -1.120   2.686  0.00  0.00     0.055 C 
ATOM      8  C   UNL d   1       2.356  -1.952   2.307  0.00  0.00     0.019 C 
ENDBRANCH   1   7
TORSDOF 1
ENDMDL
