MODEL 1
REMARK minimizedAffinity -3.14170074
REMARK minimizedRMSD -1
REMARK  1 active torsions:
REMARK  status: ('A' for Active; 'I' for Inactive)
REMARK    1  A    between atoms: C1_2  and  C2_3 
ROOT
ATOM      1  C2  UNL d   1       0.397  -0.727   1.303  0.00  0.00    -0.077 A 
ATOM      2  C3  UNL d   1      -0.936  -0.370   1.054  0.00  0.00     0.002 A 
ATOM      3  C4  UNL d   1      -1.314   0.117  -0.199  0.00  0.00     0.002 A 
ATOM      4  C5  UNL d   1      -0.368   0.246  -1.213  0.00  0.00    -0.004 A 
ATOM      5  C6  UNL d   1       0.961  -0.104  -0.974  0.00  0.00     0.002 A 
ATOM      6  C7  UNL d   1       1.341  -0.589   0.278  0.00  0.00     0.002 A 
ENDROOT
BRANCH   1   7
ATOM      7  C1  UNL d   1       0.798  -1.297   2.638  0.00  0.00     0.055 C 
ATOM      8  C   UNL d   1       0.072  -2.605   2.922  0.00  0.00     0.019 C 
ENDBRANCH   1   7
TORSDOF 1
ENDMDL
