MODEL 1
REMARK minimizedAffinity -2.69890904
REMARK minimizedRMSD -1
REMARK  2 active torsions:
REMARK  status: ('A' for Active; 'I' for Inactive)
REMARK    1  A    between atoms: C2'_3  and  C1'_4 
REMARK    2  A    between atoms: C1'_4  and  C1_5 
ROOT
ATOM      1  C1  I4B d   1       0.628  -1.418   2.386  0.00  0.00    -0.075 A 
ATOM      2  C2  I4B d   1      -0.345  -0.471   2.185  0.00  0.00     0.003 A 
ATOM      3  C3  I4B d   1      -0.484   0.150   0.920  0.00  0.00     0.002 A 
ATOM      4  C4  I4B d   1       0.397  -0.168  -0.094  0.00  0.00    -0.004 A 
ATOM      5  C5  I4B d   1       1.368  -1.145   0.105  0.00  0.00     0.002 A 
ATOM      6  C6  I4B d   1       1.476  -1.784   1.349  0.00  0.00     0.003 A 
ENDROOT
BRANCH   1   7
ATOM      7  C1' I4B d   1       0.768  -2.030   3.744  0.00  0.00     0.060 C 
BRANCH   7   8
ATOM      8  C2' I4B d   1      -0.544  -1.841   4.479  0.00  0.00    -0.013 C 
ATOM      9  C4' I4B d   1      -1.493  -2.977   4.202  0.00  0.00     0.013 C 
ATOM     10  C3' I4B d   1      -0.242  -1.731   5.944  0.00  0.00     0.013 C 
ENDBRANCH   7   8
ENDBRANCH   1   7
TORSDOF 2
ENDMDL
