MODEL 1
REMARK minimizedAffinity 5.94168806
REMARK minimizedRMSD -1
REMARK  2 active torsions:
REMARK  status: ('A' for Active; 'I' for Inactive)
REMARK    1  A    between atoms: C2'_3  and  C1'_4 
REMARK    2  A    between atoms: C1'_4  and  C1_5 
ROOT
ATOM      1  C1  I4B d   1       3.425  -3.656  -1.594  0.00  0.00    -0.075 A 
ATOM      2  C2  I4B d   1       2.705  -3.596  -0.427  0.00  0.00     0.003 A 
ATOM      3  C3  I4B d   1       1.482  -4.299  -0.307  0.00  0.00     0.002 A 
ATOM      4  C4  I4B d   1       0.994  -5.004  -1.389  0.00  0.00    -0.004 A 
ATOM      5  C5  I4B d   1       1.737  -5.083  -2.563  0.00  0.00     0.002 A 
ATOM      6  C6  I4B d   1       2.966  -4.415  -2.663  0.00  0.00     0.003 A 
ENDROOT
BRANCH   1   7
ATOM      7  C1' I4B d   1       4.696  -2.875  -1.698  0.00  0.00     0.060 C 
BRANCH   7   8
ATOM      8  C2' I4B d   1       4.336  -1.436  -2.006  0.00  0.00    -0.013 C 
ATOM      9  C4' I4B d   1       3.966  -1.265  -3.456  0.00  0.00     0.013 C 
ATOM     10  C3' I4B d   1       3.203  -1.040  -1.107  0.00  0.00     0.013 C 
ENDBRANCH   7   8
ENDBRANCH   1   7
TORSDOF 2
ENDMDL
