MODEL 1
REMARK minimizedAffinity 6.15385294
REMARK minimizedRMSD -1
REMARK  2 active torsions:
REMARK  status: ('A' for Active; 'I' for Inactive)
REMARK    1  A    between atoms: C2'_3  and  C1'_4 
REMARK    2  A    between atoms: C1'_4  and  C1_5 
ROOT
ATOM      1  C1  I4B d   1      -0.037   3.805  -0.607  0.00  0.00    -0.075 A 
ATOM      2  C2  I4B d   1      -0.386   2.826  -1.503  0.00  0.00     0.003 A 
ATOM      3  C3  I4B d   1      -0.751   1.537  -1.044  0.00  0.00     0.002 A 
ATOM      4  C4  I4B d   1      -0.704   1.258   0.307  0.00  0.00    -0.004 A 
ATOM      5  C5  I4B d   1      -0.372   2.259   1.215  0.00  0.00     0.002 A 
ATOM      6  C6  I4B d   1      -0.048   3.544   0.757  0.00  0.00     0.003 A 
ENDROOT
BRANCH   1   7
ATOM      7  C1' I4B d   1       0.375   5.145  -1.129  0.00  0.00     0.060 C 
BRANCH   7   8
ATOM      8  C2' I4B d   1      -0.870   5.999  -1.257  0.00  0.00    -0.013 C 
ATOM      9  C4' I4B d   1      -1.772   5.486  -2.349  0.00  0.00     0.013 C 
ATOM     10  C3' I4B d   1      -1.571   5.999   0.069  0.00  0.00     0.013 C 
ENDBRANCH   7   8
ENDBRANCH   1   7
TORSDOF 2
ENDMDL
