MODEL 1
REMARK minimizedAffinity 3.85393882
REMARK minimizedRMSD -1
REMARK  2 active torsions:
REMARK  status: ('A' for Active; 'I' for Inactive)
REMARK    1  A    between atoms: C2'_3  and  C1'_4 
REMARK    2  A    between atoms: C1'_4  and  C1_5 
ROOT
ATOM      1  C1  I4B d   1       4.520  -3.187  -1.034  0.00  0.00    -0.075 A 
ATOM      2  C2  I4B d   1       4.962  -1.893  -0.923  0.00  0.00     0.003 A 
ATOM      3  C3  I4B d   1       4.577  -1.101   0.186  0.00  0.00     0.002 A 
ATOM      4  C4  I4B d   1       3.714  -1.624   1.128  0.00  0.00    -0.004 A 
ATOM      5  C5  I4B d   1       3.286  -2.945   1.025  0.00  0.00     0.002 A 
ATOM      6  C6  I4B d   1       3.701  -3.736  -0.056  0.00  0.00     0.003 A 
ENDROOT
BRANCH   1   7
ATOM      7  C1' I4B d   1       4.919  -3.984  -2.235  0.00  0.00     0.060 C 
BRANCH   7   8
ATOM      8  C2' I4B d   1       3.776  -3.937  -3.228  0.00  0.00    -0.013 C 
ATOM      9  C4' I4B d   1       3.641  -2.568  -3.840  0.00  0.00     0.013 C 
ATOM     10  C3' I4B d   1       4.032  -4.977  -4.279  0.00  0.00     0.013 C 
ENDBRANCH   7   8
ENDBRANCH   1   7
TORSDOF 2
ENDMDL
