MODEL 1
REMARK minimizedAffinity 8.2368412
REMARK minimizedRMSD -1
REMARK  2 active torsions:
REMARK  status: ('A' for Active; 'I' for Inactive)
REMARK    1  A    between atoms: C2'_3  and  C1'_4 
REMARK    2  A    between atoms: C1'_4  and  C1_5 
ROOT
ATOM      1  C1  I4B d   1       2.859  -4.230  -0.893  0.00  0.00    -0.075 A 
ATOM      2  C2  I4B d   1       1.679  -4.351  -0.202  0.00  0.00     0.003 A 
ATOM      3  C3  I4B d   1       0.689  -5.265  -0.637  0.00  0.00     0.002 A 
ATOM      4  C4  I4B d   1       0.897  -5.995  -1.789  0.00  0.00    -0.004 A 
ATOM      5  C5  I4B d   1       2.103  -5.887  -2.476  0.00  0.00     0.002 A 
ATOM      6  C6  I4B d   1       3.096  -5.008  -2.018  0.00  0.00     0.003 A 
ENDROOT
BRANCH   1   7
ATOM      7  C1' I4B d   1       3.869  -3.231  -0.424  0.00  0.00     0.060 C 
BRANCH   7   8
ATOM      8  C2' I4B d   1       4.778  -2.904  -1.591  0.00  0.00    -0.013 C 
ATOM      9  C4' I4B d   1       4.075  -2.042  -2.605  0.00  0.00     0.013 C 
ATOM     10  C3' I4B d   1       5.997  -2.218  -1.050  0.00  0.00     0.013 C 
ENDBRANCH   7   8
ENDBRANCH   1   7
TORSDOF 2
ENDMDL
