MODEL 1
REMARK minimizedAffinity 4.95145178
REMARK minimizedRMSD -1
REMARK  2 active torsions:
REMARK  status: ('A' for Active; 'I' for Inactive)
REMARK    1  A    between atoms: C2'_3  and  C1'_4 
REMARK    2  A    between atoms: C1'_4  and  C1_5 
ROOT
ATOM      1  C1  I4B d   1      -1.266   3.039  -1.846  0.00  0.00    -0.075 A 
ATOM      2  C2  I4B d   1      -0.287   3.702  -1.149  0.00  0.00     0.003 A 
ATOM      3  C3  I4B d   1      -0.253   5.118  -1.141  0.00  0.00     0.002 A 
ATOM      4  C4  I4B d   1      -1.180   5.824  -1.880  0.00  0.00    -0.004 A 
ATOM      5  C5  I4B d   1      -2.185   5.150  -2.568  0.00  0.00     0.002 A 
ATOM      6  C6  I4B d   1      -2.236   3.749  -2.541  0.00  0.00     0.003 A 
ENDROOT
BRANCH   1   7
ATOM      7  C1' I4B d   1      -1.253   1.543  -1.860  0.00  0.00     0.060 C 
BRANCH   7   8
ATOM      8  C2' I4B d   1      -2.644   1.061  -1.501  0.00  0.00    -0.013 C 
ATOM      9  C4' I4B d   1      -3.326   0.431  -2.686  0.00  0.00     0.013 C 
ATOM     10  C3' I4B d   1      -2.517   0.087  -0.368  0.00  0.00     0.013 C 
ENDBRANCH   7   8
ENDBRANCH   1   7
TORSDOF 2
ENDMDL
