MODEL 1
REMARK minimizedAffinity 4.59982634
REMARK minimizedRMSD -1
REMARK  2 active torsions:
REMARK  status: ('A' for Active; 'I' for Inactive)
REMARK    1  A    between atoms: C2'_3  and  C1'_4 
REMARK    2  A    between atoms: C1'_4  and  C1_5 
ROOT
ATOM      1  C1  I4B d   1       3.884  -4.732  -1.587  0.00  0.00    -0.075 A 
ATOM      2  C2  I4B d   1       3.827  -4.505  -2.939  0.00  0.00     0.003 A 
ATOM      3  C3  I4B d   1       4.339  -3.301  -3.482  0.00  0.00     0.002 A 
ATOM      4  C4  I4B d   1       4.849  -2.338  -2.637  0.00  0.00    -0.004 A 
ATOM      5  C5  I4B d   1       4.927  -2.579  -1.268  0.00  0.00     0.002 A 
ATOM      6  C6  I4B d   1       4.453  -3.789  -0.741  0.00  0.00     0.003 A 
ENDROOT
BRANCH   1   7
ATOM      7  C1' I4B d   1       3.305  -6.000  -1.044  0.00  0.00     0.060 C 
BRANCH   7   8
ATOM      8  C2' I4B d   1       1.989  -5.662  -0.373  0.00  0.00    -0.013 C 
ATOM      9  C4' I4B d   1       1.939  -4.211   0.028  0.00  0.00     0.013 C 
ATOM     10  C3' I4B d   1       0.883  -5.999  -1.327  0.00  0.00     0.013 C 
ENDBRANCH   7   8
ENDBRANCH   1   7
TORSDOF 2
ENDMDL
