MODEL 1
REMARK minimizedAffinity 0.0282516852
REMARK minimizedRMSD -1
REMARK  2 active torsions:
REMARK  status: ('A' for Active; 'I' for Inactive)
REMARK    1  A    between atoms: C2'_3  and  C1'_4 
REMARK    2  A    between atoms: C1'_4  and  C1_5 
ROOT
ATOM      1  C1  I4B d   1      -5.647  -1.393   3.408  0.00  0.00    -0.075 A 
ATOM      2  C2  I4B d   1      -5.908  -2.091   2.256  0.00  0.00     0.003 A 
ATOM      3  C3  I4B d   1      -5.634  -1.511   0.993  0.00  0.00     0.002 A 
ATOM      4  C4  I4B d   1      -5.150  -0.220   0.929  0.00  0.00    -0.004 A 
ATOM      5  C5  I4B d   1      -4.864   0.477   2.099  0.00  0.00     0.002 A 
ATOM      6  C6  I4B d   1      -5.102  -0.117   3.347  0.00  0.00     0.003 A 
ENDROOT
BRANCH   1   7
ATOM      7  C1' I4B d   1      -5.980  -2.023   4.724  0.00  0.00     0.060 C 
BRANCH   7   8
ATOM      8  C2' I4B d   1      -5.273  -3.361   4.792  0.00  0.00    -0.013 C 
ATOM      9  C4' I4B d   1      -3.812  -3.190   5.116  0.00  0.00     0.013 C 
ATOM     10  C3' I4B d   1      -5.962  -4.196   5.829  0.00  0.00     0.013 C 
ENDBRANCH   7   8
ENDBRANCH   1   7
TORSDOF 2
ENDMDL
