MODEL 1
REMARK minimizedAffinity -3.75397182
REMARK minimizedRMSD -1
REMARK  0 active torsions:
REMARK  status: ('A' for Active; 'I' for Inactive)
ROOT
ATOM      1  C   UNL d   1      -0.531   1.194   2.605  0.00  0.00     0.124 A 
ATOM      2  C1  UNL d   1      -1.503   0.828   1.685  0.00  0.00     0.062 A 
ATOM      3  C2  UNL d   1      -1.136   0.278   0.460  0.00  0.00     0.162 A 
ATOM      4  C3  UNL d   1       0.211   0.089   0.149  0.00  0.00    -0.034 A 
ATOM      5  C4  UNL d   1       1.183   0.461   1.080  0.00  0.00     0.162 A 
ATOM      6  C5  UNL d   1       0.810   1.011   2.302  0.00  0.00     0.062 A 
ATOM      7  F   UNL d   1       1.751   1.364   3.190  0.00  0.00    -0.097 F 
ATOM      8  F1  UNL d   1       2.486   0.294   0.813  0.00  0.00    -0.096 F 
ATOM      9  I   UNL d   1       0.764  -0.733  -1.681  0.00  0.00    -0.060 I 
ATOM     10  F2  UNL d   1      -2.097  -0.067  -0.410  0.00  0.00    -0.096 F 
ATOM     11  F3  UNL d   1      -2.800   1.006   1.975  0.00  0.00    -0.097 F 
ATOM     12  F4  UNL d   1      -0.887   1.725   3.783  0.00  0.00    -0.092 F 
ENDROOT
TORSDOF 0
ENDMDL
