MODEL 1
REMARK minimizedAffinity 1.54714215
REMARK minimizedRMSD -1
REMARK  0 active torsions:
REMARK  status: ('A' for Active; 'I' for Inactive)
ROOT
ATOM      1  C   UNL d   1      -1.907   0.217   1.571  0.00  0.00     0.124 A 
ATOM      2  C1  UNL d   1      -0.887   0.634   2.415  0.00  0.00     0.062 A 
ATOM      3  C2  UNL d   1       0.442   0.390   2.081  0.00  0.00     0.162 A 
ATOM      4  C3  UNL d   1       0.759  -0.275   0.897  0.00  0.00    -0.034 A 
ATOM      5  C4  UNL d   1      -0.272  -0.692   0.053  0.00  0.00     0.162 A 
ATOM      6  C5  UNL d   1      -1.598  -0.445   0.391  0.00  0.00     0.062 A 
ATOM      7  F   UNL d   1      -2.582  -0.849  -0.425  0.00  0.00    -0.097 F 
ATOM      8  F1  UNL d   1      -0.002  -1.334  -1.093  0.00  0.00    -0.096 F 
ATOM      9  I   UNL d   1       2.745  -0.643   0.394  0.00  0.00    -0.060 I 
ATOM     10  F2  UNL d   1       1.407   0.804   2.916  0.00  0.00    -0.096 F 
ATOM     11  F3  UNL d   1      -1.182   1.274   3.556  0.00  0.00    -0.097 F 
ATOM     12  F4  UNL d   1      -3.184   0.453   1.895  0.00  0.00    -0.092 F 
ENDROOT
TORSDOF 0
ENDMDL
