MODEL 1
REMARK minimizedAffinity -2.9197979
REMARK minimizedRMSD -1
REMARK  0 active torsions:
REMARK  status: ('A' for Active; 'I' for Inactive)
ROOT
ATOM      1  C   UNL d   1       0.765  -0.038  -2.057  0.00  0.00     0.124 A 
ATOM      2  C1  UNL d   1      -0.261   0.897  -2.038  0.00  0.00     0.062 A 
ATOM      3  C2  UNL d   1      -0.818   1.300  -0.828  0.00  0.00     0.162 A 
ATOM      4  C3  UNL d   1      -0.350   0.770   0.374  0.00  0.00    -0.034 A 
ATOM      5  C4  UNL d   1       0.682  -0.170   0.347  0.00  0.00     0.162 A 
ATOM      6  C5  UNL d   1       1.236  -0.570  -0.865  0.00  0.00     0.062 A 
ATOM      7  F   UNL d   1       2.227  -1.473  -0.881  0.00  0.00    -0.097 F 
ATOM      8  F1  UNL d   1       1.156  -0.700   1.484  0.00  0.00    -0.096 F 
ATOM      9  I   UNL d   1      -1.181   1.370   2.185  0.00  0.00    -0.060 I 
ATOM     10  F2  UNL d   1      -1.809   2.204  -0.840  0.00  0.00    -0.096 F 
ATOM     11  F3  UNL d   1      -0.718   1.412  -3.189  0.00  0.00    -0.097 F 
ATOM     12  F4  UNL d   1       1.299  -0.425  -3.223  0.00  0.00    -0.092 F 
ENDROOT
TORSDOF 0
ENDMDL
