MODEL 1
REMARK minimizedAffinity 2.33211756
REMARK minimizedRMSD -1
REMARK  0 active torsions:
REMARK  status: ('A' for Active; 'I' for Inactive)
ROOT
ATOM      1  C   UNL d   1      -0.206  -0.154   1.214  0.00  0.00     0.124 A 
ATOM      2  C1  UNL d   1       0.756   0.825   1.011  0.00  0.00     0.062 A 
ATOM      3  C2  UNL d   1       1.191   1.122  -0.278  0.00  0.00     0.162 A 
ATOM      4  C3  UNL d   1       0.664   0.439  -1.373  0.00  0.00    -0.034 A 
ATOM      5  C4  UNL d   1      -0.303  -0.545  -1.161  0.00  0.00     0.162 A 
ATOM      6  C5  UNL d   1      -0.734  -0.839   0.129  0.00  0.00     0.062 A 
ATOM      7  F   UNL d   1      -1.664  -1.785   0.323  0.00  0.00    -0.097 F 
ATOM      8  F1  UNL d   1      -0.831  -1.221  -2.192  0.00  0.00    -0.096 F 
ATOM      9  I   UNL d   1       1.312   0.880  -3.301  0.00  0.00    -0.060 I 
ATOM     10  F2  UNL d   1       2.122   2.074  -0.444  0.00  0.00    -0.096 F 
ATOM     11  F3  UNL d   1       1.269   1.487   2.058  0.00  0.00    -0.097 F 
ATOM     12  F4  UNL d   1      -0.622  -0.439   2.455  0.00  0.00    -0.092 F 
ENDROOT
TORSDOF 0
ENDMDL
