MODEL 1
REMARK minimizedAffinity 1.60648131
REMARK minimizedRMSD -1
REMARK  0 active torsions:
REMARK  status: ('A' for Active; 'I' for Inactive)
ROOT
ATOM      1  C   UNL d   1      -0.092  -1.674  -0.382  0.00  0.00     0.124 A 
ATOM      2  C1  UNL d   1      -1.367  -1.127  -0.347  0.00  0.00     0.062 A 
ATOM      3  C2  UNL d   1      -1.662  -0.093   0.536  0.00  0.00     0.162 A 
ATOM      4  C3  UNL d   1      -0.678   0.402   1.393  0.00  0.00    -0.034 A 
ATOM      5  C4  UNL d   1       0.602  -0.153   1.354  0.00  0.00     0.162 A 
ATOM      6  C5  UNL d   1       0.891  -1.187   0.468  0.00  0.00     0.062 A 
ATOM      7  F   UNL d   1       2.124  -1.714   0.437  0.00  0.00    -0.097 F 
ATOM      8  F1  UNL d   1       1.570   0.299   2.163  0.00  0.00    -0.096 F 
ATOM      9  I   UNL d   1      -1.115   1.949   2.716  0.00  0.00    -0.060 I 
ATOM     10  F2  UNL d   1      -2.902   0.417   0.548  0.00  0.00    -0.096 F 
ATOM     11  F3  UNL d   1      -2.318  -1.596  -1.167  0.00  0.00    -0.097 F 
ATOM     12  F4  UNL d   1       0.189  -2.669  -1.232  0.00  0.00    -0.092 F 
ENDROOT
TORSDOF 0
ENDMDL
