MODEL 1
REMARK minimizedAffinity -1.84456527
REMARK minimizedRMSD -1
REMARK  0 active torsions:
REMARK  status: ('A' for Active; 'I' for Inactive)
ROOT
ATOM      1  C   UNL d   1       1.061  -1.182  -0.697  0.00  0.00     0.124 A 
ATOM      2  C1  UNL d   1      -0.211  -0.664  -0.898  0.00  0.00     0.062 A 
ATOM      3  C2  UNL d   1      -0.833   0.075   0.104  0.00  0.00     0.162 A 
ATOM      4  C3  UNL d   1      -0.184   0.300   1.318  0.00  0.00    -0.034 A 
ATOM      5  C4  UNL d   1       1.095  -0.225   1.513  0.00  0.00     0.162 A 
ATOM      6  C5  UNL d   1       1.712  -0.962   0.508  0.00  0.00     0.062 A 
ATOM      7  F   UNL d   1       2.941  -1.462   0.705  0.00  0.00    -0.097 F 
ATOM      8  F1  UNL d   1       1.748  -0.027   2.668  0.00  0.00    -0.096 F 
ATOM      9  I   UNL d   1      -1.110   1.404   2.820  0.00  0.00    -0.060 I 
ATOM     10  F2  UNL d   1      -2.062   0.563  -0.118  0.00  0.00    -0.096 F 
ATOM     11  F3  UNL d   1      -0.843  -0.875  -2.062  0.00  0.00    -0.097 F 
ATOM     12  F4  UNL d   1       1.656  -1.892  -1.663  0.00  0.00    -0.092 F 
ENDROOT
TORSDOF 0
ENDMDL
