MODEL 1
REMARK minimizedAffinity 5.11770773
REMARK minimizedRMSD -1
REMARK  0 active torsions:
REMARK  status: ('A' for Active; 'I' for Inactive)
ROOT
ATOM      1  C   UNL d   1       1.450  -0.845  -0.869  0.00  0.00     0.124 A 
ATOM      2  C1  UNL d   1       0.166  -0.374  -1.108  0.00  0.00     0.062 A 
ATOM      3  C2  UNL d   1      -0.610   0.107  -0.058  0.00  0.00     0.162 A 
ATOM      4  C3  UNL d   1      -0.105   0.119   1.242  0.00  0.00    -0.034 A 
ATOM      5  C4  UNL d   1       1.186  -0.358   1.475  0.00  0.00     0.162 A 
ATOM      6  C5  UNL d   1       1.958  -0.837   0.422  0.00  0.00     0.062 A 
ATOM      7  F   UNL d   1       3.198  -1.293   0.655  0.00  0.00    -0.097 F 
ATOM      8  F1  UNL d   1       1.702  -0.361   2.713  0.00  0.00    -0.096 F 
ATOM      9  I   UNL d   1      -1.263   0.836   2.816  0.00  0.00    -0.060 I 
ATOM     10  F2  UNL d   1      -1.847   0.556  -0.318  0.00  0.00    -0.096 F 
ATOM     11  F3  UNL d   1      -0.328  -0.381  -2.355  0.00  0.00    -0.097 F 
ATOM     12  F4  UNL d   1       2.194  -1.308  -1.882  0.00  0.00    -0.092 F 
ENDROOT
TORSDOF 0
ENDMDL
