MODEL 1
REMARK minimizedAffinity -5.79378653
REMARK minimizedRMSD -1
REMARK  1 active torsions:
REMARK  status: ('A' for Active; 'I' for Inactive)
REMARK    1  A    between atoms: C1_2  and  C2_3 
ROOT
ATOM      1  C2  UNL d   1       0.195   0.012   0.075  0.00  0.00    -0.076 A 
ATOM      2  C3  UNL d   1      -0.842   0.370   0.955  0.00  0.00     0.004 A 
ATOM      3  C4  UNL d   1      -0.773   1.543   1.705  0.00  0.00    -0.003 A 
ATOM      4  C5  UNL d   1       0.334   2.377   1.587  0.00  0.00     0.000 A 
ATOM      5  C6  UNL d   1       1.363   2.046   0.706  0.00  0.00     0.000 A 
ATOM      6  C7  UNL d   1       1.301   0.876  -0.070  0.00  0.00    -0.073 A 
ATOM      7  C8  UNL d   1       2.442   0.565  -0.999  0.00  0.00     0.078 C 
ENDROOT
BRANCH   1   8
ATOM      8  C1  UNL d   1       0.077  -1.285  -0.692  0.00  0.00     0.053 C 
ATOM      9  C   UNL d   1      -1.149  -1.322  -1.592  0.00  0.00     0.018 C 
ENDBRANCH   1   8
TORSDOF 1
ENDMDL
