MODEL 1
REMARK minimizedAffinity -4.59644222
REMARK minimizedRMSD -1
REMARK  1 active torsions:
REMARK  status: ('A' for Active; 'I' for Inactive)
REMARK    1  A    between atoms: C1_2  and  C2_3 
ROOT
ATOM      1  C2  UNL d   1       0.782   1.220   0.388  0.00  0.00    -0.076 A 
ATOM      2  C3  UNL d   1       1.101   0.450  -0.743  0.00  0.00     0.004 A 
ATOM      3  C4  UNL d   1       0.435  -0.745  -1.009  0.00  0.00    -0.003 A 
ATOM      4  C5  UNL d   1      -0.561  -1.190  -0.147  0.00  0.00     0.000 A 
ATOM      5  C6  UNL d   1      -0.903  -0.429   0.971  0.00  0.00     0.000 A 
ATOM      6  C7  UNL d   1      -0.253   0.786   1.244  0.00  0.00    -0.073 A 
ATOM      7  C8  UNL d   1      -0.657   1.562   2.468  0.00  0.00     0.078 C 
ENDROOT
BRANCH   1   8
ATOM      8  C1  UNL d   1       1.557   2.494   0.639  0.00  0.00     0.053 C 
ATOM      9  C   UNL d   1       3.061   2.272   0.634  0.00  0.00     0.018 C 
ENDBRANCH   1   8
TORSDOF 1
ENDMDL
