MODEL 1
REMARK minimizedAffinity -2.10493422
REMARK minimizedRMSD -1
REMARK  1 active torsions:
REMARK  status: ('A' for Active; 'I' for Inactive)
REMARK    1  A    between atoms: C1_2  and  C2_3 
ROOT
ATOM      1  C2  UNL d   1      -0.894  -0.739  -0.836  0.00  0.00    -0.076 A 
ATOM      2  C3  UNL d   1      -2.184  -0.884  -1.375  0.00  0.00     0.004 A 
ATOM      3  C4  UNL d   1      -2.378  -1.001  -2.750  0.00  0.00    -0.003 A 
ATOM      4  C5  UNL d   1      -1.284  -0.976  -3.609  0.00  0.00     0.000 A 
ATOM      5  C6  UNL d   1       0.004  -0.851  -3.090  0.00  0.00     0.000 A 
ATOM      6  C7  UNL d   1       0.218  -0.748  -1.705  0.00  0.00    -0.073 A 
ATOM      7  C8  UNL d   1       1.628  -0.609  -1.200  0.00  0.00     0.078 C 
ENDROOT
BRANCH   1   8
ATOM      8  C1  UNL d   1      -0.748  -0.589   0.662  0.00  0.00     0.053 C 
ATOM      9  C   UNL d   1      -0.391   0.831   1.073  0.00  0.00     0.018 C 
ENDBRANCH   1   8
TORSDOF 1
ENDMDL
