MODEL 1
REMARK minimizedAffinity -1.59572184
REMARK minimizedRMSD -1
REMARK  1 active torsions:
REMARK  status: ('A' for Active; 'I' for Inactive)
REMARK    1  A    between atoms: C1_2  and  C2_3 
ROOT
ATOM      1  C2  UNL d   1       0.086  -0.384   0.465  0.00  0.00    -0.076 A 
ATOM      2  C3  UNL d   1      -0.777  -0.343   1.574  0.00  0.00     0.004 A 
ATOM      3  C4  UNL d   1      -0.799   0.759   2.426  0.00  0.00    -0.003 A 
ATOM      4  C5  UNL d   1       0.043   1.839   2.184  0.00  0.00     0.000 A 
ATOM      5  C6  UNL d   1       0.893   1.824   1.079  0.00  0.00     0.000 A 
ATOM      6  C7  UNL d   1       0.915   0.727   0.200  0.00  0.00    -0.073 A 
ATOM      7  C8  UNL d   1       1.856   0.761  -0.973  0.00  0.00     0.078 C 
ENDROOT
BRANCH   1   8
ATOM      8  C1  UNL d   1       0.085  -1.618  -0.409  0.00  0.00     0.053 C 
ATOM      9  C   UNL d   1      -1.076  -1.634  -1.392  0.00  0.00     0.018 C 
ENDBRANCH   1   8
TORSDOF 1
ENDMDL
