MODEL 1
REMARK minimizedAffinity -5.57639074
REMARK minimizedRMSD -1
REMARK  1 active torsions:
REMARK  status: ('A' for Active; 'I' for Inactive)
REMARK    1  A    between atoms: C1_2  and  C2_3 
ROOT
ATOM      1  C2  UNL d   1      -0.022   0.228   0.192  0.00  0.00    -0.076 A 
ATOM      2  C3  UNL d   1       0.905   1.034  -0.491  0.00  0.00     0.004 A 
ATOM      3  C4  UNL d   1       1.226   2.309  -0.028  0.00  0.00    -0.003 A 
ATOM      4  C5  UNL d   1       0.625   2.799   1.127  0.00  0.00     0.000 A 
ATOM      5  C6  UNL d   1      -0.284   2.006   1.826  0.00  0.00     0.000 A 
ATOM      6  C7  UNL d   1      -0.606   0.712   1.382  0.00  0.00    -0.073 A 
ATOM      7  C8  UNL d   1      -1.598  -0.097   2.172  0.00  0.00     0.078 C 
ENDROOT
BRANCH   1   8
ATOM      8  C1  UNL d   1      -0.351  -1.135  -0.373  0.00  0.00     0.053 C 
ATOM      9  C   UNL d   1      -0.409  -1.137  -1.893  0.00  0.00     0.018 C 
ENDBRANCH   1   8
TORSDOF 1
ENDMDL
