MODEL 1
REMARK minimizedAffinity -2.77908444
REMARK minimizedRMSD -1
REMARK  1 active torsions:
REMARK  status: ('A' for Active; 'I' for Inactive)
REMARK    1  A    between atoms: C1_2  and  C2_3 
ROOT
ATOM      1  C2  UNL d   1       0.554   0.766   0.188  0.00  0.00    -0.076 A 
ATOM      2  C3  UNL d   1      -0.772   0.354   0.409  0.00  0.00     0.004 A 
ATOM      3  C4  UNL d   1      -1.250  -0.842  -0.125  0.00  0.00    -0.003 A 
ATOM      4  C5  UNL d   1      -0.410  -1.645  -0.888  0.00  0.00     0.000 A 
ATOM      5  C6  UNL d   1       0.913  -1.260  -1.103  0.00  0.00     0.000 A 
ATOM      6  C7  UNL d   1       1.415  -0.066  -0.558  0.00  0.00    -0.073 A 
ATOM      7  C8  UNL d   1       2.849   0.303  -0.827  0.00  0.00     0.078 C 
ENDROOT
BRANCH   1   8
ATOM      8  C1  UNL d   1       1.008   2.085   0.769  0.00  0.00     0.053 C 
ATOM      9  C   UNL d   1       1.115   2.048   2.286  0.00  0.00     0.018 C 
ENDBRANCH   1   8
TORSDOF 1
ENDMDL
