MODEL 1
REMARK minimizedAffinity -0.961768925
REMARK minimizedRMSD -1
REMARK  1 active torsions:
REMARK  status: ('A' for Active; 'I' for Inactive)
REMARK    1  A    between atoms: C1_2  and  C2_3 
ROOT
ATOM      1  C2  UNL d   1      -1.369  -1.627  -1.713  0.00  0.00    -0.076 A 
ATOM      2  C3  UNL d   1      -2.558  -1.672  -0.965  0.00  0.00     0.004 A 
ATOM      3  C4  UNL d   1      -3.799  -1.512  -1.580  0.00  0.00    -0.003 A 
ATOM      4  C5  UNL d   1      -3.870  -1.306  -2.953  0.00  0.00     0.000 A 
ATOM      5  C6  UNL d   1      -2.702  -1.277  -3.713  0.00  0.00     0.000 A 
ATOM      6  C7  UNL d   1      -1.444  -1.452  -3.111  0.00  0.00    -0.073 A 
ATOM      7  C8  UNL d   1      -0.216  -1.405  -3.979  0.00  0.00     0.078 C 
ENDROOT
BRANCH   1   8
ATOM      8  C1  UNL d   1      -0.051  -1.779  -0.988  0.00  0.00     0.053 C 
ATOM      9  C   UNL d   1       0.332  -0.531  -0.208  0.00  0.00     0.018 C 
ENDBRANCH   1   8
TORSDOF 1
ENDMDL
