MODEL 1
REMARK minimizedAffinity -5.49515867
REMARK minimizedRMSD -1
REMARK  1 active torsions:
REMARK  status: ('A' for Active; 'I' for Inactive)
REMARK    1  A    between atoms: C1_2  and  C2_3 
ROOT
ATOM      1  C2  UNL d   1      -0.123   0.799   0.833  0.00  0.00    -0.076 A 
ATOM      2  C3  UNL d   1       0.981  -0.008   0.509  0.00  0.00     0.004 A 
ATOM      3  C4  UNL d   1       0.901  -0.957  -0.509  0.00  0.00    -0.003 A 
ATOM      4  C5  UNL d   1      -0.283  -1.114  -1.219  0.00  0.00     0.000 A 
ATOM      5  C6  UNL d   1      -1.383  -0.309  -0.923  0.00  0.00     0.000 A 
ATOM      6  C7  UNL d   1      -1.315   0.664   0.089  0.00  0.00    -0.073 A 
ATOM      7  C8  UNL d   1      -2.533   1.500   0.370  0.00  0.00     0.078 C 
ENDROOT
BRANCH   1   8
ATOM      8  C1  UNL d   1       0.013   1.793   1.965  0.00  0.00     0.053 C 
ATOM      9  C   UNL d   1       1.312   2.580   1.895  0.00  0.00     0.018 C 
ENDBRANCH   1   8
TORSDOF 1
ENDMDL
