MODEL 1
REMARK minimizedAffinity 0.0556256734
REMARK minimizedRMSD -1
REMARK  1 active torsions:
REMARK  status: ('A' for Active; 'I' for Inactive)
REMARK    1  A    between atoms: C1_2  and  C2_3 
ROOT
ATOM      1  C2  UNL d   1       0.437   0.807   0.728  0.00  0.00    -0.076 A 
ATOM      2  C3  UNL d   1      -0.912   0.467   0.928  0.00  0.00     0.004 A 
ATOM      3  C4  UNL d   1      -1.485  -0.616   0.264  0.00  0.00    -0.003 A 
ATOM      4  C5  UNL d   1      -0.717  -1.378  -0.610  0.00  0.00     0.000 A 
ATOM      5  C6  UNL d   1       0.627  -1.066  -0.807  0.00  0.00     0.000 A 
ATOM      6  C7  UNL d   1       1.225   0.014  -0.134  0.00  0.00    -0.073 A 
ATOM      7  C8  UNL d   1       2.677   0.309  -0.389  0.00  0.00     0.078 C 
ENDROOT
BRANCH   1   8
ATOM      8  C1  UNL d   1       0.997   2.010   1.454  0.00  0.00     0.053 C 
ATOM      9  C   UNL d   1       1.233   1.740   2.932  0.00  0.00     0.018 C 
ENDBRANCH   1   8
TORSDOF 1
ENDMDL
