MODEL 1
REMARK minimizedAffinity -1.71474469
REMARK minimizedRMSD -1
REMARK  1 active torsions:
REMARK  status: ('A' for Active; 'I' for Inactive)
REMARK    1  A    between atoms: C1_2  and  C2_3 
ROOT
ATOM      1  C2  UNL d   1       0.374   0.966   0.887  0.00  0.00    -0.076 A 
ATOM      2  C3  UNL d   1       1.255   0.718  -0.180  0.00  0.00     0.004 A 
ATOM      3  C4  UNL d   1       1.077  -0.382  -1.017  0.00  0.00    -0.003 A 
ATOM      4  C5  UNL d   1       0.014  -1.253  -0.801  0.00  0.00     0.000 A 
ATOM      5  C6  UNL d   1      -0.880  -1.013   0.242  0.00  0.00     0.000 A 
ATOM      6  C7  UNL d   1      -0.724   0.101   1.085  0.00  0.00    -0.073 A 
ATOM      7  C8  UNL d   1      -1.714   0.308   2.198  0.00  0.00     0.078 C 
ENDROOT
BRANCH   1   8
ATOM      8  C1  UNL d   1       0.633   2.160   1.778  0.00  0.00     0.053 C 
ATOM      9  C   UNL d   1       1.051   3.393   0.992  0.00  0.00     0.018 C 
ENDBRANCH   1   8
TORSDOF 1
ENDMDL
