MODEL 1
REMARK minimizedAffinity -3.13743687
REMARK minimizedRMSD -1
REMARK  1 active torsions:
REMARK  status: ('A' for Active; 'I' for Inactive)
REMARK    1  A    between atoms: C1_2  and  C2_3 
ROOT
ATOM      1  C2  UNL d   1      -0.196  -0.358   0.032  0.00  0.00    -0.076 A 
ATOM      2  C3  UNL d   1      -1.182   0.138   0.903  0.00  0.00     0.004 A 
ATOM      3  C4  UNL d   1      -0.964   1.297   1.647  0.00  0.00    -0.003 A 
ATOM      4  C5  UNL d   1       0.242   1.978   1.531  0.00  0.00     0.000 A 
ATOM      5  C6  UNL d   1       1.224   1.510   0.659  0.00  0.00     0.000 A 
ATOM      6  C7  UNL d   1       1.015   0.352  -0.110  0.00  0.00    -0.073 A 
ATOM      7  C8  UNL d   1       2.111  -0.111  -1.031  0.00  0.00     0.078 C 
ENDROOT
BRANCH   1   8
ATOM      8  C1  UNL d   1      -0.478  -1.634  -0.729  0.00  0.00     0.053 C 
ATOM      9  C   UNL d   1      -1.597  -1.472  -1.745  0.00  0.00     0.018 C 
ENDBRANCH   1   8
TORSDOF 1
ENDMDL
