MODEL 1
REMARK minimizedAffinity -5.83632421
REMARK minimizedRMSD -1
REMARK  1 active torsions:
REMARK  status: ('A' for Active; 'I' for Inactive)
REMARK    1  A    between atoms: C1_2  and  C2_3 
ROOT
ATOM      1  C2  UNL d   1       0.332   0.260   0.133  0.00  0.00    -0.076 A 
ATOM      2  C3  UNL d   1      -0.665   0.814   0.954  0.00  0.00     0.004 A 
ATOM      3  C4  UNL d   1      -0.402   1.928   1.750  0.00  0.00    -0.003 A 
ATOM      4  C5  UNL d   1       0.863   2.505   1.737  0.00  0.00     0.000 A 
ATOM      5  C6  UNL d   1       1.859   1.979   0.916  0.00  0.00     0.000 A 
ATOM      6  C7  UNL d   1       1.606   0.866   0.095  0.00  0.00    -0.073 A 
ATOM      7  C8  UNL d   1       2.719   0.336  -0.767  0.00  0.00     0.078 C 
ENDROOT
BRANCH   1   8
ATOM      8  C1  UNL d   1      -0.004  -0.965  -0.688  0.00  0.00     0.053 C 
ATOM      9  C   UNL d   1      -1.391  -0.888  -1.308  0.00  0.00     0.018 C 
ENDBRANCH   1   8
TORSDOF 1
ENDMDL
