MODEL 1
REMARK minimizedAffinity -1.58476746
REMARK minimizedRMSD -1
REMARK  1 active torsions:
REMARK  status: ('A' for Active; 'I' for Inactive)
REMARK    1  A    between atoms: C1_2  and  C2_3 
ROOT
ATOM      1  C2  UNL d   1       0.539  -0.120  -0.113  0.00  0.00    -0.076 A 
ATOM      2  C3  UNL d   1       1.567   0.589  -0.760  0.00  0.00     0.004 A 
ATOM      3  C4  UNL d   1       1.892   1.889  -0.379  0.00  0.00    -0.003 A 
ATOM      4  C5  UNL d   1       1.194   2.503   0.656  0.00  0.00     0.000 A 
ATOM      5  C6  UNL d   1       0.184   1.809   1.321  0.00  0.00     0.000 A 
ATOM      6  C7  UNL d   1      -0.145   0.491   0.960  0.00  0.00    -0.073 A 
ATOM      7  C8  UNL d   1      -1.248  -0.208   1.707  0.00  0.00     0.078 C 
ENDROOT
BRANCH   1   8
ATOM      8  C1  UNL d   1       0.214  -1.518  -0.587  0.00  0.00     0.053 C 
ATOM      9  C   UNL d   1      -0.952  -1.545  -1.564  0.00  0.00     0.018 C 
ENDBRANCH   1   8
TORSDOF 1
ENDMDL
