MODEL 1
REMARK minimizedAffinity -1.60896075
REMARK minimizedRMSD -1
REMARK  1 active torsions:
REMARK  status: ('A' for Active; 'I' for Inactive)
REMARK    1  A    between atoms: C1_2  and  C2_3 
ROOT
ATOM      1  C2  UNL d   1       0.765   0.894  -0.040  0.00  0.00    -0.076 A 
ATOM      2  C3  UNL d   1       0.054  -0.310   0.103  0.00  0.00     0.004 A 
ATOM      3  C4  UNL d   1      -0.764  -0.533   1.210  0.00  0.00    -0.003 A 
ATOM      4  C5  UNL d   1      -0.885   0.445   2.190  0.00  0.00     0.000 A 
ATOM      5  C6  UNL d   1      -0.201   1.653   2.055  0.00  0.00     0.000 A 
ATOM      6  C7  UNL d   1       0.615   1.900   0.938  0.00  0.00    -0.073 A 
ATOM      7  C8  UNL d   1       1.334   3.218   0.847  0.00  0.00     0.078 C 
ENDROOT
BRANCH   1   8
ATOM      8  C1  UNL d   1       1.658   1.068  -1.248  0.00  0.00     0.053 C 
ATOM      9  C   UNL d   1       2.910   0.208  -1.175  0.00  0.00     0.018 C 
ENDBRANCH   1   8
TORSDOF 1
ENDMDL
