MODEL 1
REMARK minimizedAffinity 18.2869167
REMARK minimizedRMSD -1
REMARK  1 active torsions:
REMARK  status: ('A' for Active; 'I' for Inactive)
REMARK    1  A    between atoms: C1_2  and  C2_3 
ROOT
ATOM      1  C2  UNL d   1      -2.189  -2.516   1.504  0.00  0.00    -0.081 A 
ATOM      2  C3  UNL d   1      -1.216  -3.322   0.901  0.00  0.00     0.006 A 
ATOM      3  C4  UNL d   1      -0.708  -2.997  -0.359  0.00  0.00     0.002 A 
ATOM      4  C5  UNL d   1      -1.159  -1.858  -1.034  0.00  0.00    -0.080 A 
ATOM      5  C6  UNL d   1      -0.600  -1.481  -2.374  0.00  0.00     0.076 C 
ATOM      6  C7  UNL d   1      -2.145  -1.062  -0.440  0.00  0.00     0.002 A 
ATOM      7  C8  UNL d   1      -2.653  -1.386   0.820  0.00  0.00     0.006 A 
ENDROOT
BRANCH   1   8
ATOM      8  C1  UNL d   1      -2.692  -2.827   2.890  0.00  0.00     0.054 C 
ATOM      9  C   UNL d   1      -2.680  -1.588   3.775  0.00  0.00     0.018 C 
ENDBRANCH   1   8
TORSDOF 1
ENDMDL
