MODEL 1
REMARK minimizedAffinity 18.510107
REMARK minimizedRMSD -1
REMARK  1 active torsions:
REMARK  status: ('A' for Active; 'I' for Inactive)
REMARK    1  A    between atoms: C1_2  and  C2_3 
ROOT
ATOM      1  C2  UNL d   1      -0.394  -3.704  -0.874  0.00  0.00    -0.081 A 
ATOM      2  C3  UNL d   1      -0.166  -3.060   0.348  0.00  0.00     0.006 A 
ATOM      3  C4  UNL d   1      -0.069  -3.798   1.530  0.00  0.00     0.002 A 
ATOM      4  C5  UNL d   1      -0.189  -5.192   1.509  0.00  0.00    -0.080 A 
ATOM      5  C6  UNL d   1      -0.057  -5.999   2.766  0.00  0.00     0.076 C 
ATOM      6  C7  UNL d   1      -0.434  -5.834   0.290  0.00  0.00     0.002 A 
ATOM      7  C8  UNL d   1      -0.532  -5.097  -0.892  0.00  0.00     0.006 A 
ENDROOT
BRANCH   1   8
ATOM      8  C1  UNL d   1      -0.435  -2.918  -2.159  0.00  0.00     0.054 C 
ATOM      9  C   UNL d   1      -0.790  -1.460  -1.904  0.00  0.00     0.018 C 
ENDBRANCH   1   8
TORSDOF 1
ENDMDL
