MODEL 1
REMARK minimizedAffinity 11.3767071
REMARK minimizedRMSD -1
REMARK  1 active torsions:
REMARK  status: ('A' for Active; 'I' for Inactive)
REMARK    1  A    between atoms: C1_2  and  C2_3 
ROOT
ATOM      1  C2  UNL d   1      -0.561   0.182  -3.342  0.00  0.00    -0.081 A 
ATOM      2  C3  UNL d   1      -1.935   0.133  -3.077  0.00  0.00     0.006 A 
ATOM      3  C4  UNL d   1      -2.776   1.160  -3.511  0.00  0.00     0.002 A 
ATOM      4  C5  UNL d   1      -2.260   2.248  -4.223  0.00  0.00    -0.080 A 
ATOM      5  C6  UNL d   1      -3.157   3.343  -4.720  0.00  0.00     0.076 C 
ATOM      6  C7  UNL d   1      -0.885   2.306  -4.472  0.00  0.00     0.002 A 
ATOM      7  C8  UNL d   1      -0.043   1.279  -4.039  0.00  0.00     0.006 A 
ENDROOT
BRANCH   1   8
ATOM      8  C1  UNL d   1       0.339  -0.956  -2.933  0.00  0.00     0.054 C 
ATOM      9  C   UNL d   1      -0.387  -2.291  -3.007  0.00  0.00     0.018 C 
ENDBRANCH   1   8
TORSDOF 1
ENDMDL
