MODEL 1
REMARK minimizedAffinity 15.1850929
REMARK minimizedRMSD -1
REMARK  1 active torsions:
REMARK  status: ('A' for Active; 'I' for Inactive)
REMARK    1  A    between atoms: C1_2  and  C2_3 
ROOT
ATOM      1  C2  UNL d   1      -0.923  -3.552  -1.962  0.00  0.00    -0.081 A 
ATOM      2  C3  UNL d   1      -0.579  -3.085  -3.236  0.00  0.00     0.006 A 
ATOM      3  C4  UNL d   1       0.078  -1.862  -3.389  0.00  0.00     0.002 A 
ATOM      4  C5  UNL d   1       0.410  -1.090  -2.270  0.00  0.00    -0.080 A 
ATOM      5  C6  UNL d   1       1.144   0.210  -2.418  0.00  0.00     0.076 C 
ATOM      6  C7  UNL d   1       0.051  -1.548  -0.998  0.00  0.00     0.002 A 
ATOM      7  C8  UNL d   1      -0.607  -2.770  -0.845  0.00  0.00     0.006 A 
ENDROOT
BRANCH   1   8
ATOM      8  C1  UNL d   1      -1.575  -4.900  -1.789  0.00  0.00     0.054 C 
ATOM      9  C   UNL d   1      -0.596  -5.920  -1.227  0.00  0.00     0.018 C 
ENDBRANCH   1   8
TORSDOF 1
ENDMDL
