MODEL 1
REMARK minimizedAffinity 10.7605238
REMARK minimizedRMSD -1
REMARK  1 active torsions:
REMARK  status: ('A' for Active; 'I' for Inactive)
REMARK    1  A    between atoms: C1_2  and  C2_3 
ROOT
ATOM      1  C2  UNL d   1      -1.647  -3.333  -0.068  0.00  0.00    -0.081 A 
ATOM      2  C3  UNL d   1      -1.247  -2.421  -1.054  0.00  0.00     0.006 A 
ATOM      3  C4  UNL d   1      -2.005  -1.276  -1.308  0.00  0.00     0.002 A 
ATOM      4  C5  UNL d   1      -3.169  -1.018  -0.577  0.00  0.00    -0.080 A 
ATOM      5  C6  UNL d   1      -3.975   0.224  -0.819  0.00  0.00     0.076 C 
ATOM      6  C7  UNL d   1      -3.578  -1.937   0.396  0.00  0.00     0.002 A 
ATOM      7  C8  UNL d   1      -2.822  -3.083   0.650  0.00  0.00     0.006 A 
ENDROOT
BRANCH   1   8
ATOM      8  C1  UNL d   1      -0.798  -4.536   0.252  0.00  0.00     0.054 C 
ATOM      9  C   UNL d   1      -0.556  -4.659   1.750  0.00  0.00     0.018 C 
ENDBRANCH   1   8
TORSDOF 1
ENDMDL
