MODEL 1
REMARK minimizedAffinity 11.1797953
REMARK minimizedRMSD -1
REMARK  1 active torsions:
REMARK  status: ('A' for Active; 'I' for Inactive)
REMARK    1  A    between atoms: C1_2  and  C2_3 
ROOT
ATOM      1  C2  UNL d   1      -0.009  -2.847   1.578  0.00  0.00    -0.081 A 
ATOM      2  C3  UNL d   1       1.285  -2.633   2.068  0.00  0.00     0.006 A 
ATOM      3  C4  UNL d   1       1.485  -2.271   3.403  0.00  0.00     0.002 A 
ATOM      4  C5  UNL d   1       0.397  -2.125   4.270  0.00  0.00    -0.080 A 
ATOM      5  C6  UNL d   1       0.601  -1.767   5.712  0.00  0.00     0.076 C 
ATOM      6  C7  UNL d   1      -0.896  -2.322   3.775  0.00  0.00     0.002 A 
ATOM      7  C8  UNL d   1      -1.098  -2.683   2.441  0.00  0.00     0.006 A 
ENDROOT
BRANCH   1   8
ATOM      8  C1  UNL d   1      -0.224  -3.300   0.156  0.00  0.00     0.054 C 
ATOM      9  C   UNL d   1      -0.101  -4.812   0.033  0.00  0.00     0.018 C 
ENDBRANCH   1   8
TORSDOF 1
ENDMDL
