MODEL 1
REMARK minimizedAffinity 12.8726654
REMARK minimizedRMSD -1
REMARK  1 active torsions:
REMARK  status: ('A' for Active; 'I' for Inactive)
REMARK    1  A    between atoms: C1_2  and  C2_3 
ROOT
ATOM      1  C2  UNL d   1      -1.451  -2.405   0.014  0.00  0.00    -0.081 A 
ATOM      2  C3  UNL d   1      -1.626  -2.555   1.395  0.00  0.00     0.006 A 
ATOM      3  C4  UNL d   1      -1.207  -3.722   2.039  0.00  0.00     0.002 A 
ATOM      4  C5  UNL d   1      -0.600  -4.753   1.314  0.00  0.00    -0.080 A 
ATOM      5  C6  UNL d   1      -0.118  -5.998   1.998  0.00  0.00     0.076 C 
ATOM      6  C7  UNL d   1      -0.440  -4.610  -0.068  0.00  0.00     0.002 A 
ATOM      7  C8  UNL d   1      -0.860  -3.444  -0.712  0.00  0.00     0.006 A 
ENDROOT
BRANCH   1   8
ATOM      8  C1  UNL d   1      -1.843  -1.121  -0.673  0.00  0.00     0.054 C 
ATOM      9  C   UNL d   1      -0.883  -0.784  -1.805  0.00  0.00     0.018 C 
ENDBRANCH   1   8
TORSDOF 1
ENDMDL
