MODEL 1
REMARK minimizedAffinity 10.6572599
REMARK minimizedRMSD -1
REMARK  1 active torsions:
REMARK  status: ('A' for Active; 'I' for Inactive)
REMARK    1  A    between atoms: C1_2  and  C2_3 
ROOT
ATOM      1  C2  UNL d   1      -4.165   5.584  -1.539  0.00  0.00    -0.081 A 
ATOM      2  C3  UNL d   1      -3.398   4.849  -0.627  0.00  0.00     0.006 A 
ATOM      3  C4  UNL d   1      -3.914   4.517   0.628  0.00  0.00     0.002 A 
ATOM      4  C5  UNL d   1      -5.208   4.908   0.989  0.00  0.00    -0.080 A 
ATOM      5  C6  UNL d   1      -5.786   4.532   2.321  0.00  0.00     0.076 C 
ATOM      6  C7  UNL d   1      -5.969   5.656   0.084  0.00  0.00     0.002 A 
ATOM      7  C8  UNL d   1      -5.453   5.989  -1.170  0.00  0.00     0.006 A 
ENDROOT
BRANCH   1   8
ATOM      8  C1  UNL d   1      -3.636   5.887  -2.917  0.00  0.00     0.054 C 
ATOM      9  C   UNL d   1      -4.765   5.998  -3.932  0.00  0.00     0.018 C 
ENDBRANCH   1   8
TORSDOF 1
ENDMDL
