MODEL 1
REMARK minimizedAffinity 15.4824228
REMARK minimizedRMSD -1
REMARK  1 active torsions:
REMARK  status: ('A' for Active; 'I' for Inactive)
REMARK    1  A    between atoms: C1_2  and  C2_3 
ROOT
ATOM      1  C2  UNL d   1      -0.734  -2.978  -0.553  0.00  0.00    -0.081 A 
ATOM      2  C3  UNL d   1      -0.272  -2.619   0.719  0.00  0.00     0.006 A 
ATOM      3  C4  UNL d   1       0.182  -3.596   1.609  0.00  0.00     0.002 A 
ATOM      4  C5  UNL d   1       0.189  -4.945   1.239  0.00  0.00    -0.080 A 
ATOM      5  C6  UNL d   1       0.701  -6.000   2.174  0.00  0.00     0.076 C 
ATOM      6  C7  UNL d   1      -0.289  -5.305  -0.026  0.00  0.00     0.002 A 
ATOM      7  C8  UNL d   1      -0.744  -4.329  -0.915  0.00  0.00     0.006 A 
ENDROOT
BRANCH   1   8
ATOM      8  C1  UNL d   1      -1.163  -1.921  -1.539  0.00  0.00     0.054 C 
ATOM      9  C   UNL d   1      -2.362  -1.138  -1.023  0.00  0.00     0.018 C 
ENDBRANCH   1   8
TORSDOF 1
ENDMDL
