MODEL 1
REMARK minimizedAffinity 17.8728848
REMARK minimizedRMSD -1
REMARK  1 active torsions:
REMARK  status: ('A' for Active; 'I' for Inactive)
REMARK    1  A    between atoms: C1_2  and  C2_3 
ROOT
ATOM      1  C2  UNL d   1      -1.023  -3.130  -0.851  0.00  0.00    -0.081 A 
ATOM      2  C3  UNL d   1      -1.864  -2.167  -0.280  0.00  0.00     0.006 A 
ATOM      3  C4  UNL d   1      -2.461  -1.187  -1.077  0.00  0.00     0.002 A 
ATOM      4  C5  UNL d   1      -2.234  -1.158  -2.457  0.00  0.00    -0.080 A 
ATOM      5  C6  UNL d   1      -2.893  -0.129  -3.327  0.00  0.00     0.076 C 
ATOM      6  C7  UNL d   1      -1.380  -2.109  -3.025  0.00  0.00     0.002 A 
ATOM      7  C8  UNL d   1      -0.782  -3.089  -2.229  0.00  0.00     0.006 A 
ENDROOT
BRANCH   1   8
ATOM      8  C1  UNL d   1      -0.429  -4.227  -0.005  0.00  0.00     0.054 C 
ATOM      9  C   UNL d   1      -0.029  -3.711   1.369  0.00  0.00     0.018 C 
ENDBRANCH   1   8
TORSDOF 1
ENDMDL
