MODEL 1
REMARK minimizedAffinity 16.0501575
REMARK minimizedRMSD -1
REMARK  1 active torsions:
REMARK  status: ('A' for Active; 'I' for Inactive)
REMARK    1  A    between atoms: C1_2  and  C2_3 
ROOT
ATOM      1  C2  UNL d   1      -0.203   2.770  -4.109  0.00  0.00    -0.081 A 
ATOM      2  C3  UNL d   1      -0.301   2.213  -5.390  0.00  0.00     0.006 A 
ATOM      3  C4  UNL d   1      -1.548   2.054  -6.000  0.00  0.00     0.002 A 
ATOM      4  C5  UNL d   1      -2.716   2.457  -5.343  0.00  0.00    -0.080 A 
ATOM      5  C6  UNL d   1      -4.058   2.320  -5.999  0.00  0.00     0.076 C 
ATOM      6  C7  UNL d   1      -2.619   2.998  -4.057  0.00  0.00     0.002 A 
ATOM      7  C8  UNL d   1      -1.373   3.156  -3.446  0.00  0.00     0.006 A 
ENDROOT
BRANCH   1   8
ATOM      8  C1  UNL d   1       1.145   3.002  -3.475  0.00  0.00     0.054 C 
ATOM      9  C   UNL d   1       1.777   1.692  -3.026  0.00  0.00     0.018 C 
ENDBRANCH   1   8
TORSDOF 1
ENDMDL
