MODEL 1
REMARK minimizedAffinity 13.0966816
REMARK minimizedRMSD -1
REMARK  1 active torsions:
REMARK  status: ('A' for Active; 'I' for Inactive)
REMARK    1  A    between atoms: C1_2  and  C2_3 
ROOT
ATOM      1  C2  UNL d   1       3.467   2.487   1.792  0.00  0.00    -0.081 A 
ATOM      2  C3  UNL d   1       2.568   1.488   1.399  0.00  0.00     0.006 A 
ATOM      3  C4  UNL d   1       2.386   1.193   0.046  0.00  0.00     0.002 A 
ATOM      4  C5  UNL d   1       3.105   1.885  -0.935  0.00  0.00    -0.080 A 
ATOM      5  C6  UNL d   1       2.941   1.556  -2.389  0.00  0.00     0.076 C 
ATOM      6  C7  UNL d   1       3.990   2.895  -0.543  0.00  0.00     0.002 A 
ATOM      7  C8  UNL d   1       4.172   3.191   0.810  0.00  0.00     0.006 A 
ENDROOT
BRANCH   1   8
ATOM      8  C1  UNL d   1       3.713   2.764   3.254  0.00  0.00     0.054 C 
ATOM      9  C   UNL d   1       4.519   1.646   3.900  0.00  0.00     0.018 C 
ENDBRANCH   1   8
TORSDOF 1
ENDMDL
