MODEL 1
REMARK minimizedAffinity -3.73667216
REMARK minimizedRMSD -1
REMARK  0 active torsions:
REMARK  status: ('A' for Active; 'I' for Inactive)
ROOT
ATOM      1  C2' OXE d   1       5.997  -5.999  -3.162  0.00  0.00     0.078 C 
ATOM      2  C1' OXE d   1       6.000  -5.848  -5.965  0.00  0.00     0.078 C 
ATOM      3  C1  OXE d   1       4.680  -5.685  -5.253  0.00  0.00    -0.078 A 
ATOM      4  C2  OXE d   1       4.681  -5.807  -3.884  0.00  0.00    -0.078 A 
ATOM      5  C3  OXE d   1       3.500  -5.612  -3.174  0.00  0.00     0.003 A 
ATOM      6  C4  OXE d   1       2.286  -5.445  -3.850  0.00  0.00    -0.002 A 
ATOM      7  C5  OXE d   1       2.257  -5.357  -5.246  0.00  0.00    -0.002 A 
ATOM      8  C6  OXE d   1       3.448  -5.433  -5.958  0.00  0.00     0.003 A 
ENDROOT
TORSDOF 0
ENDMDL
