MODEL 1
REMARK minimizedAffinity -1.47837842
REMARK minimizedRMSD -1
REMARK  0 active torsions:
REMARK  status: ('A' for Active; 'I' for Inactive)
ROOT
ATOM      1  C2' OXE d   1       2.368  -5.949  -5.988  0.00  0.00     0.078 C 
ATOM      2  C1' OXE d   1       5.175  -5.993  -5.999  0.00  0.00     0.078 C 
ATOM      3  C1  OXE d   1       4.477  -5.971  -4.662  0.00  0.00    -0.078 A 
ATOM      4  C2  OXE d   1       3.105  -5.903  -4.666  0.00  0.00    -0.078 A 
ATOM      5  C3  OXE d   1       2.409  -5.936  -3.461  0.00  0.00     0.003 A 
ATOM      6  C4  OXE d   1       3.098  -5.883  -2.243  0.00  0.00    -0.002 A 
ATOM      7  C5  OXE d   1       4.497  -5.912  -2.217  0.00  0.00    -0.002 A 
ATOM      8  C6  OXE d   1       5.199  -5.999  -3.414  0.00  0.00     0.003 A 
ENDROOT
TORSDOF 0
ENDMDL
