MODEL 1
REMARK minimizedAffinity -4.44902134
REMARK minimizedRMSD -1
REMARK  0 active torsions:
REMARK  status: ('A' for Active; 'I' for Inactive)
ROOT
ATOM      1  C2' OXE d   1       3.817  -6.000  -1.926  0.00  0.00     0.078 C 
ATOM      2  C1' OXE d   1       1.862  -6.000  -3.940  0.00  0.00     0.078 C 
ATOM      3  C1  OXE d   1       3.274  -5.641  -4.331  0.00  0.00    -0.078 A 
ATOM      4  C2  OXE d   1       4.215  -5.597  -3.330  0.00  0.00    -0.078 A 
ATOM      5  C3  OXE d   1       5.543  -5.325  -3.645  0.00  0.00     0.003 A 
ATOM      6  C4  OXE d   1       5.900  -4.944  -4.944  0.00  0.00    -0.002 A 
ATOM      7  C5  OXE d   1       4.950  -4.943  -5.970  0.00  0.00    -0.002 A 
ATOM      8  C6  OXE d   1       3.644  -5.329  -5.689  0.00  0.00     0.003 A 
ENDROOT
TORSDOF 0
ENDMDL
