MODEL 1
REMARK minimizedAffinity -0.573518574
REMARK minimizedRMSD -1
REMARK  0 active torsions:
REMARK  status: ('A' for Active; 'I' for Inactive)
ROOT
ATOM      1  C2' OXE d   1       1.684  -6.000  -4.401  0.00  0.00     0.078 C 
ATOM      2  C1' OXE d   1       3.270  -5.366  -2.173  0.00  0.00     0.078 C 
ATOM      3  C1  OXE d   1       3.960  -5.531  -3.504  0.00  0.00    -0.078 A 
ATOM      4  C2  OXE d   1       3.183  -5.887  -4.580  0.00  0.00    -0.078 A 
ATOM      5  C3  OXE d   1       3.761  -5.998  -5.841  0.00  0.00     0.003 A 
ATOM      6  C4  OXE d   1       5.149  -5.901  -5.996  0.00  0.00    -0.002 A 
ATOM      7  C5  OXE d   1       5.964  -5.578  -4.906  0.00  0.00    -0.002 A 
ATOM      8  C6  OXE d   1       5.382  -5.348  -3.664  0.00  0.00     0.003 A 
ENDROOT
TORSDOF 0
ENDMDL
