MODEL 1
REMARK minimizedAffinity -1.22670758
REMARK minimizedRMSD -1
REMARK  0 active torsions:
REMARK  status: ('A' for Active; 'I' for Inactive)
ROOT
ATOM      1  C2' OXE d   1       2.290  -5.999  -5.912  0.00  0.00     0.078 C 
ATOM      2  C1' OXE d   1       5.097  -5.992  -5.953  0.00  0.00     0.078 C 
ATOM      3  C1  OXE d   1       4.413  -5.983  -4.608  0.00  0.00    -0.078 A 
ATOM      4  C2  OXE d   1       3.039  -5.940  -4.598  0.00  0.00    -0.078 A 
ATOM      5  C3  OXE d   1       2.357  -5.986  -3.386  0.00  0.00     0.003 A 
ATOM      6  C4  OXE d   1       3.058  -5.921  -2.175  0.00  0.00    -0.002 A 
ATOM      7  C5  OXE d   1       4.457  -5.924  -2.164  0.00  0.00    -0.002 A 
ATOM      8  C6  OXE d   1       5.148  -5.998  -3.368  0.00  0.00     0.003 A 
ENDROOT
TORSDOF 0
ENDMDL
