MODEL 1
REMARK minimizedAffinity -1.55710292
REMARK minimizedRMSD -1
REMARK  0 active torsions:
REMARK  status: ('A' for Active; 'I' for Inactive)
ROOT
ATOM      1  C2' OXE d   1       1.626  -5.958  -4.252  0.00  0.00     0.078 C 
ATOM      2  C1' OXE d   1       3.329  -5.414  -2.088  0.00  0.00     0.078 C 
ATOM      3  C1  OXE d   1       3.954  -5.577  -3.451  0.00  0.00    -0.078 A 
ATOM      4  C2  OXE d   1       3.118  -5.889  -4.496  0.00  0.00    -0.078 A 
ATOM      5  C3  OXE d   1       3.635  -5.997  -5.784  0.00  0.00     0.003 A 
ATOM      6  C4  OXE d   1       5.017  -5.941  -6.000  0.00  0.00    -0.002 A 
ATOM      7  C5  OXE d   1       5.890  -5.663  -4.943  0.00  0.00    -0.002 A 
ATOM      8  C6  OXE d   1       5.372  -5.437  -3.673  0.00  0.00     0.003 A 
ENDROOT
TORSDOF 0
ENDMDL
