MODEL 1
REMARK minimizedAffinity -2.77320552
REMARK minimizedRMSD -1
REMARK  0 active torsions:
REMARK  status: ('A' for Active; 'I' for Inactive)
ROOT
ATOM      1  C2' OXE d   1       3.261  -5.609  -1.362  0.00  0.00     0.078 C 
ATOM      2  C1' OXE d   1       5.995  -6.000  -1.860  0.00  0.00     0.078 C 
ATOM      3  C1  OXE d   1       5.069  -5.914  -3.048  0.00  0.00    -0.078 A 
ATOM      4  C2  OXE d   1       3.727  -5.770  -2.793  0.00  0.00    -0.078 A 
ATOM      5  C3  OXE d   1       2.835  -5.631  -3.853  0.00  0.00     0.003 A 
ATOM      6  C4  OXE d   1       3.273  -5.791  -5.173  0.00  0.00    -0.002 A 
ATOM      7  C5  OXE d   1       4.631  -5.978  -5.453  0.00  0.00    -0.002 A 
ATOM      8  C6  OXE d   1       5.546  -6.000  -4.406  0.00  0.00     0.003 A 
ENDROOT
TORSDOF 0
ENDMDL
