MODEL 1
REMARK minimizedAffinity -0.921925545
REMARK minimizedRMSD -1
REMARK  0 active torsions:
REMARK  status: ('A' for Active; 'I' for Inactive)
ROOT
ATOM      1  C2' OXE d   1       2.432  -5.999  -5.980  0.00  0.00     0.078 C 
ATOM      2  C1' OXE d   1       5.239  -5.944  -6.000  0.00  0.00     0.078 C 
ATOM      3  C1  OXE d   1       4.540  -5.705  -4.685  0.00  0.00    -0.078 A 
ATOM      4  C2  OXE d   1       3.166  -5.687  -4.693  0.00  0.00    -0.078 A 
ATOM      5  C3  OXE d   1       2.471  -5.525  -3.498  0.00  0.00     0.003 A 
ATOM      6  C4  OXE d   1       3.157  -5.228  -2.314  0.00  0.00    -0.002 A 
ATOM      7  C5  OXE d   1       4.556  -5.202  -2.291  0.00  0.00    -0.002 A 
ATOM      8  C6  OXE d   1       5.261  -5.480  -3.457  0.00  0.00     0.003 A 
ENDROOT
TORSDOF 0
ENDMDL
