MODEL 1
REMARK minimizedAffinity -3.35081124
REMARK minimizedRMSD -1
REMARK  0 active torsions:
REMARK  status: ('A' for Active; 'I' for Inactive)
ROOT
ATOM      1  C2' OXE d   1       5.981  -4.913  -2.981  0.00  0.00     0.078 C 
ATOM      2  C1' OXE d   1       5.999  -5.682  -5.681  0.00  0.00     0.078 C 
ATOM      3  C1  OXE d   1       4.671  -5.654  -4.966  0.00  0.00    -0.078 A 
ATOM      4  C2  OXE d   1       4.678  -5.322  -3.633  0.00  0.00    -0.078 A 
ATOM      5  C3  OXE d   1       3.474  -5.228  -2.940  0.00  0.00     0.003 A 
ATOM      6  C4  OXE d   1       2.275  -5.618  -3.547  0.00  0.00    -0.002 A 
ATOM      7  C5  OXE d   1       2.251  -5.998  -4.893  0.00  0.00    -0.002 A 
ATOM      8  C6  OXE d   1       3.432  -5.981  -5.627  0.00  0.00     0.003 A 
ENDROOT
TORSDOF 0
ENDMDL
