MODEL 1
REMARK minimizedAffinity -3.98802686
REMARK minimizedRMSD -1
REMARK  0 active torsions:
REMARK  status: ('A' for Active; 'I' for Inactive)
ROOT
ATOM      1  C2' OXE d   1       2.065  -5.979  -4.869  0.00  0.00     0.078 C 
ATOM      2  C1' OXE d   1       4.634  -5.992  -6.000  0.00  0.00     0.078 C 
ATOM      3  C1  OXE d   1       4.497  -5.528  -4.572  0.00  0.00    -0.078 A 
ATOM      4  C2  OXE d   1       3.230  -5.480  -4.042  0.00  0.00    -0.078 A 
ATOM      5  C3  OXE d   1       3.053  -5.112  -2.711  0.00  0.00     0.003 A 
ATOM      6  C4  OXE d   1       4.134  -4.642  -1.956  0.00  0.00    -0.002 A 
ATOM      7  C5  OXE d   1       5.427  -4.645  -2.489  0.00  0.00    -0.002 A 
ATOM      8  C6  OXE d   1       5.631  -5.123  -3.779  0.00  0.00     0.003 A 
ENDROOT
TORSDOF 0
ENDMDL
