MODEL 1
REMARK minimizedAffinity -0.957818389
REMARK minimizedRMSD -1
REMARK  0 active torsions:
REMARK  status: ('A' for Active; 'I' for Inactive)
ROOT
ATOM      1  C2' OXE d   1       2.269  -5.886  -5.990  0.00  0.00     0.078 C 
ATOM      2  C1' OXE d   1       5.075  -5.871  -5.946  0.00  0.00     0.078 C 
ATOM      3  C1  OXE d   1       4.351  -5.927  -4.624  0.00  0.00    -0.078 A 
ATOM      4  C2  OXE d   1       2.978  -5.887  -4.653  0.00  0.00    -0.078 A 
ATOM      5  C3  OXE d   1       2.260  -5.992  -3.465  0.00  0.00     0.003 A 
ATOM      6  C4  OXE d   1       2.924  -5.983  -2.232  0.00  0.00    -0.002 A 
ATOM      7  C5  OXE d   1       4.322  -5.984  -2.179  0.00  0.00    -0.002 A 
ATOM      8  C6  OXE d   1       5.049  -6.000  -3.364  0.00  0.00     0.003 A 
ENDROOT
TORSDOF 0
ENDMDL
