MODEL 1
REMARK minimizedAffinity -3.84968567
REMARK minimizedRMSD -1
REMARK  0 active torsions:
REMARK  status: ('A' for Active; 'I' for Inactive)
ROOT
ATOM      1  C2' OXE d   1       3.374  -5.636  -2.054  0.00  0.00     0.078 C 
ATOM      2  C1' OXE d   1       5.999  -4.672  -2.295  0.00  0.00     0.078 C 
ATOM      3  C1  OXE d   1       5.293  -5.110  -3.553  0.00  0.00    -0.078 A 
ATOM      4  C2  OXE d   1       4.025  -5.624  -3.420  0.00  0.00    -0.078 A 
ATOM      5  C3  OXE d   1       3.308  -5.993  -4.555  0.00  0.00     0.003 A 
ATOM      6  C4  OXE d   1       3.922  -5.988  -5.813  0.00  0.00    -0.002 A 
ATOM      7  C5  OXE d   1       5.226  -5.506  -5.966  0.00  0.00    -0.002 A 
ATOM      8  C6  OXE d   1       5.909  -5.024  -4.854  0.00  0.00     0.003 A 
ENDROOT
TORSDOF 0
ENDMDL
