MODEL 1
REMARK minimizedAffinity -2.75177169
REMARK minimizedRMSD -1
REMARK  0 active torsions:
REMARK  status: ('A' for Active; 'I' for Inactive)
ROOT
ATOM      1  C2' OXE d   1       4.125   0.953   1.875  0.00  0.00     0.078 C 
ATOM      2  C1' OXE d   1       2.234   2.998   1.521  0.00  0.00     0.078 C 
ATOM      3  C1  OXE d   1       3.553   3.361   2.157  0.00  0.00    -0.078 A 
ATOM      4  C2  OXE d   1       4.454   2.345   2.368  0.00  0.00    -0.078 A 
ATOM      5  C3  OXE d   1       5.707   2.635   2.901  0.00  0.00     0.003 A 
ATOM      6  C4  OXE d   1       5.999   3.924   3.365  0.00  0.00    -0.002 A 
ATOM      7  C5  OXE d   1       5.080   4.965   3.195  0.00  0.00    -0.002 A 
ATOM      8  C6  OXE d   1       3.872   4.710   2.556  0.00  0.00     0.003 A 
ENDROOT
TORSDOF 0
ENDMDL
