MODEL 1
REMARK minimizedAffinity -3.3550787
REMARK minimizedRMSD -1
REMARK  0 active torsions:
REMARK  status: ('A' for Active; 'I' for Inactive)
ROOT
ATOM      1  C2' OXE d   1       5.999  -5.994  -2.343  0.00  0.00     0.078 C 
ATOM      2  C1' OXE d   1       3.223  -5.621  -2.160  0.00  0.00     0.078 C 
ATOM      3  C1  OXE d   1       3.856  -5.532  -3.526  0.00  0.00    -0.078 A 
ATOM      4  C2  OXE d   1       5.222  -5.669  -3.600  0.00  0.00    -0.078 A 
ATOM      5  C3  OXE d   1       5.850  -5.649  -4.842  0.00  0.00     0.003 A 
ATOM      6  C4  OXE d   1       5.125  -5.338  -5.998  0.00  0.00    -0.002 A 
ATOM      7  C5  OXE d   1       3.739  -5.155  -5.940  0.00  0.00    -0.002 A 
ATOM      8  C6  OXE d   1       3.085  -5.291  -4.720  0.00  0.00     0.003 A 
ENDROOT
TORSDOF 0
ENDMDL
