MODEL 1
REMARK minimizedAffinity -3.57723665
REMARK minimizedRMSD -1
REMARK  0 active torsions:
REMARK  status: ('A' for Active; 'I' for Inactive)
ROOT
ATOM      1  C2' OXE d   1       4.934   4.453   3.465  0.00  0.00     0.078 C 
ATOM      2  C1' OXE d   1       5.996   1.855   3.526  0.00  0.00     0.078 C 
ATOM      3  C1  OXE d   1       4.791   2.102   2.653  0.00  0.00    -0.078 A 
ATOM      4  C2  OXE d   1       4.250   3.365   2.666  0.00  0.00    -0.078 A 
ATOM      5  C3  OXE d   1       3.171   3.661   1.837  0.00  0.00     0.003 A 
ATOM      6  C4  OXE d   1       2.537   2.647   1.109  0.00  0.00    -0.002 A 
ATOM      7  C5  OXE d   1       3.049   1.345   1.113  0.00  0.00    -0.002 A 
ATOM      8  C6  OXE d   1       4.198   1.066   1.845  0.00  0.00     0.003 A 
ENDROOT
TORSDOF 0
ENDMDL
