MODEL 1
REMARK minimizedAffinity -3.27443361
REMARK minimizedRMSD -1
REMARK  0 active torsions:
REMARK  status: ('A' for Active; 'I' for Inactive)
ROOT
ATOM      1  C2' OXE d   1       3.283  -5.355  -1.855  0.00  0.00     0.078 C 
ATOM      2  C1' OXE d   1       6.000  -5.388  -2.563  0.00  0.00     0.078 C 
ATOM      3  C1  OXE d   1       4.984  -5.572  -3.663  0.00  0.00    -0.078 A 
ATOM      4  C2  OXE d   1       3.659  -5.601  -3.301  0.00  0.00    -0.078 A 
ATOM      5  C3  OXE d   1       2.679  -5.712  -4.283  0.00  0.00     0.003 A 
ATOM      6  C4  OXE d   1       3.035  -5.949  -5.616  0.00  0.00    -0.002 A 
ATOM      7  C5  OXE d   1       4.380  -5.963  -6.000  0.00  0.00    -0.002 A 
ATOM      8  C6  OXE d   1       5.364  -5.734  -5.044  0.00  0.00     0.003 A 
ENDROOT
TORSDOF 0
ENDMDL
