MODEL 1
REMARK minimizedAffinity -2.98213959
REMARK minimizedRMSD -1
REMARK  0 active torsions:
REMARK  status: ('A' for Active; 'I' for Inactive)
ROOT
ATOM      1  C2' OXE d   1       1.711  -5.999  -3.859  0.00  0.00     0.078 C 
ATOM      2  C1' OXE d   1       3.390  -5.776  -1.621  0.00  0.00     0.078 C 
ATOM      3  C1  OXE d   1       4.036  -5.836  -2.982  0.00  0.00    -0.078 A 
ATOM      4  C2  OXE d   1       3.209  -5.991  -4.069  0.00  0.00    -0.078 A 
ATOM      5  C3  OXE d   1       3.750  -5.997  -5.351  0.00  0.00     0.003 A 
ATOM      6  C4  OXE d   1       5.138  -6.000  -5.535  0.00  0.00    -0.002 A 
ATOM      7  C5  OXE d   1       6.000  -5.882  -4.440  0.00  0.00    -0.002 A 
ATOM      8  C6  OXE d   1       5.465  -5.756  -3.163  0.00  0.00     0.003 A 
ENDROOT
TORSDOF 0
ENDMDL
