MODEL 1
REMARK minimizedAffinity -3.05726337
REMARK minimizedRMSD -1
REMARK  0 active torsions:
REMARK  status: ('A' for Active; 'I' for Inactive)
ROOT
ATOM      1  C2' OXE d   1       6.000  -4.717  -2.492  0.00  0.00     0.078 C 
ATOM      2  C1' OXE d   1       3.206  -4.877  -2.277  0.00  0.00     0.078 C 
ATOM      3  C1  OXE d   1       3.833  -5.260  -3.594  0.00  0.00    -0.078 A 
ATOM      4  C2  OXE d   1       5.197  -5.135  -3.705  0.00  0.00    -0.078 A 
ATOM      5  C3  OXE d   1       5.832  -5.527  -4.879  0.00  0.00     0.003 A 
ATOM      6  C4  OXE d   1       5.081  -5.902  -6.000  0.00  0.00    -0.002 A 
ATOM      7  C5  OXE d   1       3.688  -5.999  -5.921  0.00  0.00    -0.002 A 
ATOM      8  C6  OXE d   1       3.053  -5.723  -4.715  0.00  0.00     0.003 A 
ENDROOT
TORSDOF 0
ENDMDL
