MODEL 1
REMARK minimizedAffinity -2.99683666
REMARK minimizedRMSD -1
REMARK  0 active torsions:
REMARK  status: ('A' for Active; 'I' for Inactive)
ROOT
ATOM      1  C2' OXE d   1       2.912  -6.000  -5.999  0.00  0.00     0.078 C 
ATOM      2  C1' OXE d   1       5.577  -5.124  -5.904  0.00  0.00     0.078 C 
ATOM      3  C1  OXE d   1       4.772  -5.069  -4.629  0.00  0.00    -0.078 A 
ATOM      4  C2  OXE d   1       3.456  -5.456  -4.696  0.00  0.00    -0.078 A 
ATOM      5  C3  OXE d   1       2.684  -5.476  -3.538  0.00  0.00     0.003 A 
ATOM      6  C4  OXE d   1       3.191  -4.961  -2.338  0.00  0.00    -0.002 A 
ATOM      7  C5  OXE d   1       4.518  -4.525  -2.258  0.00  0.00    -0.002 A 
ATOM      8  C6  OXE d   1       5.333  -4.612  -3.382  0.00  0.00     0.003 A 
ENDROOT
TORSDOF 0
ENDMDL
