MODEL 1
REMARK minimizedAffinity -3.10511518
REMARK minimizedRMSD -1
REMARK  0 active torsions:
REMARK  status: ('A' for Active; 'I' for Inactive)
ROOT
ATOM      1  C2' OXE d   1       3.290  -5.666  -2.176  0.00  0.00     0.078 C 
ATOM      2  C1' OXE d   1       5.996  -4.928  -2.281  0.00  0.00     0.078 C 
ATOM      3  C1  OXE d   1       5.313  -5.282  -3.578  0.00  0.00    -0.078 A 
ATOM      4  C2  OXE d   1       4.001  -5.687  -3.512  0.00  0.00    -0.078 A 
ATOM      5  C3  OXE d   1       3.308  -5.972  -4.684  0.00  0.00     0.003 A 
ATOM      6  C4  OXE d   1       3.976  -5.999  -5.915  0.00  0.00    -0.002 A 
ATOM      7  C5  OXE d   1       5.322  -5.628  -5.999  0.00  0.00    -0.002 A 
ATOM      8  C6  OXE d   1       5.992  -5.227  -4.849  0.00  0.00     0.003 A 
ENDROOT
TORSDOF 0
ENDMDL
