MODEL 1
REMARK minimizedAffinity 24.1668987
REMARK minimizedRMSD -1
REMARK  0 active torsions:
REMARK  status: ('A' for Active; 'I' for Inactive)
ROOT
ATOM      1  C1  DEN d   1      -2.980  -4.236   2.424  0.00  0.00     0.130 A 
ATOM      2  C2  DEN d   1      -4.275  -4.545   1.824  0.00  0.00    -0.031 A 
ATOM      3  C3  DEN d   1      -4.591  -3.484   0.847  0.00  0.00     0.027 A 
ATOM      4  C4  DEN d   1      -3.207  -1.404   0.207  0.00  0.00     0.027 A 
ATOM      5  C5  DEN d   1      -2.044  -0.708   0.457  0.00  0.00    -0.003 A 
ATOM      6  C6  DEN d   1      -1.136  -1.118   1.396  0.00  0.00     0.001 A 
ATOM      7  C7  DEN d   1      -1.353  -2.280   2.089  0.00  0.00     0.017 A 
ATOM      8  C8  DEN d   1      -2.527  -2.983   1.848  0.00  0.00    -0.094 A 
ATOM      9  C9  DEN d   1      -3.427  -2.558   0.885  0.00  0.00    -0.072 A 
ENDROOT
TORSDOF 0
ENDMDL
