MODEL 1
REMARK minimizedAffinity 15.7054348
REMARK minimizedRMSD -1
REMARK  0 active torsions:
REMARK  status: ('A' for Active; 'I' for Inactive)
ROOT
ATOM      1  C1  DEN d   1       0.946  -2.086   4.073  0.00  0.00     0.130 A 
ATOM      2  C2  DEN d   1       1.743  -3.126   3.427  0.00  0.00    -0.031 A 
ATOM      3  C3  DEN d   1       1.036  -3.547   2.201  0.00  0.00     0.027 A 
ATOM      4  C4  DEN d   1      -1.201  -2.692   1.242  0.00  0.00     0.027 A 
ATOM      5  C5  DEN d   1      -2.250  -1.823   1.445  0.00  0.00    -0.003 A 
ATOM      6  C6  DEN d   1      -2.323  -1.011   2.546  0.00  0.00     0.001 A 
ATOM      7  C7  DEN d   1      -1.307  -1.019   3.464  0.00  0.00     0.017 A 
ATOM      8  C8  DEN d   1      -0.250  -1.899   3.271  0.00  0.00    -0.094 A 
ATOM      9  C9  DEN d   1      -0.188  -2.703   2.145  0.00  0.00    -0.072 A 
ENDROOT
TORSDOF 0
ENDMDL
