MODEL 1
REMARK minimizedAffinity 18.6977634
REMARK minimizedRMSD -1
REMARK  0 active torsions:
REMARK  status: ('A' for Active; 'I' for Inactive)
ROOT
ATOM      1  C1  DEN d   1       3.375   1.881  -1.722  0.00  0.00     0.130 A 
ATOM      2  C2  DEN d   1       2.731   2.276  -2.971  0.00  0.00    -0.031 A 
ATOM      3  C3  DEN d   1       3.318   3.561  -3.401  0.00  0.00     0.027 A 
ATOM      4  C4  DEN d   1       5.155   4.968  -2.261  0.00  0.00     0.027 A 
ATOM      5  C5  DEN d   1       5.997   5.046  -1.174  0.00  0.00    -0.003 A 
ATOM      6  C6  DEN d   1       6.000   4.099  -0.184  0.00  0.00     0.001 A 
ATOM      7  C7  DEN d   1       5.176   3.009  -0.284  0.00  0.00     0.017 A 
ATOM      8  C8  DEN d   1       4.319   2.928  -1.374  0.00  0.00    -0.094 A 
ATOM      9  C9  DEN d   1       4.340   3.889  -2.370  0.00  0.00    -0.072 A 
ENDROOT
TORSDOF 0
ENDMDL
