MODEL 1
REMARK minimizedAffinity 19.3109665
REMARK minimizedRMSD -1
REMARK  0 active torsions:
REMARK  status: ('A' for Active; 'I' for Inactive)
ROOT
ATOM      1  C1  DEN d   1       4.469  -2.826  -0.744  0.00  0.00     0.130 A 
ATOM      2  C2  DEN d   1       5.858  -3.266  -0.844  0.00  0.00    -0.031 A 
ATOM      3  C3  DEN d   1       5.999  -4.513  -0.065  0.00  0.00     0.027 A 
ATOM      4  C4  DEN d   1       4.211  -5.800   1.275  0.00  0.00     0.027 A 
ATOM      5  C5  DEN d   1       2.889  -5.808   1.664  0.00  0.00    -0.003 A 
ATOM      6  C6  DEN d   1       2.017  -4.813   1.309  0.00  0.00     0.001 A 
ATOM      7  C7  DEN d   1       2.446  -3.791   0.504  0.00  0.00     0.017 A 
ATOM      8  C8  DEN d   1       3.778  -3.772   0.114  0.00  0.00    -0.094 A 
ATOM      9  C9  DEN d   1       4.641  -4.793   0.473  0.00  0.00    -0.072 A 
ENDROOT
TORSDOF 0
ENDMDL
