MODEL 1
REMARK minimizedAffinity 23.2382507
REMARK minimizedRMSD -1
REMARK  0 active torsions:
REMARK  status: ('A' for Active; 'I' for Inactive)
ROOT
ATOM      1  C1  DEN d   1       5.998   4.811  -4.504  0.00  0.00     0.130 A 
ATOM      2  C2  DEN d   1       6.000   6.000  -3.657  0.00  0.00    -0.031 A 
ATOM      3  C3  DEN d   1       4.961   5.825  -2.622  0.00  0.00     0.027 A 
ATOM      4  C4  DEN d   1       3.362   3.836  -2.249  0.00  0.00     0.027 A 
ATOM      5  C5  DEN d   1       2.978   2.600  -2.721  0.00  0.00    -0.003 A 
ATOM      6  C6  DEN d   1       3.546   2.034  -3.831  0.00  0.00     0.001 A 
ATOM      7  C7  DEN d   1       4.561   2.685  -4.481  0.00  0.00     0.017 A 
ATOM      8  C8  DEN d   1       4.948   3.935  -4.016  0.00  0.00    -0.094 A 
ATOM      9  C9  DEN d   1       4.371   4.484  -2.884  0.00  0.00    -0.072 A 
ENDROOT
TORSDOF 0
ENDMDL
