MODEL 1
REMARK minimizedAffinity 8.86967468
REMARK minimizedRMSD -1
REMARK  0 active torsions:
REMARK  status: ('A' for Active; 'I' for Inactive)
ROOT
ATOM      1  C1  DEN d   1       2.332   3.164  -1.569  0.00  0.00     0.130 A 
ATOM      2  C2  DEN d   1       2.280   1.876  -2.254  0.00  0.00    -0.031 A 
ATOM      3  C3  DEN d   1       1.310   1.986  -3.362  0.00  0.00     0.027 A 
ATOM      4  C4  DEN d   1      -0.105   4.019  -4.083  0.00  0.00     0.027 A 
ATOM      5  C5  DEN d   1      -0.411   5.331  -3.798  0.00  0.00    -0.003 A 
ATOM      6  C6  DEN d   1       0.145   5.998  -2.738  0.00  0.00     0.001 A 
ATOM      7  C7  DEN d   1       1.072   5.367  -1.951  0.00  0.00     0.017 A 
ATOM      8  C8  DEN d   1       1.381   4.041  -2.228  0.00  0.00    -0.094 A 
ATOM      9  C9  DEN d   1       0.817   3.389  -3.311  0.00  0.00    -0.072 A 
ENDROOT
TORSDOF 0
ENDMDL
