MODEL 1
REMARK minimizedAffinity 22.8387375
REMARK minimizedRMSD -1
REMARK  0 active torsions:
REMARK  status: ('A' for Active; 'I' for Inactive)
ROOT
ATOM      1  C1  DEN d   1      -2.311  -1.627  -1.405  0.00  0.00     0.130 A 
ATOM      2  C2  DEN d   1      -3.346  -0.646  -1.091  0.00  0.00    -0.031 A 
ATOM      3  C3  DEN d   1      -4.214  -1.218  -0.043  0.00  0.00     0.027 A 
ATOM      4  C4  DEN d   1      -4.055  -3.514   1.122  0.00  0.00     0.027 A 
ATOM      5  C5  DEN d   1      -3.350  -4.696   1.181  0.00  0.00    -0.003 A 
ATOM      6  C6  DEN d   1      -2.279  -4.949   0.366  0.00  0.00     0.001 A 
ATOM      7  C7  DEN d   1      -1.854  -3.989  -0.514  0.00  0.00     0.017 A 
ATOM      8  C8  DEN d   1      -2.564  -2.798  -0.585  0.00  0.00    -0.094 A 
ATOM      9  C9  DEN d   1      -3.636  -2.556   0.257  0.00  0.00    -0.072 A 
ENDROOT
TORSDOF 0
ENDMDL
