MODEL 1
REMARK minimizedAffinity 19.5598011
REMARK minimizedRMSD -1
REMARK  0 active torsions:
REMARK  status: ('A' for Active; 'I' for Inactive)
ROOT
ATOM      1  C1  DEN d   1       2.435   2.799  -4.263  0.00  0.00     0.130 A 
ATOM      2  C2  DEN d   1       1.656   2.753  -3.028  0.00  0.00    -0.031 A 
ATOM      3  C3  DEN d   1       2.498   3.281  -1.937  0.00  0.00     0.027 A 
ATOM      4  C4  DEN d   1       4.918   4.167  -2.038  0.00  0.00     0.027 A 
ATOM      5  C5  DEN d   1       5.997   4.394  -2.864  0.00  0.00    -0.003 A 
ATOM      6  C6  DEN d   1       5.976   4.076  -4.196  0.00  0.00     0.001 A 
ATOM      7  C7  DEN d   1       4.838   3.555  -4.752  0.00  0.00     0.017 A 
ATOM      8  C8  DEN d   1       3.748   3.317  -3.924  0.00  0.00    -0.094 A 
ATOM      9  C9  DEN d   1       3.785   3.656  -2.582  0.00  0.00    -0.072 A 
ENDROOT
TORSDOF 0
ENDMDL
