MODEL 1
REMARK minimizedAffinity 14.6203632
REMARK minimizedRMSD -1
REMARK  0 active torsions:
REMARK  status: ('A' for Active; 'I' for Inactive)
ROOT
ATOM      1  C1  DEN d   1      -1.400   0.482   3.019  0.00  0.00     0.130 A 
ATOM      2  C2  DEN d   1      -1.895   0.251   1.665  0.00  0.00    -0.031 A 
ATOM      3  C3  DEN d   1      -1.309  -1.013   1.174  0.00  0.00     0.027 A 
ATOM      4  C4  DEN d   1       0.303  -2.628   2.375  0.00  0.00     0.027 A 
ATOM      5  C5  DEN d   1       1.013  -2.849   3.535  0.00  0.00    -0.003 A 
ATOM      6  C6  DEN d   1       0.996  -1.966   4.582  0.00  0.00     0.001 A 
ATOM      7  C7  DEN d   1       0.217  -0.841   4.508  0.00  0.00     0.017 A 
ATOM      8  C8  DEN d   1      -0.496  -0.608   3.339  0.00  0.00    -0.094 A 
ATOM      9  C9  DEN d   1      -0.474  -1.519   2.297  0.00  0.00    -0.072 A 
ENDROOT
TORSDOF 0
ENDMDL
