MODEL 1
REMARK minimizedAffinity 16.0643215
REMARK minimizedRMSD -1
REMARK  0 active torsions:
REMARK  status: ('A' for Active; 'I' for Inactive)
ROOT
ATOM      1  C1  DEN d   1       1.956   2.280  -3.387  0.00  0.00     0.130 A 
ATOM      2  C2  DEN d   1       2.086   2.216  -1.934  0.00  0.00    -0.031 A 
ATOM      3  C3  DEN d   1       3.275   3.003  -1.547  0.00  0.00     0.027 A 
ATOM      4  C4  DEN d   1       4.914   4.310  -3.049  0.00  0.00     0.027 A 
ATOM      5  C5  DEN d   1       5.220   4.648  -4.349  0.00  0.00    -0.003 A 
ATOM      6  C6  DEN d   1       4.485   4.196  -5.413  0.00  0.00     0.001 A 
ATOM      7  C7  DEN d   1       3.380   3.417  -5.193  0.00  0.00     0.017 A 
ATOM      8  C8  DEN d   1       3.070   3.066  -3.886  0.00  0.00    -0.094 A 
ATOM      9  C9  DEN d   1       3.818   3.543  -2.823  0.00  0.00    -0.072 A 
ENDROOT
TORSDOF 0
ENDMDL
