MODEL 1
REMARK minimizedAffinity 17.3384819
REMARK minimizedRMSD -1
REMARK  0 active torsions:
REMARK  status: ('A' for Active; 'I' for Inactive)
ROOT
ATOM      1  C1  DEN d   1       4.708   4.885  -1.956  0.00  0.00     0.130 A 
ATOM      2  C2  DEN d   1       6.000   5.245  -2.533  0.00  0.00    -0.031 A 
ATOM      3  C3  DEN d   1       5.998   4.832  -3.951  0.00  0.00     0.027 A 
ATOM      4  C4  DEN d   1       4.127   3.681  -5.303  0.00  0.00     0.027 A 
ATOM      5  C5  DEN d   1       2.851   3.166  -5.241  0.00  0.00    -0.003 A 
ATOM      6  C6  DEN d   1       2.123   3.157  -4.080  0.00  0.00     0.001 A 
ATOM      7  C7  DEN d   1       2.649   3.715  -2.945  0.00  0.00     0.017 A 
ATOM      8  C8  DEN d   1       3.938   4.229  -2.998  0.00  0.00    -0.094 A 
ATOM      9  C9  DEN d   1       4.653   4.240  -4.183  0.00  0.00    -0.072 A 
ENDROOT
TORSDOF 0
ENDMDL
