MODEL 1
REMARK minimizedAffinity 20.8781223
REMARK minimizedRMSD -1
REMARK  0 active torsions:
REMARK  status: ('A' for Active; 'I' for Inactive)
ROOT
ATOM      1  C1  DEN d   1       5.943   2.308   0.923  0.00  0.00     0.130 A 
ATOM      2  C2  DEN d   1       5.996   3.661   1.471  0.00  0.00    -0.031 A 
ATOM      3  C3  DEN d   1       4.610   4.125   1.675  0.00  0.00     0.027 A 
ATOM      4  C4  DEN d   1       2.397   2.887   1.203  0.00  0.00     0.027 A 
ATOM      5  C5  DEN d   1       1.844   1.720   0.724  0.00  0.00    -0.003 A 
ATOM      6  C6  DEN d   1       2.611   0.689   0.250  0.00  0.00     0.001 A 
ATOM      7  C7  DEN d   1       3.977   0.787   0.286  0.00  0.00     0.017 A 
ATOM      8  C8  DEN d   1       4.542   1.964   0.761  0.00  0.00    -0.094 A 
ATOM      9  C9  DEN d   1       3.750   2.989   1.247  0.00  0.00    -0.072 A 
ENDROOT
TORSDOF 0
ENDMDL
