MODEL 1
REMARK minimizedAffinity 23.229393
REMARK minimizedRMSD -1
REMARK  0 active torsions:
REMARK  status: ('A' for Active; 'I' for Inactive)
ROOT
ATOM      1  C1  DEN d   1      -4.238  -4.103  -4.448  0.00  0.00     0.130 A 
ATOM      2  C2  DEN d   1      -4.997  -5.000  -5.315  0.00  0.00    -0.031 A 
ATOM      3  C3  DEN d   1      -4.040  -5.892  -5.998  0.00  0.00     0.027 A 
ATOM      4  C4  DEN d   1      -1.470  -5.976  -5.797  0.00  0.00     0.027 A 
ATOM      5  C5  DEN d   1      -0.373  -5.402  -5.193  0.00  0.00    -0.003 A 
ATOM      6  C6  DEN d   1      -0.483  -4.343  -4.333  0.00  0.00     0.001 A 
ATOM      7  C7  DEN d   1      -1.722  -3.851  -4.016  0.00  0.00     0.017 A 
ATOM      8  C8  DEN d   1      -2.832  -4.419  -4.626  0.00  0.00    -0.094 A 
ATOM      9  C9  DEN d   1      -2.701  -5.498  -5.484  0.00  0.00    -0.072 A 
ENDROOT
TORSDOF 0
ENDMDL
