MODEL 1
REMARK minimizedAffinity 15.3352509
REMARK minimizedRMSD -1
REMARK  0 active torsions:
REMARK  status: ('A' for Active; 'I' for Inactive)
ROOT
ATOM      1  C1  DEN d   1      -3.439  -5.321  -4.805  0.00  0.00     0.130 A 
ATOM      2  C2  DEN d   1      -2.938  -5.998  -5.998  0.00  0.00    -0.031 A 
ATOM      3  C3  DEN d   1      -1.463  -5.930  -5.975  0.00  0.00     0.027 A 
ATOM      4  C4  DEN d   1       0.085  -4.852  -4.216  0.00  0.00     0.027 A 
ATOM      5  C5  DEN d   1       0.121  -4.148  -3.033  0.00  0.00    -0.003 A 
ATOM      6  C6  DEN d   1      -1.019  -3.759  -2.380  0.00  0.00     0.001 A 
ATOM      7  C7  DEN d   1      -2.243  -4.112  -2.884  0.00  0.00     0.017 A 
ATOM      8  C8  DEN d   1      -2.287  -4.815  -4.080  0.00  0.00    -0.094 A 
ATOM      9  C9  DEN d   1      -1.124  -5.209  -4.719  0.00  0.00    -0.072 A 
ENDROOT
TORSDOF 0
ENDMDL
