MODEL 1
REMARK minimizedAffinity 11.6381245
REMARK minimizedRMSD -1
REMARK  0 active torsions:
REMARK  status: ('A' for Active; 'I' for Inactive)
ROOT
ATOM      1  C1  DEN d   1       4.528   5.911  -1.440  0.00  0.00     0.130 A 
ATOM      2  C2  DEN d   1       5.885   5.667  -1.922  0.00  0.00    -0.031 A 
ATOM      3  C3  DEN d   1       5.827   4.575  -2.914  0.00  0.00     0.027 A 
ATOM      4  C4  DEN d   1       3.779   3.248  -3.749  0.00  0.00     0.027 A 
ATOM      5  C5  DEN d   1       2.417   3.088  -3.622  0.00  0.00    -0.003 A 
ATOM      6  C6  DEN d   1       1.674   3.829  -2.741  0.00  0.00     0.001 A 
ATOM      7  C7  DEN d   1       2.283   4.795  -1.985  0.00  0.00     0.017 A 
ATOM      8  C8  DEN d   1       3.657   4.957  -2.102  0.00  0.00    -0.094 A 
ATOM      9  C9  DEN d   1       4.389   4.207  -3.008  0.00  0.00    -0.072 A 
ENDROOT
TORSDOF 0
ENDMDL
