MODEL 1
REMARK minimizedAffinity 15.7041206
REMARK minimizedRMSD -1
REMARK  0 active torsions:
REMARK  status: ('A' for Active; 'I' for Inactive)
ROOT
ATOM      1  C1  DEN d   1      -6.000   0.776  -2.829  0.00  0.00     0.130 A 
ATOM      2  C2  DEN d   1      -6.000  -0.676  -2.984  0.00  0.00    -0.031 A 
ATOM      3  C3  DEN d   1      -5.828  -1.278  -1.647  0.00  0.00     0.027 A 
ATOM      4  C4  DEN d   1      -5.568  -0.110   0.638  0.00  0.00     0.027 A 
ATOM      5  C5  DEN d   1      -5.495   1.111   1.273  0.00  0.00    -0.003 A 
ATOM      6  C6  DEN d   1      -5.551   2.295   0.587  0.00  0.00     0.001 A 
ATOM      7  C7  DEN d   1      -5.729   2.285  -0.771  0.00  0.00     0.017 A 
ATOM      8  C8  DEN d   1      -5.796   1.059  -1.419  0.00  0.00    -0.094 A 
ATOM      9  C9  DEN d   1      -5.749  -0.127  -0.707  0.00  0.00    -0.072 A 
ENDROOT
TORSDOF 0
ENDMDL
