MODEL 1
REMARK minimizedAffinity 4.95607281
REMARK minimizedRMSD -1
REMARK  1 active torsions:
REMARK  status: ('A' for Active; 'I' for Inactive)
REMARK    1  A    between atoms: C1_2  and  C2_3 
ROOT
ATOM      1  C2  UNL d   1       1.329  -2.154   4.490  0.00  0.00    -0.077 A 
ATOM      2  C3  UNL d   1       1.651  -0.834   4.835  0.00  0.00     0.002 A 
ATOM      3  C4  UNL d   1       1.177   0.231   4.067  0.00  0.00     0.002 A 
ATOM      4  C5  UNL d   1       0.377  -0.012   2.952  0.00  0.00    -0.004 A 
ATOM      5  C6  UNL d   1       0.053  -1.322   2.601  0.00  0.00     0.002 A 
ATOM      6  C7  UNL d   1       0.526  -2.388   3.366  0.00  0.00     0.002 A 
ENDROOT
BRANCH   1   7
ATOM      7  C1  UNL d   1       1.798  -3.302   5.346  0.00  0.00     0.055 C 
ATOM      8  C   UNL d   1       3.140  -2.997   5.995  0.00  0.00     0.019 C 
ENDBRANCH   1   7
TORSDOF 1
ENDMDL
