MODEL 1
REMARK minimizedAffinity 14.2472162
REMARK minimizedRMSD -1
REMARK  1 active torsions:
REMARK  status: ('A' for Active; 'I' for Inactive)
REMARK    1  A    between atoms: C1_2  and  C2_3 
ROOT
ATOM      1  C2  UNL d   1      -0.240  -2.718  -4.525  0.00  0.00    -0.077 A 
ATOM      2  C3  UNL d   1      -0.088  -3.503  -5.677  0.00  0.00     0.002 A 
ATOM      3  C4  UNL d   1      -1.033  -4.481  -5.994  0.00  0.00     0.002 A 
ATOM      4  C5  UNL d   1      -2.137  -4.680  -5.168  0.00  0.00    -0.004 A 
ATOM      5  C6  UNL d   1      -2.296  -3.905  -4.020  0.00  0.00     0.002 A 
ATOM      6  C7  UNL d   1      -1.352  -2.928  -3.700  0.00  0.00     0.002 A 
ENDROOT
BRANCH   1   7
ATOM      7  C1  UNL d   1       0.752  -1.630  -4.207  0.00  0.00     0.055 C 
ATOM      8  C   UNL d   1       0.076  -0.269  -4.134  0.00  0.00     0.019 C 
ENDBRANCH   1   7
TORSDOF 1
ENDMDL
