MODEL 1
REMARK minimizedAffinity 9.28434563
REMARK minimizedRMSD -1
REMARK  1 active torsions:
REMARK  status: ('A' for Active; 'I' for Inactive)
REMARK    1  A    between atoms: C1_2  and  C2_3 
ROOT
ATOM      1  C2  UNL d   1      -0.704  -0.986   2.499  0.00  0.00    -0.077 A 
ATOM      2  C3  UNL d   1       0.134   0.095   2.189  0.00  0.00     0.002 A 
ATOM      3  C4  UNL d   1       1.507   0.016   2.433  0.00  0.00     0.002 A 
ATOM      4  C5  UNL d   1       2.053  -1.142   2.982  0.00  0.00    -0.004 A 
ATOM      5  C6  UNL d   1       1.228  -2.221   3.295  0.00  0.00     0.002 A 
ATOM      6  C7  UNL d   1      -0.144  -2.144   3.054  0.00  0.00     0.002 A 
ENDROOT
BRANCH   1   7
ATOM      7  C1  UNL d   1      -2.177  -0.921   2.191  0.00  0.00     0.055 C 
ATOM      8  C   UNL d   1      -2.807  -2.307   2.205  0.00  0.00     0.019 C 
ENDBRANCH   1   7
TORSDOF 1
ENDMDL
