MODEL 1
REMARK minimizedAffinity 10.1440945
REMARK minimizedRMSD -1
REMARK  1 active torsions:
REMARK  status: ('A' for Active; 'I' for Inactive)
REMARK    1  A    between atoms: C1_2  and  C2_3 
ROOT
ATOM      1  C2  UNL d   1       3.461   0.426  -4.649  0.00  0.00    -0.077 A 
ATOM      2  C3  UNL d   1       2.096   0.748  -4.653  0.00  0.00     0.002 A 
ATOM      3  C4  UNL d   1       1.138  -0.236  -4.398  0.00  0.00     0.002 A 
ATOM      4  C5  UNL d   1       1.535  -1.545  -4.133  0.00  0.00    -0.004 A 
ATOM      5  C6  UNL d   1       2.889  -1.875  -4.129  0.00  0.00     0.002 A 
ATOM      6  C7  UNL d   1       3.848  -0.893  -4.385  0.00  0.00     0.002 A 
ENDROOT
BRANCH   1   7
ATOM      7  C1  UNL d   1       4.497   1.496  -4.875  0.00  0.00     0.055 C 
ATOM      8  C   UNL d   1       5.450   1.114  -5.999  0.00  0.00     0.019 C 
ENDBRANCH   1   7
TORSDOF 1
ENDMDL
