MODEL 1
REMARK minimizedAffinity 5.91636133
REMARK minimizedRMSD -1
REMARK  1 active torsions:
REMARK  status: ('A' for Active; 'I' for Inactive)
REMARK    1  A    between atoms: C1_2  and  C2_3 
ROOT
ATOM      1  C2  UNL d   1      -0.943  -2.690  -4.117  0.00  0.00    -0.077 A 
ATOM      2  C3  UNL d   1      -1.434  -2.026  -2.984  0.00  0.00     0.002 A 
ATOM      3  C4  UNL d   1      -0.931  -0.774  -2.625  0.00  0.00     0.002 A 
ATOM      4  C5  UNL d   1       0.063  -0.174  -3.396  0.00  0.00    -0.004 A 
ATOM      5  C6  UNL d   1       0.560  -0.827  -4.523  0.00  0.00     0.002 A 
ATOM      6  C7  UNL d   1       0.058  -2.079  -4.883  0.00  0.00     0.002 A 
ENDROOT
BRANCH   1   7
ATOM      7  C1  UNL d   1      -1.519  -4.018  -4.534  0.00  0.00     0.055 C 
ATOM      8  C   UNL d   1      -1.935  -4.006  -5.998  0.00  0.00     0.019 C 
ENDBRANCH   1   7
TORSDOF 1
ENDMDL
