MODEL 1
REMARK minimizedAffinity 8.16639328
REMARK minimizedRMSD -1
REMARK  1 active torsions:
REMARK  status: ('A' for Active; 'I' for Inactive)
REMARK    1  A    between atoms: C1_2  and  C2_3 
ROOT
ATOM      1  C2  UNL d   1       2.700  -0.474  -5.426  0.00  0.00    -0.077 A 
ATOM      2  C3  UNL d   1       2.561  -1.796  -4.980  0.00  0.00     0.002 A 
ATOM      3  C4  UNL d   1       1.334  -2.251  -4.492  0.00  0.00     0.002 A 
ATOM      4  C5  UNL d   1       0.238  -1.393  -4.450  0.00  0.00    -0.004 A 
ATOM      5  C6  UNL d   1       0.367  -0.076  -4.889  0.00  0.00     0.002 A 
ATOM      6  C7  UNL d   1       1.592   0.382  -5.375  0.00  0.00     0.002 A 
ENDROOT
BRANCH   1   7
ATOM      7  C1  UNL d   1       4.009   0.005  -5.998  0.00  0.00     0.055 C 
ATOM      8  C   UNL d   1       4.489   1.269  -5.299  0.00  0.00     0.019 C 
ENDBRANCH   1   7
TORSDOF 1
ENDMDL
