MODEL 1
REMARK minimizedAffinity -5.61560822
REMARK minimizedRMSD -1
REMARK  0 active torsions:
REMARK  status: ('A' for Active; 'I' for Inactive)
ROOT
ATOM      1  C1  DEN d   1      -0.419  -2.026   1.205  0.00  0.00     0.130 A 
ATOM      2  C2  DEN d   1       0.889  -2.674   1.245  0.00  0.00    -0.031 A 
ATOM      3  C3  DEN d   1       1.846  -1.817   0.517  0.00  0.00     0.027 A 
ATOM      4  C4  DEN d   1       1.432   0.442  -0.658  0.00  0.00     0.027 A 
ATOM      5  C5  DEN d   1       0.480   1.387  -0.969  0.00  0.00    -0.003 A 
ATOM      6  C6  DEN d   1      -0.834   1.246  -0.610  0.00  0.00     0.001 A 
ATOM      7  C7  DEN d   1      -1.224   0.156   0.122  0.00  0.00     0.017 A 
ATOM      8  C8  DEN d   1      -0.272  -0.805   0.433  0.00  0.00    -0.094 A 
ATOM      9  C9  DEN d   1       1.054  -0.639   0.071  0.00  0.00    -0.072 A 
ENDROOT
TORSDOF 0
ENDMDL
