MODEL 1
REMARK minimizedAffinity -3.83587599
REMARK minimizedRMSD -1
REMARK  0 active torsions:
REMARK  status: ('A' for Active; 'I' for Inactive)
ROOT
ATOM      1  C1  DEN d   1      -1.568   0.228  -0.356  0.00  0.00     0.130 A 
ATOM      2  C2  DEN d   1      -1.231   1.432  -1.110  0.00  0.00    -0.031 A 
ATOM      3  C3  DEN d   1       0.237   1.588  -1.090  0.00  0.00     0.027 A 
ATOM      4  C4  DEN d   1       2.013   0.087   0.027  0.00  0.00     0.027 A 
ATOM      5  C5  DEN d   1       2.209  -1.043   0.790  0.00  0.00    -0.003 A 
ATOM      6  C6  DEN d   1       1.166  -1.803   1.250  0.00  0.00     0.001 A 
ATOM      7  C7  DEN d   1      -0.119  -1.468   0.912  0.00  0.00     0.017 A 
ATOM      8  C8  DEN d   1      -0.324  -0.326   0.149  0.00  0.00    -0.094 A 
ATOM      9  C9  DEN d   1       0.744   0.422  -0.316  0.00  0.00    -0.072 A 
ENDROOT
TORSDOF 0
ENDMDL
