MODEL 1
REMARK minimizedAffinity -1.81459475
REMARK minimizedRMSD -1
REMARK  0 active torsions:
REMARK  status: ('A' for Active; 'I' for Inactive)
ROOT
ATOM      1  C1  DEN d   1       0.691   0.762  -0.680  0.00  0.00     0.130 A 
ATOM      2  C2  DEN d   1      -0.736   1.067  -0.745  0.00  0.00    -0.031 A 
ATOM      3  C3  DEN d   1      -1.472  -0.069  -0.154  0.00  0.00     0.027 A 
ATOM      4  C4  DEN d   1      -0.546  -2.256   0.853  0.00  0.00     0.027 A 
ATOM      5  C5  DEN d   1       0.600  -2.972   1.119  0.00  0.00    -0.003 A 
ATOM      6  C6  DEN d   1       1.844  -2.512   0.777  0.00  0.00     0.001 A 
ATOM      7  C7  DEN d   1       1.975  -1.282   0.189  0.00  0.00     0.017 A 
ATOM      8  C8  DEN d   1       0.824  -0.558  -0.090  0.00  0.00    -0.094 A 
ATOM      9  C9  DEN d   1      -0.424  -1.034   0.275  0.00  0.00    -0.072 A 
ENDROOT
TORSDOF 0
ENDMDL
