MODEL 1
REMARK minimizedAffinity -5.15896845
REMARK minimizedRMSD -1
REMARK  0 active torsions:
REMARK  status: ('A' for Active; 'I' for Inactive)
ROOT
ATOM      1  C1  DEN d   1      -0.139  -1.971   1.107  0.00  0.00     0.130 A 
ATOM      2  C2  DEN d   1       1.178  -2.601   1.058  0.00  0.00    -0.031 A 
ATOM      3  C3  DEN d   1       2.088  -1.700   0.322  0.00  0.00     0.027 A 
ATOM      4  C4  DEN d   1       1.589   0.598  -0.738  0.00  0.00     0.027 A 
ATOM      5  C5  DEN d   1       0.612   1.541  -0.965  0.00  0.00    -0.003 A 
ATOM      6  C6  DEN d   1      -0.682   1.366  -0.550  0.00  0.00     0.001 A 
ATOM      7  C7  DEN d   1      -1.023   0.241   0.154  0.00  0.00     0.017 A 
ATOM      8  C8  DEN d   1      -0.044  -0.718   0.380  0.00  0.00    -0.094 A 
ATOM      9  C9  DEN d   1       1.261  -0.517  -0.037  0.00  0.00    -0.072 A 
ENDROOT
TORSDOF 0
ENDMDL
