MODEL 1
REMARK minimizedAffinity -3.18975425
REMARK minimizedRMSD -1
REMARK  0 active torsions:
REMARK  status: ('A' for Active; 'I' for Inactive)
ROOT
ATOM      1  C1  DEN d   1       0.028  -2.453   1.184  0.00  0.00     0.130 A 
ATOM      2  C2  DEN d   1       1.407  -2.889   0.983  0.00  0.00    -0.031 A 
ATOM      3  C3  DEN d   1       2.140  -1.793   0.320  0.00  0.00     0.027 A 
ATOM      4  C4  DEN d   1       1.280   0.528  -0.407  0.00  0.00     0.027 A 
ATOM      5  C5  DEN d   1       0.177   1.351  -0.457  0.00  0.00    -0.003 A 
ATOM      6  C6  DEN d   1      -1.051   0.955   0.002  0.00  0.00     0.001 A 
ATOM      7  C7  DEN d   1      -1.196  -0.282   0.573  0.00  0.00     0.017 A 
ATOM      8  C8  DEN d   1      -0.090  -1.121   0.620  0.00  0.00    -0.094 A 
ATOM      9  C9  DEN d   1       1.146  -0.697   0.162  0.00  0.00    -0.072 A 
ENDROOT
TORSDOF 0
ENDMDL
