MODEL 1
REMARK minimizedAffinity -4.79281807
REMARK minimizedRMSD -1
REMARK  0 active torsions:
REMARK  status: ('A' for Active; 'I' for Inactive)
ROOT
ATOM      1  C1  DEN d   1       0.309   1.368  -1.201  0.00  0.00     0.130 A 
ATOM      2  C2  DEN d   1      -0.932   1.623  -0.474  0.00  0.00    -0.031 A 
ATOM      3  C3  DEN d   1      -1.090   0.564   0.542  0.00  0.00     0.027 A 
ATOM      4  C4  DEN d   1       0.458  -1.433   1.061  0.00  0.00     0.027 A 
ATOM      5  C5  DEN d   1       1.623  -2.073   0.700  0.00  0.00    -0.003 A 
ATOM      6  C6  DEN d   1       2.408  -1.634  -0.333  0.00  0.00     0.001 A 
ATOM      7  C7  DEN d   1       2.060  -0.497  -1.013  0.00  0.00     0.017 A 
ATOM      8  C8  DEN d   1       0.883   0.150  -0.661  0.00  0.00    -0.094 A 
ATOM      9  C9  DEN d   1       0.110  -0.303   0.395  0.00  0.00    -0.072 A 
ENDROOT
TORSDOF 0
ENDMDL
