MODEL 1
REMARK minimizedAffinity 3.41027236
REMARK minimizedRMSD -1
REMARK  0 active torsions:
REMARK  status: ('A' for Active; 'I' for Inactive)
ROOT
ATOM      1  C1  DEN d   1      -0.088  -0.314  -1.973  0.00  0.00     0.130 A 
ATOM      2  C2  DEN d   1       0.026   1.074  -1.534  0.00  0.00    -0.031 A 
ATOM      3  C3  DEN d   1      -0.350   1.134  -0.107  0.00  0.00     0.027 A 
ATOM      4  C4  DEN d   1      -1.090  -0.778   1.458  0.00  0.00     0.027 A 
ATOM      5  C5  DEN d   1      -1.349  -2.129   1.534  0.00  0.00    -0.003 A 
ATOM      6  C6  DEN d   1      -1.240  -2.957   0.449  0.00  0.00     0.001 A 
ATOM      7  C7  DEN d   1      -0.818  -2.449  -0.752  0.00  0.00     0.017 A 
ATOM      8  C8  DEN d   1      -0.562  -1.087  -0.839  0.00  0.00    -0.094 A 
ATOM      9  C9  DEN d   1      -0.666  -0.269   0.273  0.00  0.00    -0.072 A 
ENDROOT
TORSDOF 0
ENDMDL
