MODEL 1
REMARK minimizedAffinity -3.26257181
REMARK minimizedRMSD -1
REMARK  0 active torsions:
REMARK  status: ('A' for Active; 'I' for Inactive)
ROOT
ATOM      1  C1  DEN d   1      -1.662   0.047   0.600  0.00  0.00     0.130 A 
ATOM      2  C2  DEN d   1      -1.500   1.213  -0.264  0.00  0.00    -0.031 A 
ATOM      3  C3  DEN d   1      -0.133   1.181  -0.822  0.00  0.00     0.027 A 
ATOM      4  C4  DEN d   1       1.737  -0.553  -0.436  0.00  0.00     0.027 A 
ATOM      5  C5  DEN d   1       2.074  -1.712   0.227  0.00  0.00    -0.003 A 
ATOM      6  C6  DEN d   1       1.208  -2.343   1.080  0.00  0.00     0.001 A 
ATOM      7  C7  DEN d   1      -0.055  -1.842   1.258  0.00  0.00     0.017 A 
ATOM      8  C8  DEN d   1      -0.399  -0.670   0.599  0.00  0.00    -0.094 A 
ATOM      9  C9  DEN d   1       0.487  -0.053  -0.269  0.00  0.00    -0.072 A 
ENDROOT
TORSDOF 0
ENDMDL
