MODEL 1
REMARK minimizedAffinity -3.98346734
REMARK minimizedRMSD -1
REMARK  0 active torsions:
REMARK  status: ('A' for Active; 'I' for Inactive)
ROOT
ATOM      1  C1  DEN d   1       0.173  -2.198   1.057  0.00  0.00     0.130 A 
ATOM      2  C2  DEN d   1       1.587  -2.544   0.945  0.00  0.00    -0.031 A 
ATOM      3  C3  DEN d   1       2.283  -1.416   0.294  0.00  0.00     0.027 A 
ATOM      4  C4  DEN d   1       1.314   0.823  -0.542  0.00  0.00     0.027 A 
ATOM      5  C5  DEN d   1       0.164   1.569  -0.676  0.00  0.00    -0.003 A 
ATOM      6  C6  DEN d   1      -1.060   1.101  -0.275  0.00  0.00     0.001 A 
ATOM      7  C7  DEN d   1      -1.154  -0.129   0.320  0.00  0.00     0.017 A 
ATOM      8  C8  DEN d   1       0.000  -0.890   0.451  0.00  0.00    -0.094 A 
ATOM      9  C9  DEN d   1       1.229  -0.394   0.051  0.00  0.00    -0.072 A 
ENDROOT
TORSDOF 0
ENDMDL
