MODEL 1
REMARK minimizedAffinity -5.41061926
REMARK minimizedRMSD -1
REMARK  0 active torsions:
REMARK  status: ('A' for Active; 'I' for Inactive)
ROOT
ATOM      1  C1  DEN d   1       0.086  -2.532   0.920  0.00  0.00     0.130 A 
ATOM      2  C2  DEN d   1       1.519  -2.811   0.919  0.00  0.00    -0.031 A 
ATOM      3  C3  DEN d   1       2.211  -1.649   0.327  0.00  0.00     0.027 A 
ATOM      4  C4  DEN d   1       1.207   0.547  -0.581  0.00  0.00     0.027 A 
ATOM      5  C5  DEN d   1       0.036   1.238  -0.805  0.00  0.00    -0.003 A 
ATOM      6  C6  DEN d   1      -1.192   0.711  -0.503  0.00  0.00     0.001 A 
ATOM      7  C7  DEN d   1      -1.275  -0.525   0.081  0.00  0.00     0.017 A 
ATOM      8  C8  DEN d   1      -0.100  -1.231   0.303  0.00  0.00    -0.094 A 
ATOM      9  C9  DEN d   1       1.132  -0.676   0.002  0.00  0.00    -0.072 A 
ENDROOT
TORSDOF 0
ENDMDL
