MODEL 1
REMARK minimizedAffinity -3.23381424
REMARK minimizedRMSD -1
REMARK  0 active torsions:
REMARK  status: ('A' for Active; 'I' for Inactive)
ROOT
ATOM      1  C1  DEN d   1       0.405  -2.479   1.351  0.00  0.00     0.130 A 
ATOM      2  C2  DEN d   1       1.499  -2.645   0.399  0.00  0.00    -0.031 A 
ATOM      3  C3  DEN d   1       1.606  -1.403  -0.394  0.00  0.00     0.027 A 
ATOM      4  C4  DEN d   1       0.194   0.749  -0.237  0.00  0.00     0.027 A 
ATOM      5  C5  DEN d   1      -0.857   1.357   0.413  0.00  0.00    -0.003 A 
ATOM      6  C6  DEN d   1      -1.577   0.722   1.389  0.00  0.00     0.001 A 
ATOM      7  C7  DEN d   1      -1.227  -0.544   1.776  0.00  0.00     0.017 A 
ATOM      8  C8  DEN d   1      -0.172  -1.167   1.120  0.00  0.00    -0.094 A 
ATOM      9  C9  DEN d   1       0.551  -0.503   0.144  0.00  0.00    -0.072 A 
ENDROOT
TORSDOF 0
ENDMDL
