MODEL 1
REMARK minimizedAffinity -3.70071077
REMARK minimizedRMSD -1
REMARK  0 active torsions:
REMARK  status: ('A' for Active; 'I' for Inactive)
ROOT
ATOM      1  C1  DEN d   1       0.103  -2.314   1.011  0.00  0.00     0.130 A 
ATOM      2  C2  DEN d   1       1.490  -2.718   0.800  0.00  0.00    -0.031 A 
ATOM      3  C3  DEN d   1       2.193  -1.605   0.131  0.00  0.00     0.027 A 
ATOM      4  C4  DEN d   1       1.274   0.695  -0.590  0.00  0.00     0.027 A 
ATOM      5  C5  DEN d   1       0.151   1.492  -0.632  0.00  0.00    -0.003 A 
ATOM      6  C6  DEN d   1      -1.064   1.067  -0.165  0.00  0.00     0.001 A 
ATOM      7  C7  DEN d   1      -1.175  -0.173   0.408  0.00  0.00     0.017 A 
ATOM      8  C8  DEN d   1      -0.050  -0.985   0.447  0.00  0.00    -0.094 A 
ATOM      9  C9  DEN d   1       1.173  -0.533  -0.020  0.00  0.00    -0.072 A 
ENDROOT
TORSDOF 0
ENDMDL
