MODEL 1
REMARK minimizedAffinity -4.41957331
REMARK minimizedRMSD -1
REMARK  0 active torsions:
REMARK  status: ('A' for Active; 'I' for Inactive)
ROOT
ATOM      1  C1  DEN d   1      -0.755   1.745  -1.966  0.00  0.00     0.130 A 
ATOM      2  C2  DEN d   1      -2.181   1.541  -1.727  0.00  0.00    -0.031 A 
ATOM      3  C3  DEN d   1      -2.326   0.495  -0.694  0.00  0.00     0.027 A 
ATOM      4  C4  DEN d   1      -0.490  -0.817   0.555  0.00  0.00     0.027 A 
ATOM      5  C5  DEN d   1       0.869  -0.999   0.683  0.00  0.00    -0.003 A 
ATOM      6  C6  DEN d   1       1.774  -0.310  -0.080  0.00  0.00     0.001 A 
ATOM      7  C7  DEN d   1       1.331   0.628  -0.975  0.00  0.00     0.017 A 
ATOM      8  C8  DEN d   1      -0.038   0.812  -1.116  0.00  0.00    -0.094 A 
ATOM      9  C9  DEN d   1      -0.936   0.114  -0.326  0.00  0.00    -0.072 A 
ENDROOT
TORSDOF 0
ENDMDL
