MODEL 1
REMARK minimizedAffinity -7.56597567
REMARK minimizedRMSD -1
REMARK  0 active torsions:
REMARK  status: ('A' for Active; 'I' for Inactive)
ROOT
ATOM      1  C1  DEN d   1       1.605  -1.630  -0.019  0.00  0.00     0.130 A 
ATOM      2  C2  DEN d   1       0.975  -0.390  -0.463  0.00  0.00    -0.031 A 
ATOM      3  C3  DEN d   1      -0.171  -0.116   0.427  0.00  0.00     0.027 A 
ATOM      4  C4  DEN d   1      -1.023  -1.482   2.442  0.00  0.00     0.027 A 
ATOM      5  C5  DEN d   1      -0.819  -2.617   3.196  0.00  0.00    -0.003 A 
ATOM      6  C6  DEN d   1       0.177  -3.513   2.912  0.00  0.00     0.001 A 
ATOM      7  C7  DEN d   1       1.037  -3.265   1.875  0.00  0.00     0.017 A 
ATOM      8  C8  DEN d   1       0.833  -2.127   1.106  0.00  0.00    -0.094 A 
ATOM      9  C9  DEN d   1      -0.172  -1.227   1.416  0.00  0.00    -0.072 A 
ENDROOT
TORSDOF 0
ENDMDL
