MODEL 1
REMARK minimizedAffinity -4.40629196
REMARK minimizedRMSD -1
REMARK  0 active torsions:
REMARK  status: ('A' for Active; 'I' for Inactive)
ROOT
ATOM      1  C1  DEN d   1      -0.156   1.428  -0.396  0.00  0.00     0.130 A 
ATOM      2  C2  DEN d   1      -1.465   1.101  -0.955  0.00  0.00    -0.031 A 
ATOM      3  C3  DEN d   1      -1.579  -0.370  -1.018  0.00  0.00     0.027 A 
ATOM      4  C4  DEN d   1       0.132  -2.163  -0.303  0.00  0.00     0.027 A 
ATOM      5  C5  DEN d   1       1.391  -2.369   0.218  0.00  0.00    -0.003 A 
ATOM      6  C6  DEN d   1       2.228  -1.333   0.536  0.00  0.00     0.001 A 
ATOM      7  C7  DEN d   1       1.800  -0.041   0.378  0.00  0.00     0.017 A 
ATOM      8  C8  DEN d   1       0.535   0.175  -0.153  0.00  0.00    -0.094 A 
ATOM      9  C9  DEN d   1      -0.301  -0.886  -0.457  0.00  0.00    -0.072 A 
ENDROOT
TORSDOF 0
ENDMDL
