MODEL 1
REMARK minimizedAffinity -5.22338963
REMARK minimizedRMSD -1
REMARK  0 active torsions:
REMARK  status: ('A' for Active; 'I' for Inactive)
ROOT
ATOM      1  C   UNL d   1      -3.066   0.592  -0.779  0.00  0.00     0.077 C 
ATOM      2  C1  UNL d   1      -1.735   0.415  -0.111  0.00  0.00    -0.074 A 
ATOM      3  C2  UNL d   1      -0.559   0.866  -0.719  0.00  0.00    -0.005 A 
ATOM      4  C3  UNL d   1       0.670   0.702  -0.081  0.00  0.00     0.006 A 
ATOM      5  C4  UNL d   1       0.736   0.088   1.170  0.00  0.00    -0.005 A 
ATOM      6  C5  UNL d   1      -0.429  -0.368   1.794  0.00  0.00    -0.074 A 
ATOM      7  C6  UNL d   1      -0.376  -1.022   3.143  0.00  0.00     0.077 C 
ATOM      8  C7  UNL d   1      -1.661  -0.194   1.150  0.00  0.00    -0.001 A 
ENDROOT
TORSDOF 0
ENDMDL
