MODEL 1
REMARK minimizedAffinity -4.20836353
REMARK minimizedRMSD -1
REMARK  0 active torsions:
REMARK  status: ('A' for Active; 'I' for Inactive)
ROOT
ATOM      1  C   UNL d   1      -0.660  -1.028   2.879  0.00  0.00     0.077 C 
ATOM      2  C1  UNL d   1      -0.407  -0.235   1.631  0.00  0.00    -0.074 A 
ATOM      3  C2  UNL d   1      -1.430  -0.007   0.705  0.00  0.00    -0.005 A 
ATOM      4  C3  UNL d   1      -1.183   0.740  -0.446  0.00  0.00     0.006 A 
ATOM      5  C4  UNL d   1       0.088   1.266  -0.683  0.00  0.00    -0.005 A 
ATOM      6  C5  UNL d   1       1.123   1.049   0.232  0.00  0.00    -0.074 A 
ATOM      7  C6  UNL d   1       2.492   1.616  -0.002  0.00  0.00     0.077 C 
ATOM      8  C7  UNL d   1       0.864   0.303   1.390  0.00  0.00    -0.001 A 
ENDROOT
TORSDOF 0
ENDMDL
