MODEL 1
REMARK minimizedAffinity -5.32624054
REMARK minimizedRMSD -1
REMARK  0 active torsions:
REMARK  status: ('A' for Active; 'I' for Inactive)
ROOT
ATOM      1  C   UNL d   1      -0.760  -0.878   2.644  0.00  0.00     0.077 C 
ATOM      2  C1  UNL d   1      -1.003  -0.339   1.266  0.00  0.00    -0.074 A 
ATOM      3  C2  UNL d   1      -2.294  -0.018   0.837  0.00  0.00    -0.005 A 
ATOM      4  C3  UNL d   1      -2.503   0.491  -0.445  0.00  0.00     0.006 A 
ATOM      5  C4  UNL d   1      -1.425   0.683  -1.309  0.00  0.00    -0.005 A 
ATOM      6  C5  UNL d   1      -0.126   0.368  -0.897  0.00  0.00    -0.074 A 
ATOM      7  C6  UNL d   1       1.046   0.578  -1.810  0.00  0.00     0.077 C 
ATOM      8  C7  UNL d   1       0.077  -0.136   0.394  0.00  0.00    -0.001 A 
ENDROOT
TORSDOF 0
ENDMDL
