MODEL 1
REMARK minimizedAffinity -6.07060862
REMARK minimizedRMSD -1
REMARK  0 active torsions:
REMARK  status: ('A' for Active; 'I' for Inactive)
ROOT
ATOM      1  C   UNL d   1       0.324  -0.005  -1.878  0.00  0.00     0.077 C 
ATOM      2  C1  UNL d   1      -0.591   0.163  -0.701  0.00  0.00    -0.074 A 
ATOM      3  C2  UNL d   1      -1.756   0.929  -0.800  0.00  0.00    -0.005 A 
ATOM      4  C3  UNL d   1      -2.602   1.069   0.300  0.00  0.00     0.006 A 
ATOM      5  C4  UNL d   1      -2.291   0.445   1.509  0.00  0.00    -0.005 A 
ATOM      6  C5  UNL d   1      -1.131  -0.327   1.627  0.00  0.00    -0.074 A 
ATOM      7  C6  UNL d   1      -0.787  -1.012   2.916  0.00  0.00     0.077 C 
ATOM      8  C7  UNL d   1      -0.289  -0.468   0.515  0.00  0.00    -0.001 A 
ENDROOT
TORSDOF 0
ENDMDL
