MODEL 1
REMARK minimizedAffinity -1.38108253
REMARK minimizedRMSD -1
REMARK  0 active torsions:
REMARK  status: ('A' for Active; 'I' for Inactive)
ROOT
ATOM      1  C   UNL d   1       0.013   1.890   3.601  0.00  0.00     0.077 C 
ATOM      2  C1  UNL d   1      -0.292   0.801   2.616  0.00  0.00    -0.074 A 
ATOM      3  C2  UNL d   1      -1.035  -0.322   2.993  0.00  0.00    -0.005 A 
ATOM      4  C3  UNL d   1      -1.319  -1.323   2.064  0.00  0.00     0.006 A 
ATOM      5  C4  UNL d   1      -0.864  -1.210   0.749  0.00  0.00    -0.005 A 
ATOM      6  C5  UNL d   1      -0.121  -0.094   0.353  0.00  0.00    -0.074 A 
ATOM      7  C6  UNL d   1       0.367   0.048  -1.058  0.00  0.00     0.077 C 
ATOM      8  C7  UNL d   1       0.155   0.911   1.291  0.00  0.00    -0.001 A 
ENDROOT
TORSDOF 0
ENDMDL
