MODEL 1
REMARK minimizedAffinity -6.07310057
REMARK minimizedRMSD -1
REMARK  0 active torsions:
REMARK  status: ('A' for Active; 'I' for Inactive)
ROOT
ATOM      1  C   UNL d   1      -3.999   0.372   1.509  0.00  0.00     0.077 C 
ATOM      2  C1  UNL d   1      -2.532   0.067   1.564  0.00  0.00    -0.074 A 
ATOM      3  C2  UNL d   1      -1.895  -0.186   2.783  0.00  0.00    -0.005 A 
ATOM      4  C3  UNL d   1      -0.531  -0.477   2.818  0.00  0.00     0.006 A 
ATOM      5  C4  UNL d   1       0.208  -0.518   1.635  0.00  0.00    -0.005 A 
ATOM      6  C5  UNL d   1      -0.411  -0.269   0.406  0.00  0.00    -0.074 A 
ATOM      7  C6  UNL d   1       0.367  -0.320  -0.875  0.00  0.00     0.077 C 
ATOM      8  C7  UNL d   1      -1.783   0.016   0.379  0.00  0.00    -0.001 A 
ENDROOT
TORSDOF 0
ENDMDL
