MODEL 1
REMARK minimizedAffinity -3.59022808
REMARK minimizedRMSD -1
REMARK  0 active torsions:
REMARK  status: ('A' for Active; 'I' for Inactive)
ROOT
ATOM      1  C   UNL d   1       1.732  -0.822  -2.944  0.00  0.00     0.077 C 
ATOM      2  C1  UNL d   1       0.787  -0.261  -1.925  0.00  0.00    -0.074 A 
ATOM      3  C2  UNL d   1      -0.415   0.341  -2.313  0.00  0.00    -0.005 A 
ATOM      4  C3  UNL d   1      -1.289   0.850  -1.352  0.00  0.00     0.006 A 
ATOM      5  C4  UNL d   1      -0.971   0.763   0.004  0.00  0.00    -0.005 A 
ATOM      6  C5  UNL d   1       0.226   0.165   0.411  0.00  0.00    -0.074 A 
ATOM      7  C6  UNL d   1       0.579   0.055   1.864  0.00  0.00     0.077 C 
ATOM      8  C7  UNL d   1       1.096  -0.351  -0.560  0.00  0.00    -0.001 A 
ENDROOT
TORSDOF 0
ENDMDL
