MODEL 1
REMARK minimizedAffinity -6.26193523
REMARK minimizedRMSD -1
REMARK  0 active torsions:
REMARK  status: ('A' for Active; 'I' for Inactive)
ROOT
ATOM      1  C   UNL d   1      -2.621   1.032  -0.662  0.00  0.00     0.077 C 
ATOM      2  C1  UNL d   1      -1.804   0.538   0.495  0.00  0.00    -0.074 A 
ATOM      3  C2  UNL d   1      -2.402   0.246   1.725  0.00  0.00    -0.005 A 
ATOM      4  C3  UNL d   1      -1.631  -0.222   2.789  0.00  0.00     0.006 A 
ATOM      5  C4  UNL d   1      -0.256  -0.402   2.634  0.00  0.00    -0.005 A 
ATOM      6  C5  UNL d   1       0.360  -0.116   1.411  0.00  0.00    -0.074 A 
ATOM      7  C6  UNL d   1       1.835  -0.314   1.225  0.00  0.00     0.077 C 
ATOM      8  C7  UNL d   1      -0.423   0.347   0.345  0.00  0.00    -0.001 A 
ENDROOT
TORSDOF 0
ENDMDL
