MODEL 1
REMARK minimizedAffinity -4.7544899
REMARK minimizedRMSD -1
REMARK  0 active torsions:
REMARK  status: ('A' for Active; 'I' for Inactive)
ROOT
ATOM      1  C   UNL d   1       2.365   0.262   2.030  0.00  0.00     0.077 C 
ATOM      2  C1  UNL d   1       1.109   0.156   1.218  0.00  0.00    -0.074 A 
ATOM      3  C2  UNL d   1      -0.146   0.356   1.803  0.00  0.00    -0.005 A 
ATOM      4  C3  UNL d   1      -1.304   0.263   1.033  0.00  0.00     0.006 A 
ATOM      5  C4  UNL d   1      -1.221  -0.030  -0.329  0.00  0.00    -0.005 A 
ATOM      6  C5  UNL d   1       0.024  -0.232  -0.932  0.00  0.00    -0.074 A 
ATOM      7  C6  UNL d   1       0.132  -0.537  -2.397  0.00  0.00     0.077 C 
ATOM      8  C7  UNL d   1       1.185  -0.130  -0.153  0.00  0.00    -0.001 A 
ENDROOT
TORSDOF 0
ENDMDL
