MODEL 1
REMARK minimizedAffinity -5.76167631
REMARK minimizedRMSD -1
REMARK  0 active torsions:
REMARK  status: ('A' for Active; 'I' for Inactive)
ROOT
ATOM      1  C   UNL d   1       0.701  -0.094  -1.181  0.00  0.00     0.077 C 
ATOM      2  C1  UNL d   1       0.162  -0.145   0.217  0.00  0.00    -0.074 A 
ATOM      3  C2  UNL d   1       0.938  -0.641   1.269  0.00  0.00    -0.005 A 
ATOM      4  C3  UNL d   1       0.426  -0.674   2.566  0.00  0.00     0.006 A 
ATOM      5  C4  UNL d   1      -0.865  -0.212   2.824  0.00  0.00    -0.005 A 
ATOM      6  C5  UNL d   1      -1.656   0.289   1.785  0.00  0.00    -0.074 A 
ATOM      7  C6  UNL d   1      -3.042   0.799   2.046  0.00  0.00     0.077 C 
ATOM      8  C7  UNL d   1      -1.131   0.325   0.485  0.00  0.00    -0.001 A 
ENDROOT
TORSDOF 0
ENDMDL
