MODEL 1
REMARK minimizedAffinity -5.96053362
REMARK minimizedRMSD -1
REMARK  0 active torsions:
REMARK  status: ('A' for Active; 'I' for Inactive)
ROOT
ATOM      1  C   UNL d   1       1.754   0.413   0.664  0.00  0.00     0.077 C 
ATOM      2  C1  UNL d   1       0.475   0.052   1.360  0.00  0.00    -0.074 A 
ATOM      3  C2  UNL d   1       0.490  -0.564   2.616  0.00  0.00    -0.005 A 
ATOM      4  C3  UNL d   1      -0.708  -0.885   3.255  0.00  0.00     0.006 A 
ATOM      5  C4  UNL d   1      -1.929  -0.594   2.647  0.00  0.00    -0.005 A 
ATOM      6  C5  UNL d   1      -1.963   0.023   1.392  0.00  0.00    -0.074 A 
ATOM      7  C6  UNL d   1      -3.267   0.352   0.729  0.00  0.00     0.077 C 
ATOM      8  C7  UNL d   1      -0.756   0.349   0.759  0.00  0.00    -0.001 A 
ENDROOT
TORSDOF 0
ENDMDL
