MODEL 1
REMARK minimizedAffinity -2.45113635
REMARK minimizedRMSD -1
REMARK  0 active torsions:
REMARK  status: ('A' for Active; 'I' for Inactive)
ROOT
ATOM      1  C   UNL d   1      -2.506   0.457  -1.149  0.00  0.00     0.077 C 
ATOM      2  C1  UNL d   1      -1.336   0.268  -0.230  0.00  0.00    -0.074 A 
ATOM      3  C2  UNL d   1      -0.051   0.667  -0.610  0.00  0.00    -0.005 A 
ATOM      4  C3  UNL d   1       1.026   0.493   0.260  0.00  0.00     0.006 A 
ATOM      5  C4  UNL d   1       0.828  -0.081   1.517  0.00  0.00    -0.005 A 
ATOM      6  C5  UNL d   1      -0.450  -0.485   1.914  0.00  0.00    -0.074 A 
ATOM      7  C6  UNL d   1      -0.681  -1.094   3.265  0.00  0.00     0.077 C 
ATOM      8  C7  UNL d   1      -1.528  -0.301   1.038  0.00  0.00    -0.001 A 
ENDROOT
TORSDOF 0
ENDMDL
