MODEL 1
REMARK minimizedAffinity -4.56893349
REMARK minimizedRMSD -1
REMARK  0 active torsions:
REMARK  status: ('A' for Active; 'I' for Inactive)
ROOT
ATOM      1  C   UNL d   1      -0.522  -0.542  -1.477  0.00  0.00     0.077 C 
ATOM      2  C1  UNL d   1      -0.158  -0.386  -0.030  0.00  0.00    -0.074 A 
ATOM      3  C2  UNL d   1       1.146  -0.051   0.350  0.00  0.00    -0.005 A 
ATOM      4  C3  UNL d   1       1.468   0.099   1.699  0.00  0.00     0.006 A 
ATOM      5  C4  UNL d   1       0.491  -0.083   2.679  0.00  0.00    -0.005 A 
ATOM      6  C5  UNL d   1      -0.818  -0.417   2.317  0.00  0.00    -0.074 A 
ATOM      7  C6  UNL d   1      -1.882  -0.606   3.357  0.00  0.00     0.077 C 
ATOM      8  C7  UNL d   1      -1.135  -0.559   0.960  0.00  0.00    -0.001 A 
ENDROOT
TORSDOF 0
ENDMDL
