MODEL 1
REMARK minimizedAffinity -1.42904663
REMARK minimizedRMSD -1
REMARK  0 active torsions:
REMARK  status: ('A' for Active; 'I' for Inactive)
ROOT
ATOM      1  C   UNL d   1       1.275   0.152  -2.919  0.00  0.00     0.077 C 
ATOM      2  C1  UNL d   1       0.278   0.378  -1.821  0.00  0.00    -0.074 A 
ATOM      3  C2  UNL d   1      -1.047   0.716  -2.113  0.00  0.00    -0.005 A 
ATOM      4  C3  UNL d   1      -1.966   0.913  -1.082  0.00  0.00     0.006 A 
ATOM      5  C4  UNL d   1      -1.570   0.775   0.248  0.00  0.00    -0.005 A 
ATOM      6  C5  UNL d   1      -0.249   0.437   0.559  0.00  0.00    -0.074 A 
ATOM      7  C6  UNL d   1       0.192   0.274   1.984  0.00  0.00     0.077 C 
ATOM      8  C7  UNL d   1       0.667   0.233  -0.482  0.00  0.00    -0.001 A 
ENDROOT
TORSDOF 0
ENDMDL
