MODEL 1
REMARK minimizedAffinity -2.22020626
REMARK minimizedRMSD -1
REMARK  0 active torsions:
REMARK  status: ('A' for Active; 'I' for Inactive)
ROOT
ATOM      1  C   UNL d   1      -1.898  -2.000   1.918  0.00  0.00     0.077 C 
ATOM      2  C1  UNL d   1      -0.946  -0.947   1.435  0.00  0.00    -0.074 A 
ATOM      3  C2  UNL d   1      -0.406  -0.006   2.317  0.00  0.00    -0.005 A 
ATOM      4  C3  UNL d   1       0.486   0.962   1.855  0.00  0.00     0.006 A 
ATOM      5  C4  UNL d   1       0.847   0.998   0.508  0.00  0.00    -0.005 A 
ATOM      6  C5  UNL d   1       0.319   0.064  -0.389  0.00  0.00    -0.074 A 
ATOM      7  C6  UNL d   1       0.704   0.083  -1.839  0.00  0.00     0.077 C 
ATOM      8  C7  UNL d   1      -0.572  -0.909   0.084  0.00  0.00    -0.001 A 
ENDROOT
TORSDOF 0
ENDMDL
