MODEL 1
REMARK minimizedAffinity -1.00606072
REMARK minimizedRMSD -1
REMARK  2 active torsions:
REMARK  status: ('A' for Active; 'I' for Inactive)
REMARK    1  A    between atoms: C1_2  and  C2_3 
REMARK    2  A    between atoms: C2_3  and  C3_4 
ROOT
ATOM      1  C3  UNL d   1       0.589   1.039  -0.506  0.00  0.00    -0.075 A 
ATOM      2  C4  UNL d   1       1.947   0.796  -0.254  0.00  0.00     0.002 A 
ATOM      3  C5  UNL d   1       2.377  -0.468   0.151  0.00  0.00     0.002 A 
ATOM      4  C6  UNL d   1       1.456  -1.500   0.319  0.00  0.00    -0.004 A 
ATOM      5  C7  UNL d   1       0.102  -1.265   0.088  0.00  0.00     0.002 A 
ATOM      6  C8  UNL d   1      -0.330  -0.002  -0.322  0.00  0.00     0.002 A 
ENDROOT
BRANCH   1   7
ATOM      7  C2  UNL d   1       0.121   2.397  -0.973  0.00  0.00     0.056 C 
BRANCH   7   8
ATOM      8  C1  UNL d   1      -0.017   3.430   0.151  0.00  0.00     0.007 C 
ATOM      9  C   UNL d   1      -0.593   2.846   1.435  0.00  0.00     0.009 C 
ENDBRANCH   7   8
ENDBRANCH   1   7
TORSDOF 2
ENDMDL
