MODEL 1
REMARK minimizedAffinity -3.73857713
REMARK minimizedRMSD -1
REMARK  2 active torsions:
REMARK  status: ('A' for Active; 'I' for Inactive)
REMARK    1  A    between atoms: C1_2  and  C2_3 
REMARK    2  A    between atoms: C2_3  and  C3_4 
ROOT
ATOM      1  C3  UNL d   1      -0.027   0.230   0.006  0.00  0.00    -0.075 A 
ATOM      2  C4  UNL d   1       0.828   1.106  -0.678  0.00  0.00     0.002 A 
ATOM      3  C5  UNL d   1       0.660   2.487  -0.572  0.00  0.00     0.002 A 
ATOM      4  C6  UNL d   1      -0.370   3.008   0.208  0.00  0.00    -0.004 A 
ATOM      5  C7  UNL d   1      -1.237   2.146   0.878  0.00  0.00     0.002 A 
ATOM      6  C8  UNL d   1      -1.067   0.764   0.777  0.00  0.00     0.002 A 
ENDROOT
BRANCH   1   7
ATOM      7  C2  UNL d   1       0.168  -1.265  -0.081  0.00  0.00     0.056 C 
BRANCH   7   8
ATOM      8  C1  UNL d   1      -1.138  -2.066  -0.083  0.00  0.00     0.007 C 
ATOM      9  C   UNL d   1      -1.154  -3.187  -1.113  0.00  0.00     0.009 C 
ENDBRANCH   7   8
ENDBRANCH   1   7
TORSDOF 2
ENDMDL
