MODEL 1
REMARK minimizedAffinity -5.41731977
REMARK minimizedRMSD -1
REMARK  2 active torsions:
REMARK  status: ('A' for Active; 'I' for Inactive)
REMARK    1  A    between atoms: C1_2  and  C2_3 
REMARK    2  A    between atoms: C2_3  and  C3_4 
ROOT
ATOM      1  C3  UNL d   1      -0.347  -0.344   0.046  0.00  0.00    -0.075 A 
ATOM      2  C4  UNL d   1       0.788   0.272  -0.501  0.00  0.00     0.002 A 
ATOM      3  C5  UNL d   1       0.890   1.663  -0.540  0.00  0.00     0.002 A 
ATOM      4  C6  UNL d   1      -0.143   2.454  -0.043  0.00  0.00    -0.004 A 
ATOM      5  C7  UNL d   1      -1.283   1.853   0.487  0.00  0.00     0.002 A 
ATOM      6  C8  UNL d   1      -1.385   0.461   0.531  0.00  0.00     0.002 A 
ENDROOT
BRANCH   1   7
ATOM      7  C2  UNL d   1      -0.450  -1.849   0.117  0.00  0.00     0.056 C 
BRANCH   7   8
ATOM      8  C1  UNL d   1      -1.236  -2.476  -1.039  0.00  0.00     0.007 C 
ATOM      9  C   UNL d   1      -0.368  -2.803  -2.247  0.00  0.00     0.009 C 
ENDBRANCH   7   8
ENDBRANCH   1   7
TORSDOF 2
ENDMDL
