MODEL 1
REMARK minimizedAffinity 3.28262687
REMARK minimizedRMSD -1
REMARK  2 active torsions:
REMARK  status: ('A' for Active; 'I' for Inactive)
REMARK    1  A    between atoms: C1_2  and  C2_3 
REMARK    2  A    between atoms: C2_3  and  C3_4 
ROOT
ATOM      1  C3  UNL d   1       0.994   2.344   1.004  0.00  0.00    -0.075 A 
ATOM      2  C4  UNL d   1       2.024   3.182   1.457  0.00  0.00     0.002 A 
ATOM      3  C5  UNL d   1       3.358   2.792   1.337  0.00  0.00     0.002 A 
ATOM      4  C6  UNL d   1       3.679   1.560   0.772  0.00  0.00    -0.004 A 
ATOM      5  C7  UNL d   1       2.664   0.713   0.334  0.00  0.00     0.002 A 
ATOM      6  C8  UNL d   1       1.328   1.101   0.449  0.00  0.00     0.002 A 
ENDROOT
BRANCH   1   7
ATOM      7  C2  UNL d   1      -0.450   2.772   1.104  0.00  0.00     0.056 C 
BRANCH   7   8
ATOM      8  C1  UNL d   1      -1.235   2.630  -0.204  0.00  0.00     0.007 C 
ATOM      9  C   UNL d   1      -2.702   2.279   0.011  0.00  0.00     0.009 C 
ENDBRANCH   7   8
ENDBRANCH   1   7
TORSDOF 2
ENDMDL
