MODEL 1
REMARK minimizedAffinity -5.02965307
REMARK minimizedRMSD -1
REMARK  2 active torsions:
REMARK  status: ('A' for Active; 'I' for Inactive)
REMARK    1  A    between atoms: C1_2  and  C2_3 
REMARK    2  A    between atoms: C2_3  and  C3_4 
ROOT
ATOM      1  C3  UNL d   1       0.151   0.707   0.548  0.00  0.00    -0.075 A 
ATOM      2  C4  UNL d   1       1.546   0.836   0.480  0.00  0.00     0.002 A 
ATOM      3  C5  UNL d   1       2.133   2.083   0.262  0.00  0.00     0.002 A 
ATOM      4  C6  UNL d   1       1.334   3.213   0.100  0.00  0.00    -0.004 A 
ATOM      5  C7  UNL d   1      -0.054   3.093   0.149  0.00  0.00     0.002 A 
ATOM      6  C8  UNL d   1      -0.643   1.847   0.371  0.00  0.00     0.002 A 
ENDROOT
BRANCH   1   7
ATOM      7  C2  UNL d   1      -0.488  -0.635   0.813  0.00  0.00     0.056 C 
BRANCH   7   8
ATOM      8  C1  UNL d   1       0.333  -1.828   0.312  0.00  0.00     0.007 C 
ATOM      9  C   UNL d   1      -0.459  -2.767  -0.588  0.00  0.00     0.009 C 
ENDBRANCH   7   8
ENDBRANCH   1   7
TORSDOF 2
ENDMDL
