MODEL 1
REMARK minimizedAffinity 1.18154526
REMARK minimizedRMSD -1
REMARK  2 active torsions:
REMARK  status: ('A' for Active; 'I' for Inactive)
REMARK    1  A    between atoms: C1_2  and  C2_3 
REMARK    2  A    between atoms: C2_3  and  C3_4 
ROOT
ATOM      1  C3  UNL d   1       0.201   0.844   0.438  0.00  0.00    -0.075 A 
ATOM      2  C4  UNL d   1      -0.955   1.638   0.432  0.00  0.00     0.002 A 
ATOM      3  C5  UNL d   1      -0.914   2.948  -0.046  0.00  0.00     0.002 A 
ATOM      4  C6  UNL d   1       0.284   3.484  -0.514  0.00  0.00    -0.004 A 
ATOM      5  C7  UNL d   1       1.443   2.710  -0.498  0.00  0.00     0.002 A 
ATOM      6  C8  UNL d   1       1.403   1.398  -0.024  0.00  0.00     0.002 A 
ENDROOT
BRANCH   1   7
ATOM      7  C2  UNL d   1       0.156  -0.584   0.926  0.00  0.00     0.056 C 
BRANCH   7   8
ATOM      8  C1  UNL d   1       1.108  -1.528   0.183  0.00  0.00     0.007 C 
ATOM      9  C   UNL d   1       0.383  -2.567  -0.663  0.00  0.00     0.009 C 
ENDBRANCH   7   8
ENDBRANCH   1   7
TORSDOF 2
ENDMDL
