MODEL 1
REMARK minimizedAffinity -5.94406414
REMARK minimizedRMSD -1
REMARK  2 active torsions:
REMARK  status: ('A' for Active; 'I' for Inactive)
REMARK    1  A    between atoms: C1_2  and  C2_3 
REMARK    2  A    between atoms: C2_3  and  C3_4 
ROOT
ATOM      1  C3  UNL d   1       0.011  -0.191  -0.051  0.00  0.00    -0.075 A 
ATOM      2  C4  UNL d   1      -0.493  -0.319  -1.353  0.00  0.00     0.002 A 
ATOM      3  C5  UNL d   1      -1.224  -1.448  -1.723  0.00  0.00     0.002 A 
ATOM      4  C6  UNL d   1      -1.453  -2.466  -0.800  0.00  0.00    -0.004 A 
ATOM      5  C7  UNL d   1      -0.943  -2.358   0.492  0.00  0.00     0.002 A 
ATOM      6  C8  UNL d   1      -0.214  -1.227   0.866  0.00  0.00     0.002 A 
ENDROOT
BRANCH   1   7
ATOM      7  C2  UNL d   1       0.778   1.041   0.364  0.00  0.00     0.056 C 
BRANCH   7   8
ATOM      8  C1  UNL d   1      -0.063   2.322   0.383  0.00  0.00     0.007 C 
ATOM      9  C   UNL d   1      -1.335   2.193   1.210  0.00  0.00     0.009 C 
ENDBRANCH   7   8
ENDBRANCH   1   7
TORSDOF 2
ENDMDL
