MODEL 1
REMARK minimizedAffinity -3.69031835
REMARK minimizedRMSD -1
REMARK  2 active torsions:
REMARK  status: ('A' for Active; 'I' for Inactive)
REMARK    1  A    between atoms: C1_2  and  C2_3 
REMARK    2  A    between atoms: C2_3  and  C3_4 
ROOT
ATOM      1  C3  UNL d   1       0.231  -0.827   0.206  0.00  0.00    -0.075 A 
ATOM      2  C4  UNL d   1      -0.379   0.429   0.076  0.00  0.00     0.002 A 
ATOM      3  C5  UNL d   1       0.382   1.597   0.138  0.00  0.00     0.002 A 
ATOM      4  C6  UNL d   1       1.759   1.524   0.340  0.00  0.00    -0.004 A 
ATOM      5  C7  UNL d   1       2.373   0.282   0.486  0.00  0.00     0.002 A 
ATOM      6  C8  UNL d   1       1.614  -0.888   0.421  0.00  0.00     0.002 A 
ENDROOT
BRANCH   1   7
ATOM      7  C2  UNL d   1      -0.584  -2.095   0.111  0.00  0.00     0.056 C 
BRANCH   7   8
ATOM      8  C1  UNL d   1      -0.528  -2.770  -1.263  0.00  0.00     0.007 C 
ATOM      9  C   UNL d   1      -1.889  -3.244  -1.755  0.00  0.00     0.009 C 
ENDBRANCH   7   8
ENDBRANCH   1   7
TORSDOF 2
ENDMDL
