MODEL 1
REMARK minimizedAffinity 4.77660465
REMARK minimizedRMSD -1
REMARK  1 active torsions:
REMARK  status: ('A' for Active; 'I' for Inactive)
REMARK    1  A    between atoms: C1_2  and  C2_3 
ROOT
ATOM      1  C2  UNL d   1      -0.018  -0.921   0.347  0.00  0.00    -0.077 A 
ATOM      2  C3  UNL d   1      -0.031  -1.064   1.741  0.00  0.00     0.002 A 
ATOM      3  C4  UNL d   1      -1.198  -0.817   2.466  0.00  0.00     0.002 A 
ATOM      4  C5  UNL d   1      -2.362  -0.431   1.805  0.00  0.00    -0.004 A 
ATOM      5  C6  UNL d   1      -2.360  -0.284   0.419  0.00  0.00     0.002 A 
ATOM      6  C7  UNL d   1      -1.193  -0.529  -0.307  0.00  0.00     0.002 A 
ENDROOT
BRANCH   1   7
ATOM      7  C1  UNL d   1       1.226  -1.234  -0.442  0.00  0.00     0.055 C 
ATOM      8  C   UNL d   1       1.443  -0.223  -1.559  0.00  0.00     0.019 C 
ENDBRANCH   1   7
TORSDOF 1
ENDMDL
