MODEL 1
REMARK minimizedAffinity 3.81627202
REMARK minimizedRMSD -1
REMARK  1 active torsions:
REMARK  status: ('A' for Active; 'I' for Inactive)
REMARK    1  A    between atoms: C1_2  and  C2_3 
ROOT
ATOM      1  C2  UNL d   1       0.513  -1.021   1.067  0.00  0.00    -0.077 A 
ATOM      2  C3  UNL d   1       0.315  -1.614   2.322  0.00  0.00     0.002 A 
ATOM      3  C4  UNL d   1      -0.908  -1.479   2.981  0.00  0.00     0.002 A 
ATOM      4  C5  UNL d   1      -1.943  -0.756   2.392  0.00  0.00    -0.004 A 
ATOM      5  C6  UNL d   1      -1.755  -0.161   1.145  0.00  0.00     0.002 A 
ATOM      6  C7  UNL d   1      -0.533  -0.294   0.485  0.00  0.00     0.002 A 
ENDROOT
BRANCH   1   7
ATOM      7  C1  UNL d   1       1.815  -1.207   0.332  0.00  0.00     0.055 C 
ATOM      8  C   UNL d   1       2.400  -2.589   0.583  0.00  0.00     0.019 C 
ENDBRANCH   1   7
TORSDOF 1
ENDMDL
