MODEL 1
REMARK minimizedAffinity -1.14875984
REMARK minimizedRMSD -1
REMARK  1 active torsions:
REMARK  status: ('A' for Active; 'I' for Inactive)
REMARK    1  A    between atoms: C1_2  and  C2_3 
ROOT
ATOM      1  C2  UNL d   1      -1.097  -0.391   1.446  0.00  0.00    -0.077 A 
ATOM      2  C3  UNL d   1      -0.761  -0.353   0.085  0.00  0.00     0.002 A 
ATOM      3  C4  UNL d   1       0.501  -0.772  -0.343  0.00  0.00     0.002 A 
ATOM      4  C5  UNL d   1       1.434  -1.235   0.582  0.00  0.00    -0.004 A 
ATOM      5  C6  UNL d   1       1.110  -1.275   1.938  0.00  0.00     0.002 A 
ATOM      6  C7  UNL d   1      -0.150  -0.856   2.368  0.00  0.00     0.002 A 
ENDROOT
BRANCH   1   7
ATOM      7  C1  UNL d   1      -2.474   0.013   1.904  0.00  0.00     0.055 C 
ATOM      8  C   UNL d   1      -3.551  -0.815   1.218  0.00  0.00     0.019 C 
ENDBRANCH   1   7
TORSDOF 1
ENDMDL
