MODEL 1
REMARK minimizedAffinity -1.57395113
REMARK minimizedRMSD -1
REMARK  1 active torsions:
REMARK  status: ('A' for Active; 'I' for Inactive)
REMARK    1  A    between atoms: C1_2  and  C2_3 
ROOT
ATOM      1  C2  UNL d   1       0.888   0.526   0.269  0.00  0.00    -0.077 A 
ATOM      2  C3  UNL d   1       1.318  -0.783   0.012  0.00  0.00     0.002 A 
ATOM      3  C4  UNL d   1       2.486  -1.013  -0.718  0.00  0.00     0.002 A 
ATOM      4  C5  UNL d   1       3.235   0.061  -1.193  0.00  0.00    -0.004 A 
ATOM      5  C6  UNL d   1       2.814   1.367  -0.945  0.00  0.00     0.002 A 
ATOM      6  C7  UNL d   1       1.647   1.599  -0.217  0.00  0.00     0.002 A 
ENDROOT
BRANCH   1   7
ATOM      7  C1  UNL d   1      -0.345   0.776   1.098  0.00  0.00     0.055 C 
ATOM      8  C   UNL d   1      -1.315  -0.393   1.014  0.00  0.00     0.019 C 
ENDBRANCH   1   7
TORSDOF 1
ENDMDL
