MODEL 1
REMARK minimizedAffinity -1.63417983
REMARK minimizedRMSD -1
REMARK  0 active torsions:
REMARK  status: ('A' for Active; 'I' for Inactive)
ROOT
ATOM      1  C4' PXY d   1      -0.308  -2.774  -0.427  0.00  0.00     0.077 C 
ATOM      2  C1' PXY d   1      -0.365   2.811   1.065  0.00  0.00     0.077 C 
ATOM      3  C1  PXY d   1      -0.337   1.347   0.671  0.00  0.00    -0.082 A 
ATOM      4  C2  PXY d   1      -1.457   0.748   0.300  0.00  0.00     0.003 A 
ATOM      5  C3  PXY d   1      -1.456  -0.583  -0.029  0.00  0.00     0.003 A 
ATOM      6  C4  PXY d   1      -0.287  -1.295  -0.030  0.00  0.00    -0.082 A 
ATOM      7  C5  PXY d   1       0.862  -0.689   0.337  0.00  0.00     0.003 A 
ATOM      8  C6  PXY d   1       0.832   0.653   0.707  0.00  0.00     0.003 A 
ENDROOT
TORSDOF 0
ENDMDL
