MODEL 1
REMARK minimizedAffinity -1.15156209
REMARK minimizedRMSD -1
REMARK  0 active torsions:
REMARK  status: ('A' for Active; 'I' for Inactive)
ROOT
ATOM      1  C4' PXY d   1      -0.000  -2.681  -0.138  0.00  0.00     0.077 C 
ATOM      2  C1' PXY d   1       0.068   3.034   0.726  0.00  0.00     0.077 C 
ATOM      3  C1  PXY d   1       0.061   1.537   0.493  0.00  0.00    -0.082 A 
ATOM      4  C2  PXY d   1      -1.085   0.877   0.510  0.00  0.00     0.003 A 
ATOM      5  C3  PXY d   1      -1.106  -0.483   0.332  0.00  0.00     0.003 A 
ATOM      6  C4  PXY d   1       0.053  -1.167   0.083  0.00  0.00    -0.082 A 
ATOM      7  C5  PXY d   1       1.226  -0.499   0.054  0.00  0.00     0.003 A 
ATOM      8  C6  PXY d   1       1.231   0.875   0.277  0.00  0.00     0.003 A 
ENDROOT
TORSDOF 0
ENDMDL
