MODEL 1
REMARK minimizedAffinity -4.85091496
REMARK minimizedRMSD -1
REMARK  0 active torsions:
REMARK  status: ('A' for Active; 'I' for Inactive)
ROOT
ATOM      1  C4' PXY d   1       0.713   3.783  -0.000  0.00  0.00     0.077 C 
ATOM      2  C1' PXY d   1      -0.354  -1.896   0.174  0.00  0.00     0.077 C 
ATOM      3  C1  PXY d   1      -0.087  -0.404   0.126  0.00  0.00    -0.082 A 
ATOM      4  C2  PXY d   1       1.114   0.035  -0.214  0.00  0.00     0.003 A 
ATOM      5  C3  PXY d   1       1.382   1.379  -0.231  0.00  0.00     0.003 A 
ATOM      6  C4  PXY d   1       0.396   2.286   0.052  0.00  0.00    -0.082 A 
ATOM      7  C5  PXY d   1      -0.835   1.846   0.390  0.00  0.00     0.003 A 
ATOM      8  C6  PXY d   1      -1.075   0.476   0.442  0.00  0.00     0.003 A 
ENDROOT
TORSDOF 0
ENDMDL
