MODEL 1
REMARK minimizedAffinity -4.65518999
REMARK minimizedRMSD -1
REMARK  0 active torsions:
REMARK  status: ('A' for Active; 'I' for Inactive)
ROOT
ATOM      1  C4' PXY d   1       2.731   1.446  -0.288  0.00  0.00     0.077 C 
ATOM      2  C1' PXY d   1      -2.711   0.299   1.290  0.00  0.00     0.077 C 
ATOM      3  C1  PXY d   1      -1.288   0.611   0.870  0.00  0.00    -0.082 A 
ATOM      4  C2  PXY d   1      -0.412  -0.373   0.747  0.00  0.00     0.003 A 
ATOM      5  C3  PXY d   1       0.888  -0.106   0.400  0.00  0.00     0.003 A 
ATOM      6  C4  PXY d   1       1.281   1.177   0.124  0.00  0.00    -0.082 A 
ATOM      7  C5  PXY d   1       0.390   2.185   0.237  0.00  0.00     0.003 A 
ATOM      8  C6  PXY d   1      -0.913   1.897   0.631  0.00  0.00     0.003 A 
ENDROOT
TORSDOF 0
ENDMDL
