MODEL 1
REMARK minimizedAffinity -4.45108366
REMARK minimizedRMSD -1
REMARK  0 active torsions:
REMARK  status: ('A' for Active; 'I' for Inactive)
ROOT
ATOM      1  C4' PXY d   1       0.152   3.405   0.001  0.00  0.00     0.077 C 
ATOM      2  C1' PXY d   1       0.149  -2.354  -0.494  0.00  0.00     0.077 C 
ATOM      3  C1  PXY d   1       0.158  -0.844  -0.354  0.00  0.00    -0.082 A 
ATOM      4  C2  PXY d   1      -0.882  -0.143  -0.772  0.00  0.00     0.003 A 
ATOM      5  C3  PXY d   1      -0.877   1.226  -0.683  0.00  0.00     0.003 A 
ATOM      6  C4  PXY d   1       0.182   1.879  -0.111  0.00  0.00    -0.082 A 
ATOM      7  C5  PXY d   1       1.243   1.169   0.328  0.00  0.00     0.003 A 
ATOM      8  C6  PXY d   1       1.236  -0.216   0.190  0.00  0.00     0.003 A 
ENDROOT
TORSDOF 0
ENDMDL
