MODEL 1
REMARK minimizedAffinity -2.01583481
REMARK minimizedRMSD -1
REMARK  0 active torsions:
REMARK  status: ('A' for Active; 'I' for Inactive)
ROOT
ATOM      1  C4' PXY d   1       0.361  -1.849  -0.051  0.00  0.00     0.077 C 
ATOM      2  C1' PXY d   1      -0.019   3.774   1.238  0.00  0.00     0.077 C 
ATOM      3  C1  PXY d   1       0.093   2.301   0.895  0.00  0.00    -0.082 A 
ATOM      4  C2  PXY d   1      -1.005   1.596   0.675  0.00  0.00     0.003 A 
ATOM      5  C3  PXY d   1      -0.923   0.256   0.395  0.00  0.00     0.003 A 
ATOM      6  C4  PXY d   1       0.296  -0.357   0.288  0.00  0.00    -0.082 A 
ATOM      7  C5  PXY d   1       1.421   0.358   0.501  0.00  0.00     0.003 A 
ATOM      8  C6  PXY d   1       1.315   1.708   0.824  0.00  0.00     0.003 A 
ENDROOT
TORSDOF 0
ENDMDL
