MODEL 1
REMARK minimizedAffinity -1.49940574
REMARK minimizedRMSD -1
REMARK  0 active torsions:
REMARK  status: ('A' for Active; 'I' for Inactive)
ROOT
ATOM      1  C4' PXY d   1       0.865   3.465   0.064  0.00  0.00     0.077 C 
ATOM      2  C1' PXY d   1      -0.045  -2.217  -0.485  0.00  0.00     0.077 C 
ATOM      3  C1  PXY d   1       0.206  -0.729  -0.337  0.00  0.00    -0.082 A 
ATOM      4  C2  PXY d   1      -0.818   0.095  -0.187  0.00  0.00     0.003 A 
ATOM      5  C3  PXY d   1      -0.612   1.447  -0.084  0.00  0.00     0.003 A 
ATOM      6  C4  PXY d   1       0.660   1.955  -0.080  0.00  0.00    -0.082 A 
ATOM      7  C5  PXY d   1       1.711   1.120  -0.222  0.00  0.00     0.003 A 
ATOM      8  C6  PXY d   1       1.477  -0.245  -0.367  0.00  0.00     0.003 A 
ENDROOT
TORSDOF 0
ENDMDL
