MODEL 1
REMARK minimizedAffinity -4.32038164
REMARK minimizedRMSD -1
REMARK  0 active torsions:
REMARK  status: ('A' for Active; 'I' for Inactive)
ROOT
ATOM      1  C4' PXY d   1      -0.054  -1.927   0.124  0.00  0.00     0.077 C 
ATOM      2  C1' PXY d   1       0.603   3.809   0.413  0.00  0.00     0.077 C 
ATOM      3  C1  PXY d   1       0.419   2.305   0.343  0.00  0.00    -0.082 A 
ATOM      4  C2  PXY d   1       1.481   1.517   0.312  0.00  0.00     0.003 A 
ATOM      5  C3  PXY d   1       1.333   0.157   0.216  0.00  0.00     0.003 A 
ATOM      6  C4  PXY d   1       0.084  -0.405   0.205  0.00  0.00    -0.082 A 
ATOM      7  C5  PXY d   1      -1.004   0.393   0.247  0.00  0.00     0.003 A 
ATOM      8  C6  PXY d   1      -0.833   1.773   0.303  0.00  0.00     0.003 A 
ENDROOT
TORSDOF 0
ENDMDL
