MODEL 1
REMARK minimizedAffinity -0.641321182
REMARK minimizedRMSD -1
REMARK  0 active torsions:
REMARK  status: ('A' for Active; 'I' for Inactive)
ROOT
ATOM      1  C4' PXY d   1      -0.010   3.187   1.281  0.00  0.00     0.077 C 
ATOM      2  C1' PXY d   1      -0.304  -2.189  -0.822  0.00  0.00     0.077 C 
ATOM      3  C1  PXY d   1      -0.214  -0.780  -0.272  0.00  0.00    -0.082 A 
ATOM      4  C2  PXY d   1      -1.193  -0.309   0.484  0.00  0.00     0.003 A 
ATOM      5  C3  PXY d   1      -1.142   0.975   0.964  0.00  0.00     0.003 A 
ATOM      6  C4  PXY d   1      -0.054   1.766   0.712  0.00  0.00    -0.082 A 
ATOM      7  C5  PXY d   1       0.953   1.290  -0.050  0.00  0.00     0.003 A 
ATOM      8  C6  PXY d   1       0.864  -0.002  -0.562  0.00  0.00     0.003 A 
ENDROOT
TORSDOF 0
ENDMDL
