MODEL 1
REMARK minimizedAffinity -4.82450151
REMARK minimizedRMSD -1
REMARK  0 active torsions:
REMARK  status: ('A' for Active; 'I' for Inactive)
ROOT
ATOM      1  C4' PXY d   1      -2.234   0.360   1.437  0.00  0.00     0.077 C 
ATOM      2  C1' PXY d   1       2.938   2.626   0.197  0.00  0.00     0.077 C 
ATOM      3  C1  PXY d   1       1.585   2.021   0.515  0.00  0.00    -0.082 A 
ATOM      4  C2  PXY d   1       0.580   2.811   0.858  0.00  0.00     0.003 A 
ATOM      5  C3  PXY d   1      -0.642   2.278   1.180  0.00  0.00     0.003 A 
ATOM      6  C4  PXY d   1      -0.852   0.927   1.098  0.00  0.00    -0.082 A 
ATOM      7  C5  PXY d   1       0.165   0.116   0.739  0.00  0.00     0.003 A 
ATOM      8  C6  PXY d   1       1.409   0.673   0.456  0.00  0.00     0.003 A 
ENDROOT
TORSDOF 0
ENDMDL
