MODEL 1
REMARK minimizedAffinity -5.00848055
REMARK minimizedRMSD -1
REMARK  0 active torsions:
REMARK  status: ('A' for Active; 'I' for Inactive)
ROOT
ATOM      1  C4' PXY d   1      -0.677  -1.576   0.058  0.00  0.00     0.077 C 
ATOM      2  C1' PXY d   1       2.272   3.331   0.855  0.00  0.00     0.077 C 
ATOM      3  C1  PXY d   1       1.488   2.050   0.649  0.00  0.00    -0.082 A 
ATOM      4  C2  PXY d   1       2.096   0.882   0.777  0.00  0.00     0.003 A 
ATOM      5  C3  PXY d   1       1.410  -0.285   0.563  0.00  0.00     0.003 A 
ATOM      6  C4  PXY d   1       0.073  -0.258   0.266  0.00  0.00    -0.082 A 
ATOM      7  C5  PXY d   1      -0.557   0.929   0.144  0.00  0.00     0.003 A 
ATOM      8  C6  PXY d   1       0.167   2.104   0.325  0.00  0.00     0.003 A 
ENDROOT
TORSDOF 0
ENDMDL
