MODEL 1
REMARK minimizedAffinity -1.05877841
REMARK minimizedRMSD -1
REMARK  0 active torsions:
REMARK  status: ('A' for Active; 'I' for Inactive)
ROOT
ATOM      1  C4' PXY d   1       1.133   3.523   1.167  0.00  0.00     0.077 C 
ATOM      2  C1' PXY d   1      -0.495  -1.817  -0.331  0.00  0.00     0.077 C 
ATOM      3  C1  PXY d   1      -0.056  -0.419   0.059  0.00  0.00    -0.082 A 
ATOM      4  C2  PXY d   1      -0.784   0.281   0.913  0.00  0.00     0.003 A 
ATOM      5  C3  PXY d   1      -0.419   1.558   1.252  0.00  0.00     0.003 A 
ATOM      6  C4  PXY d   1       0.733   2.105   0.752  0.00  0.00    -0.082 A 
ATOM      7  C5  PXY d   1       1.487   1.393  -0.111  0.00  0.00     0.003 A 
ATOM      8  C6  PXY d   1       1.077   0.113  -0.475  0.00  0.00     0.003 A 
ENDROOT
TORSDOF 0
ENDMDL
