MODEL 1
REMARK minimizedAffinity -5.56409454
REMARK minimizedRMSD -1
REMARK  0 active torsions:
REMARK  status: ('A' for Active; 'I' for Inactive)
ROOT
ATOM      1  C4' PXY d   1      -0.005  -2.240  -0.157  0.00  0.00     0.077 C 
ATOM      2  C1' PXY d   1       0.244   3.525   0.187  0.00  0.00     0.077 C 
ATOM      3  C1  PXY d   1       0.190   2.013   0.090  0.00  0.00    -0.082 A 
ATOM      4  C2  PXY d   1      -0.964   1.387   0.260  0.00  0.00     0.003 A 
ATOM      5  C3  PXY d   1      -1.025   0.019   0.207  0.00  0.00     0.003 A 
ATOM      6  C4  PXY d   1       0.096  -0.715  -0.076  0.00  0.00    -0.082 A 
ATOM      7  C5  PXY d   1       1.274  -0.083  -0.262  0.00  0.00     0.003 A 
ATOM      8  C6  PXY d   1       1.323   1.304  -0.163  0.00  0.00     0.003 A 
ENDROOT
TORSDOF 0
ENDMDL
