MODEL 1
REMARK minimizedAffinity -4.60684156
REMARK minimizedRMSD -1
REMARK  0 active torsions:
REMARK  status: ('A' for Active; 'I' for Inactive)
ROOT
ATOM      1  C4' PXY d   1       2.666   1.176  -0.542  0.00  0.00     0.077 C 
ATOM      2  C1' PXY d   1      -2.939   1.128   0.870  0.00  0.00     0.077 C 
ATOM      3  C1  PXY d   1      -1.471   1.152   0.493  0.00  0.00    -0.082 A 
ATOM      4  C2  PXY d   1      -0.791   0.018   0.437  0.00  0.00     0.003 A 
ATOM      5  C3  PXY d   1       0.545   0.024   0.129  0.00  0.00     0.003 A 
ATOM      6  C4  PXY d   1       1.180   1.198  -0.176  0.00  0.00    -0.082 A 
ATOM      7  C5  PXY d   1       0.491   2.358  -0.131  0.00  0.00     0.003 A 
ATOM      8  C6  PXY d   1      -0.855   2.335   0.224  0.00  0.00     0.003 A 
ENDROOT
TORSDOF 0
ENDMDL
