MODEL 1
REMARK minimizedAffinity -3.42242146
REMARK minimizedRMSD -1
REMARK  0 active torsions:
REMARK  status: ('A' for Active; 'I' for Inactive)
ROOT
ATOM      1  C4' PXY d   1      -0.407  -1.859  -0.188  0.00  0.00     0.077 C 
ATOM      2  C1' PXY d   1       0.454   3.782   0.737  0.00  0.00     0.077 C 
ATOM      3  C1  PXY d   1       0.219   2.302   0.504  0.00  0.00    -0.082 A 
ATOM      4  C2  PXY d   1       1.158   1.575  -0.079  0.00  0.00     0.003 A 
ATOM      5  C3  PXY d   1       0.950   0.242  -0.326  0.00  0.00     0.003 A 
ATOM      6  C4  PXY d   1      -0.210  -0.364   0.076  0.00  0.00    -0.082 A 
ATOM      7  C5  PXY d   1      -1.169   0.369   0.681  0.00  0.00     0.003 A 
ATOM      8  C6  PXY d   1      -0.954   1.729   0.885  0.00  0.00     0.003 A 
ENDROOT
TORSDOF 0
ENDMDL
