MODEL 1
REMARK minimizedAffinity -5.38856459
REMARK minimizedRMSD -1
REMARK  0 active torsions:
REMARK  status: ('A' for Active; 'I' for Inactive)
ROOT
ATOM      1  C4' PXY d   1      -0.033  -1.987   0.140  0.00  0.00     0.077 C 
ATOM      2  C1' PXY d   1       0.453   3.772   0.018  0.00  0.00     0.077 C 
ATOM      3  C1  PXY d   1       0.315   2.262   0.057  0.00  0.00    -0.082 A 
ATOM      4  C2  PXY d   1       1.392   1.503  -0.061  0.00  0.00     0.003 A 
ATOM      5  C3  PXY d   1       1.281   0.137  -0.060  0.00  0.00     0.003 A 
ATOM      6  C4  PXY d   1       0.061  -0.459   0.116  0.00  0.00    -0.082 A 
ATOM      7  C5  PXY d   1      -1.042   0.309   0.248  0.00  0.00     0.003 A 
ATOM      8  C6  PXY d   1      -0.913   1.694   0.203  0.00  0.00     0.003 A 
ENDROOT
TORSDOF 0
ENDMDL
