MODEL 1
REMARK minimizedAffinity -4.70344305
REMARK minimizedRMSD -1
REMARK  0 active torsions:
REMARK  status: ('A' for Active; 'I' for Inactive)
ROOT
ATOM      1  C4' PXY d   1       0.029  -2.241  -0.508  0.00  0.00     0.077 C 
ATOM      2  C1' PXY d   1      -0.511   3.349   0.864  0.00  0.00     0.077 C 
ATOM      3  C1  PXY d   1      -0.377   1.880   0.514  0.00  0.00    -0.082 A 
ATOM      4  C2  PXY d   1       0.676   1.464  -0.170  0.00  0.00     0.003 A 
ATOM      5  C3  PXY d   1       0.797   0.144  -0.522  0.00  0.00     0.003 A 
ATOM      6  C4  PXY d   1      -0.143  -0.768  -0.124  0.00  0.00    -0.082 A 
ATOM      7  C5  PXY d   1      -1.215  -0.353   0.583  0.00  0.00     0.003 A 
ATOM      8  C6  PXY d   1      -1.340   0.998   0.895  0.00  0.00     0.003 A 
ENDROOT
TORSDOF 0
ENDMDL
