MODEL 1
REMARK minimizedAffinity -3.84442878
REMARK minimizedRMSD -1
REMARK  0 active torsions:
REMARK  status: ('A' for Active; 'I' for Inactive)
ROOT
ATOM      1  C4' PXY d   1       0.014  -1.486   0.701  0.00  0.00     0.077 C 
ATOM      2  C1' PXY d   1       0.861   4.126  -0.397  0.00  0.00     0.077 C 
ATOM      3  C1  PXY d   1       0.629   2.657  -0.100  0.00  0.00    -0.082 A 
ATOM      4  C2  PXY d   1       1.605   1.787  -0.304  0.00  0.00     0.003 A 
ATOM      5  C3  PXY d   1       1.402   0.451  -0.072  0.00  0.00     0.003 A 
ATOM      6  C4  PXY d   1       0.206   0.008   0.425  0.00  0.00    -0.082 A 
ATOM      7  C5  PXY d   1      -0.791   0.891   0.645  0.00  0.00     0.003 A 
ATOM      8  C6  PXY d   1      -0.579   2.237   0.364  0.00  0.00     0.003 A 
ENDROOT
TORSDOF 0
ENDMDL
