MODEL 1
REMARK minimizedAffinity -1.78088558
REMARK minimizedRMSD -1
REMARK  0 active torsions:
REMARK  status: ('A' for Active; 'I' for Inactive)
ROOT
ATOM      1  C4' PXY d   1       2.174   1.904  -0.851  0.00  0.00     0.077 C 
ATOM      2  C1' PXY d   1      -2.894   0.328   1.439  0.00  0.00     0.077 C 
ATOM      3  C1  PXY d   1      -1.569   0.754   0.839  0.00  0.00    -0.082 A 
ATOM      4  C2  PXY d   1      -0.892  -0.093   0.081  0.00  0.00     0.003 A 
ATOM      5  C3  PXY d   1       0.324   0.265  -0.443  0.00  0.00     0.003 A 
ATOM      6  C4  PXY d   1       0.827   1.521  -0.233  0.00  0.00    -0.082 A 
ATOM      7  C5  PXY d   1       0.137   2.394   0.531  0.00  0.00     0.003 A 
ATOM      8  C6  PXY d   1      -1.076   1.997   1.088  0.00  0.00     0.003 A 
ENDROOT
TORSDOF 0
ENDMDL
