MODEL 1
REMARK minimizedAffinity -3.84029365
REMARK minimizedRMSD -1
REMARK  0 active torsions:
REMARK  status: ('A' for Active; 'I' for Inactive)
ROOT
ATOM      1  C4' PXY d   1       0.473   3.770   0.056  0.00  0.00     0.077 C 
ATOM      2  C1' PXY d   1       0.309  -1.958   0.816  0.00  0.00     0.077 C 
ATOM      3  C1  PXY d   1       0.365  -0.456   0.619  0.00  0.00    -0.082 A 
ATOM      4  C2  PXY d   1      -0.715   0.275   0.845  0.00  0.00     0.003 A 
ATOM      5  C3  PXY d   1      -0.691   1.630   0.641  0.00  0.00     0.003 A 
ATOM      6  C4  PXY d   1       0.465   2.252   0.251  0.00  0.00    -0.082 A 
ATOM      7  C5  PXY d   1       1.574   1.515   0.028  0.00  0.00     0.003 A 
ATOM      8  C6  PXY d   1       1.518   0.135   0.202  0.00  0.00     0.003 A 
ENDROOT
TORSDOF 0
ENDMDL
