MODEL 1
REMARK minimizedAffinity 1.84121847
REMARK minimizedRMSD -1
REMARK  1 active torsions:
REMARK  status: ('A' for Active; 'I' for Inactive)
REMARK    1  A    between atoms: C1_2  and  C2_3 
ROOT
ATOM      1  C2  UNL d   1       0.607   1.198   1.438  0.00  0.00    -0.076 A 
ATOM      2  C3  UNL d   1       1.172   2.116   2.341  0.00  0.00     0.004 A 
ATOM      3  C4  UNL d   1       1.401   3.439   1.969  0.00  0.00    -0.003 A 
ATOM      4  C5  UNL d   1       1.069   3.867   0.689  0.00  0.00     0.000 A 
ATOM      5  C6  UNL d   1       0.491   2.974  -0.214  0.00  0.00     0.000 A 
ATOM      6  C7  UNL d   1       0.239   1.641   0.150  0.00  0.00    -0.073 A 
ATOM      7  C8  UNL d   1      -0.380   0.720  -0.865  0.00  0.00     0.078 C 
ENDROOT
BRANCH   1   8
ATOM      8  C1  UNL d   1       0.407  -0.232   1.889  0.00  0.00     0.053 C 
ATOM      9  C   UNL d   1       1.712  -0.907   2.282  0.00  0.00     0.018 C 
ENDBRANCH   1   8
TORSDOF 1
ENDMDL
