MODEL 1
REMARK minimizedAffinity 5.04581261
REMARK minimizedRMSD -1
REMARK  1 active torsions:
REMARK  status: ('A' for Active; 'I' for Inactive)
REMARK    1  A    between atoms: C1_2  and  C2_3 
ROOT
ATOM      1  C2  UNL d   1      -0.303   2.178   0.296  0.00  0.00    -0.076 A 
ATOM      2  C3  UNL d   1      -0.890   3.408   0.638  0.00  0.00     0.004 A 
ATOM      3  C4  UNL d   1      -1.189   4.357  -0.339  0.00  0.00    -0.003 A 
ATOM      4  C5  UNL d   1      -0.906   4.090  -1.674  0.00  0.00     0.000 A 
ATOM      5  C6  UNL d   1      -0.340   2.868  -2.033  0.00  0.00     0.000 A 
ATOM      6  C7  UNL d   1      -0.047   1.894  -1.063  0.00  0.00    -0.073 A 
ATOM      7  C8  UNL d   1       0.568   0.595  -1.506  0.00  0.00     0.078 C 
ENDROOT
BRANCH   1   8
ATOM      8  C1  UNL d   1       0.024   1.199   1.401  0.00  0.00     0.053 C 
ATOM      9  C   UNL d   1      -0.795   1.446   2.659  0.00  0.00     0.018 C 
ENDBRANCH   1   8
TORSDOF 1
ENDMDL
