MODEL 1
REMARK minimizedAffinity 1.11681581
REMARK minimizedRMSD -1
REMARK  1 active torsions:
REMARK  status: ('A' for Active; 'I' for Inactive)
REMARK    1  A    between atoms: C1_2  and  C2_3 
ROOT
ATOM      1  C2  UNL d   1      -1.254   3.906   1.240  0.00  0.00    -0.076 A 
ATOM      2  C3  UNL d   1      -1.239   3.488   2.582  0.00  0.00     0.004 A 
ATOM      3  C4  UNL d   1      -0.857   2.193   2.926  0.00  0.00    -0.003 A 
ATOM      4  C5  UNL d   1      -0.484   1.293   1.934  0.00  0.00     0.000 A 
ATOM      5  C6  UNL d   1      -0.477   1.695   0.599  0.00  0.00     0.000 A 
ATOM      6  C7  UNL d   1      -0.843   3.003   0.236  0.00  0.00    -0.073 A 
ATOM      7  C8  UNL d   1      -0.823   3.381  -1.220  0.00  0.00     0.078 C 
ENDROOT
BRANCH   1   8
ATOM      8  C1  UNL d   1      -1.703   5.314   0.925  0.00  0.00     0.053 C 
ATOM      9  C   UNL d   1      -2.972   5.702   1.668  0.00  0.00     0.018 C 
ENDBRANCH   1   8
TORSDOF 1
ENDMDL
