MODEL 1
REMARK minimizedAffinity 4.9604435
REMARK minimizedRMSD -1
REMARK  1 active torsions:
REMARK  status: ('A' for Active; 'I' for Inactive)
REMARK    1  A    between atoms: C1_2  and  C2_3 
ROOT
ATOM      1  C2  UNL d   1       4.330  -5.465  -0.523  0.00  0.00    -0.076 A 
ATOM      2  C3  UNL d   1       5.500  -6.000  -1.089  0.00  0.00     0.004 A 
ATOM      3  C4  UNL d   1       5.962  -5.563  -2.330  0.00  0.00    -0.003 A 
ATOM      4  C5  UNL d   1       5.261  -4.583  -3.024  0.00  0.00     0.000 A 
ATOM      5  C6  UNL d   1       4.108  -4.029  -2.470  0.00  0.00     0.000 A 
ATOM      6  C7  UNL d   1       3.638  -4.447  -1.213  0.00  0.00    -0.073 A 
ATOM      7  C8  UNL d   1       2.386  -3.819  -0.665  0.00  0.00     0.078 C 
ENDROOT
BRANCH   1   8
ATOM      8  C1  UNL d   1       3.863  -5.998   0.812  0.00  0.00     0.053 C 
ATOM      9  C   UNL d   1       4.968  -6.000   1.858  0.00  0.00     0.018 C 
ENDBRANCH   1   8
TORSDOF 1
ENDMDL
