MODEL 1
REMARK minimizedAffinity 5.79501677
REMARK minimizedRMSD -1
REMARK  1 active torsions:
REMARK  status: ('A' for Active; 'I' for Inactive)
REMARK    1  A    between atoms: C1_2  and  C2_3 
ROOT
ATOM      1  C2  UNL d   1       1.221  -0.594   2.486  0.00  0.00    -0.076 A 
ATOM      2  C3  UNL d   1       0.434   0.238   3.302  0.00  0.00     0.004 A 
ATOM      3  C4  UNL d   1      -0.379   1.225   2.748  0.00  0.00    -0.003 A 
ATOM      4  C5  UNL d   1      -0.418   1.397   1.369  0.00  0.00     0.000 A 
ATOM      5  C6  UNL d   1       0.342   0.569   0.543  0.00  0.00     0.000 A 
ATOM      6  C7  UNL d   1       1.154  -0.442   1.085  0.00  0.00    -0.073 A 
ATOM      7  C8  UNL d   1       1.958  -1.302   0.148  0.00  0.00     0.078 C 
ENDROOT
BRANCH   1   8
ATOM      8  C1  UNL d   1       2.103  -1.630   3.146  0.00  0.00     0.053 C 
ATOM      9  C   UNL d   1       3.545  -1.165   3.281  0.00  0.00     0.018 C 
ENDBRANCH   1   8
TORSDOF 1
ENDMDL
