MODEL 1
REMARK minimizedAffinity 26.4699802
REMARK minimizedRMSD -1
REMARK  0 active torsions:
REMARK  status: ('A' for Active; 'I' for Inactive)
ROOT
ATOM      1  N1  IND d   1       1.303   4.383  -1.656  0.00  0.00    -0.196 N 
ATOM      2  C2  IND d   1       0.868   5.134  -0.599  0.00  0.00     0.054 A 
ATOM      3  C3  IND d   1       1.094   4.484   0.564  0.00  0.00    -0.031 A 
ATOM      4  C4  IND d   1       2.257   2.225   0.976  0.00  0.00     0.051 A 
ATOM      5  C5  IND d   1       2.792   1.152   0.318  0.00  0.00    -0.031 A 
ATOM      6  C6  IND d   1       2.861   1.103  -1.059  0.00  0.00     0.015 A 
ATOM      7  C7  IND d   1       2.407   2.133  -1.833  0.00  0.00    -0.016 A 
ATOM      8  C8  IND d   1       1.857   3.220  -1.168  0.00  0.00    -0.047 A 
ATOM      9  C9  IND d   1       1.745   3.258   0.227  0.00  0.00    -0.096 A 
ATOM     10  HN1 IND d   1       1.240   4.601  -2.485  0.00  0.00     0.298 HD
ENDROOT
TORSDOF 0
ENDMDL
