MODEL 1
REMARK minimizedAffinity 20.7692204
REMARK minimizedRMSD -1
REMARK  0 active torsions:
REMARK  status: ('A' for Active; 'I' for Inactive)
ROOT
ATOM      1  N1  IND d   1      -4.733   5.756  -5.976  0.00  0.00    -0.196 N 
ATOM      2  C2  IND d   1      -5.995   5.235  -5.917  0.00  0.00     0.054 A 
ATOM      3  C3  IND d   1      -5.945   3.886  -5.844  0.00  0.00    -0.031 A 
ATOM      4  C4  IND d   1      -3.898   2.331  -5.705  0.00  0.00     0.051 A 
ATOM      5  C5  IND d   1      -2.533   2.340  -5.760  0.00  0.00    -0.031 A 
ATOM      6  C6  IND d   1      -1.816   3.512  -5.890  0.00  0.00     0.015 A 
ATOM      7  C7  IND d   1      -2.441   4.726  -5.958  0.00  0.00    -0.016 A 
ATOM      8  C8  IND d   1      -3.828   4.719  -5.910  0.00  0.00    -0.047 A 
ATOM      9  C9  IND d   1      -4.562   3.530  -5.821  0.00  0.00    -0.096 A 
ATOM     10  HN1 IND d   1      -4.537   6.590  -6.043  0.00  0.00     0.298 HD
ENDROOT
TORSDOF 0
ENDMDL
