MODEL 1
REMARK minimizedAffinity 15.5529852
REMARK minimizedRMSD -1
REMARK  0 active torsions:
REMARK  status: ('A' for Active; 'I' for Inactive)
ROOT
ATOM      1  N1  IND d   1       4.235   0.041  -0.392  0.00  0.00    -0.196 N 
ATOM      2  C2  IND d   1       3.936   1.287  -0.867  0.00  0.00     0.054 A 
ATOM      3  C3  IND d   1       2.771   1.262  -1.552  0.00  0.00    -0.031 A 
ATOM      4  C4  IND d   1       1.138  -0.692  -1.932  0.00  0.00     0.051 A 
ATOM      5  C5  IND d   1       0.998  -2.035  -1.721  0.00  0.00    -0.031 A 
ATOM      6  C6  IND d   1       1.948  -2.769  -1.040  0.00  0.00     0.015 A 
ATOM      7  C7  IND d   1       3.073  -2.182  -0.533  0.00  0.00    -0.016 A 
ATOM      8  C8  IND d   1       3.222  -0.820  -0.751  0.00  0.00    -0.047 A 
ATOM      9  C9  IND d   1       2.282  -0.078  -1.478  0.00  0.00    -0.096 A 
ATOM     10  HN1 IND d   1       4.939  -0.170   0.056  0.00  0.00     0.298 HD
ENDROOT
TORSDOF 0
ENDMDL
