MODEL 1
REMARK minimizedAffinity 15.5061989
REMARK minimizedRMSD -1
REMARK  0 active torsions:
REMARK  status: ('A' for Active; 'I' for Inactive)
ROOT
ATOM      1  N1  IND d   1       1.989  -1.000  -0.474  0.00  0.00    -0.196 N 
ATOM      2  C2  IND d   1       2.068  -0.129  -1.525  0.00  0.00     0.054 A 
ATOM      3  C3  IND d   1       1.263  -0.533  -2.533  0.00  0.00    -0.031 A 
ATOM      4  C4  IND d   1      -0.350  -2.538  -2.635  0.00  0.00     0.051 A 
ATOM      5  C5  IND d   1      -0.742  -3.641  -1.930  0.00  0.00    -0.031 A 
ATOM      6  C6  IND d   1      -0.236  -3.925  -0.678  0.00  0.00     0.015 A 
ATOM      7  C7  IND d   1       0.677  -3.106  -0.077  0.00  0.00    -0.016 A 
ATOM      8  C8  IND d   1       1.083  -1.988  -0.792  0.00  0.00    -0.047 A 
ATOM      9  C9  IND d   1       0.605  -1.718  -2.080  0.00  0.00    -0.096 A 
ATOM     10  HN1 IND d   1       2.431  -0.941   0.261  0.00  0.00     0.298 HD
ENDROOT
TORSDOF 0
ENDMDL
