MODEL 1
REMARK minimizedAffinity 18.3070545
REMARK minimizedRMSD -1
REMARK  0 active torsions:
REMARK  status: ('A' for Active; 'I' for Inactive)
ROOT
ATOM      1  N1  IND d   1      -2.494   0.881   4.510  0.00  0.00    -0.196 N 
ATOM      2  C2  IND d   1      -2.723   0.499   3.217  0.00  0.00     0.054 A 
ATOM      3  C3  IND d   1      -3.721   1.235   2.679  0.00  0.00    -0.031 A 
ATOM      4  C4  IND d   1      -5.049   3.187   3.704  0.00  0.00     0.051 A 
ATOM      5  C5  IND d   1      -5.222   3.877   4.872  0.00  0.00    -0.031 A 
ATOM      6  C6  IND d   1      -4.478   3.599   6.000  0.00  0.00     0.015 A 
ATOM      7  C7  IND d   1      -3.521   2.624   6.000  0.00  0.00    -0.016 A 
ATOM      8  C8  IND d   1      -3.347   1.918   4.818  0.00  0.00    -0.047 A 
ATOM      9  C9  IND d   1      -4.128   2.166   3.683  0.00  0.00    -0.096 A 
ATOM     10  HN1 IND d   1      -1.914   0.532   5.041  0.00  0.00     0.298 HD
ENDROOT
TORSDOF 0
ENDMDL
