MODEL 1
REMARK minimizedAffinity 19.8970814
REMARK minimizedRMSD -1
REMARK  0 active torsions:
REMARK  status: ('A' for Active; 'I' for Inactive)
ROOT
ATOM      1  N1  IND d   1       0.770  -2.775  -0.680  0.00  0.00    -0.196 N 
ATOM      2  C2  IND d   1       1.355  -1.580  -0.996  0.00  0.00     0.054 A 
ATOM      3  C3  IND d   1       0.542  -0.856  -1.797  0.00  0.00    -0.031 A 
ATOM      4  C4  IND d   1      -1.835  -1.392  -2.630  0.00  0.00     0.051 A 
ATOM      5  C5  IND d   1      -2.777  -2.381  -2.633  0.00  0.00    -0.031 A 
ATOM      6  C6  IND d   1      -2.583  -3.576  -1.970  0.00  0.00     0.015 A 
ATOM      7  C7  IND d   1      -1.438  -3.822  -1.266  0.00  0.00    -0.016 A 
ATOM      8  C8  IND d   1      -0.476  -2.822  -1.266  0.00  0.00    -0.047 A 
ATOM      9  C9  IND d   1      -0.650  -1.624  -1.972  0.00  0.00    -0.096 A 
ATOM     10  HN1 IND d   1       1.121  -3.393  -0.196  0.00  0.00     0.298 HD
ENDROOT
TORSDOF 0
ENDMDL
