MODEL 1
REMARK minimizedAffinity 15.2223721
REMARK minimizedRMSD -1
REMARK  0 active torsions:
REMARK  status: ('A' for Active; 'I' for Inactive)
ROOT
ATOM      1  N1  IND d   1       3.959  -2.680  -0.712  0.00  0.00    -0.196 N 
ATOM      2  C2  IND d   1       3.172  -3.591  -1.361  0.00  0.00     0.054 A 
ATOM      3  C3  IND d   1       2.123  -2.973  -1.948  0.00  0.00    -0.031 A 
ATOM      4  C4  IND d   1       1.556  -0.464  -2.059  0.00  0.00     0.051 A 
ATOM      5  C5  IND d   1       1.959   0.754  -1.587  0.00  0.00    -0.031 A 
ATOM      6  C6  IND d   1       3.074   0.892  -0.785  0.00  0.00     0.015 A 
ATOM      7  C7  IND d   1       3.836  -0.185  -0.433  0.00  0.00    -0.016 A 
ATOM      8  C8  IND d   1       3.426  -1.424  -0.905  0.00  0.00    -0.047 A 
ATOM      9  C9  IND d   1       2.272  -1.576  -1.684  0.00  0.00    -0.096 A 
ATOM     10  HN1 IND d   1       4.667  -2.861  -0.260  0.00  0.00     0.298 HD
ENDROOT
TORSDOF 0
ENDMDL
