MODEL 1
REMARK minimizedAffinity 18.3996162
REMARK minimizedRMSD -1
REMARK  0 active torsions:
REMARK  status: ('A' for Active; 'I' for Inactive)
ROOT
ATOM      1  N1  IND d   1      -5.779   1.044   5.082  0.00  0.00    -0.196 N 
ATOM      2  C2  IND d   1      -5.376   2.218   5.653  0.00  0.00     0.054 A 
ATOM      3  C3  IND d   1      -4.229   2.649   5.082  0.00  0.00    -0.031 A 
ATOM      4  C4  IND d   1      -2.894   1.638   3.127  0.00  0.00     0.051 A 
ATOM      5  C5  IND d   1      -2.849   0.549   2.303  0.00  0.00    -0.031 A 
ATOM      6  C6  IND d   1      -3.799  -0.450   2.363  0.00  0.00     0.015 A 
ATOM      7  C7  IND d   1      -4.840  -0.391   3.245  0.00  0.00    -0.016 A 
ATOM      8  C8  IND d   1      -4.886   0.710   4.088  0.00  0.00    -0.047 A 
ATOM      9  C9  IND d   1      -3.901   1.706   4.061  0.00  0.00    -0.096 A 
ATOM     10  HN1 IND d   1      -6.474   0.589   5.306  0.00  0.00     0.298 HD
ENDROOT
TORSDOF 0
ENDMDL
