MODEL 1
REMARK minimizedAffinity 5.63892651
REMARK minimizedRMSD -1
REMARK  0 active torsions:
REMARK  status: ('A' for Active; 'I' for Inactive)
ROOT
ATOM      1  N1  IND d   1      -3.119  -3.739  -3.459  0.00  0.00    -0.196 N 
ATOM      2  C2  IND d   1      -2.736  -4.917  -2.880  0.00  0.00     0.054 A 
ATOM      3  C3  IND d   1      -3.470  -5.941  -3.369  0.00  0.00    -0.031 A 
ATOM      4  C4  IND d   1      -5.280  -5.929  -5.199  0.00  0.00     0.051 A 
ATOM      5  C5  IND d   1      -5.999  -5.084  -5.998  0.00  0.00    -0.031 A 
ATOM      6  C6  IND d   1      -5.788  -3.720  -5.993  0.00  0.00     0.015 A 
ATOM      7  C7  IND d   1      -4.839  -3.149  -5.193  0.00  0.00    -0.016 A 
ATOM      8  C8  IND d   1      -4.112  -4.003  -4.376  0.00  0.00    -0.047 A 
ATOM      9  C9  IND d   1      -4.351  -5.383  -4.346  0.00  0.00    -0.096 A 
ATOM     10  HN1 IND d   1      -2.794  -2.963  -3.280  0.00  0.00     0.298 HD
ENDROOT
TORSDOF 0
ENDMDL
