MODEL 1
REMARK minimizedAffinity 11.487689
REMARK minimizedRMSD -1
REMARK  0 active torsions:
REMARK  status: ('A' for Active; 'I' for Inactive)
ROOT
ATOM      1  N1  IND d   1      -2.607   0.734   1.900  0.00  0.00    -0.196 N 
ATOM      2  C2  IND d   1      -3.581   1.263   2.700  0.00  0.00     0.054 A 
ATOM      3  C3  IND d   1      -3.085   1.538   3.927  0.00  0.00    -0.031 A 
ATOM      4  C4  IND d   1      -0.679   1.295   4.810  0.00  0.00     0.051 A 
ATOM      5  C5  IND d   1       0.554   0.821   4.460  0.00  0.00    -0.031 A 
ATOM      6  C6  IND d   1       0.803   0.286   3.212  0.00  0.00     0.015 A 
ATOM      7  C7  IND d   1      -0.175   0.215   2.260  0.00  0.00    -0.016 A 
ATOM      8  C8  IND d   1      -1.430   0.688   2.615  0.00  0.00    -0.047 A 
ATOM      9  C9  IND d   1      -1.699   1.193   3.894  0.00  0.00    -0.096 A 
ATOM     10  HN1 IND d   1      -2.712   0.474   1.088  0.00  0.00     0.298 HD
ENDROOT
TORSDOF 0
ENDMDL
