MODEL 1
REMARK minimizedAffinity 13.8871641
REMARK minimizedRMSD -1
REMARK  0 active torsions:
REMARK  status: ('A' for Active; 'I' for Inactive)
ROOT
ATOM      1  N1  IND d   1       1.468   4.307  -1.755  0.00  0.00    -0.196 N 
ATOM      2  C2  IND d   1       0.790   5.293  -1.094  0.00  0.00     0.054 A 
ATOM      3  C3  IND d   1       0.602   4.948   0.200  0.00  0.00    -0.031 A 
ATOM      4  C4  IND d   1       1.413   2.861   1.470  0.00  0.00     0.051 A 
ATOM      5  C5  IND d   1       2.041   1.662   1.283  0.00  0.00    -0.031 A 
ATOM      6  C6  IND d   1       2.523   1.277   0.048  0.00  0.00     0.015 A 
ATOM      7  C7  IND d   1       2.403   2.085  -1.047  0.00  0.00    -0.016 A 
ATOM      8  C8  IND d   1       1.760   3.300  -0.861  0.00  0.00    -0.047 A 
ATOM      9  C9  IND d   1       1.231   3.678   0.380  0.00  0.00    -0.096 A 
ATOM     10  HN1 IND d   1       1.678   4.315  -2.589  0.00  0.00     0.298 HD
ENDROOT
TORSDOF 0
ENDMDL
