MODEL 1
REMARK minimizedAffinity 0.474029452
REMARK minimizedRMSD -1
REMARK  0 active torsions:
REMARK  status: ('A' for Active; 'I' for Inactive)
ROOT
ATOM      1  N1  IND d   1       3.317  -2.476  -0.693  0.00  0.00    -0.196 N 
ATOM      2  C2  IND d   1       2.316  -1.667  -1.156  0.00  0.00     0.054 A 
ATOM      3  C3  IND d   1       1.504  -2.354  -1.990  0.00  0.00    -0.031 A 
ATOM      4  C4  IND d   1       1.570  -4.839  -2.658  0.00  0.00     0.051 A 
ATOM      5  C5  IND d   1       2.321  -5.973  -2.519  0.00  0.00    -0.031 A 
ATOM      6  C6  IND d   1       3.464  -6.000  -1.746  0.00  0.00     0.015 A 
ATOM      7  C7  IND d   1       3.894  -4.892  -1.071  0.00  0.00    -0.016 A 
ATOM      8  C8  IND d   1       3.138  -3.737  -1.216  0.00  0.00    -0.047 A 
ATOM      9  C9  IND d   1       2.001  -3.693  -2.033  0.00  0.00    -0.096 A 
ATOM     10  HN1 IND d   1       3.951  -2.236  -0.164  0.00  0.00     0.298 HD
ENDROOT
TORSDOF 0
ENDMDL
