MODEL 1
REMARK minimizedAffinity 25.5523605
REMARK minimizedRMSD -1
REMARK  0 active torsions:
REMARK  status: ('A' for Active; 'I' for Inactive)
ROOT
ATOM      1  N1  IND d   1      -3.549  -2.771  -3.221  0.00  0.00    -0.196 N 
ATOM      2  C2  IND d   1      -3.419  -4.129  -3.119  0.00  0.00     0.054 A 
ATOM      3  C3  IND d   1      -2.187  -4.451  -2.666  0.00  0.00    -0.031 A 
ATOM      4  C4  IND d   1      -0.260  -2.909  -1.931  0.00  0.00     0.051 A 
ATOM      5  C5  IND d   1       0.107  -1.594  -1.877  0.00  0.00    -0.031 A 
ATOM      6  C6  IND d   1      -0.745  -0.583  -2.274  0.00  0.00     0.015 A 
ATOM      7  C7  IND d   1      -2.005  -0.851  -2.730  0.00  0.00    -0.016 A 
ATOM      8  C8  IND d   1      -2.377  -2.186  -2.793  0.00  0.00    -0.047 A 
ATOM      9  C9  IND d   1      -1.502  -3.219  -2.433  0.00  0.00    -0.096 A 
ATOM     10  HN1 IND d   1      -4.245  -2.354  -3.504  0.00  0.00     0.298 HD
ENDROOT
TORSDOF 0
ENDMDL
