MODEL 1
REMARK minimizedAffinity 12.2239237
REMARK minimizedRMSD -1
REMARK  0 active torsions:
REMARK  status: ('A' for Active; 'I' for Inactive)
ROOT
ATOM      1  N1  IND d   1      -0.671  -1.165   2.695  0.00  0.00    -0.196 N 
ATOM      2  C2  IND d   1       0.244  -0.150   2.687  0.00  0.00     0.054 A 
ATOM      3  C3  IND d   1      -0.376   1.043   2.828  0.00  0.00    -0.031 A 
ATOM      4  C4  IND d   1      -2.872   1.556   3.190  0.00  0.00     0.051 A 
ATOM      5  C5  IND d   1      -4.100   0.957   3.233  0.00  0.00    -0.031 A 
ATOM      6  C6  IND d   1      -4.250  -0.408   3.099  0.00  0.00     0.015 A 
ATOM      7  C7  IND d   1      -3.172  -1.230   2.927  0.00  0.00    -0.016 A 
ATOM      8  C8  IND d   1      -1.925  -0.624   2.876  0.00  0.00    -0.047 A 
ATOM      9  C9  IND d   1      -1.770   0.765   2.969  0.00  0.00    -0.096 A 
ATOM     10  HN1 IND d   1      -0.493  -2.001   2.602  0.00  0.00     0.298 HD
ENDROOT
TORSDOF 0
ENDMDL
