MODEL 1
REMARK minimizedAffinity 8.82787228
REMARK minimizedRMSD -1
REMARK  0 active torsions:
REMARK  status: ('A' for Active; 'I' for Inactive)
ROOT
ATOM      1  N1  IND d   1      -3.456   0.716   2.100  0.00  0.00    -0.196 N 
ATOM      2  C2  IND d   1      -4.316  -0.228   2.587  0.00  0.00     0.054 A 
ATOM      3  C3  IND d   1      -4.280  -0.245   3.938  0.00  0.00    -0.031 A 
ATOM      4  C4  IND d   1      -2.960   1.259   5.558  0.00  0.00     0.051 A 
ATOM      5  C5  IND d   1      -2.013   2.244   5.584  0.00  0.00    -0.031 A 
ATOM      6  C6  IND d   1      -1.490   2.782   4.426  0.00  0.00     0.015 A 
ATOM      7  C7  IND d   1      -1.905   2.362   3.194  0.00  0.00    -0.016 A 
ATOM      8  C8  IND d   1      -2.861   1.357   3.164  0.00  0.00    -0.047 A 
ATOM      9  C9  IND d   1      -3.365   0.777   4.335  0.00  0.00    -0.096 A 
ATOM     10  HN1 IND d   1      -3.311   0.881   1.269  0.00  0.00     0.298 HD
ENDROOT
TORSDOF 0
ENDMDL
