MODEL 1
REMARK minimizedAffinity 12.1994839
REMARK minimizedRMSD -1
REMARK  0 active torsions:
REMARK  status: ('A' for Active; 'I' for Inactive)
ROOT
ATOM      1  N1  IND d   1       2.338  -3.917  -0.736  0.00  0.00    -0.196 N 
ATOM      2  C2  IND d   1       3.561  -4.077  -1.327  0.00  0.00     0.054 A 
ATOM      3  C3  IND d   1       3.912  -2.954  -1.992  0.00  0.00    -0.031 A 
ATOM      4  C4  IND d   1       2.680  -0.699  -2.159  0.00  0.00     0.051 A 
ATOM      5  C5  IND d   1       1.509  -0.084  -1.816  0.00  0.00    -0.031 A 
ATOM      6  C6  IND d   1       0.537  -0.726  -1.078  0.00  0.00     0.015 A 
ATOM      7  C7  IND d   1       0.704  -2.011  -0.644  0.00  0.00    -0.016 A 
ATOM      8  C8  IND d   1       1.889  -2.642  -0.996  0.00  0.00    -0.047 A 
ATOM      9  C9  IND d   1       2.861  -2.009  -1.781  0.00  0.00    -0.096 A 
ATOM     10  HN1 IND d   1       1.921  -4.514  -0.278  0.00  0.00     0.298 HD
ENDROOT
TORSDOF 0
ENDMDL
