MODEL 1
REMARK minimizedAffinity 18.5555172
REMARK minimizedRMSD -1
REMARK  0 active torsions:
REMARK  status: ('A' for Active; 'I' for Inactive)
ROOT
ATOM      1  N1  IND d   1       2.823   2.286  -1.297  0.00  0.00    -0.196 N 
ATOM      2  C2  IND d   1       3.412   1.940  -0.113  0.00  0.00     0.054 A 
ATOM      3  C3  IND d   1       3.308   0.608   0.093  0.00  0.00    -0.031 A 
ATOM      4  C4  IND d   1       2.302  -1.208  -1.428  0.00  0.00     0.051 A 
ATOM      5  C5  IND d   1       1.613  -1.374  -2.597  0.00  0.00    -0.031 A 
ATOM      6  C6  IND d   1       1.287  -0.308  -3.409  0.00  0.00     0.015 A 
ATOM      7  C7  IND d   1       1.651   0.970  -3.088  0.00  0.00    -0.016 A 
ATOM      8  C8  IND d   1       2.345   1.143  -1.899  0.00  0.00    -0.047 A 
ATOM      9  C9  IND d   1       2.640   0.069  -1.049  0.00  0.00    -0.096 A 
ATOM     10  HN1 IND d   1       2.761   3.083  -1.612  0.00  0.00     0.298 HD
ENDROOT
TORSDOF 0
ENDMDL
