MODEL 1
REMARK minimizedAffinity -2.47102141
REMARK minimizedRMSD -1
REMARK  0 active torsions:
REMARK  status: ('A' for Active; 'I' for Inactive)
ROOT
ATOM      1  N1  IND d   1       0.131  -1.099   0.840  0.00  0.00    -0.196 N 
ATOM      2  C2  IND d   1      -0.138  -2.296   0.238  0.00  0.00     0.054 A 
ATOM      3  C3  IND d   1       0.051  -2.204  -1.097  0.00  0.00    -0.031 A 
ATOM      4  C4  IND d   1       0.896  -0.214  -2.496  0.00  0.00     0.051 A 
ATOM      5  C5  IND d   1       1.237   1.105  -2.395  0.00  0.00    -0.031 A 
ATOM      6  C6  IND d   1       1.229   1.770  -1.186  0.00  0.00     0.015 A 
ATOM      7  C7  IND d   1       0.889   1.135  -0.026  0.00  0.00    -0.016 A 
ATOM      8  C8  IND d   1       0.536  -0.203  -0.125  0.00  0.00    -0.047 A 
ATOM      9  C9  IND d   1       0.501  -0.873  -1.355  0.00  0.00    -0.096 A 
ATOM     10  HN1 IND d   1       0.059  -0.933   1.681  0.00  0.00     0.298 HD
ENDROOT
TORSDOF 0
ENDMDL
