MODEL 1
REMARK minimizedAffinity -2.89584112
REMARK minimizedRMSD -1
REMARK  0 active torsions:
REMARK  status: ('A' for Active; 'I' for Inactive)
ROOT
ATOM      1  C2' OXE d   1       0.229  -0.254  -0.281  0.00  0.00     0.078 C 
ATOM      2  C1' OXE d   1      -0.851   0.187   2.273  0.00  0.00     0.078 C 
ATOM      3  C1  OXE d   1      -0.610   1.389   1.394  0.00  0.00    -0.078 A 
ATOM      4  C2  OXE d   1      -0.038   1.168   0.164  0.00  0.00    -0.078 A 
ATOM      5  C3  OXE d   1       0.156   2.236  -0.708  0.00  0.00     0.003 A 
ATOM      6  C4  OXE d   1      -0.084   3.549  -0.285  0.00  0.00    -0.002 A 
ATOM      7  C5  OXE d   1      -0.629   3.799   0.979  0.00  0.00    -0.002 A 
ATOM      8  C6  OXE d   1      -0.937   2.730   1.812  0.00  0.00     0.003 A 
ENDROOT
TORSDOF 0
ENDMDL
