MODEL 1
REMARK minimizedAffinity -3.42731833
REMARK minimizedRMSD -1
REMARK  0 active torsions:
REMARK  status: ('A' for Active; 'I' for Inactive)
ROOT
ATOM      1  C2' OXE d   1      -0.751  -0.495   1.912  0.00  0.00     0.078 C 
ATOM      2  C1' OXE d   1       0.592  -0.859  -0.526  0.00  0.00     0.078 C 
ATOM      3  C1  OXE d   1       0.294   0.554  -0.091  0.00  0.00    -0.078 A 
ATOM      4  C2  OXE d   1      -0.405   0.721   1.080  0.00  0.00    -0.078 A 
ATOM      5  C3  OXE d   1      -0.659   2.005   1.554  0.00  0.00     0.003 A 
ATOM      6  C4  OXE d   1      -0.345   3.124   0.773  0.00  0.00    -0.002 A 
ATOM      7  C5  OXE d   1       0.332   2.974  -0.442  0.00  0.00    -0.002 A 
ATOM      8  C6  OXE d   1       0.695   1.701  -0.867  0.00  0.00     0.003 A 
ENDROOT
TORSDOF 0
ENDMDL
