MODEL 1
REMARK minimizedAffinity -2.20509815
REMARK minimizedRMSD -1
REMARK  0 active torsions:
REMARK  status: ('A' for Active; 'I' for Inactive)
ROOT
ATOM      1  C2' OXE d   1       1.624   1.040  -1.096  0.00  0.00     0.078 C 
ATOM      2  C1' OXE d   1       0.321   3.364  -0.214  0.00  0.00     0.078 C 
ATOM      3  C1  OXE d   1      -0.058   2.056   0.435  0.00  0.00    -0.078 A 
ATOM      4  C2  OXE d   1       0.551   0.918  -0.035  0.00  0.00    -0.078 A 
ATOM      5  C3  OXE d   1       0.279  -0.308   0.566  0.00  0.00     0.003 A 
ATOM      6  C4  OXE d   1      -0.722  -0.413   1.539  0.00  0.00    -0.002 A 
ATOM      7  C5  OXE d   1      -1.382   0.728   2.005  0.00  0.00    -0.002 A 
ATOM      8  C6  OXE d   1      -1.033   1.974   1.494  0.00  0.00     0.003 A 
ENDROOT
TORSDOF 0
ENDMDL
