MODEL 1
REMARK minimizedAffinity -3.41381001
REMARK minimizedRMSD -1
REMARK  0 active torsions:
REMARK  status: ('A' for Active; 'I' for Inactive)
ROOT
ATOM      1  C2' OXE d   1      -0.492  -0.635   1.859  0.00  0.00     0.078 C 
ATOM      2  C1' OXE d   1       0.769  -0.598  -0.648  0.00  0.00     0.078 C 
ATOM      3  C1  OXE d   1       0.299   0.717  -0.078  0.00  0.00    -0.078 A 
ATOM      4  C2  OXE d   1      -0.359   0.683   1.128  0.00  0.00    -0.078 A 
ATOM      5  C3  OXE d   1      -0.766   1.874   1.724  0.00  0.00     0.003 A 
ATOM      6  C4  OXE d   1      -0.648   3.088   1.037  0.00  0.00    -0.002 A 
ATOM      7  C5  OXE d   1      -0.016   3.139  -0.210  0.00  0.00    -0.002 A 
ATOM      8  C6  OXE d   1       0.500   1.971  -0.761  0.00  0.00     0.003 A 
ENDROOT
TORSDOF 0
ENDMDL
