MODEL 1
REMARK minimizedAffinity -2.97814631
REMARK minimizedRMSD -1
REMARK  0 active torsions:
REMARK  status: ('A' for Active; 'I' for Inactive)
ROOT
ATOM      1  C2' OXE d   1       1.538  -0.225  -0.796  0.00  0.00     0.078 C 
ATOM      2  C1' OXE d   1       0.320   2.284  -0.480  0.00  0.00     0.078 C 
ATOM      3  C1  OXE d   1      -0.011   1.210   0.525  0.00  0.00    -0.078 A 
ATOM      4  C2  OXE d   1       0.553  -0.029   0.335  0.00  0.00    -0.078 A 
ATOM      5  C3  OXE d   1       0.323  -1.040   1.264  0.00  0.00     0.003 A 
ATOM      6  C4  OXE d   1      -0.597  -0.854   2.302  0.00  0.00    -0.002 A 
ATOM      7  C5  OXE d   1      -1.214   0.388   2.490  0.00  0.00    -0.002 A 
ATOM      8  C6  OXE d   1      -0.900   1.440   1.637  0.00  0.00     0.003 A 
ENDROOT
TORSDOF 0
ENDMDL
