MODEL 1
REMARK minimizedAffinity -4.59117413
REMARK minimizedRMSD -1
REMARK  0 active torsions:
REMARK  status: ('A' for Active; 'I' for Inactive)
ROOT
ATOM      1  C2' OXE d   1       2.132  -2.395  -2.101  0.00  0.00     0.078 C 
ATOM      2  C1' OXE d   1      -0.506  -3.341  -2.273  0.00  0.00     0.078 C 
ATOM      3  C1  OXE d   1      -0.220  -2.226  -1.298  0.00  0.00    -0.078 A 
ATOM      4  C2  OXE d   1       1.082  -1.801  -1.187  0.00  0.00    -0.078 A 
ATOM      5  C3  OXE d   1       1.391  -0.738  -0.343  0.00  0.00     0.003 A 
ATOM      6  C4  OXE d   1       0.416  -0.202   0.507  0.00  0.00    -0.002 A 
ATOM      7  C5  OXE d   1      -0.908  -0.647   0.438  0.00  0.00    -0.002 A 
ATOM      8  C6  OXE d   1      -1.251  -1.627  -0.487  0.00  0.00     0.003 A 
ENDROOT
TORSDOF 0
ENDMDL
