MODEL 1
REMARK minimizedAffinity -0.841052711
REMARK minimizedRMSD -1
REMARK  0 active torsions:
REMARK  status: ('A' for Active; 'I' for Inactive)
ROOT
ATOM      1  C2' OXE d   1      -0.831   0.847   2.264  0.00  0.00     0.078 C 
ATOM      2  C1' OXE d   1       0.657  -1.463   2.838  0.00  0.00     0.078 C 
ATOM      3  C1  OXE d   1       0.439  -1.109   1.388  0.00  0.00    -0.078 A 
ATOM      4  C2  OXE d   1      -0.329  -0.003   1.117  0.00  0.00    -0.078 A 
ATOM      5  C3  OXE d   1      -0.516   0.399  -0.203  0.00  0.00     0.003 A 
ATOM      6  C4  OXE d   1      -0.058  -0.398  -1.259  0.00  0.00    -0.002 A 
ATOM      7  C5  OXE d   1       0.693  -1.550  -1.004  0.00  0.00    -0.002 A 
ATOM      8  C6  OXE d   1       0.986  -1.896   0.311  0.00  0.00     0.003 A 
ENDROOT
TORSDOF 0
ENDMDL
