MODEL 1
REMARK minimizedAffinity -3.8426652
REMARK minimizedRMSD -1
REMARK  0 active torsions:
REMARK  status: ('A' for Active; 'I' for Inactive)
ROOT
ATOM      1  C2' OXE d   1       0.963   1.743  -1.427  0.00  0.00     0.078 C 
ATOM      2  C1' OXE d   1      -0.025   3.569   0.463  0.00  0.00     0.078 C 
ATOM      3  C1  OXE d   1      -0.264   2.100   0.711  0.00  0.00    -0.078 A 
ATOM      4  C2  OXE d   1       0.182   1.217  -0.243  0.00  0.00    -0.078 A 
ATOM      5  C3  OXE d   1       0.035  -0.152  -0.037  0.00  0.00     0.003 A 
ATOM      6  C4  OXE d   1      -0.697  -0.630   1.056  0.00  0.00    -0.002 A 
ATOM      7  C5  OXE d   1      -1.194   0.255   2.019  0.00  0.00    -0.002 A 
ATOM      8  C6  OXE d   1      -0.950   1.617   1.884  0.00  0.00     0.003 A 
ENDROOT
TORSDOF 0
ENDMDL
