MODEL 1
REMARK minimizedAffinity -3.06867909
REMARK minimizedRMSD -1
REMARK  0 active torsions:
REMARK  status: ('A' for Active; 'I' for Inactive)
ROOT
ATOM      1  C2' OXE d   1       0.008  -1.964  -2.039  0.00  0.00     0.078 C 
ATOM      2  C1' OXE d   1       1.912  -0.154  -1.051  0.00  0.00     0.078 C 
ATOM      3  C1  OXE d   1       0.690  -0.419  -0.208  0.00  0.00    -0.078 A 
ATOM      4  C2  OXE d   1      -0.259  -1.270  -0.721  0.00  0.00    -0.078 A 
ATOM      5  C3  OXE d   1      -1.380  -1.592   0.040  0.00  0.00     0.003 A 
ATOM      6  C4  OXE d   1      -1.624  -0.938   1.254  0.00  0.00    -0.002 A 
ATOM      7  C5  OXE d   1      -0.689  -0.037   1.776  0.00  0.00    -0.002 A 
ATOM      8  C6  OXE d   1       0.490   0.201   1.079  0.00  0.00     0.003 A 
ENDROOT
TORSDOF 0
ENDMDL
