MODEL 1
REMARK minimizedAffinity -3.29229522
REMARK minimizedRMSD -1
REMARK  0 active torsions:
REMARK  status: ('A' for Active; 'I' for Inactive)
ROOT
ATOM      1  C2' OXE d   1      -0.771  -0.494   1.831  0.00  0.00     0.078 C 
ATOM      2  C1' OXE d   1       0.406  -0.801  -0.699  0.00  0.00     0.078 C 
ATOM      3  C1  OXE d   1       0.123   0.601  -0.220  0.00  0.00    -0.078 A 
ATOM      4  C2  OXE d   1      -0.496   0.740   0.999  0.00  0.00    -0.078 A 
ATOM      5  C3  OXE d   1      -0.730   2.012   1.512  0.00  0.00     0.003 A 
ATOM      6  C4  OXE d   1      -0.482   3.148   0.731  0.00  0.00    -0.002 A 
ATOM      7  C5  OXE d   1       0.111   3.027  -0.530  0.00  0.00    -0.002 A 
ATOM      8  C6  OXE d   1       0.458   1.766  -1.001  0.00  0.00     0.003 A 
ENDROOT
TORSDOF 0
ENDMDL
