MODEL 1
REMARK minimizedAffinity -2.87822819
REMARK minimizedRMSD -1
REMARK  0 active torsions:
REMARK  status: ('A' for Active; 'I' for Inactive)
ROOT
ATOM      1  C2' OXE d   1       2.014   0.127  -1.116  0.00  0.00     0.078 C 
ATOM      2  C1' OXE d   1       0.465  -2.092  -1.863  0.00  0.00     0.078 C 
ATOM      3  C1  OXE d   1      -0.029  -1.243  -0.719  0.00  0.00    -0.078 A 
ATOM      4  C2  OXE d   1       0.759  -0.186  -0.330  0.00  0.00    -0.078 A 
ATOM      5  C3  OXE d   1       0.322   0.662   0.684  0.00  0.00     0.003 A 
ATOM      6  C4  OXE d   1      -0.835   0.360   1.412  0.00  0.00    -0.002 A 
ATOM      7  C5  OXE d   1      -1.631  -0.735   1.058  0.00  0.00    -0.002 A 
ATOM      8  C6  OXE d   1      -1.265  -1.519  -0.030  0.00  0.00     0.003 A 
ENDROOT
TORSDOF 0
ENDMDL
