MODEL 1
REMARK minimizedAffinity -4.84903193
REMARK minimizedRMSD -1
REMARK  0 active torsions:
REMARK  status: ('A' for Active; 'I' for Inactive)
ROOT
ATOM      1  C2' OXE d   1      -0.973  -0.021   2.209  0.00  0.00     0.078 C 
ATOM      2  C1' OXE d   1       0.434  -0.641  -0.139  0.00  0.00     0.078 C 
ATOM      3  C1  OXE d   1       0.082   0.804   0.109  0.00  0.00    -0.078 A 
ATOM      4  C2  OXE d   1      -0.648   1.093   1.237  0.00  0.00    -0.078 A 
ATOM      5  C3  OXE d   1      -0.952   2.416   1.541  0.00  0.00     0.003 A 
ATOM      6  C4  OXE d   1      -0.656   3.439   0.632  0.00  0.00    -0.002 A 
ATOM      7  C5  OXE d   1       0.051   3.161  -0.543  0.00  0.00    -0.002 A 
ATOM      8  C6  OXE d   1       0.464   1.858  -0.798  0.00  0.00     0.003 A 
ENDROOT
TORSDOF 0
ENDMDL
