MODEL 1
REMARK minimizedAffinity -1.37389123
REMARK minimizedRMSD -1
REMARK  0 active torsions:
REMARK  status: ('A' for Active; 'I' for Inactive)
ROOT
ATOM      1  C2' OXE d   1       1.519   0.727  -1.351  0.00  0.00     0.078 C 
ATOM      2  C1' OXE d   1       0.174  -1.731  -1.522  0.00  0.00     0.078 C 
ATOM      3  C1  OXE d   1      -0.162  -0.824  -0.364  0.00  0.00    -0.078 A 
ATOM      4  C2  OXE d   1       0.535   0.356  -0.263  0.00  0.00    -0.078 A 
ATOM      5  C3  OXE d   1       0.225   1.253   0.755  0.00  0.00     0.003 A 
ATOM      6  C4  OXE d   1      -0.679   0.898   1.763  0.00  0.00    -0.002 A 
ATOM      7  C5  OXE d   1      -1.371  -0.316   1.700  0.00  0.00    -0.002 A 
ATOM      8  C6  OXE d   1      -1.156  -1.168   0.622  0.00  0.00     0.003 A 
ENDROOT
TORSDOF 0
ENDMDL
