MODEL 1
REMARK minimizedAffinity -2.79740906
REMARK minimizedRMSD -1
REMARK  0 active torsions:
REMARK  status: ('A' for Active; 'I' for Inactive)
ROOT
ATOM      1  C2' OXE d   1      -0.989   3.326   1.493  0.00  0.00     0.078 C 
ATOM      2  C1' OXE d   1       0.210   2.992  -1.023  0.00  0.00     0.078 C 
ATOM      3  C1  OXE d   1       0.101   1.782  -0.129  0.00  0.00    -0.078 A 
ATOM      4  C2  OXE d   1      -0.445   1.965   1.118  0.00  0.00    -0.078 A 
ATOM      5  C3  OXE d   1      -0.619   0.871   1.962  0.00  0.00     0.003 A 
ATOM      6  C4  OXE d   1      -0.104  -0.383   1.612  0.00  0.00    -0.002 A 
ATOM      7  C5  OXE d   1       0.492  -0.582   0.362  0.00  0.00    -0.002 A 
ATOM      8  C6  OXE d   1       0.563   0.478  -0.536  0.00  0.00     0.003 A 
ENDROOT
TORSDOF 0
ENDMDL
