MODEL 1
REMARK minimizedAffinity -3.21001744
REMARK minimizedRMSD -1
REMARK  0 active torsions:
REMARK  status: ('A' for Active; 'I' for Inactive)
ROOT
ATOM      1  C2' OXE d   1      -0.081  -0.965   1.896  0.00  0.00     0.078 C 
ATOM      2  C1' OXE d   1       1.181  -0.695  -0.597  0.00  0.00     0.078 C 
ATOM      3  C1  OXE d   1       0.597   0.545   0.034  0.00  0.00    -0.078 A 
ATOM      4  C2  OXE d   1      -0.060   0.395   1.231  0.00  0.00    -0.078 A 
ATOM      5  C3  OXE d   1      -0.569   1.515   1.883  0.00  0.00     0.003 A 
ATOM      6  C4  OXE d   1      -0.555   2.767   1.257  0.00  0.00    -0.002 A 
ATOM      7  C5  OXE d   1       0.074   2.934   0.018  0.00  0.00    -0.002 A 
ATOM      8  C6  OXE d   1       0.690   1.844  -0.586  0.00  0.00     0.003 A 
ENDROOT
TORSDOF 0
ENDMDL
