MODEL 1
REMARK minimizedAffinity -3.97849679
REMARK minimizedRMSD -1
REMARK  0 active torsions:
REMARK  status: ('A' for Active; 'I' for Inactive)
ROOT
ATOM      1  C2' OXE d   1      -0.951  -0.167   1.734  0.00  0.00     0.078 C 
ATOM      2  C1' OXE d   1       0.578  -0.035  -0.617  0.00  0.00     0.078 C 
ATOM      3  C1  OXE d   1       0.125   1.264   0.002  0.00  0.00    -0.078 A 
ATOM      4  C2  OXE d   1      -0.662   1.188   1.126  0.00  0.00    -0.078 A 
ATOM      5  C3  OXE d   1      -1.061   2.357   1.767  0.00  0.00     0.003 A 
ATOM      6  C4  OXE d   1      -0.798   3.607   1.193  0.00  0.00    -0.002 A 
ATOM      7  C5  OXE d   1      -0.032   3.704   0.026  0.00  0.00    -0.002 A 
ATOM      8  C6  OXE d   1       0.472   2.547  -0.557  0.00  0.00     0.003 A 
ENDROOT
TORSDOF 0
ENDMDL
