MODEL 1
REMARK minimizedAffinity -3.94226599
REMARK minimizedRMSD -1
REMARK  0 active torsions:
REMARK  status: ('A' for Active; 'I' for Inactive)
ROOT
ATOM      1  C2' OXE d   1       0.016  -0.679   1.940  0.00  0.00     0.078 C 
ATOM      2  C1' OXE d   1       1.149  -0.766  -0.627  0.00  0.00     0.078 C 
ATOM      3  C1  OXE d   1       0.721   0.578  -0.092  0.00  0.00    -0.078 A 
ATOM      4  C2  OXE d   1       0.125   0.605   1.146  0.00  0.00    -0.078 A 
ATOM      5  C3  OXE d   1      -0.238   1.825   1.709  0.00  0.00     0.003 A 
ATOM      6  C4  OXE d   1      -0.143   3.006   0.964  0.00  0.00    -0.002 A 
ATOM      7  C5  OXE d   1       0.425   2.995  -0.314  0.00  0.00    -0.002 A 
ATOM      8  C6  OXE d   1       0.900   1.798  -0.839  0.00  0.00     0.003 A 
ENDROOT
TORSDOF 0
ENDMDL
