MODEL 1
REMARK minimizedAffinity -3.10266733
REMARK minimizedRMSD -1
REMARK  0 active torsions:
REMARK  status: ('A' for Active; 'I' for Inactive)
ROOT
ATOM      1  C2' OXE d   1       0.881  -0.843  -0.351  0.00  0.00     0.078 C 
ATOM      2  C1' OXE d   1      -1.087  -1.399   1.573  0.00  0.00     0.078 C 
ATOM      3  C1  OXE d   1      -0.791   0.048   1.267  0.00  0.00    -0.078 A 
ATOM      4  C2  OXE d   1       0.206   0.311   0.358  0.00  0.00    -0.078 A 
ATOM      5  C3  OXE d   1       0.481   1.627  -0.001  0.00  0.00     0.003 A 
ATOM      6  C4  OXE d   1      -0.140   2.689   0.667  0.00  0.00    -0.002 A 
ATOM      7  C5  OXE d   1      -1.131   2.443   1.625  0.00  0.00    -0.002 A 
ATOM      8  C6  OXE d   1      -1.497   1.132   1.905  0.00  0.00     0.003 A 
ENDROOT
TORSDOF 0
ENDMDL
