MODEL 1
REMARK minimizedAffinity -3.98225188
REMARK minimizedRMSD -1
REMARK  1 active torsions:
REMARK  status: ('A' for Active; 'I' for Inactive)
REMARK    1  A    between atoms: C1_2  and  C2_3 
ROOT
ATOM      1  C2  UNL d   1       1.844   1.218   0.513  0.00  0.00    -0.073 A 
ATOM      2  C3  UNL d   1       2.333   1.477   1.798  0.00  0.00    -0.002 A 
ATOM      3  C4  UNL d   1       3.463   2.276   1.975  0.00  0.00     0.004 A 
ATOM      4  C5  UNL d   1       4.111   2.829   0.870  0.00  0.00    -0.004 A 
ATOM      5  C6  UNL d   1       3.631   2.592  -0.422  0.00  0.00    -0.075 A 
ATOM      6  C7  UNL d   1       4.317   3.178  -1.620  0.00  0.00     0.076 C 
ATOM      7  C8  UNL d   1       2.497   1.786  -0.591  0.00  0.00     0.001 A 
ENDROOT
BRANCH   1   8
ATOM      8  C1  UNL d   1       0.620   0.361   0.318  0.00  0.00     0.053 C 
ATOM      9  C   UNL d   1       0.063   0.474  -1.093  0.00  0.00     0.018 C 
ENDBRANCH   1   8
TORSDOF 1
ENDMDL
