MODEL 1
REMARK minimizedAffinity -3.35959816
REMARK minimizedRMSD -1
REMARK  1 active torsions:
REMARK  status: ('A' for Active; 'I' for Inactive)
REMARK    1  A    between atoms: C1_2  and  C2_3 
ROOT
ATOM      1  C2  UNL d   1       4.008   2.689  -1.190  0.00  0.00    -0.073 A 
ATOM      2  C3  UNL d   1       3.677   3.693  -0.274  0.00  0.00    -0.002 A 
ATOM      3  C4  UNL d   1       2.734   3.451   0.726  0.00  0.00     0.004 A 
ATOM      4  C5  UNL d   1       2.120   2.203   0.826  0.00  0.00    -0.004 A 
ATOM      5  C6  UNL d   1       2.447   1.182  -0.073  0.00  0.00    -0.075 A 
ATOM      6  C7  UNL d   1       1.794  -0.165   0.019  0.00  0.00     0.076 C 
ATOM      7  C8  UNL d   1       3.392   1.434  -1.077  0.00  0.00     0.001 A 
ENDROOT
BRANCH   1   8
ATOM      8  C1  UNL d   1       5.030   2.943  -2.269  0.00  0.00     0.053 C 
ATOM      9  C   UNL d   1       5.369   4.419  -2.395  0.00  0.00     0.018 C 
ENDBRANCH   1   8
TORSDOF 1
ENDMDL
