MODEL 1
REMARK minimizedAffinity -2.64216089
REMARK minimizedRMSD -1
REMARK  1 active torsions:
REMARK  status: ('A' for Active; 'I' for Inactive)
REMARK    1  A    between atoms: C1_2  and  C2_3 
ROOT
ATOM      1  C2  UNL d   1       1.703   1.588   0.221  0.00  0.00    -0.073 A 
ATOM      2  C3  UNL d   1       1.331   2.397   1.301  0.00  0.00    -0.002 A 
ATOM      3  C4  UNL d   1       2.072   3.537   1.615  0.00  0.00     0.004 A 
ATOM      4  C5  UNL d   1       3.186   3.883   0.850  0.00  0.00    -0.004 A 
ATOM      5  C6  UNL d   1       3.567   3.093  -0.240  0.00  0.00    -0.075 A 
ATOM      6  C7  UNL d   1       4.764   3.451  -1.071  0.00  0.00     0.076 C 
ATOM      7  C8  UNL d   1       2.819   1.949  -0.547  0.00  0.00     0.001 A 
ENDROOT
BRANCH   1   8
ATOM      8  C1  UNL d   1       0.902   0.359  -0.126  0.00  0.00     0.053 C 
ATOM      9  C   UNL d   1      -0.284   0.685  -1.019  0.00  0.00     0.018 C 
ENDBRANCH   1   8
TORSDOF 1
ENDMDL
