MODEL 1
REMARK minimizedAffinity -2.48665094
REMARK minimizedRMSD -1
REMARK  1 active torsions:
REMARK  status: ('A' for Active; 'I' for Inactive)
REMARK    1  A    between atoms: C1_2  and  C2_3 
ROOT
ATOM      1  C2  UNL d   1       0.393   0.294   0.094  0.00  0.00    -0.073 A 
ATOM      2  C3  UNL d   1      -0.186  -0.966   0.286  0.00  0.00    -0.002 A 
ATOM      3  C4  UNL d   1      -1.182  -1.422  -0.578  0.00  0.00     0.004 A 
ATOM      4  C5  UNL d   1      -1.604  -0.629  -1.644  0.00  0.00    -0.004 A 
ATOM      5  C6  UNL d   1      -1.030   0.628  -1.859  0.00  0.00    -0.075 A 
ATOM      6  C7  UNL d   1      -1.474   1.495  -3.001  0.00  0.00     0.076 C 
ATOM      7  C8  UNL d   1      -0.032   1.081  -0.986  0.00  0.00     0.001 A 
ENDROOT
BRANCH   1   8
ATOM      8  C1  UNL d   1       1.474   0.789   1.021  0.00  0.00     0.053 C 
ATOM      9  C   UNL d   1       2.256   1.945   0.418  0.00  0.00     0.018 C 
ENDBRANCH   1   8
TORSDOF 1
ENDMDL
