MODEL 1
REMARK minimizedAffinity 6.0182519
REMARK minimizedRMSD -1
REMARK  1 active torsions:
REMARK  status: ('A' for Active; 'I' for Inactive)
REMARK    1  A    between atoms: C1_2  and  C2_3 
ROOT
ATOM      1  C2  UNL d   1      -2.058   0.321  -2.308  0.00  0.00    -0.073 A 
ATOM      2  C3  UNL d   1      -1.213  -0.632  -2.888  0.00  0.00    -0.002 A 
ATOM      3  C4  UNL d   1      -1.229  -1.954  -2.441  0.00  0.00     0.004 A 
ATOM      4  C5  UNL d   1      -2.092  -2.338  -1.415  0.00  0.00    -0.004 A 
ATOM      5  C6  UNL d   1      -2.953  -1.403  -0.830  0.00  0.00    -0.075 A 
ATOM      6  C7  UNL d   1      -3.886  -1.799   0.276  0.00  0.00     0.076 C 
ATOM      7  C8  UNL d   1      -2.929  -0.077  -1.283  0.00  0.00     0.001 A 
ENDROOT
BRANCH   1   8
ATOM      8  C1  UNL d   1      -2.050   1.748  -2.792  0.00  0.00     0.053 C 
ATOM      9  C   UNL d   1      -1.098   1.947  -3.960  0.00  0.00     0.018 C 
ENDBRANCH   1   8
TORSDOF 1
ENDMDL
