MODEL 1
REMARK minimizedAffinity -4.17580891
REMARK minimizedRMSD -1
REMARK  1 active torsions:
REMARK  status: ('A' for Active; 'I' for Inactive)
REMARK    1  A    between atoms: C1_2  and  C2_3 
ROOT
ATOM      1  C2  UNL d   1       3.401   2.778   0.007  0.00  0.00    -0.073 A 
ATOM      2  C3  UNL d   1       3.139   3.621   1.092  0.00  0.00    -0.002 A 
ATOM      3  C4  UNL d   1       2.455   3.140   2.209  0.00  0.00     0.004 A 
ATOM      4  C5  UNL d   1       2.033   1.811   2.255  0.00  0.00    -0.004 A 
ATOM      5  C6  UNL d   1       2.297   0.950   1.185  0.00  0.00    -0.075 A 
ATOM      6  C7  UNL d   1       1.849  -0.482   1.218  0.00  0.00     0.076 C 
ATOM      7  C8  UNL d   1       2.982   1.442   0.066  0.00  0.00     0.001 A 
ENDROOT
BRANCH   1   8
ATOM      8  C1  UNL d   1       4.145   3.292  -1.199  0.00  0.00     0.053 C 
ATOM      9  C   UNL d   1       4.212   4.811  -1.223  0.00  0.00     0.018 C 
ENDBRANCH   1   8
TORSDOF 1
ENDMDL
