MODEL 1
REMARK minimizedAffinity -3.65466452
REMARK minimizedRMSD -1
REMARK  1 active torsions:
REMARK  status: ('A' for Active; 'I' for Inactive)
REMARK    1  A    between atoms: C1_2  and  C2_3 
ROOT
ATOM      1  C2  UNL d   1      -0.170   0.837  -0.680  0.00  0.00    -0.073 A 
ATOM      2  C3  UNL d   1       0.385  -0.291  -0.063  0.00  0.00    -0.002 A 
ATOM      3  C4  UNL d   1       1.518  -0.168   0.742  0.00  0.00     0.004 A 
ATOM      4  C5  UNL d   1       2.104   1.082   0.944  0.00  0.00    -0.004 A 
ATOM      5  C6  UNL d   1       1.557   2.222   0.346  0.00  0.00    -0.075 A 
ATOM      6  C7  UNL d   1       2.176   3.573   0.551  0.00  0.00     0.076 C 
ATOM      7  C8  UNL d   1       0.420   2.090  -0.463  0.00  0.00     0.001 A 
ENDROOT
BRANCH   1   8
ATOM      8  C1  UNL d   1      -1.397   0.710  -1.544  0.00  0.00     0.053 C 
ATOM      9  C   UNL d   1      -2.229  -0.509  -1.178  0.00  0.00     0.018 C 
ENDBRANCH   1   8
TORSDOF 1
ENDMDL
