MODEL 1
REMARK minimizedAffinity -3.12980962
REMARK minimizedRMSD -1
REMARK  1 active torsions:
REMARK  status: ('A' for Active; 'I' for Inactive)
REMARK    1  A    between atoms: C1_2  and  C2_3 
ROOT
ATOM      1  C2  UNL d   1       1.280   0.813   0.517  0.00  0.00    -0.073 A 
ATOM      2  C3  UNL d   1       1.396   1.275   1.833  0.00  0.00    -0.002 A 
ATOM      3  C4  UNL d   1       2.341   2.250   2.157  0.00  0.00     0.004 A 
ATOM      4  C5  UNL d   1       3.172   2.778   1.169  0.00  0.00    -0.004 A 
ATOM      5  C6  UNL d   1       3.062   2.338  -0.154  0.00  0.00    -0.075 A 
ATOM      6  C7  UNL d   1       3.950   2.894  -1.229  0.00  0.00     0.076 C 
ATOM      7  C8  UNL d   1       2.113   1.357  -0.471  0.00  0.00     0.001 A 
ENDROOT
BRANCH   1   8
ATOM      8  C1  UNL d   1       0.257  -0.235   0.161  0.00  0.00     0.053 C 
ATOM      9  C   UNL d   1      -0.578   0.169  -1.044  0.00  0.00     0.018 C 
ENDBRANCH   1   8
TORSDOF 1
ENDMDL
