MODEL 1
REMARK minimizedAffinity -3.39812708
REMARK minimizedRMSD -1
REMARK  1 active torsions:
REMARK  status: ('A' for Active; 'I' for Inactive)
REMARK    1  A    between atoms: C1_2  and  C2_3 
ROOT
ATOM      1  C2  UNL d   1       2.267   1.546   0.101  0.00  0.00    -0.073 A 
ATOM      2  C3  UNL d   1       2.182   2.115   1.377  0.00  0.00    -0.002 A 
ATOM      3  C4  UNL d   1       2.777   3.349   1.640  0.00  0.00     0.004 A 
ATOM      4  C5  UNL d   1       3.458   4.030   0.630  0.00  0.00    -0.004 A 
ATOM      5  C6  UNL d   1       3.544   3.483  -0.654  0.00  0.00    -0.075 A 
ATOM      6  C7  UNL d   1       4.274   4.202  -1.751  0.00  0.00     0.076 C 
ATOM      7  C8  UNL d   1       2.945   2.242  -0.910  0.00  0.00     0.001 A 
ENDROOT
BRANCH   1   8
ATOM      8  C1  UNL d   1       1.620   0.217  -0.189  0.00  0.00     0.053 C 
ATOM      9  C   UNL d   1       0.309   0.374  -0.943  0.00  0.00     0.018 C 
ENDBRANCH   1   8
TORSDOF 1
ENDMDL
