MODEL 1
REMARK minimizedAffinity -4.78378916
REMARK minimizedRMSD -1
REMARK  1 active torsions:
REMARK  status: ('A' for Active; 'I' for Inactive)
REMARK    1  A    between atoms: C1_2  and  C2_3 
ROOT
ATOM      1  C2  UNL d   1       0.039   0.361   1.555  0.00  0.00    -0.076 A 
ATOM      2  C3  UNL d   1       0.798  -0.679   2.119  0.00  0.00     0.004 A 
ATOM      3  C4  UNL d   1       2.187  -0.695   2.008  0.00  0.00    -0.003 A 
ATOM      4  C5  UNL d   1       2.840   0.330   1.331  0.00  0.00     0.000 A 
ATOM      5  C6  UNL d   1       2.104   1.379   0.781  0.00  0.00     0.000 A 
ATOM      6  C7  UNL d   1       0.704   1.418   0.898  0.00  0.00    -0.073 A 
ATOM      7  C8  UNL d   1      -0.040   2.570   0.280  0.00  0.00     0.078 C 
ENDROOT
BRANCH   1   8
ATOM      8  C1  UNL d   1      -1.467   0.311   1.683  0.00  0.00     0.053 C 
ATOM      9  C   UNL d   1      -2.142  -0.213   0.425  0.00  0.00     0.018 C 
ENDBRANCH   1   8
TORSDOF 1
ENDMDL
