MODEL 1
REMARK minimizedAffinity -2.34675264
REMARK minimizedRMSD -1
REMARK  1 active torsions:
REMARK  status: ('A' for Active; 'I' for Inactive)
REMARK    1  A    between atoms: C1_2  and  C2_3 
ROOT
ATOM      1  C2  UNL d   1      -0.229   0.292   0.981  0.00  0.00    -0.076 A 
ATOM      2  C3  UNL d   1      -1.254   0.652   1.873  0.00  0.00     0.004 A 
ATOM      3  C4  UNL d   1      -0.991   1.454   2.982  0.00  0.00    -0.003 A 
ATOM      4  C5  UNL d   1       0.302   1.910   3.217  0.00  0.00     0.000 A 
ATOM      5  C6  UNL d   1       1.327   1.577   2.333  0.00  0.00     0.000 A 
ATOM      6  C7  UNL d   1       1.076   0.783   1.201  0.00  0.00    -0.073 A 
ATOM      7  C8  UNL d   1       2.221   0.450   0.284  0.00  0.00     0.078 C 
ENDROOT
BRANCH   1   8
ATOM      8  C1  UNL d   1      -0.569  -0.602  -0.190  0.00  0.00     0.053 C 
ATOM      9  C   UNL d   1      -2.000  -0.415  -0.670  0.00  0.00     0.018 C 
ENDBRANCH   1   8
TORSDOF 1
ENDMDL
