MODEL 1
REMARK minimizedAffinity 2.51998568
REMARK minimizedRMSD -1
REMARK  1 active torsions:
REMARK  status: ('A' for Active; 'I' for Inactive)
REMARK    1  A    between atoms: C1_2  and  C2_3 
ROOT
ATOM      1  C2  UNL d   1       0.287   1.213   1.424  0.00  0.00    -0.076 A 
ATOM      2  C3  UNL d   1       0.192   1.423   2.810  0.00  0.00     0.004 A 
ATOM      3  C4  UNL d   1      -0.889   0.929   3.538  0.00  0.00    -0.003 A 
ATOM      4  C5  UNL d   1      -1.893   0.216   2.891  0.00  0.00     0.000 A 
ATOM      5  C6  UNL d   1      -1.806  -0.017   1.519  0.00  0.00     0.000 A 
ATOM      6  C7  UNL d   1      -0.714   0.460   0.773  0.00  0.00    -0.073 A 
ATOM      7  C8  UNL d   1      -0.675   0.185  -0.705  0.00  0.00     0.078 C 
ENDROOT
BRANCH   1   8
ATOM      8  C1  UNL d   1       1.469   1.795   0.682  0.00  0.00     0.053 C 
ATOM      9  C   UNL d   1       2.788   1.164   1.100  0.00  0.00     0.018 C 
ENDBRANCH   1   8
TORSDOF 1
ENDMDL
