MODEL 1
REMARK minimizedAffinity 0.541240692
REMARK minimizedRMSD -1
REMARK  1 active torsions:
REMARK  status: ('A' for Active; 'I' for Inactive)
REMARK    1  A    between atoms: C1_2  and  C2_3 
ROOT
ATOM      1  C2  UNL d   1       0.245   0.799   1.337  0.00  0.00    -0.076 A 
ATOM      2  C3  UNL d   1      -0.079   0.195   0.110  0.00  0.00     0.004 A 
ATOM      3  C4  UNL d   1      -1.323  -0.400  -0.090  0.00  0.00    -0.003 A 
ATOM      4  C5  UNL d   1      -2.265  -0.400   0.933  0.00  0.00     0.000 A 
ATOM      5  C6  UNL d   1      -1.967   0.210   2.151  0.00  0.00     0.000 A 
ATOM      6  C7  UNL d   1      -0.723   0.829   2.364  0.00  0.00    -0.073 A 
ATOM      7  C8  UNL d   1      -0.453   1.466   3.699  0.00  0.00     0.078 C 
ENDROOT
BRANCH   1   8
ATOM      8  C1  UNL d   1       1.620   1.405   1.506  0.00  0.00     0.053 C 
ATOM      9  C   UNL d   1       2.605   0.916   0.455  0.00  0.00     0.018 C 
ENDBRANCH   1   8
TORSDOF 1
ENDMDL
