MODEL 1
REMARK minimizedAffinity -3.71185255
REMARK minimizedRMSD -1
REMARK  1 active torsions:
REMARK  status: ('A' for Active; 'I' for Inactive)
REMARK    1  A    between atoms: C1_2  and  C2_3 
ROOT
ATOM      1  C2  UNL d   1       0.538   0.292   1.404  0.00  0.00    -0.076 A 
ATOM      2  C3  UNL d   1       0.330  -0.634   0.368  0.00  0.00     0.004 A 
ATOM      3  C4  UNL d   1      -0.949  -1.101   0.069  0.00  0.00    -0.003 A 
ATOM      4  C5  UNL d   1      -2.041  -0.648   0.802  0.00  0.00     0.000 A 
ATOM      5  C6  UNL d   1      -1.855   0.284   1.822  0.00  0.00     0.000 A 
ATOM      6  C7  UNL d   1      -0.574   0.777   2.125  0.00  0.00    -0.073 A 
ATOM      7  C8  UNL d   1      -0.431   1.777   3.240  0.00  0.00     0.078 C 
ENDROOT
BRANCH   1   8
ATOM      8  C1  UNL d   1       1.951   0.742   1.700  0.00  0.00     0.053 C 
ATOM      9  C   UNL d   1       2.723   1.106   0.441  0.00  0.00     0.018 C 
ENDBRANCH   1   8
TORSDOF 1
ENDMDL
