MODEL 1
REMARK minimizedAffinity 2.6222291
REMARK minimizedRMSD -1
REMARK  1 active torsions:
REMARK  status: ('A' for Active; 'I' for Inactive)
REMARK    1  A    between atoms: C1_2  and  C2_3 
ROOT
ATOM      1  C2  UNL d   1       0.115   1.238   1.017  0.00  0.00    -0.076 A 
ATOM      2  C3  UNL d   1      -0.035   0.630  -0.241  0.00  0.00     0.004 A 
ATOM      3  C4  UNL d   1      -0.979  -0.375  -0.444  0.00  0.00    -0.003 A 
ATOM      4  C5  UNL d   1      -1.789  -0.787   0.608  0.00  0.00     0.000 A 
ATOM      5  C6  UNL d   1      -1.667  -0.182   1.858  0.00  0.00     0.000 A 
ATOM      6  C7  UNL d   1      -0.731   0.843   2.076  0.00  0.00    -0.073 A 
ATOM      7  C8  UNL d   1      -0.637   1.456   3.446  0.00  0.00     0.078 C 
ENDROOT
BRANCH   1   8
ATOM      8  C1  UNL d   1       1.175   2.304   1.185  0.00  0.00     0.053 C 
ATOM      9  C   UNL d   1       2.497   1.738   1.679  0.00  0.00     0.018 C 
ENDBRANCH   1   8
TORSDOF 1
ENDMDL
