MODEL 1
REMARK minimizedAffinity -5.45158291
REMARK minimizedRMSD -1
REMARK  1 active torsions:
REMARK  status: ('A' for Active; 'I' for Inactive)
REMARK    1  A    between atoms: C1_2  and  C2_3 
ROOT
ATOM      1  C2  UNL d   1       0.869   0.576   1.702  0.00  0.00    -0.076 A 
ATOM      2  C3  UNL d   1       1.127   0.801   3.065  0.00  0.00     0.004 A 
ATOM      3  C4  UNL d   1       0.085   0.888   3.987  0.00  0.00    -0.003 A 
ATOM      4  C5  UNL d   1      -1.232   0.750   3.560  0.00  0.00     0.000 A 
ATOM      5  C6  UNL d   1      -1.504   0.508   2.214  0.00  0.00     0.000 A 
ATOM      6  C7  UNL d   1      -0.465   0.402   1.275  0.00  0.00    -0.073 A 
ATOM      7  C8  UNL d   1      -0.816   0.146  -0.165  0.00  0.00     0.078 C 
ENDROOT
BRANCH   1   8
ATOM      8  C1  UNL d   1       2.038   0.518   0.744  0.00  0.00     0.053 C 
ATOM      9  C   UNL d   1       2.889  -0.727   0.938  0.00  0.00     0.018 C 
ENDBRANCH   1   8
TORSDOF 1
ENDMDL
