MODEL 1
REMARK minimizedAffinity 1.93361723
REMARK minimizedRMSD -1
REMARK  1 active torsions:
REMARK  status: ('A' for Active; 'I' for Inactive)
REMARK    1  A    between atoms: N_2  and  C1_3 
ROOT
ATOM      1  C1  UNL d   1       3.905   5.331  -4.346  0.00  0.00     0.143 A 
ATOM      2  C2  UNL d   1       4.200   3.984  -4.110  0.00  0.00    -0.057 A 
ATOM      3  C3  UNL d   1       5.246   3.341  -4.783  0.00  0.00     0.033 A 
ATOM      4  C4  UNL d   1       5.999   4.028  -5.729  0.00  0.00    -0.042 A 
ATOM      5  C5  UNL d   1       5.707   5.361  -5.999  0.00  0.00     0.033 A 
ATOM      6  C6  UNL d   1       4.666   5.999  -5.318  0.00  0.00    -0.057 A 
ENDROOT
BRANCH   1   7
ATOM      7  N   UNL d   1       2.816   5.999  -3.781  0.00  0.00    -0.732 N 
ATOM      8  C   UNL d   1       2.096   5.424  -2.665  0.00  0.00     0.284 C 
ATOM      9  H3  UNL d   1       2.974   7.001  -3.702  0.00  0.00     0.395 HD
ENDBRANCH   1   7
TORSDOF 1
ENDMDL
