MODEL 1
REMARK minimizedAffinity 0.492713481
REMARK minimizedRMSD -1
REMARK  1 active torsions:
REMARK  status: ('A' for Active; 'I' for Inactive)
REMARK    1  A    between atoms: N_2  and  C1_3 
ROOT
ATOM      1  C1  UNL d   1       3.650   4.868  -3.316  0.00  0.00     0.143 A 
ATOM      2  C2  UNL d   1       4.783   5.645  -3.053  0.00  0.00    -0.057 A 
ATOM      3  C3  UNL d   1       5.942   5.525  -3.828  0.00  0.00     0.033 A 
ATOM      4  C4  UNL d   1       6.000   4.600  -4.865  0.00  0.00    -0.042 A 
ATOM      5  C5  UNL d   1       4.894   3.799  -5.129  0.00  0.00     0.033 A 
ATOM      6  C6  UNL d   1       3.737   3.929  -4.356  0.00  0.00    -0.057 A 
ENDROOT
BRANCH   1   7
ATOM      7  N   UNL d   1       2.502   4.871  -2.520  0.00  0.00    -0.732 N 
ATOM      8  C   UNL d   1       2.605   4.870  -1.076  0.00  0.00     0.284 C 
ATOM      9  H3  UNL d   1       1.778   5.487  -2.884  0.00  0.00     0.395 HD
ENDBRANCH   1   7
TORSDOF 1
ENDMDL
