MODEL 1
REMARK minimizedAffinity 19.128828
REMARK minimizedRMSD -1
REMARK  1 active torsions:
REMARK  status: ('A' for Active; 'I' for Inactive)
REMARK    1  A    between atoms: N_2  and  C1_3 
ROOT
ATOM      1  C1  UNL d   1      -3.870  -3.892  -4.620  0.00  0.00     0.143 A 
ATOM      2  C2  UNL d   1      -3.184  -4.949  -5.226  0.00  0.00    -0.057 A 
ATOM      3  C3  UNL d   1      -3.870  -5.987  -5.868  0.00  0.00     0.033 A 
ATOM      4  C4  UNL d   1      -5.261  -6.000  -5.890  0.00  0.00    -0.042 A 
ATOM      5  C5  UNL d   1      -5.964  -4.972  -5.272  0.00  0.00     0.033 A 
ATOM      6  C6  UNL d   1      -5.273  -3.935  -4.638  0.00  0.00    -0.057 A 
ENDROOT
BRANCH   1   7
ATOM      7  N   UNL d   1      -3.247  -2.883  -3.881  0.00  0.00    -0.732 N 
ATOM      8  C   UNL d   1      -1.804  -2.788  -3.832  0.00  0.00     0.284 C 
ATOM      9  H3  UNL d   1      -3.720  -1.986  -3.972  0.00  0.00     0.395 HD
ENDBRANCH   1   7
TORSDOF 1
ENDMDL
