MODEL 1
REMARK minimizedAffinity 1.83985996
REMARK minimizedRMSD -1
REMARK  1 active torsions:
REMARK  status: ('A' for Active; 'I' for Inactive)
REMARK    1  A    between atoms: N_2  and  C1_3 
ROOT
ATOM      1  C1  UNL d   1      -1.434  -2.201  -0.924  0.00  0.00     0.143 A 
ATOM      2  C2  UNL d   1      -0.103  -2.551  -0.674  0.00  0.00    -0.057 A 
ATOM      3  C3  UNL d   1       0.850  -2.561  -1.699  0.00  0.00     0.033 A 
ATOM      4  C4  UNL d   1       0.481  -2.246  -3.003  0.00  0.00    -0.042 A 
ATOM      5  C5  UNL d   1      -0.842  -1.919  -3.279  0.00  0.00     0.033 A 
ATOM      6  C6  UNL d   1      -1.788  -1.905  -2.249  0.00  0.00    -0.057 A 
ENDROOT
BRANCH   1   7
ATOM      7  N   UNL d   1      -2.449  -2.268   0.034  0.00  0.00    -0.732 N 
ATOM      8  C   UNL d   1      -3.666  -3.004  -0.232  0.00  0.00     0.284 C 
ATOM      9  H3  UNL d   1      -2.086  -2.392   0.977  0.00  0.00     0.395 HD
ENDBRANCH   1   7
TORSDOF 1
ENDMDL
