MODEL 1
REMARK minimizedAffinity 3.31573772
REMARK minimizedRMSD -1
REMARK  1 active torsions:
REMARK  status: ('A' for Active; 'I' for Inactive)
REMARK    1  A    between atoms: N_2  and  C1_3 
ROOT
ATOM      1  C1  UNL d   1       4.401   5.017  -3.544  0.00  0.00     0.143 A 
ATOM      2  C2  UNL d   1       5.217   3.894  -3.372  0.00  0.00    -0.057 A 
ATOM      3  C3  UNL d   1       5.999   3.735  -2.221  0.00  0.00     0.033 A 
ATOM      4  C4  UNL d   1       6.000   4.713  -1.233  0.00  0.00    -0.042 A 
ATOM      5  C5  UNL d   1       5.215   5.850  -1.394  0.00  0.00     0.033 A 
ATOM      6  C6  UNL d   1       4.431   6.000  -2.542  0.00  0.00    -0.057 A 
ENDROOT
BRANCH   1   7
ATOM      7  N   UNL d   1       3.676   5.281  -4.709  0.00  0.00    -0.732 N 
ATOM      8  C   UNL d   1       4.358   5.591  -5.947  0.00  0.00     0.284 C 
ATOM      9  H3  UNL d   1       2.878   4.659  -4.819  0.00  0.00     0.395 HD
ENDBRANCH   1   7
TORSDOF 1
ENDMDL
