MODEL 1
REMARK minimizedAffinity 16.2100697
REMARK minimizedRMSD -1
REMARK  1 active torsions:
REMARK  status: ('A' for Active; 'I' for Inactive)
REMARK    1  A    between atoms: N_2  and  C1_3 
ROOT
ATOM      1  C1  UNL d   1       3.590  -2.636   3.859  0.00  0.00     0.143 A 
ATOM      2  C2  UNL d   1       4.761  -3.071   3.228  0.00  0.00    -0.057 A 
ATOM      3  C3  UNL d   1       5.943  -3.271   3.951  0.00  0.00     0.033 A 
ATOM      4  C4  UNL d   1       5.983  -3.011   5.316  0.00  0.00    -0.042 A 
ATOM      5  C5  UNL d   1       4.838  -2.554   5.959  0.00  0.00     0.033 A 
ATOM      6  C6  UNL d   1       3.659  -2.362   5.234  0.00  0.00    -0.057 A 
ENDROOT
BRANCH   1   7
ATOM      7  N   UNL d   1       2.410  -2.323   3.179  0.00  0.00    -0.732 N 
ATOM      8  C   UNL d   1       1.433  -3.351   2.887  0.00  0.00     0.284 C 
ATOM      9  H3  UNL d   1       2.007  -1.441   3.485  0.00  0.00     0.395 HD
ENDBRANCH   1   7
TORSDOF 1
ENDMDL
