MODEL 1
REMARK minimizedAffinity 5.8090086
REMARK minimizedRMSD -1
REMARK  1 active torsions:
REMARK  status: ('A' for Active; 'I' for Inactive)
REMARK    1  A    between atoms: N_2  and  C1_3 
ROOT
ATOM      1  C1  UNL d   1       1.783  -1.957  -2.814  0.00  0.00     0.143 A 
ATOM      2  C2  UNL d   1       1.574  -2.558  -1.568  0.00  0.00    -0.057 A 
ATOM      3  C3  UNL d   1       0.320  -2.525  -0.947  0.00  0.00     0.033 A 
ATOM      4  C4  UNL d   1      -0.744  -1.862  -1.549  0.00  0.00    -0.042 A 
ATOM      5  C5  UNL d   1      -0.553  -1.236  -2.776  0.00  0.00     0.033 A 
ATOM      6  C6  UNL d   1       0.700  -1.279  -3.394  0.00  0.00    -0.057 A 
ENDROOT
BRANCH   1   7
ATOM      7  N   UNL d   1       3.030  -1.871  -3.437  0.00  0.00    -0.732 N 
ATOM      8  C   UNL d   1       3.414  -2.826  -4.455  0.00  0.00     0.284 C 
ATOM      9  H3  UNL d   1       3.294  -0.911  -3.647  0.00  0.00     0.395 HD
ENDBRANCH   1   7
TORSDOF 1
ENDMDL
