MODEL 1
REMARK minimizedAffinity 13.1054163
REMARK minimizedRMSD -1
REMARK  1 active torsions:
REMARK  status: ('A' for Active; 'I' for Inactive)
REMARK    1  A    between atoms: N_2  and  C1_3 
ROOT
ATOM      1  C1  UNL d   1      -3.249  -3.783  -5.265  0.00  0.00     0.143 A 
ATOM      2  C2  UNL d   1      -4.444  -3.662  -4.549  0.00  0.00    -0.057 A 
ATOM      3  C3  UNL d   1      -5.386  -4.698  -4.529  0.00  0.00     0.033 A 
ATOM      4  C4  UNL d   1      -5.160  -5.866  -5.250  0.00  0.00    -0.042 A 
ATOM      5  C5  UNL d   1      -3.990  -5.997  -5.989  0.00  0.00     0.033 A 
ATOM      6  C6  UNL d   1      -3.050  -4.962  -6.000  0.00  0.00    -0.057 A 
ENDROOT
BRANCH   1   7
ATOM      7  N   UNL d   1      -2.318  -2.750  -5.404  0.00  0.00    -0.732 N 
ATOM      8  C   UNL d   1      -1.501  -2.338  -4.283  0.00  0.00     0.284 C 
ATOM      9  H3  UNL d   1      -1.818  -2.795  -6.289  0.00  0.00     0.395 HD
ENDBRANCH   1   7
TORSDOF 1
ENDMDL
