MODEL 1
REMARK minimizedAffinity 3.81029081
REMARK minimizedRMSD -1
REMARK  1 active torsions:
REMARK  status: ('A' for Active; 'I' for Inactive)
REMARK    1  A    between atoms: N_2  and  C1_3 
ROOT
ATOM      1  C1  UNL d   1      -1.544  -2.185  -2.425  0.00  0.00     0.143 A 
ATOM      2  C2  UNL d   1      -0.374  -2.942  -2.301  0.00  0.00    -0.057 A 
ATOM      3  C3  UNL d   1       0.370  -2.939  -1.115  0.00  0.00     0.033 A 
ATOM      4  C4  UNL d   1      -0.028  -2.153  -0.039  0.00  0.00    -0.042 A 
ATOM      5  C5  UNL d   1      -1.174  -1.373  -0.149  0.00  0.00     0.033 A 
ATOM      6  C6  UNL d   1      -1.917  -1.385  -1.333  0.00  0.00    -0.057 A 
ENDROOT
BRANCH   1   7
ATOM      7  N   UNL d   1      -2.273  -2.069  -3.611  0.00  0.00    -0.732 N 
ATOM      8  C   UNL d   1      -2.657  -3.248  -4.358  0.00  0.00     0.284 C 
ATOM      9  H3  UNL d   1      -3.000  -1.359  -3.552  0.00  0.00     0.395 HD
ENDBRANCH   1   7
TORSDOF 1
ENDMDL
