MODEL 1
REMARK minimizedAffinity 9.52649784
REMARK minimizedRMSD -1
REMARK  1 active torsions:
REMARK  status: ('A' for Active; 'I' for Inactive)
REMARK    1  A    between atoms: N_2  and  C1_3 
ROOT
ATOM      1  C1  UNL d   1       0.573  -2.887  -2.641  0.00  0.00     0.143 A 
ATOM      2  C2  UNL d   1      -0.402  -1.932  -2.947  0.00  0.00    -0.057 A 
ATOM      3  C3  UNL d   1      -1.120  -1.278  -1.938  0.00  0.00     0.033 A 
ATOM      4  C4  UNL d   1      -0.896  -1.591  -0.602  0.00  0.00    -0.042 A 
ATOM      5  C5  UNL d   1       0.051  -2.556  -0.275  0.00  0.00     0.033 A 
ATOM      6  C6  UNL d   1       0.770  -3.200  -1.286  0.00  0.00    -0.057 A 
ENDROOT
BRANCH   1   7
ATOM      7  N   UNL d   1       1.251  -3.642  -3.601  0.00  0.00    -0.732 N 
ATOM      8  C   UNL d   1       2.276  -3.038  -4.425  0.00  0.00     0.284 C 
ATOM      9  H3  UNL d   1       1.481  -4.576  -3.269  0.00  0.00     0.395 HD
ENDBRANCH   1   7
TORSDOF 1
ENDMDL
