MODEL 1
REMARK minimizedAffinity 12.5596609
REMARK minimizedRMSD -1
REMARK  1 active torsions:
REMARK  status: ('A' for Active; 'I' for Inactive)
REMARK    1  A    between atoms: N_2  and  C1_3 
ROOT
ATOM      1  C1  UNL d   1       4.962  -0.613  -4.123  0.00  0.00     0.143 A 
ATOM      2  C2  UNL d   1       4.882  -1.884  -3.543  0.00  0.00    -0.057 A 
ATOM      3  C3  UNL d   1       3.766  -2.705  -3.744  0.00  0.00     0.033 A 
ATOM      4  C4  UNL d   1       2.694  -2.257  -4.508  0.00  0.00    -0.042 A 
ATOM      5  C5  UNL d   1       2.740  -0.988  -5.074  0.00  0.00     0.033 A 
ATOM      6  C6  UNL d   1       3.860  -0.175  -4.875  0.00  0.00    -0.057 A 
ENDROOT
BRANCH   1   7
ATOM      7  N   UNL d   1       6.000   0.289  -3.880  0.00  0.00    -0.732 N 
ATOM      8  C   UNL d   1       5.995   1.601  -4.492  0.00  0.00     0.284 C 
ATOM      9  H3  UNL d   1       6.298   0.286  -2.907  0.00  0.00     0.395 HD
ENDBRANCH   1   7
TORSDOF 1
ENDMDL
