MODEL 1
REMARK minimizedAffinity 11.3471909
REMARK minimizedRMSD -1
REMARK  1 active torsions:
REMARK  status: ('A' for Active; 'I' for Inactive)
REMARK    1  A    between atoms: N_2  and  C1_3 
ROOT
ATOM      1  C1  UNL d   1      -0.805  -1.130  -1.602  0.00  0.00     0.143 A 
ATOM      2  C2  UNL d   1      -0.738  -1.949  -2.735  0.00  0.00    -0.057 A 
ATOM      3  C3  UNL d   1      -0.255  -3.261  -2.654  0.00  0.00     0.033 A 
ATOM      4  C4  UNL d   1       0.199  -3.769  -1.441  0.00  0.00    -0.042 A 
ATOM      5  C5  UNL d   1       0.165  -2.964  -0.308  0.00  0.00     0.033 A 
ATOM      6  C6  UNL d   1      -0.325  -1.658  -0.393  0.00  0.00    -0.057 A 
ENDROOT
BRANCH   1   7
ATOM      7  N   UNL d   1      -1.183   0.214  -1.636  0.00  0.00    -0.732 N 
ATOM      8  C   UNL d   1      -0.733   1.132  -0.612  0.00  0.00     0.284 C 
ATOM      9  H3  UNL d   1      -1.163   0.599  -2.578  0.00  0.00     0.395 HD
ENDBRANCH   1   7
TORSDOF 1
ENDMDL
