MODEL 1
REMARK minimizedAffinity 10.3968563
REMARK minimizedRMSD -1
REMARK  1 active torsions:
REMARK  status: ('A' for Active; 'I' for Inactive)
REMARK    1  A    between atoms: N_2  and  C1_3 
ROOT
ATOM      1  C1  UNL d   1      -1.502  -2.681  -2.742  0.00  0.00     0.143 A 
ATOM      2  C2  UNL d   1      -1.501  -1.645  -1.801  0.00  0.00    -0.057 A 
ATOM      3  C3  UNL d   1      -0.599  -1.636  -0.731  0.00  0.00     0.033 A 
ATOM      4  C4  UNL d   1       0.303  -2.683  -0.565  0.00  0.00    -0.042 A 
ATOM      5  C5  UNL d   1       0.303  -3.735  -1.474  0.00  0.00     0.033 A 
ATOM      6  C6  UNL d   1      -0.596  -3.735  -2.544  0.00  0.00    -0.057 A 
ENDROOT
BRANCH   1   7
ATOM      7  N   UNL d   1      -2.439  -2.796  -3.771  0.00  0.00    -0.732 N 
ATOM      8  C   UNL d   1      -2.583  -4.037  -4.501  0.00  0.00     0.284 C 
ATOM      9  H3  UNL d   1      -3.321  -2.341  -3.546  0.00  0.00     0.395 HD
ENDBRANCH   1   7
TORSDOF 1
ENDMDL
