MODEL 1
REMARK minimizedAffinity 6.32764626
REMARK minimizedRMSD -1
REMARK  1 active torsions:
REMARK  status: ('A' for Active; 'I' for Inactive)
REMARK    1  A    between atoms: N_2  and  C1_3 
ROOT
ATOM      1  C1  UNL d   1       0.011  -4.050  -3.118  0.00  0.00     0.143 A 
ATOM      2  C2  UNL d   1       0.258  -4.759  -1.938  0.00  0.00    -0.057 A 
ATOM      3  C3  UNL d   1       0.055  -4.174  -0.682  0.00  0.00     0.033 A 
ATOM      4  C4  UNL d   1      -0.372  -2.854  -0.584  0.00  0.00    -0.042 A 
ATOM      5  C5  UNL d   1      -0.599  -2.121  -1.744  0.00  0.00     0.033 A 
ATOM      6  C6  UNL d   1      -0.401  -2.713  -2.995  0.00  0.00    -0.057 A 
ENDROOT
BRANCH   1   7
ATOM      7  N   UNL d   1       0.288  -4.544  -4.395  0.00  0.00    -0.732 N 
ATOM      8  C   UNL d   1       1.637  -4.522  -4.917  0.00  0.00     0.284 C 
ATOM      9  H3  UNL d   1      -0.223  -5.399  -4.599  0.00  0.00     0.395 HD
ENDBRANCH   1   7
TORSDOF 1
ENDMDL
