MODEL 1
REMARK minimizedAffinity 13.8336887
REMARK minimizedRMSD -1
REMARK  1 active torsions:
REMARK  status: ('A' for Active; 'I' for Inactive)
REMARK    1  A    between atoms: N_2  and  C1_3 
ROOT
ATOM      1  C1  UNL d   1       5.035  -0.957  -4.715  0.00  0.00     0.143 A 
ATOM      2  C2  UNL d   1       4.997  -1.207  -3.339  0.00  0.00    -0.057 A 
ATOM      3  C3  UNL d   1       4.767  -2.495  -2.841  0.00  0.00     0.033 A 
ATOM      4  C4  UNL d   1       4.542  -3.555  -3.713  0.00  0.00    -0.042 A 
ATOM      5  C5  UNL d   1       4.551  -3.325  -5.085  0.00  0.00     0.033 A 
ATOM      6  C6  UNL d   1       4.788  -2.038  -5.576  0.00  0.00    -0.057 A 
ENDROOT
BRANCH   1   7
ATOM      7  N   UNL d   1       5.161   0.318  -5.270  0.00  0.00    -0.732 N 
ATOM      8  C   UNL d   1       4.050   1.245  -5.247  0.00  0.00     0.284 C 
ATOM      9  H3  UNL d   1       6.062   0.744  -5.065  0.00  0.00     0.395 HD
ENDBRANCH   1   7
TORSDOF 1
ENDMDL
