MODEL 1
REMARK minimizedAffinity 1.56783962
REMARK minimizedRMSD -1
REMARK  1 active torsions:
REMARK  status: ('A' for Active; 'I' for Inactive)
REMARK    1  A    between atoms: N_2  and  C1_3 
ROOT
ATOM      1  C1  UNL d   1       1.301  -2.656  -3.714  0.00  0.00     0.143 A 
ATOM      2  C2  UNL d   1       0.823  -3.098  -4.952  0.00  0.00    -0.057 A 
ATOM      3  C3  UNL d   1      -0.527  -2.962  -5.300  0.00  0.00     0.033 A 
ATOM      4  C4  UNL d   1      -1.430  -2.406  -4.400  0.00  0.00    -0.042 A 
ATOM      5  C5  UNL d   1      -0.982  -1.983  -3.154  0.00  0.00     0.033 A 
ATOM      6  C6  UNL d   1       0.368  -2.116  -2.815  0.00  0.00    -0.057 A 
ENDROOT
BRANCH   1   7
ATOM      7  N   UNL d   1       2.611  -2.853  -3.271  0.00  0.00    -0.732 N 
ATOM      8  C   UNL d   1       3.656  -1.915  -3.621  0.00  0.00     0.284 C 
ATOM      9  H3  UNL d   1       2.651  -3.180  -2.308  0.00  0.00     0.395 HD
ENDBRANCH   1   7
TORSDOF 1
ENDMDL
