MODEL 1
REMARK minimizedAffinity 10.8427887
REMARK minimizedRMSD -1
REMARK  1 active torsions:
REMARK  status: ('A' for Active; 'I' for Inactive)
REMARK    1  A    between atoms: N_2  and  C1_3 
ROOT
ATOM      1  C1  UNL d   1      -1.347  -2.737  -3.313  0.00  0.00     0.143 A 
ATOM      2  C2  UNL d   1      -0.198  -3.472  -3.000  0.00  0.00    -0.057 A 
ATOM      3  C3  UNL d   1       0.651  -3.083  -1.957  0.00  0.00     0.033 A 
ATOM      4  C4  UNL d   1       0.380  -1.932  -1.224  0.00  0.00    -0.042 A 
ATOM      5  C5  UNL d   1      -0.742  -1.172  -1.533  0.00  0.00     0.033 A 
ATOM      6  C6  UNL d   1      -1.589  -1.569  -2.572  0.00  0.00    -0.057 A 
ENDROOT
BRANCH   1   7
ATOM      7  N   UNL d   1      -2.176  -3.016  -4.401  0.00  0.00    -0.732 N 
ATOM      8  C   UNL d   1      -2.232  -4.348  -4.964  0.00  0.00     0.284 C 
ATOM      9  H3  UNL d   1      -3.082  -2.558  -4.327  0.00  0.00     0.395 HD
ENDBRANCH   1   7
TORSDOF 1
ENDMDL
