MODEL 1
REMARK minimizedAffinity -1.51913476
REMARK minimizedRMSD -1
REMARK  0 active torsions:
REMARK  status: ('A' for Active; 'I' for Inactive)
ROOT
ATOM      1  C4' PXY d   1       1.266   0.394   1.001  0.00  0.00     0.077 C 
ATOM      2  C1' PXY d   1       4.520   4.488  -1.463  0.00  0.00     0.077 C 
ATOM      3  C1  PXY d   1       3.666   3.421  -0.806  0.00  0.00    -0.082 A 
ATOM      4  C2  PXY d   1       3.691   2.183  -1.274  0.00  0.00     0.003 A 
ATOM      5  C3  PXY d   1       2.901   1.214  -0.711  0.00  0.00     0.003 A 
ATOM      6  C4  PXY d   1       2.119   1.501   0.375  0.00  0.00    -0.082 A 
ATOM      7  C5  PXY d   1       2.096   2.759   0.864  0.00  0.00     0.003 A 
ATOM      8  C6  PXY d   1       2.874   3.739   0.253  0.00  0.00     0.003 A 
ENDROOT
TORSDOF 0
ENDMDL
