MODEL 1
REMARK minimizedAffinity -0.308894962
REMARK minimizedRMSD -1
REMARK  0 active torsions:
REMARK  status: ('A' for Active; 'I' for Inactive)
ROOT
ATOM      1  C4' PXY d   1      -2.115  -2.372   2.747  0.00  0.00     0.077 C 
ATOM      2  C1' PXY d   1       1.435   0.634  -0.684  0.00  0.00     0.077 C 
ATOM      3  C1  PXY d   1       0.494  -0.146   0.213  0.00  0.00    -0.082 A 
ATOM      4  C2  PXY d   1       0.989  -0.908   1.175  0.00  0.00     0.003 A 
ATOM      5  C3  PXY d   1       0.154  -1.645   1.975  0.00  0.00     0.003 A 
ATOM      6  C4  PXY d   1      -1.204  -1.560   1.823  0.00  0.00    -0.082 A 
ATOM      7  C5  PXY d   1      -1.717  -0.776   0.851  0.00  0.00     0.003 A 
ATOM      8  C6  PXY d   1      -0.851  -0.068   0.023  0.00  0.00     0.003 A 
ENDROOT
TORSDOF 0
ENDMDL
