MODEL 1
REMARK minimizedAffinity -0.805553615
REMARK minimizedRMSD -1
REMARK  0 active torsions:
REMARK  status: ('A' for Active; 'I' for Inactive)
ROOT
ATOM      1  C4' PXY d   1       4.134   3.920  -0.768  0.00  0.00     0.077 C 
ATOM      2  C1' PXY d   1      -0.110   0.291   0.727  0.00  0.00     0.077 C 
ATOM      3  C1  PXY d   1       0.997   1.253   0.341  0.00  0.00    -0.082 A 
ATOM      4  C2  PXY d   1       1.769   0.978  -0.698  0.00  0.00     0.003 A 
ATOM      5  C3  PXY d   1       2.795   1.821  -1.042  0.00  0.00     0.003 A 
ATOM      6  C4  PXY d   1       2.999   2.983  -0.348  0.00  0.00    -0.082 A 
ATOM      7  C5  PXY d   1       2.208   3.276   0.707  0.00  0.00     0.003 A 
ATOM      8  C6  PXY d   1       1.199   2.387   1.065  0.00  0.00     0.003 A 
ENDROOT
TORSDOF 0
ENDMDL
