MODEL 1
REMARK minimizedAffinity -2.93248153
REMARK minimizedRMSD -1
REMARK  0 active torsions:
REMARK  status: ('A' for Active; 'I' for Inactive)
ROOT
ATOM      1  C4' PXY d   1       2.066  -0.637  -2.670  0.00  0.00     0.077 C 
ATOM      2  C1' PXY d   1       2.557   2.272   2.302  0.00  0.00     0.077 C 
ATOM      3  C1  PXY d   1       2.424   1.499   1.005  0.00  0.00    -0.082 A 
ATOM      4  C2  PXY d   1       3.164   1.839  -0.038  0.00  0.00     0.003 A 
ATOM      5  C3  PXY d   1       3.033   1.171  -1.229  0.00  0.00     0.003 A 
ATOM      6  C4  PXY d   1       2.174   0.110  -1.337  0.00  0.00    -0.082 A 
ATOM      7  C5  PXY d   1       1.424  -0.250  -0.274  0.00  0.00     0.003 A 
ATOM      8  C6  PXY d   1       1.541   0.467   0.913  0.00  0.00     0.003 A 
ENDROOT
TORSDOF 0
ENDMDL
