MODEL 1
REMARK minimizedAffinity -1.09287453
REMARK minimizedRMSD -1
REMARK  0 active torsions:
REMARK  status: ('A' for Active; 'I' for Inactive)
ROOT
ATOM      1  C4' PXY d   1       0.041   1.037  -1.775  0.00  0.00     0.077 C 
ATOM      2  C1' PXY d   1      -1.837  -2.696   2.219  0.00  0.00     0.077 C 
ATOM      3  C1  PXY d   1      -1.354  -1.722   1.163  0.00  0.00    -0.082 A 
ATOM      4  C2  PXY d   1      -0.124  -1.239   1.233  0.00  0.00     0.003 A 
ATOM      5  C3  PXY d   1       0.319  -0.332   0.305  0.00  0.00     0.003 A 
ATOM      6  C4  PXY d   1      -0.487   0.044  -0.736  0.00  0.00    -0.082 A 
ATOM      7  C5  PXY d   1      -1.739  -0.453  -0.821  0.00  0.00     0.003 A 
ATOM      8  C6  PXY d   1      -2.184  -1.340   0.155  0.00  0.00     0.003 A 
ENDROOT
TORSDOF 0
ENDMDL
