MODEL 1
REMARK minimizedAffinity 1.70680988
REMARK minimizedRMSD -1
REMARK  0 active torsions:
REMARK  status: ('A' for Active; 'I' for Inactive)
ROOT
ATOM      1  C4' PXY d   1       2.232  -0.556  -4.804  0.00  0.00     0.077 C 
ATOM      2  C1' PXY d   1       0.889  -0.017   0.793  0.00  0.00     0.077 C 
ATOM      3  C1  PXY d   1       1.253  -0.154  -0.672  0.00  0.00    -0.082 A 
ATOM      4  C2  PXY d   1       0.304  -0.086  -1.591  0.00  0.00     0.003 A 
ATOM      5  C3  PXY d   1       0.612  -0.240  -2.919  0.00  0.00     0.003 A 
ATOM      6  C4  PXY d   1       1.911  -0.413  -3.313  0.00  0.00    -0.082 A 
ATOM      7  C5  PXY d   1       2.887  -0.472  -2.382  0.00  0.00     0.003 A 
ATOM      8  C6  PXY d   1       2.549  -0.355  -1.037  0.00  0.00     0.003 A 
ENDROOT
TORSDOF 0
ENDMDL
