MODEL 1
REMARK minimizedAffinity -0.501155436
REMARK minimizedRMSD -1
REMARK  0 active torsions:
REMARK  status: ('A' for Active; 'I' for Inactive)
ROOT
ATOM      1  C4' PXY d   1       2.133   0.869   0.050  0.00  0.00     0.077 C 
ATOM      2  C1' PXY d   1      -3.292  -1.123  -0.090  0.00  0.00     0.077 C 
ATOM      3  C1  PXY d   1      -1.869  -0.600  -0.040  0.00  0.00    -0.082 A 
ATOM      4  C2  PXY d   1      -1.377   0.055  -1.078  0.00  0.00     0.003 A 
ATOM      5  C3  PXY d   1      -0.082   0.507  -1.063  0.00  0.00     0.003 A 
ATOM      6  C4  PXY d   1       0.699   0.332   0.048  0.00  0.00    -0.082 A 
ATOM      7  C5  PXY d   1       0.200  -0.327   1.115  0.00  0.00     0.003 A 
ATOM      8  C6  PXY d   1      -1.103  -0.813   1.064  0.00  0.00     0.003 A 
ENDROOT
TORSDOF 0
ENDMDL
