MODEL 1
REMARK minimizedAffinity 0.718692839
REMARK minimizedRMSD -1
REMARK  0 active torsions:
REMARK  status: ('A' for Active; 'I' for Inactive)
ROOT
ATOM      1  C4' PXY d   1      -0.576  -0.969   1.104  0.00  0.00     0.077 C 
ATOM      2  C1' PXY d   1       3.445   3.173   0.821  0.00  0.00     0.077 C 
ATOM      3  C1  PXY d   1       2.386   2.091   0.884  0.00  0.00    -0.082 A 
ATOM      4  C2  PXY d   1       2.010   1.610   2.058  0.00  0.00     0.003 A 
ATOM      5  C3  PXY d   1       1.077   0.609   2.131  0.00  0.00     0.003 A 
ATOM      6  C4  PXY d   1       0.483   0.131   0.994  0.00  0.00    -0.082 A 
ATOM      7  C5  PXY d   1       0.853   0.624  -0.207  0.00  0.00     0.003 A 
ATOM      8  C6  PXY d   1       1.832   1.611  -0.263  0.00  0.00     0.003 A 
ENDROOT
TORSDOF 0
ENDMDL
