MODEL 1
REMARK minimizedAffinity -5.83494425
REMARK minimizedRMSD -1
REMARK  0 active torsions:
REMARK  status: ('A' for Active; 'I' for Inactive)
ROOT
ATOM      1  C4' PXY d   1      -1.324  -0.373   1.009  0.00  0.00     0.077 C 
ATOM      2  C1' PXY d   1       3.405   2.951   1.074  0.00  0.00     0.077 C 
ATOM      3  C1  PXY d   1       2.157   2.090   1.060  0.00  0.00    -0.082 A 
ATOM      4  C2  PXY d   1       2.253   0.795   1.316  0.00  0.00     0.003 A 
ATOM      5  C3  PXY d   1       1.139  -0.004   1.275  0.00  0.00     0.003 A 
ATOM      6  C4  PXY d   1      -0.093   0.537   1.022  0.00  0.00    -0.082 A 
ATOM      7  C5  PXY d   1      -0.200   1.858   0.770  0.00  0.00     0.003 A 
ATOM      8  C6  PXY d   1       0.948   2.645   0.776  0.00  0.00     0.003 A 
ENDROOT
TORSDOF 0
ENDMDL
