MODEL 1
REMARK minimizedAffinity -0.86234206
REMARK minimizedRMSD -1
REMARK  0 active torsions:
REMARK  status: ('A' for Active; 'I' for Inactive)
ROOT
ATOM      1  C4' PXY d   1       1.508  -0.176  -3.004  0.00  0.00     0.077 C 
ATOM      2  C1' PXY d   1      -1.966  -0.619   1.595  0.00  0.00     0.077 C 
ATOM      3  C1  PXY d   1      -1.061  -0.512   0.383  0.00  0.00    -0.082 A 
ATOM      4  C2  PXY d   1       0.152  -0.001   0.516  0.00  0.00     0.003 A 
ATOM      5  C3  PXY d   1       0.971   0.132  -0.576  0.00  0.00     0.003 A 
ATOM      6  C4  PXY d   1       0.564  -0.311  -1.806  0.00  0.00    -0.082 A 
ATOM      7  C5  PXY d   1      -0.668  -0.844  -1.947  0.00  0.00     0.003 A 
ATOM      8  C6  PXY d   1      -1.500  -0.932  -0.834  0.00  0.00     0.003 A 
ENDROOT
TORSDOF 0
ENDMDL
