MODEL 1
REMARK minimizedAffinity -3.52946472
REMARK minimizedRMSD -1
REMARK  0 active torsions:
REMARK  status: ('A' for Active; 'I' for Inactive)
ROOT
ATOM      1  C4' PXY d   1       2.184   1.002   1.495  0.00  0.00     0.077 C 
ATOM      2  C1' PXY d   1       4.639   6.000  -0.057  0.00  0.00     0.077 C 
ATOM      3  C1  PXY d   1       3.999   4.691   0.362  0.00  0.00    -0.082 A 
ATOM      4  C2  PXY d   1       3.814   3.736  -0.535  0.00  0.00     0.003 A 
ATOM      5  C3  PXY d   1       3.207   2.559  -0.180  0.00  0.00     0.003 A 
ATOM      6  C4  PXY d   1       2.835   2.336   1.119  0.00  0.00    -0.082 A 
ATOM      7  C5  PXY d   1       3.030   3.301   2.042  0.00  0.00     0.003 A 
ATOM      8  C6  PXY d   1       3.610   4.505   1.653  0.00  0.00     0.003 A 
ENDROOT
TORSDOF 0
ENDMDL
