MODEL 1
REMARK minimizedAffinity -2.71888852
REMARK minimizedRMSD -1
REMARK  0 active torsions:
REMARK  status: ('A' for Active; 'I' for Inactive)
ROOT
ATOM      1  C4' PXY d   1      -1.700  -1.712   2.533  0.00  0.00     0.077 C 
ATOM      2  C1' PXY d   1      -0.708   0.765  -2.595  0.00  0.00     0.077 C 
ATOM      3  C1  PXY d   1      -0.981   0.117  -1.252  0.00  0.00    -0.082 A 
ATOM      4  C2  PXY d   1      -0.032   0.097  -0.330  0.00  0.00     0.003 A 
ATOM      5  C3  PXY d   1      -0.251  -0.512   0.878  0.00  0.00     0.003 A 
ATOM      6  C4  PXY d   1      -1.472  -1.061   1.166  0.00  0.00    -0.082 A 
ATOM      7  C5  PXY d   1      -2.449  -1.036   0.235  0.00  0.00     0.003 A 
ATOM      8  C6  PXY d   1      -2.193  -0.448  -1.001  0.00  0.00     0.003 A 
ENDROOT
TORSDOF 0
ENDMDL
