MODEL 1
REMARK minimizedAffinity -4.77962112
REMARK minimizedRMSD -1
REMARK  0 active torsions:
REMARK  status: ('A' for Active; 'I' for Inactive)
ROOT
ATOM      1  C4' PXY d   1      -2.581   0.093  -2.353  0.00  0.00     0.077 C 
ATOM      2  C1' PXY d   1      -1.078  -2.468   2.606  0.00  0.00     0.077 C 
ATOM      3  C1  PXY d   1      -1.479  -1.807   1.302  0.00  0.00    -0.082 A 
ATOM      4  C2  PXY d   1      -0.730  -0.838   0.802  0.00  0.00     0.003 A 
ATOM      5  C3  PXY d   1      -1.095  -0.208  -0.359  0.00  0.00     0.003 A 
ATOM      6  C4  PXY d   1      -2.210  -0.609  -1.044  0.00  0.00    -0.082 A 
ATOM      7  C5  PXY d   1      -2.974  -1.604  -0.547  0.00  0.00     0.003 A 
ATOM      8  C6  PXY d   1      -2.609  -2.203   0.655  0.00  0.00     0.003 A 
ENDROOT
TORSDOF 0
ENDMDL
