MODEL 1
REMARK minimizedAffinity -4.23009014
REMARK minimizedRMSD -1
REMARK  0 active torsions:
REMARK  status: ('A' for Active; 'I' for Inactive)
ROOT
ATOM      1  C4' PXY d   1       0.581  -0.609   0.187  0.00  0.00     0.077 C 
ATOM      2  C1' PXY d   1       4.025   3.565  -1.845  0.00  0.00     0.077 C 
ATOM      3  C1  PXY d   1       3.121   2.465  -1.324  0.00  0.00    -0.082 A 
ATOM      4  C2  PXY d   1       2.452   2.647  -0.197  0.00  0.00     0.003 A 
ATOM      5  C3  PXY d   1       1.655   1.651   0.305  0.00  0.00     0.003 A 
ATOM      6  C4  PXY d   1       1.499   0.477  -0.382  0.00  0.00    -0.082 A 
ATOM      7  C5  PXY d   1       2.169   0.288  -1.538  0.00  0.00     0.003 A 
ATOM      8  C6  PXY d   1       3.006   1.295  -2.009  0.00  0.00     0.003 A 
ENDROOT
TORSDOF 0
ENDMDL
