MODEL 1
REMARK minimizedAffinity -1.46796513
REMARK minimizedRMSD -1
REMARK  0 active torsions:
REMARK  status: ('A' for Active; 'I' for Inactive)
ROOT
ATOM      1  C4' PXY d   1       2.646   2.822   3.926  0.00  0.00     0.077 C 
ATOM      2  C1' PXY d   1       4.543   3.509  -1.491  0.00  0.00     0.077 C 
ATOM      3  C1  PXY d   1       4.038   3.319  -0.075  0.00  0.00    -0.082 A 
ATOM      4  C2  PXY d   1       4.074   4.333   0.774  0.00  0.00     0.003 A 
ATOM      5  C3  PXY d   1       3.652   4.170   2.069  0.00  0.00     0.003 A 
ATOM      6  C4  PXY d   1       3.137   2.971   2.483  0.00  0.00    -0.082 A 
ATOM      7  C5  PXY d   1       3.086   1.934   1.620  0.00  0.00     0.003 A 
ATOM      8  C6  PXY d   1       3.559   2.109   0.322  0.00  0.00     0.003 A 
ENDROOT
TORSDOF 0
ENDMDL
