MODEL 1
REMARK minimizedAffinity -5.5632844
REMARK minimizedRMSD -1
REMARK  0 active torsions:
REMARK  status: ('A' for Active; 'I' for Inactive)
ROOT
ATOM      1  C4' PXY d   1       0.894   0.001  -0.028  0.00  0.00     0.077 C 
ATOM      2  C1' PXY d   1      -4.254  -2.524   0.708  0.00  0.00     0.077 C 
ATOM      3  C1  PXY d   1      -2.908  -1.857   0.503  0.00  0.00    -0.082 A 
ATOM      4  C2  PXY d   1      -1.837  -2.345   1.108  0.00  0.00     0.003 A 
ATOM      5  C3  PXY d   1      -0.618  -1.735   0.960  0.00  0.00     0.003 A 
ATOM      6  C4  PXY d   1      -0.484  -0.645   0.142  0.00  0.00    -0.082 A 
ATOM      7  C5  PXY d   1      -1.569  -0.147  -0.487  0.00  0.00     0.003 A 
ATOM      8  C6  PXY d   1      -2.805  -0.756  -0.291  0.00  0.00     0.003 A 
ENDROOT
TORSDOF 0
ENDMDL
