MODEL 1
REMARK minimizedAffinity -3.74915242
REMARK minimizedRMSD -1
REMARK  0 active torsions:
REMARK  status: ('A' for Active; 'I' for Inactive)
ROOT
ATOM      1  C4' PXY d   1      -3.671  -1.139  -0.063  0.00  0.00     0.077 C 
ATOM      2  C1' PXY d   1       1.824   0.562   0.502  0.00  0.00     0.077 C 
ATOM      3  C1  PXY d   1       0.381   0.125   0.345  0.00  0.00    -0.082 A 
ATOM      4  C2  PXY d   1      -0.224  -0.502   1.340  0.00  0.00     0.003 A 
ATOM      5  C3  PXY d   1      -1.519  -0.933   1.203  0.00  0.00     0.003 A 
ATOM      6  C4  PXY d   1      -2.218  -0.671   0.055  0.00  0.00    -0.082 A 
ATOM      7  C5  PXY d   1      -1.611  -0.022  -0.961  0.00  0.00     0.003 A 
ATOM      8  C6  PXY d   1      -0.283   0.370  -0.817  0.00  0.00     0.003 A 
ENDROOT
TORSDOF 0
ENDMDL
