MODEL 1
REMARK minimizedAffinity -3.67979622
REMARK minimizedRMSD -1
REMARK  0 active torsions:
REMARK  status: ('A' for Active; 'I' for Inactive)
ROOT
ATOM      1  C4' PXY d   1       1.710   0.521  -0.072  0.00  0.00     0.077 C 
ATOM      2  C1' PXY d   1      -3.794  -1.246  -0.155  0.00  0.00     0.077 C 
ATOM      3  C1  PXY d   1      -2.350  -0.785  -0.121  0.00  0.00    -0.082 A 
ATOM      4  C2  PXY d   1      -1.894   0.010  -1.075  0.00  0.00     0.003 A 
ATOM      5  C3  PXY d   1      -0.583   0.411  -1.076  0.00  0.00     0.003 A 
ATOM      6  C4  PXY d   1       0.257   0.038  -0.061  0.00  0.00    -0.082 A 
ATOM      7  C5  PXY d   1      -0.204  -0.765   0.922  0.00  0.00     0.003 A 
ATOM      8  C6  PXY d   1      -1.527  -1.194   0.883  0.00  0.00     0.003 A 
ENDROOT
TORSDOF 0
ENDMDL
