MODEL 1
REMARK minimizedAffinity -1.97958517
REMARK minimizedRMSD -1
REMARK  0 active torsions:
REMARK  status: ('A' for Active; 'I' for Inactive)
ROOT
ATOM      1  C4' PXY d   1       1.085   0.126  -0.226  0.00  0.00     0.077 C 
ATOM      2  C1' PXY d   1       2.006   0.056  -5.932  0.00  0.00     0.077 C 
ATOM      3  C1  PXY d   1       1.775   0.067  -4.434  0.00  0.00    -0.082 A 
ATOM      4  C2  PXY d   1       0.555   0.262  -3.962  0.00  0.00     0.003 A 
ATOM      5  C3  PXY d   1       0.334   0.307  -2.609  0.00  0.00     0.003 A 
ATOM      6  C4  PXY d   1       1.363   0.097  -1.731  0.00  0.00    -0.082 A 
ATOM      7  C5  PXY d   1       2.609  -0.113  -2.206  0.00  0.00     0.003 A 
ATOM      8  C6  PXY d   1       2.820  -0.114  -3.582  0.00  0.00     0.003 A 
ENDROOT
TORSDOF 0
ENDMDL
