MODEL 1
REMARK minimizedAffinity -1.4050951
REMARK minimizedRMSD -1
REMARK  0 active torsions:
REMARK  status: ('A' for Active; 'I' for Inactive)
ROOT
ATOM      1  C4' PXY d   1      -4.340  -2.009   0.042  0.00  0.00     0.077 C 
ATOM      2  C1' PXY d   1       0.993   0.193  -0.311  0.00  0.00     0.077 C 
ATOM      3  C1  PXY d   1      -0.411  -0.374  -0.224  0.00  0.00    -0.082 A 
ATOM      4  C2  PXY d   1      -0.698  -1.270   0.706  0.00  0.00     0.003 A 
ATOM      5  C3  PXY d   1      -1.953  -1.817   0.778  0.00  0.00     0.003 A 
ATOM      6  C4  PXY d   1      -2.939  -1.403  -0.076  0.00  0.00    -0.082 A 
ATOM      7  C5  PXY d   1      -2.657  -0.481  -1.021  0.00  0.00     0.003 A 
ATOM      8  C6  PXY d   1      -1.366   0.032  -1.104  0.00  0.00     0.003 A 
ENDROOT
TORSDOF 0
ENDMDL
