MODEL 1
REMARK minimizedAffinity 10.1506052
REMARK minimizedRMSD -1
REMARK  1 active torsions:
REMARK  status: ('A' for Active; 'I' for Inactive)
REMARK    1  A    between atoms: N_2  and  C1_3 
ROOT
ATOM      1  C1  UNL d   1       1.853   4.143   3.965  0.00  0.00     0.143 A 
ATOM      2  C2  UNL d   1       0.602   4.769   3.993  0.00  0.00    -0.057 A 
ATOM      3  C3  UNL d   1       0.277   5.699   4.987  0.00  0.00     0.033 A 
ATOM      4  C4  UNL d   1       1.191   5.999   5.993  0.00  0.00    -0.042 A 
ATOM      5  C5  UNL d   1       2.431   5.371   6.000  0.00  0.00     0.033 A 
ATOM      6  C6  UNL d   1       2.752   4.448   5.000  0.00  0.00    -0.057 A 
ENDROOT
BRANCH   1   7
ATOM      7  N   UNL d   1       2.199   3.137   3.060  0.00  0.00    -0.732 N 
ATOM      8  C   UNL d   1       1.399   2.901   1.878  0.00  0.00     0.284 C 
ATOM      9  H3  UNL d   1       3.203   3.088   2.899  0.00  0.00     0.395 HD
ENDBRANCH   1   7
TORSDOF 1
ENDMDL
