MODEL 1
REMARK minimizedAffinity 3.617625
REMARK minimizedRMSD -1
REMARK  1 active torsions:
REMARK  status: ('A' for Active; 'I' for Inactive)
REMARK    1  A    between atoms: N_2  and  C1_3 
ROOT
ATOM      1  C1  UNL d   1       4.032  -3.483   2.407  0.00  0.00     0.143 A 
ATOM      2  C2  UNL d   1       2.700  -3.095   2.228  0.00  0.00    -0.057 A 
ATOM      3  C3  UNL d   1       2.224  -2.688   0.976  0.00  0.00     0.033 A 
ATOM      4  C4  UNL d   1       3.082  -2.634  -0.117  0.00  0.00    -0.042 A 
ATOM      5  C5  UNL d   1       4.417  -2.991   0.043  0.00  0.00     0.033 A 
ATOM      6  C6  UNL d   1       4.884  -3.403   1.294  0.00  0.00    -0.057 A 
ENDROOT
BRANCH   1   7
ATOM      7  N   UNL d   1       4.590  -3.803   3.647  0.00  0.00    -0.732 N 
ATOM      8  C   UNL d   1       4.845  -2.771   4.629  0.00  0.00     0.284 C 
ATOM      9  H3  UNL d   1       4.205  -4.661   4.036  0.00  0.00     0.395 HD
ENDBRANCH   1   7
TORSDOF 1
ENDMDL
