MODEL 1
REMARK minimizedAffinity 2.85876608
REMARK minimizedRMSD -1
REMARK  1 active torsions:
REMARK  status: ('A' for Active; 'I' for Inactive)
REMARK    1  A    between atoms: N_2  and  C1_3 
ROOT
ATOM      1  C1  UNL d   1      -3.225  -0.082  -2.799  0.00  0.00     0.143 A 
ATOM      2  C2  UNL d   1      -4.172  -0.323  -3.800  0.00  0.00    -0.057 A 
ATOM      3  C3  UNL d   1      -5.135  -1.330  -3.662  0.00  0.00     0.033 A 
ATOM      4  C4  UNL d   1      -5.150  -2.136  -2.529  0.00  0.00    -0.042 A 
ATOM      5  C5  UNL d   1      -4.202  -1.931  -1.532  0.00  0.00     0.033 A 
ATOM      6  C6  UNL d   1      -3.247  -0.919  -1.673  0.00  0.00    -0.057 A 
ENDROOT
BRANCH   1   7
ATOM      7  N   UNL d   1      -2.181   0.838  -2.921  0.00  0.00    -0.732 N 
ATOM      8  C   UNL d   1      -2.450   2.260  -2.933  0.00  0.00     0.284 C 
ATOM      9  H3  UNL d   1      -1.365   0.574  -2.374  0.00  0.00     0.395 HD
ENDBRANCH   1   7
TORSDOF 1
ENDMDL
