MODEL 1
REMARK minimizedAffinity 7.98998356
REMARK minimizedRMSD -1
REMARK  1 active torsions:
REMARK  status: ('A' for Active; 'I' for Inactive)
REMARK    1  A    between atoms: N_2  and  C1_3 
ROOT
ATOM      1  C1  UNL d   1       4.765  -3.935   0.806  0.00  0.00     0.143 A 
ATOM      2  C2  UNL d   1       4.647  -2.585   0.458  0.00  0.00    -0.057 A 
ATOM      3  C3  UNL d   1       3.408  -1.933   0.486  0.00  0.00     0.033 A 
ATOM      4  C4  UNL d   1       2.256  -2.630   0.835  0.00  0.00    -0.042 A 
ATOM      5  C5  UNL d   1       2.346  -3.979   1.160  0.00  0.00     0.033 A 
ATOM      6  C6  UNL d   1       3.587  -4.623   1.137  0.00  0.00    -0.057 A 
ENDROOT
BRANCH   1   7
ATOM      7  N   UNL d   1       5.952  -4.664   0.703  0.00  0.00    -0.732 N 
ATOM      8  C   UNL d   1       6.000  -5.890  -0.063  0.00  0.00     0.284 C 
ATOM      9  H3  UNL d   1       6.766  -4.065   0.581  0.00  0.00     0.395 HD
ENDBRANCH   1   7
TORSDOF 1
ENDMDL
