MODEL 1
REMARK minimizedAffinity 7.58278894
REMARK minimizedRMSD -1
REMARK  1 active torsions:
REMARK  status: ('A' for Active; 'I' for Inactive)
REMARK    1  A    between atoms: N_2  and  C1_3 
ROOT
ATOM      1  C1  UNL d   1       3.277  -3.388   2.662  0.00  0.00     0.143 A 
ATOM      2  C2  UNL d   1       3.234  -4.285   1.589  0.00  0.00    -0.057 A 
ATOM      3  C3  UNL d   1       2.484  -4.006   0.440  0.00  0.00     0.033 A 
ATOM      4  C4  UNL d   1       1.738  -2.835   0.355  0.00  0.00    -0.042 A 
ATOM      5  C5  UNL d   1       1.747  -1.941   1.420  0.00  0.00     0.033 A 
ATOM      6  C6  UNL d   1       2.503  -2.221   2.562  0.00  0.00    -0.057 A 
ENDROOT
BRANCH   1   7
ATOM      7  N   UNL d   1       3.924  -3.653   3.871  0.00  0.00    -0.732 N 
ATOM      8  C   UNL d   1       4.108  -2.606   4.853  0.00  0.00     0.284 C 
ATOM      9  H3  UNL d   1       3.657  -4.551   4.266  0.00  0.00     0.395 HD
ENDBRANCH   1   7
TORSDOF 1
ENDMDL
