MODEL 1
REMARK minimizedAffinity -3.7277174
REMARK minimizedRMSD -1
REMARK  1 active torsions:
REMARK  status: ('A' for Active; 'I' for Inactive)
REMARK    1  A    between atoms: N_2  and  C1_3 
ROOT
ATOM      1  C1  UNL d   1      -0.093   0.664  -0.575  0.00  0.00     0.143 A 
ATOM      2  C2  UNL d   1       0.422  -0.392  -1.335  0.00  0.00    -0.057 A 
ATOM      3  C3  UNL d   1       0.299  -1.720  -0.910  0.00  0.00     0.033 A 
ATOM      4  C4  UNL d   1      -0.319  -2.015   0.301  0.00  0.00    -0.042 A 
ATOM      5  C5  UNL d   1      -0.816  -0.980   1.085  0.00  0.00     0.033 A 
ATOM      6  C6  UNL d   1      -0.696   0.344   0.652  0.00  0.00    -0.057 A 
ENDROOT
BRANCH   1   7
ATOM      7  N   UNL d   1       0.084   2.012  -0.895  0.00  0.00    -0.732 N 
ATOM      8  C   UNL d   1       0.879   2.873  -0.045  0.00  0.00     0.284 C 
ATOM      9  H3  UNL d   1       0.233   2.158  -1.891  0.00  0.00     0.395 HD
ENDBRANCH   1   7
TORSDOF 1
ENDMDL
