MODEL 1
REMARK minimizedAffinity -1.95734453
REMARK minimizedRMSD -1
REMARK  1 active torsions:
REMARK  status: ('A' for Active; 'I' for Inactive)
REMARK    1  A    between atoms: N_2  and  C1_3 
ROOT
ATOM      1  C1  UNL d   1      -0.383   0.718   0.108  0.00  0.00     0.143 A 
ATOM      2  C2  UNL d   1       0.282  -0.087  -0.823  0.00  0.00    -0.057 A 
ATOM      3  C3  UNL d   1       0.221  -1.484  -0.749  0.00  0.00     0.033 A 
ATOM      4  C4  UNL d   1      -0.484  -2.102   0.278  0.00  0.00    -0.042 A 
ATOM      5  C5  UNL d   1      -1.132  -1.321   1.229  0.00  0.00     0.033 A 
ATOM      6  C6  UNL d   1      -1.073   0.073   1.146  0.00  0.00    -0.057 A 
ENDROOT
BRANCH   1   7
ATOM      7  N   UNL d   1      -0.279   2.111   0.146  0.00  0.00    -0.732 N 
ATOM      8  C   UNL d   1       1.016   2.753   0.209  0.00  0.00     0.284 C 
ATOM      9  H3  UNL d   1      -0.939   2.567  -0.481  0.00  0.00     0.395 HD
ENDBRANCH   1   7
TORSDOF 1
ENDMDL
