MODEL 1
REMARK minimizedAffinity -4.5541625
REMARK minimizedRMSD -1
REMARK  1 active torsions:
REMARK  status: ('A' for Active; 'I' for Inactive)
REMARK    1  A    between atoms: N_2  and  C1_3 
ROOT
ATOM      1  C1  UNL d   1       0.011   0.190   0.033  0.00  0.00     0.143 A 
ATOM      2  C2  UNL d   1      -0.846  -0.343   1.002  0.00  0.00    -0.057 A 
ATOM      3  C3  UNL d   1      -0.972  -1.726   1.177  0.00  0.00     0.033 A 
ATOM      4  C4  UNL d   1      -0.264  -2.604   0.364  0.00  0.00    -0.042 A 
ATOM      5  C5  UNL d   1       0.575  -2.097  -0.622  0.00  0.00     0.033 A 
ATOM      6  C6  UNL d   1       0.702  -0.715  -0.788  0.00  0.00    -0.057 A 
ENDROOT
BRANCH   1   7
ATOM      7  N   UNL d   1       0.106   1.554  -0.256  0.00  0.00    -0.732 N 
ATOM      8  C   UNL d   1       1.218   2.336   0.239  0.00  0.00     0.284 C 
ATOM      9  H3  UNL d   1      -0.158   1.767  -1.215  0.00  0.00     0.395 HD
ENDBRANCH   1   7
TORSDOF 1
ENDMDL
