MODEL 1
REMARK minimizedAffinity -2.74887323
REMARK minimizedRMSD -1
REMARK  1 active torsions:
REMARK  status: ('A' for Active; 'I' for Inactive)
REMARK    1  A    between atoms: N_2  and  C1_3 
ROOT
ATOM      1  C1  UNL d   1      -0.094   0.872  -0.071  0.00  0.00     0.143 A 
ATOM      2  C2  UNL d   1      -1.073   0.633   0.900  0.00  0.00    -0.057 A 
ATOM      3  C3  UNL d   1      -1.449  -0.670   1.247  0.00  0.00     0.033 A 
ATOM      4  C4  UNL d   1      -0.869  -1.761   0.607  0.00  0.00    -0.042 A 
ATOM      5  C5  UNL d   1       0.088  -1.547  -0.378  0.00  0.00     0.033 A 
ATOM      6  C6  UNL d   1       0.463  -0.243  -0.716  0.00  0.00    -0.057 A 
ENDROOT
BRANCH   1   7
ATOM      7  N   UNL d   1       0.252   2.145  -0.530  0.00  0.00    -0.732 N 
ATOM      8  C   UNL d   1       1.463   2.791  -0.071  0.00  0.00     0.284 C 
ATOM      9  H3  UNL d   1       0.069   2.262  -1.524  0.00  0.00     0.395 HD
ENDBRANCH   1   7
TORSDOF 1
ENDMDL
