MODEL 1
REMARK minimizedAffinity -3.40935397
REMARK minimizedRMSD -1
REMARK  1 active torsions:
REMARK  status: ('A' for Active; 'I' for Inactive)
REMARK    1  A    between atoms: N_2  and  C1_3 
ROOT
ATOM      1  C1  UNL d   1      -0.069  -0.360   0.518  0.00  0.00     0.143 A 
ATOM      2  C2  UNL d   1      -1.224  -0.897   1.097  0.00  0.00    -0.057 A 
ATOM      3  C3  UNL d   1      -1.576  -2.239   0.903  0.00  0.00     0.033 A 
ATOM      4  C4  UNL d   1      -0.793  -3.061   0.100  0.00  0.00    -0.042 A 
ATOM      5  C5  UNL d   1       0.346  -2.541  -0.506  0.00  0.00     0.033 A 
ATOM      6  C6  UNL d   1       0.696  -1.203  -0.303  0.00  0.00    -0.057 A 
ENDROOT
BRANCH   1   7
ATOM      7  N   UNL d   1       0.282   0.990   0.593  0.00  0.00    -0.732 N 
ATOM      8  C   UNL d   1      -0.117   1.914  -0.447  0.00  0.00     0.284 C 
ATOM      9  H3  UNL d   1       0.195   1.362   1.536  0.00  0.00     0.395 HD
ENDBRANCH   1   7
TORSDOF 1
ENDMDL
