MODEL 1
REMARK minimizedAffinity -3.51882029
REMARK minimizedRMSD -1
REMARK  1 active torsions:
REMARK  status: ('A' for Active; 'I' for Inactive)
REMARK    1  A    between atoms: N_2  and  C1_3 
ROOT
ATOM      1  C1  UNL d   1       0.216  -0.464  -0.266  0.00  0.00     0.143 A 
ATOM      2  C2  UNL d   1       1.089  -1.461  -0.714  0.00  0.00    -0.057 A 
ATOM      3  C3  UNL d   1       0.989  -2.777  -0.247  0.00  0.00     0.033 A 
ATOM      4  C4  UNL d   1       0.029  -3.113   0.703  0.00  0.00    -0.042 A 
ATOM      5  C5  UNL d   1      -0.832  -2.133   1.181  0.00  0.00     0.033 A 
ATOM      6  C6  UNL d   1      -0.732  -0.822   0.705  0.00  0.00    -0.057 A 
ENDROOT
BRANCH   1   7
ATOM      7  N   UNL d   1       0.327   0.884  -0.619  0.00  0.00    -0.732 N 
ATOM      8  C   UNL d   1       1.211   1.766   0.112  0.00  0.00     0.284 C 
ATOM      9  H3  UNL d   1       0.343   1.021  -1.627  0.00  0.00     0.395 HD
ENDBRANCH   1   7
TORSDOF 1
ENDMDL
