MODEL 1
REMARK minimizedAffinity -4.21044588
REMARK minimizedRMSD -1
REMARK  1 active torsions:
REMARK  status: ('A' for Active; 'I' for Inactive)
REMARK    1  A    between atoms: N_2  and  C1_3 
ROOT
ATOM      1  C1  UNL d   1       0.420   0.716   0.262  0.00  0.00     0.143 A 
ATOM      2  C2  UNL d   1       0.958  -0.190  -0.658  0.00  0.00    -0.057 A 
ATOM      3  C3  UNL d   1       0.638  -1.553  -0.608  0.00  0.00     0.033 A 
ATOM      4  C4  UNL d   1      -0.205  -2.039   0.385  0.00  0.00    -0.042 A 
ATOM      5  C5  UNL d   1      -0.732  -1.161   1.326  0.00  0.00     0.033 A 
ATOM      6  C6  UNL d   1      -0.414   0.200   1.266  0.00  0.00    -0.057 A 
ENDROOT
BRANCH   1   7
ATOM      7  N   UNL d   1       0.777   2.065   0.324  0.00  0.00    -0.732 N 
ATOM      8  C   UNL d   1       2.163   2.466   0.224  0.00  0.00     0.284 C 
ATOM      9  H3  UNL d   1       0.133   2.661  -0.191  0.00  0.00     0.395 HD
ENDBRANCH   1   7
TORSDOF 1
ENDMDL
