MODEL 1
REMARK minimizedAffinity -4.39154148
REMARK minimizedRMSD -1
REMARK  1 active torsions:
REMARK  status: ('A' for Active; 'I' for Inactive)
REMARK    1  A    between atoms: N_2  and  C1_3 
ROOT
ATOM      1  C1  UNL d   1       0.077  -0.685   0.021  0.00  0.00     0.143 A 
ATOM      2  C2  UNL d   1      -0.992  -0.992   0.871  0.00  0.00    -0.057 A 
ATOM      3  C3  UNL d   1      -1.302  -2.318   1.197  0.00  0.00     0.033 A 
ATOM      4  C4  UNL d   1      -0.565  -3.365   0.655  0.00  0.00    -0.042 A 
ATOM      5  C5  UNL d   1       0.486  -3.084  -0.212  0.00  0.00     0.033 A 
ATOM      6  C6  UNL d   1       0.795  -1.758  -0.529  0.00  0.00    -0.057 A 
ENDROOT
BRANCH   1   7
ATOM      7  N   UNL d   1       0.374   0.607  -0.419  0.00  0.00    -0.732 N 
ATOM      8  C   UNL d   1      -0.047   1.054  -1.730  0.00  0.00     0.284 C 
ATOM      9  H3  UNL d   1       0.260   1.303   0.314  0.00  0.00     0.395 HD
ENDBRANCH   1   7
TORSDOF 1
ENDMDL
