MODEL 1
REMARK minimizedAffinity -3.07434464
REMARK minimizedRMSD -1
REMARK  1 active torsions:
REMARK  status: ('A' for Active; 'I' for Inactive)
REMARK    1  A    between atoms: N_2  and  C1_3 
ROOT
ATOM      1  C1  UNL d   1      -0.453  -1.441   0.142  0.00  0.00     0.143 A 
ATOM      2  C2  UNL d   1       0.374  -1.154  -0.949  0.00  0.00    -0.057 A 
ATOM      3  C3  UNL d   1       0.729   0.163  -1.264  0.00  0.00     0.033 A 
ATOM      4  C4  UNL d   1       0.237   1.222  -0.508  0.00  0.00    -0.042 A 
ATOM      5  C5  UNL d   1      -0.606   0.962   0.566  0.00  0.00     0.033 A 
ATOM      6  C6  UNL d   1      -0.951  -0.356   0.880  0.00  0.00    -0.057 A 
ENDROOT
BRANCH   1   7
ATOM      7  N   UNL d   1      -0.921  -2.722   0.448  0.00  0.00    -0.732 N 
ATOM      8  C   UNL d   1      -2.331  -3.033   0.355  0.00  0.00     0.284 C 
ATOM      9  H3  UNL d   1      -0.310  -3.454   0.093  0.00  0.00     0.395 HD
ENDBRANCH   1   7
TORSDOF 1
ENDMDL
