MODEL 1
REMARK minimizedAffinity -4.71087456
REMARK minimizedRMSD -1
REMARK  1 active torsions:
REMARK  status: ('A' for Active; 'I' for Inactive)
REMARK    1  A    between atoms: N_2  and  C1_3 
ROOT
ATOM      1  C1  UNL d   1       0.033   0.121   0.130  0.00  0.00     0.143 A 
ATOM      2  C2  UNL d   1       0.644  -0.956  -0.520  0.00  0.00    -0.057 A 
ATOM      3  C3  UNL d   1       0.471  -2.270  -0.069  0.00  0.00     0.033 A 
ATOM      4  C4  UNL d   1      -0.296  -2.527   1.063  0.00  0.00    -0.042 A 
ATOM      5  C5  UNL d   1      -0.893  -1.470   1.740  0.00  0.00     0.033 A 
ATOM      6  C6  UNL d   1      -0.722  -0.161   1.280  0.00  0.00    -0.057 A 
ENDROOT
BRANCH   1   7
ATOM      7  N   UNL d   1       0.246   1.459  -0.212  0.00  0.00    -0.732 N 
ATOM      8  C   UNL d   1       1.401   2.172   0.289  0.00  0.00     0.284 C 
ATOM      9  H3  UNL d   1       0.031   1.650  -1.188  0.00  0.00     0.395 HD
ENDBRANCH   1   7
TORSDOF 1
ENDMDL
