MODEL 1
REMARK minimizedAffinity -3.95605159
REMARK minimizedRMSD -1
REMARK  1 active torsions:
REMARK  status: ('A' for Active; 'I' for Inactive)
REMARK    1  A    between atoms: N_2  and  C1_3 
ROOT
ATOM      1  C1  UNL d   1       0.544  -1.478  -0.740  0.00  0.00     0.143 A 
ATOM      2  C2  UNL d   1      -0.049  -0.371  -0.125  0.00  0.00    -0.057 A 
ATOM      3  C3  UNL d   1      -0.699  -0.488   1.110  0.00  0.00     0.033 A 
ATOM      4  C4  UNL d   1      -0.792  -1.725   1.739  0.00  0.00    -0.042 A 
ATOM      5  C5  UNL d   1      -0.231  -2.844   1.134  0.00  0.00     0.033 A 
ATOM      6  C6  UNL d   1       0.422  -2.719  -0.096  0.00  0.00    -0.057 A 
ENDROOT
BRANCH   1   7
ATOM      7  N   UNL d   1       1.118  -1.446  -2.014  0.00  0.00    -0.732 N 
ATOM      8  C   UNL d   1       0.653  -0.503  -3.008  0.00  0.00     0.284 C 
ATOM      9  H3  UNL d   1       2.129  -1.557  -1.987  0.00  0.00     0.395 HD
ENDBRANCH   1   7
TORSDOF 1
ENDMDL
