MODEL 1
REMARK minimizedAffinity -1.21368814
REMARK minimizedRMSD -1
REMARK  1 active torsions:
REMARK  status: ('A' for Active; 'I' for Inactive)
REMARK    1  A    between atoms: N_2  and  C1_3 
ROOT
ATOM      1  C1  UNL d   1      -0.028  -0.807   0.063  0.00  0.00     0.143 A 
ATOM      2  C2  UNL d   1      -1.186  -1.470   0.483  0.00  0.00    -0.057 A 
ATOM      3  C3  UNL d   1      -1.161  -2.828   0.824  0.00  0.00     0.033 A 
ATOM      4  C4  UNL d   1       0.019  -3.556   0.721  0.00  0.00    -0.042 A 
ATOM      5  C5  UNL d   1       1.177  -2.924   0.282  0.00  0.00     0.033 A 
ATOM      6  C6  UNL d   1       1.148  -1.566  -0.050  0.00  0.00    -0.057 A 
ENDROOT
BRANCH   1   7
ATOM      7  N   UNL d   1      -0.009   0.517  -0.383  0.00  0.00    -0.732 N 
ATOM      8  C   UNL d   1       0.924   1.470   0.179  0.00  0.00     0.284 C 
ATOM      9  H3  UNL d   1      -0.119   0.588  -1.392  0.00  0.00     0.395 HD
ENDBRANCH   1   7
TORSDOF 1
ENDMDL
