MODEL 1
REMARK minimizedAffinity -1.94199014
REMARK minimizedRMSD -1
REMARK  1 active torsions:
REMARK  status: ('A' for Active; 'I' for Inactive)
REMARK    1  A    between atoms: N_2  and  C1_3 
ROOT
ATOM      1  C1  UNL d   1      -0.697  -1.422   0.057  0.00  0.00     0.143 A 
ATOM      2  C2  UNL d   1      -0.501  -0.245   0.787  0.00  0.00    -0.057 A 
ATOM      3  C3  UNL d   1      -0.020   0.918   0.174  0.00  0.00     0.033 A 
ATOM      4  C4  UNL d   1       0.301   0.916  -1.179  0.00  0.00    -0.042 A 
ATOM      5  C5  UNL d   1       0.138  -0.249  -1.919  0.00  0.00     0.033 A 
ATOM      6  C6  UNL d   1      -0.348  -1.406  -1.303  0.00  0.00    -0.057 A 
ENDROOT
BRANCH   1   7
ATOM      7  N   UNL d   1      -1.078  -2.638   0.629  0.00  0.00    -0.732 N 
ATOM      8  C   UNL d   1      -0.212  -3.795   0.549  0.00  0.00     0.284 C 
ATOM      9  H3  UNL d   1      -1.527  -2.518   1.534  0.00  0.00     0.395 HD
ENDBRANCH   1   7
TORSDOF 1
ENDMDL
