MODEL 1
REMARK minimizedAffinity -3.1618247
REMARK minimizedRMSD -1
REMARK  1 active torsions:
REMARK  status: ('A' for Active; 'I' for Inactive)
REMARK    1  A    between atoms: N_2  and  C1_3 
ROOT
ATOM      1  C1  UNL d   1      -0.424   0.172   0.182  0.00  0.00     0.143 A 
ATOM      2  C2  UNL d   1      -1.194  -0.459   1.165  0.00  0.00    -0.057 A 
ATOM      3  C3  UNL d   1      -1.161  -1.849   1.331  0.00  0.00     0.033 A 
ATOM      4  C4  UNL d   1      -0.377  -2.637   0.496  0.00  0.00    -0.042 A 
ATOM      5  C5  UNL d   1       0.378  -2.033  -0.504  0.00  0.00     0.033 A 
ATOM      6  C6  UNL d   1       0.346  -0.644  -0.661  0.00  0.00    -0.057 A 
ENDROOT
BRANCH   1   7
ATOM      7  N   UNL d   1      -0.489   1.540  -0.098  0.00  0.00    -0.732 N 
ATOM      8  C   UNL d   1       0.543   2.438   0.372  0.00  0.00     0.284 C 
ATOM      9  H3  UNL d   1      -0.803   1.727  -1.047  0.00  0.00     0.395 HD
ENDBRANCH   1   7
TORSDOF 1
ENDMDL
