MODEL 1
REMARK minimizedAffinity -0.16099377
REMARK minimizedRMSD -1
REMARK  1 active torsions:
REMARK  status: ('A' for Active; 'I' for Inactive)
REMARK    1  A    between atoms: C1_2  and  C2_3 
ROOT
ATOM      1  C2  UNL d   1       3.235   0.376   3.171  0.00  0.00    -0.077 A 
ATOM      2  C3  UNL d   1       4.214  -0.206   2.354  0.00  0.00     0.002 A 
ATOM      3  C4  UNL d   1       4.054  -0.229   0.968  0.00  0.00     0.002 A 
ATOM      4  C5  UNL d   1       2.920   0.332   0.386  0.00  0.00    -0.004 A 
ATOM      5  C6  UNL d   1       1.939   0.912   1.190  0.00  0.00     0.002 A 
ATOM      6  C7  UNL d   1       2.096   0.934   2.577  0.00  0.00     0.002 A 
ENDROOT
BRANCH   1   7
ATOM      7  C1  UNL d   1       3.428   0.445   4.664  0.00  0.00     0.055 C 
ATOM      8  C   UNL d   1       4.855   0.839   5.019  0.00  0.00     0.019 C 
ENDBRANCH   1   7
TORSDOF 1
ENDMDL
