MODEL 1
REMARK minimizedAffinity -1.6051048
REMARK minimizedRMSD -1
REMARK  1 active torsions:
REMARK  status: ('A' for Active; 'I' for Inactive)
REMARK    1  A    between atoms: C1_2  and  C2_3 
ROOT
ATOM      1  C2  UNL d   1      -3.138   5.963  -1.646  0.00  0.00    -0.077 A 
ATOM      2  C3  UNL d   1      -2.467   5.983  -2.877  0.00  0.00     0.002 A 
ATOM      3  C4  UNL d   1      -3.186   5.999  -4.074  0.00  0.00     0.002 A 
ATOM      4  C5  UNL d   1      -4.579   6.000  -4.051  0.00  0.00    -0.004 A 
ATOM      5  C6  UNL d   1      -5.256   5.977  -2.832  0.00  0.00     0.002 A 
ATOM      6  C7  UNL d   1      -4.539   5.960  -1.635  0.00  0.00     0.002 A 
ENDROOT
BRANCH   1   7
ATOM      7  C1  UNL d   1      -2.364   5.995  -0.354  0.00  0.00     0.055 C 
ATOM      8  C   UNL d   1      -0.864   5.978  -0.607  0.00  0.00     0.019 C 
ENDBRANCH   1   7
TORSDOF 1
ENDMDL
