MODEL 1
REMARK minimizedAffinity 0.190736532
REMARK minimizedRMSD -1
REMARK  1 active torsions:
REMARK  status: ('A' for Active; 'I' for Inactive)
REMARK    1  A    between atoms: C1_2  and  C2_3 
ROOT
ATOM      1  C2  UNL d   1       0.472   1.834   0.429  0.00  0.00    -0.077 A 
ATOM      2  C3  UNL d   1       0.879   0.667  -0.233  0.00  0.00     0.002 A 
ATOM      3  C4  UNL d   1       0.453  -0.585   0.216  0.00  0.00     0.002 A 
ATOM      4  C5  UNL d   1      -0.385  -0.681   1.325  0.00  0.00    -0.004 A 
ATOM      5  C6  UNL d   1      -0.794   0.474   1.991  0.00  0.00     0.002 A 
ATOM      6  C7  UNL d   1      -0.368   1.726   1.545  0.00  0.00     0.002 A 
ENDROOT
BRANCH   1   7
ATOM      7  C1  UNL d   1       0.891   3.187  -0.084  0.00  0.00     0.055 C 
ATOM      8  C   UNL d   1       1.632   3.073  -1.408  0.00  0.00     0.019 C 
ENDBRANCH   1   7
TORSDOF 1
ENDMDL
