MODEL 1
REMARK minimizedAffinity -1.61616158
REMARK minimizedRMSD -1
REMARK  1 active torsions:
REMARK  status: ('A' for Active; 'I' for Inactive)
REMARK    1  A    between atoms: C1_2  and  C2_3 
ROOT
ATOM      1  C2  UNL d   1       0.067   0.124   0.529  0.00  0.00    -0.077 A 
ATOM      2  C3  UNL d   1       0.212   1.403   1.085  0.00  0.00     0.002 A 
ATOM      3  C4  UNL d   1       1.199   2.270   0.613  0.00  0.00     0.002 A 
ATOM      4  C5  UNL d   1       2.046   1.870  -0.418  0.00  0.00    -0.004 A 
ATOM      5  C6  UNL d   1       1.912   0.599  -0.976  0.00  0.00     0.002 A 
ATOM      6  C7  UNL d   1       0.926  -0.270  -0.505  0.00  0.00     0.002 A 
ENDROOT
BRANCH   1   7
ATOM      7  C1  UNL d   1      -1.029  -0.794   1.003  0.00  0.00     0.055 C 
ATOM      8  C   UNL d   1      -2.102  -0.029   1.764  0.00  0.00     0.019 C 
ENDBRANCH   1   7
TORSDOF 1
ENDMDL
