MODEL 1
REMARK minimizedAffinity -1.22619855
REMARK minimizedRMSD -1
REMARK  1 active torsions:
REMARK  status: ('A' for Active; 'I' for Inactive)
REMARK    1  A    between atoms: C1_2  and  C2_3 
ROOT
ATOM      1  C2  UNL d   1       1.292   5.086  -4.842  0.00  0.00    -0.077 A 
ATOM      2  C3  UNL d   1       0.514   4.931  -5.998  0.00  0.00     0.002 A 
ATOM      3  C4  UNL d   1      -0.831   5.306  -6.000  0.00  0.00     0.002 A 
ATOM      4  C5  UNL d   1      -1.408   5.843  -4.851  0.00  0.00    -0.004 A 
ATOM      5  C6  UNL d   1      -0.643   5.999  -3.696  0.00  0.00     0.002 A 
ATOM      6  C7  UNL d   1       0.701   5.624  -3.691  0.00  0.00     0.002 A 
ENDROOT
BRANCH   1   7
ATOM      7  C1  UNL d   1       2.755   4.728  -4.852  0.00  0.00     0.055 C 
ATOM      8  C   UNL d   1       3.599   5.863  -5.413  0.00  0.00     0.019 C 
ENDBRANCH   1   7
TORSDOF 1
ENDMDL
