MODEL 1
REMARK minimizedAffinity 6.31744862
REMARK minimizedRMSD -1
REMARK  1 active torsions:
REMARK  status: ('A' for Active; 'I' for Inactive)
REMARK    1  A    between atoms: C1_2  and  C2_3 
ROOT
ATOM      1  C2  UNL d   1      -0.100  -0.559   1.064  0.00  0.00    -0.077 A 
ATOM      2  C3  UNL d   1       0.785  -0.668  -0.018  0.00  0.00     0.002 A 
ATOM      3  C4  UNL d   1       1.664   0.374  -0.319  0.00  0.00     0.002 A 
ATOM      4  C5  UNL d   1       1.670   1.530   0.458  0.00  0.00    -0.004 A 
ATOM      5  C6  UNL d   1       0.792   1.649   1.535  0.00  0.00     0.002 A 
ATOM      6  C7  UNL d   1      -0.088   0.609   1.837  0.00  0.00     0.002 A 
ENDROOT
BRANCH   1   7
ATOM      7  C1  UNL d   1      -1.014  -1.702   1.420  0.00  0.00     0.055 C 
ATOM      8  C   UNL d   1      -0.388  -3.043   1.068  0.00  0.00     0.019 C 
ENDBRANCH   1   7
TORSDOF 1
ENDMDL
