MODEL 1
REMARK minimizedAffinity 6.13969469
REMARK minimizedRMSD -1
REMARK  1 active torsions:
REMARK  status: ('A' for Active; 'I' for Inactive)
REMARK    1  A    between atoms: C1_2  and  C2_3 
ROOT
ATOM      1  C2  UNL d   1       0.678   0.778   1.226  0.00  0.00    -0.077 A 
ATOM      2  C3  UNL d   1       1.266   1.916   0.658  0.00  0.00     0.002 A 
ATOM      3  C4  UNL d   1       1.543   1.961  -0.709  0.00  0.00     0.002 A 
ATOM      4  C5  UNL d   1       1.231   0.871  -1.521  0.00  0.00    -0.004 A 
ATOM      5  C6  UNL d   1       0.648  -0.266  -0.965  0.00  0.00     0.002 A 
ATOM      6  C7  UNL d   1       0.372  -0.313   0.402  0.00  0.00     0.002 A 
ENDROOT
BRANCH   1   7
ATOM      7  C1  UNL d   1       0.333   0.747   2.693  0.00  0.00     0.055 C 
ATOM      8  C   UNL d   1      -1.172   0.688   2.906  0.00  0.00     0.019 C 
ENDBRANCH   1   7
TORSDOF 1
ENDMDL
