MODEL 1
REMARK minimizedAffinity 1.04012954
REMARK minimizedRMSD -1
REMARK  1 active torsions:
REMARK  status: ('A' for Active; 'I' for Inactive)
REMARK    1  A    between atoms: C1_2  and  C2_3 
ROOT
ATOM      1  C2  UNL d   1       0.705   1.518   0.944  0.00  0.00    -0.077 A 
ATOM      2  C3  UNL d   1       0.923   0.399   0.127  0.00  0.00     0.002 A 
ATOM      3  C4  UNL d   1       0.190  -0.773   0.324  0.00  0.00     0.002 A 
ATOM      4  C5  UNL d   1      -0.768  -0.836   1.333  0.00  0.00    -0.004 A 
ATOM      5  C6  UNL d   1      -0.991   0.270   2.152  0.00  0.00     0.002 A 
ATOM      6  C7  UNL d   1      -0.258   1.442   1.958  0.00  0.00     0.002 A 
ENDROOT
BRANCH   1   7
ATOM      7  C1  UNL d   1       1.459   2.799   0.701  0.00  0.00     0.055 C 
ATOM      8  C   UNL d   1       1.138   3.840   1.763  0.00  0.00     0.019 C 
ENDBRANCH   1   7
TORSDOF 1
ENDMDL
