MODEL 1
REMARK minimizedAffinity 3.54918885
REMARK minimizedRMSD -1
REMARK  1 active torsions:
REMARK  status: ('A' for Active; 'I' for Inactive)
REMARK    1  A    between atoms: C1_2  and  C2_3 
ROOT
ATOM      1  C2  UNL d   1       3.268   4.863  -5.721  0.00  0.00    -0.077 A 
ATOM      2  C3  UNL d   1       2.494   5.998  -5.999  0.00  0.00     0.002 A 
ATOM      3  C4  UNL d   1       1.122   6.000  -5.738  0.00  0.00     0.002 A 
ATOM      4  C5  UNL d   1       0.514   4.871  -5.193  0.00  0.00    -0.004 A 
ATOM      5  C6  UNL d   1       1.275   3.736  -4.914  0.00  0.00     0.002 A 
ATOM      6  C7  UNL d   1       2.645   3.732  -5.176  0.00  0.00     0.002 A 
ENDROOT
BRANCH   1   7
ATOM      7  C1  UNL d   1       4.756   4.876  -5.956  0.00  0.00     0.055 C 
ATOM      8  C   UNL d   1       5.428   6.000  -5.181  0.00  0.00     0.019 C 
ENDBRANCH   1   7
TORSDOF 1
ENDMDL
