MODEL 1
REMARK minimizedAffinity 1.86575925
REMARK minimizedRMSD -1
REMARK  1 active torsions:
REMARK  status: ('A' for Active; 'I' for Inactive)
REMARK    1  A    between atoms: C1_2  and  C2_3 
ROOT
ATOM      1  C2  UNL d   1       3.714   5.328  -5.027  0.00  0.00    -0.077 A 
ATOM      2  C3  UNL d   1       2.950   6.000  -5.992  0.00  0.00     0.002 A 
ATOM      3  C4  UNL d   1       1.559   5.880  -5.999  0.00  0.00     0.002 A 
ATOM      4  C5  UNL d   1       0.920   5.094  -5.042  0.00  0.00    -0.004 A 
ATOM      5  C6  UNL d   1       1.672   4.421  -4.080  0.00  0.00     0.002 A 
ATOM      6  C7  UNL d   1       3.062   4.538  -4.072  0.00  0.00     0.002 A 
ENDROOT
BRANCH   1   7
ATOM      7  C1  UNL d   1       5.211   5.495  -4.987  0.00  0.00     0.055 C 
ATOM      8  C   UNL d   1       5.915   4.150  -4.881  0.00  0.00     0.019 C 
ENDBRANCH   1   7
TORSDOF 1
ENDMDL
