MODEL 1
REMARK minimizedAffinity 4.05237198
REMARK minimizedRMSD -1
REMARK  1 active torsions:
REMARK  status: ('A' for Active; 'I' for Inactive)
REMARK    1  A    between atoms: C1_2  and  C2_3 
ROOT
ATOM      1  C2  UNL d   1       1.753   4.938  -5.640  0.00  0.00    -0.077 A 
ATOM      2  C3  UNL d   1       2.595   6.000  -5.999  0.00  0.00     0.002 A 
ATOM      3  C4  UNL d   1       3.959   5.949  -5.706  0.00  0.00     0.002 A 
ATOM      4  C5  UNL d   1       4.493   4.838  -5.057  0.00  0.00    -0.004 A 
ATOM      5  C6  UNL d   1       3.663   3.779  -4.694  0.00  0.00     0.002 A 
ATOM      6  C7  UNL d   1       2.299   3.828  -4.985  0.00  0.00     0.002 A 
ENDROOT
BRANCH   1   7
ATOM      7  C1  UNL d   1       0.290   4.969  -6.000  0.00  0.00     0.055 C 
ATOM      8  C   UNL d   1      -0.499   5.840  -5.033  0.00  0.00     0.019 C 
ENDBRANCH   1   7
TORSDOF 1
ENDMDL
