MODEL 1
REMARK minimizedAffinity 0.285584211
REMARK minimizedRMSD -1
REMARK  1 active torsions:
REMARK  status: ('A' for Active; 'I' for Inactive)
REMARK    1  A    between atoms: C1_2  and  C2_3 
ROOT
ATOM      1  C2  UNL d   1      -0.783   0.701   1.925  0.00  0.00    -0.077 A 
ATOM      2  C3  UNL d   1      -0.062  -0.099   1.027  0.00  0.00     0.002 A 
ATOM      3  C4  UNL d   1       1.081   0.400   0.399  0.00  0.00     0.002 A 
ATOM      4  C5  UNL d   1       1.515   1.697   0.664  0.00  0.00    -0.004 A 
ATOM      5  C6  UNL d   1       0.803   2.501   1.553  0.00  0.00     0.002 A 
ATOM      6  C7  UNL d   1      -0.340   2.005   2.182  0.00  0.00     0.002 A 
ENDROOT
BRANCH   1   7
ATOM      7  C1  UNL d   1      -1.987   0.149   2.641  0.00  0.00     0.055 C 
ATOM      8  C   UNL d   1      -3.064   1.211   2.814  0.00  0.00     0.019 C 
ENDBRANCH   1   7
TORSDOF 1
ENDMDL
