MODEL 1
REMARK minimizedAffinity -0.441279531
REMARK minimizedRMSD -1
REMARK  1 active torsions:
REMARK  status: ('A' for Active; 'I' for Inactive)
REMARK    1  A    between atoms: C1_2  and  C2_3 
ROOT
ATOM      1  C2  UNL d   1       0.361   1.288   1.300  0.00  0.00    -0.077 A 
ATOM      2  C3  UNL d   1      -0.498   0.412   0.623  0.00  0.00     0.002 A 
ATOM      3  C4  UNL d   1      -1.643  -0.081   1.251  0.00  0.00     0.002 A 
ATOM      4  C5  UNL d   1      -1.941   0.299   2.558  0.00  0.00    -0.004 A 
ATOM      5  C6  UNL d   1      -1.092   1.168   3.241  0.00  0.00     0.002 A 
ATOM      6  C7  UNL d   1       0.054   1.661   2.615  0.00  0.00     0.002 A 
ENDROOT
BRANCH   1   7
ATOM      7  C1  UNL d   1       1.570   1.860   0.607  0.00  0.00     0.055 C 
ATOM      8  C   UNL d   1       1.222   3.128  -0.158  0.00  0.00     0.019 C 
ENDBRANCH   1   7
TORSDOF 1
ENDMDL
