MODEL 1
REMARK minimizedAffinity 3.11664486
REMARK minimizedRMSD -1
REMARK  1 active torsions:
REMARK  status: ('A' for Active; 'I' for Inactive)
REMARK    1  A    between atoms: C1_2  and  C2_3 
ROOT
ATOM      1  C2  UNL d   1      -3.529  -5.276  -5.186  0.00  0.00    -0.073 A 
ATOM      2  C3  UNL d   1      -4.719  -5.990  -5.364  0.00  0.00    -0.002 A 
ATOM      3  C4  UNL d   1      -5.896  -5.324  -5.708  0.00  0.00     0.004 A 
ATOM      4  C5  UNL d   1      -5.894  -3.941  -5.884  0.00  0.00    -0.004 A 
ATOM      5  C6  UNL d   1      -4.712  -3.211  -5.723  0.00  0.00    -0.075 A 
ATOM      6  C7  UNL d   1      -4.694  -1.722  -5.906  0.00  0.00     0.076 C 
ATOM      7  C8  UNL d   1      -3.535  -3.886  -5.374  0.00  0.00     0.001 A 
ENDROOT
BRANCH   1   8
ATOM      8  C1  UNL d   1      -2.254  -5.991  -4.820  0.00  0.00     0.053 C 
ATOM      9  C   UNL d   1      -1.153  -5.024  -4.418  0.00  0.00     0.018 C 
ENDBRANCH   1   8
TORSDOF 1
ENDMDL
