MODEL 1
REMARK minimizedAffinity 9.53962421
REMARK minimizedRMSD -1
REMARK  1 active torsions:
REMARK  status: ('A' for Active; 'I' for Inactive)
REMARK    1  A    between atoms: C1_2  and  C2_3 
ROOT
ATOM      1  C2  UNL d   1      -2.443   4.482  -2.283  0.00  0.00    -0.073 A 
ATOM      2  C3  UNL d   1      -1.940   5.682  -1.767  0.00  0.00    -0.002 A 
ATOM      3  C4  UNL d   1      -0.869   5.670  -0.872  0.00  0.00     0.004 A 
ATOM      4  C5  UNL d   1      -0.286   4.462  -0.492  0.00  0.00    -0.004 A 
ATOM      5  C6  UNL d   1      -0.766   3.254  -1.006  0.00  0.00    -0.075 A 
ATOM      6  C7  UNL d   1      -0.151   1.945  -0.605  0.00  0.00     0.076 C 
ATOM      7  C8  UNL d   1      -1.844   3.273  -1.902  0.00  0.00     0.001 A 
ENDROOT
BRANCH   1   8
ATOM      8  C1  UNL d   1      -3.595   4.490  -3.254  0.00  0.00     0.053 C 
ATOM      9  C   UNL d   1      -4.892   4.935  -2.596  0.00  0.00     0.018 C 
ENDBRANCH   1   8
TORSDOF 1
ENDMDL
