MODEL 1
REMARK minimizedAffinity 16.1656971
REMARK minimizedRMSD -1
REMARK  0 active torsions:
REMARK  status: ('A' for Active; 'I' for Inactive)
ROOT
ATOM      1  N1  IND d   1       0.768  -2.977   3.130  0.00  0.00    -0.196 N 
ATOM      2  C2  IND d   1       1.166  -1.762   2.647  0.00  0.00     0.054 A 
ATOM      3  C3  IND d   1       2.411  -1.467   3.084  0.00  0.00    -0.031 A 
ATOM      4  C4  IND d   1       4.019  -2.878   4.517  0.00  0.00     0.051 A 
ATOM      5  C5  IND d   1       4.088  -4.044   5.226  0.00  0.00    -0.031 A 
ATOM      6  C6  IND d   1       3.034  -4.933   5.272  0.00  0.00     0.015 A 
ATOM      7  C7  IND d   1       1.870  -4.694   4.597  0.00  0.00    -0.016 A 
ATOM      8  C8  IND d   1       1.794  -3.507   3.882  0.00  0.00    -0.047 A 
ATOM      9  C9  IND d   1       2.844  -2.581   3.867  0.00  0.00    -0.096 A 
ATOM     10  HN1 IND d   1       0.005  -3.348   2.989  0.00  0.00     0.298 HD
ENDROOT
TORSDOF 0
ENDMDL
