MODEL 1
REMARK minimizedAffinity 2.20148444
REMARK minimizedRMSD -1
REMARK  0 active torsions:
REMARK  status: ('A' for Active; 'I' for Inactive)
ROOT
ATOM      1  N1  IND d   1       0.530  -2.246   2.217  0.00  0.00    -0.196 N 
ATOM      2  C2  IND d   1       1.085  -2.349   3.462  0.00  0.00     0.054 A 
ATOM      3  C3  IND d   1       1.977  -1.353   3.663  0.00  0.00    -0.031 A 
ATOM      4  C4  IND d   1       2.607   0.614   2.126  0.00  0.00     0.051 A 
ATOM      5  C5  IND d   1       2.391   1.113   0.872  0.00  0.00    -0.031 A 
ATOM      6  C6  IND d   1       1.524   0.508  -0.014  0.00  0.00     0.015 A 
ATOM      7  C7  IND d   1       0.829  -0.618   0.326  0.00  0.00    -0.016 A 
ATOM      8  C8  IND d   1       1.051  -1.132   1.596  0.00  0.00    -0.047 A 
ATOM      9  C9  IND d   1       1.962  -0.546   2.484  0.00  0.00    -0.096 A 
ATOM     10  HN1 IND d   1      -0.048  -2.785   1.879  0.00  0.00     0.298 HD
ENDROOT
TORSDOF 0
ENDMDL
