MODEL 1
REMARK minimizedAffinity 6.31244659
REMARK minimizedRMSD -1
REMARK  0 active torsions:
REMARK  status: ('A' for Active; 'I' for Inactive)
ROOT
ATOM      1  N1  IND d   1       0.398  -0.825   1.033  0.00  0.00    -0.196 N 
ATOM      2  C2  IND d   1      -0.401   0.181   0.567  0.00  0.00     0.054 A 
ATOM      3  C3  IND d   1      -1.068  -0.221  -0.538  0.00  0.00    -0.031 A 
ATOM      4  C4  IND d   1      -1.075  -2.519  -1.698  0.00  0.00     0.051 A 
ATOM      5  C5  IND d   1      -0.475  -3.747  -1.660  0.00  0.00    -0.031 A 
ATOM      6  C6  IND d   1       0.464  -4.070  -0.702  0.00  0.00     0.015 A 
ATOM      7  C7  IND d   1       0.831  -3.178   0.265  0.00  0.00    -0.016 A 
ATOM      8  C8  IND d   1       0.229  -1.929   0.226  0.00  0.00    -0.047 A 
ATOM      9  C9  IND d   1      -0.693  -1.580  -0.769  0.00  0.00    -0.096 A 
ATOM     10  HN1 IND d   1       0.920  -0.776   1.715  0.00  0.00     0.298 HD
ENDROOT
TORSDOF 0
ENDMDL
