MODEL 1
REMARK minimizedAffinity 2.80185556
REMARK minimizedRMSD -1
REMARK  0 active torsions:
REMARK  status: ('A' for Active; 'I' for Inactive)
ROOT
ATOM      1  N1  IND d   1       0.317  -3.715   2.310  0.00  0.00    -0.196 N 
ATOM      2  C2  IND d   1       0.022  -2.881   1.268  0.00  0.00     0.054 A 
ATOM      3  C3  IND d   1       0.460  -1.629   1.529  0.00  0.00    -0.031 A 
ATOM      4  C4  IND d   1       1.778  -0.747   3.557  0.00  0.00     0.051 A 
ATOM      5  C5  IND d   1       2.250  -1.125   4.783  0.00  0.00    -0.031 A 
ATOM      6  C6  IND d   1       2.101  -2.413   5.255  0.00  0.00     0.015 A 
ATOM      7  C7  IND d   1       1.482  -3.378   4.511  0.00  0.00    -0.016 A 
ATOM      8  C8  IND d   1       0.995  -2.995   3.269  0.00  0.00    -0.047 A 
ATOM      9  C9  IND d   1       1.105  -1.679   2.803  0.00  0.00    -0.096 A 
ATOM     10  HN1 IND d   1       0.113  -4.549   2.359  0.00  0.00     0.298 HD
ENDROOT
TORSDOF 0
ENDMDL
