MODEL 1
REMARK minimizedAffinity 0.899232507
REMARK minimizedRMSD -1
REMARK  0 active torsions:
REMARK  status: ('A' for Active; 'I' for Inactive)
ROOT
ATOM      1  N1  IND d   1       0.533  -2.582   3.147  0.00  0.00    -0.196 N 
ATOM      2  C2  IND d   1       1.304  -2.507   4.273  0.00  0.00     0.054 A 
ATOM      3  C3  IND d   1       2.169  -1.471   4.184  0.00  0.00    -0.031 A 
ATOM      4  C4  IND d   1       2.421   0.292   2.325  0.00  0.00     0.051 A 
ATOM      5  C5  IND d   1       1.963   0.617   1.079  0.00  0.00    -0.031 A 
ATOM      6  C6  IND d   1       0.983  -0.121   0.447  0.00  0.00     0.015 A 
ATOM      7  C7  IND d   1       0.414  -1.209   1.045  0.00  0.00    -0.016 A 
ATOM      8  C8  IND d   1       0.882  -1.547   2.307  0.00  0.00    -0.047 A 
ATOM      9  C9  IND d   1       1.906  -0.827   2.936  0.00  0.00    -0.096 A 
ATOM     10  HN1 IND d   1      -0.069  -3.175   2.989  0.00  0.00     0.298 HD
ENDROOT
TORSDOF 0
ENDMDL
