MODEL 1
REMARK minimizedAffinity 15.1077242
REMARK minimizedRMSD -1
REMARK  0 active torsions:
REMARK  status: ('A' for Active; 'I' for Inactive)
ROOT
ATOM      1  C   UNL d   1      -5.026  -4.905  -5.920  0.00  0.00    -0.002 A 
ATOM      2  C1  UNL d   1      -4.075  -5.880  -5.655  0.00  0.00     0.010 A 
ATOM      3  C2  UNL d   1      -2.736  -5.533  -5.462  0.00  0.00     0.041 A 
ATOM      4  C3  UNL d   1      -2.366  -4.175  -5.538  0.00  0.00    -0.075 A 
ATOM      5  S   UNL d   1      -0.786  -3.516  -5.335  0.00  0.00     0.015 SA
ATOM      6  C4  UNL d   1      -1.337  -1.924  -5.594  0.00  0.00     0.022 A 
ATOM      7  C5  UNL d   1      -2.690  -1.878  -5.831  0.00  0.00     0.026 A 
ATOM      8  C6  UNL d   1      -3.306  -3.175  -5.802  0.00  0.00    -0.082 A 
ATOM      9  C7  UNL d   1      -4.655  -3.559  -5.994  0.00  0.00     0.045 A 
ENDROOT
TORSDOF 0
ENDMDL
