MODEL 1
REMARK minimizedAffinity 10.0959463
REMARK minimizedRMSD -1
REMARK  0 active torsions:
REMARK  status: ('A' for Active; 'I' for Inactive)
ROOT
ATOM      1  C   UNL d   1      -0.719  -0.015   4.111  0.00  0.00    -0.002 A 
ATOM      2  C1  UNL d   1       0.294  -0.839   3.643  0.00  0.00     0.010 A 
ATOM      3  C2  UNL d   1       0.874  -0.612   2.394  0.00  0.00     0.041 A 
ATOM      4  C3  UNL d   1       0.416   0.470   1.616  0.00  0.00    -0.075 A 
ATOM      5  S   UNL d   1       0.979   0.941   0.056  0.00  0.00     0.015 SA
ATOM      6  C4  UNL d   1      -0.112   2.248  -0.025  0.00  0.00     0.022 A 
ATOM      7  C5  UNL d   1      -0.894   2.337   1.102  0.00  0.00     0.026 A 
ATOM      8  C6  UNL d   1      -0.603   1.314   2.067  0.00  0.00    -0.082 A 
ATOM      9  C7  UNL d   1      -1.171   1.057   3.337  0.00  0.00     0.045 A 
ENDROOT
TORSDOF 0
ENDMDL
