MODEL 1
REMARK minimizedAffinity 19.0341606
REMARK minimizedRMSD -1
REMARK  0 active torsions:
REMARK  status: ('A' for Active; 'I' for Inactive)
ROOT
ATOM      1  C   UNL d   1      -2.815  -5.484  -5.904  0.00  0.00    -0.002 A 
ATOM      2  C1  UNL d   1      -3.528  -4.552  -5.163  0.00  0.00     0.010 A 
ATOM      3  C2  UNL d   1      -3.052  -4.116  -3.924  0.00  0.00     0.041 A 
ATOM      4  C3  UNL d   1      -1.836  -4.637  -3.439  0.00  0.00    -0.075 A 
ATOM      5  S   UNL d   1      -1.060  -4.249  -1.949  0.00  0.00     0.015 SA
ATOM      6  C4  UNL d   1       0.236  -5.311  -2.262  0.00  0.00     0.022 A 
ATOM      7  C5  UNL d   1       0.095  -5.954  -3.469  0.00  0.00     0.026 A 
ATOM      8  C6  UNL d   1      -1.101  -5.576  -4.167  0.00  0.00    -0.082 A 
ATOM      9  C7  UNL d   1      -1.610  -5.998  -5.419  0.00  0.00     0.045 A 
ENDROOT
TORSDOF 0
ENDMDL
