MODEL 1
REMARK minimizedAffinity 8.53453732
REMARK minimizedRMSD -1
REMARK  0 active torsions:
REMARK  status: ('A' for Active; 'I' for Inactive)
ROOT
ATOM      1  C   UNL d   1      -0.889   4.090   0.030  0.00  0.00    -0.002 A 
ATOM      2  C1  UNL d   1      -0.273   3.253   0.950  0.00  0.00     0.010 A 
ATOM      3  C2  UNL d   1       0.169   1.984   0.570  0.00  0.00     0.041 A 
ATOM      4  C3  UNL d   1      -0.017   1.568  -0.763  0.00  0.00    -0.075 A 
ATOM      5  S   UNL d   1       0.445   0.058  -1.454  0.00  0.00     0.015 SA
ATOM      6  C4  UNL d   1      -0.163   0.488  -2.987  0.00  0.00     0.022 A 
ATOM      7  C5  UNL d   1      -0.709   1.750  -2.989  0.00  0.00     0.026 A 
ATOM      8  C6  UNL d   1      -0.634   2.393  -1.707  0.00  0.00    -0.082 A 
ATOM      9  C7  UNL d   1      -1.072   3.674  -1.291  0.00  0.00     0.045 A 
ENDROOT
TORSDOF 0
ENDMDL
