MODEL 1
REMARK minimizedAffinity 0.713623405
REMARK minimizedRMSD -1
REMARK  0 active torsions:
REMARK  status: ('A' for Active; 'I' for Inactive)
ROOT
ATOM      1  C   UNL d   1      -0.907   1.339   3.134  0.00  0.00    -0.002 A 
ATOM      2  C1  UNL d   1       0.090   0.374   3.125  0.00  0.00     0.010 A 
ATOM      3  C2  UNL d   1       0.751   0.047   1.939  0.00  0.00     0.041 A 
ATOM      4  C3  UNL d   1       0.390   0.713   0.751  0.00  0.00    -0.075 A 
ATOM      5  S   UNL d   1       1.062   0.476  -0.818  0.00  0.00     0.015 SA
ATOM      6  C4  UNL d   1       0.042   1.651  -1.514  0.00  0.00     0.022 A 
ATOM      7  C5  UNL d   1      -0.798   2.219  -0.586  0.00  0.00     0.026 A 
ATOM      8  C6  UNL d   1      -0.611   1.688   0.735  0.00  0.00    -0.082 A 
ATOM      9  C7  UNL d   1      -1.263   1.997   1.953  0.00  0.00     0.045 A 
ENDROOT
TORSDOF 0
ENDMDL
