MODEL 1
REMARK minimizedAffinity 1.10408878
REMARK minimizedRMSD -1
REMARK  0 active torsions:
REMARK  status: ('A' for Active; 'I' for Inactive)
ROOT
ATOM      1  O1  BZF d   1      -1.084   5.570  -3.780  0.00  0.00    -0.204 OA
ATOM      2  C2  BZF d   1      -1.677   5.991  -4.954  0.00  0.00     0.174 A 
ATOM      3  C3  BZF d   1      -0.838   5.835  -5.998  0.00  0.00    -0.012 A 
ATOM      4  C3A BZF d   1       0.322   5.196  -5.455  0.00  0.00    -0.107 A 
ATOM      5  C4  BZF d   1       1.498   4.765  -6.000  0.00  0.00     0.055 A 
ATOM      6  C5  BZF d   1       2.454   4.249  -5.184  0.00  0.00    -0.016 A 
ATOM      7  C6  BZF d   1       2.270   4.153  -3.820  0.00  0.00     0.022 A 
ATOM      8  C7  BZF d   1       1.118   4.562  -3.234  0.00  0.00     0.029 A 
ATOM      9  C7A BZF d   1       0.137   5.054  -4.061  0.00  0.00     0.058 A 
ENDROOT
TORSDOF 0
ENDMDL
