MODEL 1
REMARK minimizedAffinity 1.0665586
REMARK minimizedRMSD -1
REMARK  0 active torsions:
REMARK  status: ('A' for Active; 'I' for Inactive)
ROOT
ATOM      1  O1  BZF d   1      -3.009  -5.847   0.747  0.00  0.00    -0.204 OA
ATOM      2  C2  BZF d   1      -3.902  -5.539   1.756  0.00  0.00     0.174 A 
ATOM      3  C3  BZF d   1      -4.518  -4.365   1.509  0.00  0.00    -0.012 A 
ATOM      4  C3A BZF d   1      -4.044  -3.955   0.222  0.00  0.00    -0.107 A 
ATOM      5  C4  BZF d   1      -4.303  -2.876  -0.574  0.00  0.00     0.055 A 
ATOM      6  C5  BZF d   1      -3.619  -2.736  -1.740  0.00  0.00    -0.016 A 
ATOM      7  C6  BZF d   1      -2.667  -3.652  -2.137  0.00  0.00     0.022 A 
ATOM      8  C7  BZF d   1      -2.379  -4.741  -1.384  0.00  0.00     0.029 A 
ATOM      9  C7A BZF d   1      -3.092  -4.903  -0.221  0.00  0.00     0.058 A 
ENDROOT
TORSDOF 0
ENDMDL
