MODEL 1
REMARK minimizedAffinity -1.06052375
REMARK minimizedRMSD -1
REMARK  0 active torsions:
REMARK  status: ('A' for Active; 'I' for Inactive)
ROOT
ATOM      1  O1  BZF d   1       2.367   3.797  -4.486  0.00  0.00    -0.204 OA
ATOM      2  C2  BZF d   1       2.015   2.968  -3.437  0.00  0.00     0.174 A 
ATOM      3  C3  BZF d   1       0.725   3.155  -3.092  0.00  0.00    -0.012 A 
ATOM      4  C3A BZF d   1       0.214   4.096  -4.041  0.00  0.00    -0.107 A 
ATOM      5  C4  BZF d   1      -1.012   4.667  -4.230  0.00  0.00     0.055 A 
ATOM      6  C5  BZF d   1      -1.162   5.604  -5.202  0.00  0.00    -0.016 A 
ATOM      7  C6  BZF d   1      -0.107   5.997  -6.000  0.00  0.00     0.022 A 
ATOM      8  C7  BZF d   1       1.127   5.456  -5.853  0.00  0.00     0.029 A 
ATOM      9  C7A BZF d   1       1.273   4.485  -4.893  0.00  0.00     0.058 A 
ENDROOT
TORSDOF 0
ENDMDL
