MODEL 1
REMARK minimizedAffinity 3.57958603
REMARK minimizedRMSD -1
REMARK  0 active torsions:
REMARK  status: ('A' for Active; 'I' for Inactive)
ROOT
ATOM      1  O1  BZF d   1      -4.879  -5.968  -3.270  0.00  0.00    -0.204 OA
ATOM      2  C2  BZF d   1      -5.806  -5.982  -4.295  0.00  0.00     0.174 A 
ATOM      3  C3  BZF d   1      -5.193  -5.941  -5.495  0.00  0.00    -0.012 A 
ATOM      4  C3A BZF d   1      -3.793  -5.992  -5.205  0.00  0.00    -0.107 A 
ATOM      5  C4  BZF d   1      -2.672  -5.999  -5.984  0.00  0.00     0.055 A 
ATOM      6  C5  BZF d   1      -1.451  -5.980  -5.387  0.00  0.00    -0.016 A 
ATOM      7  C6  BZF d   1      -1.315  -5.949  -4.014  0.00  0.00     0.022 A 
ATOM      8  C7  BZF d   1      -2.398  -5.946  -3.199  0.00  0.00     0.029 A 
ATOM      9  C7A BZF d   1      -3.633  -5.998  -3.800  0.00  0.00     0.058 A 
ENDROOT
TORSDOF 0
ENDMDL
