MODEL 1
REMARK minimizedAffinity 5.35345078
REMARK minimizedRMSD -1
REMARK  0 active torsions:
REMARK  status: ('A' for Active; 'I' for Inactive)
ROOT
ATOM      1  O1  BZF d   1       1.826   0.683  -1.899  0.00  0.00    -0.204 OA
ATOM      2  C2  BZF d   1       1.585   2.032  -2.076  0.00  0.00     0.174 A 
ATOM      3  C3  BZF d   1       1.973   2.734  -0.992  0.00  0.00    -0.012 A 
ATOM      4  C3A BZF d   1       2.574   1.773  -0.117  0.00  0.00    -0.107 A 
ATOM      5  C4  BZF d   1       3.163   1.862   1.111  0.00  0.00     0.055 A 
ATOM      6  C5  BZF d   1       3.583   0.725   1.726  0.00  0.00    -0.016 A 
ATOM      7  C6  BZF d   1       3.424  -0.516   1.144  0.00  0.00     0.022 A 
ATOM      8  C7  BZF d   1       2.850  -0.653  -0.076  0.00  0.00     0.029 A 
ATOM      9  C7A BZF d   1       2.455   0.497  -0.714  0.00  0.00     0.058 A 
ENDROOT
TORSDOF 0
ENDMDL
