MODEL 1
REMARK minimizedAffinity 4.48242617
REMARK minimizedRMSD -1
REMARK  0 active torsions:
REMARK  status: ('A' for Active; 'I' for Inactive)
ROOT
ATOM      1  O1  BZF d   1      -2.696  -4.885  -2.984  0.00  0.00    -0.204 OA
ATOM      2  C2  BZF d   1      -1.538  -5.107  -3.704  0.00  0.00     0.174 A 
ATOM      3  C3  BZF d   1      -1.822  -5.608  -4.923  0.00  0.00    -0.012 A 
ATOM      4  C3A BZF d   1      -3.250  -5.619  -5.003  0.00  0.00    -0.107 A 
ATOM      5  C4  BZF d   1      -4.134  -5.992  -5.976  0.00  0.00     0.055 A 
ATOM      6  C5  BZF d   1      -5.466  -5.947  -5.711  0.00  0.00    -0.016 A 
ATOM      7  C6  BZF d   1      -5.948  -5.540  -4.484  0.00  0.00     0.022 A 
ATOM      8  C7  BZF d   1      -5.111  -5.155  -3.490  0.00  0.00     0.029 A 
ATOM      9  C7A BZF d   1      -3.766  -5.168  -3.766  0.00  0.00     0.058 A 
ENDROOT
TORSDOF 0
ENDMDL
