MODEL 1
REMARK minimizedAffinity 1.04130185
REMARK minimizedRMSD -1
REMARK  0 active torsions:
REMARK  status: ('A' for Active; 'I' for Inactive)
ROOT
ATOM      1  O1  BZF d   1      -5.968   1.162  -5.783  0.00  0.00    -0.204 OA
ATOM      2  C2  BZF d   1      -5.928  -0.207  -5.963  0.00  0.00     0.174 A 
ATOM      3  C3  BZF d   1      -5.854  -0.843  -4.776  0.00  0.00    -0.012 A 
ATOM      4  C3A BZF d   1      -5.940   0.190  -3.789  0.00  0.00    -0.107 A 
ATOM      5  C4  BZF d   1      -5.938   0.186  -2.424  0.00  0.00     0.055 A 
ATOM      6  C5  BZF d   1      -5.962   1.372  -1.760  0.00  0.00    -0.016 A 
ATOM      7  C6  BZF d   1      -5.983   2.578  -2.429  0.00  0.00     0.022 A 
ATOM      8  C7  BZF d   1      -5.991   2.632  -3.784  0.00  0.00     0.029 A 
ATOM      9  C7A BZF d   1      -6.000   1.435  -4.457  0.00  0.00     0.058 A 
ENDROOT
TORSDOF 0
ENDMDL
