MODEL 1
REMARK minimizedAffinity 5.06727886
REMARK minimizedRMSD -1
REMARK  0 active torsions:
REMARK  status: ('A' for Active; 'I' for Inactive)
ROOT
ATOM      1  O1  BZF d   1      -4.908   0.555   2.812  0.00  0.00    -0.204 OA
ATOM      2  C2  BZF d   1      -5.017   0.102   1.511  0.00  0.00     0.174 A 
ATOM      3  C3  BZF d   1      -3.893  -0.540   1.132  0.00  0.00    -0.012 A 
ATOM      4  C3A BZF d   1      -3.063  -0.564   2.297  0.00  0.00    -0.107 A 
ATOM      5  C4  BZF d   1      -1.824  -1.078   2.557  0.00  0.00     0.055 A 
ATOM      6  C5  BZF d   1      -1.265  -0.868   3.777  0.00  0.00    -0.016 A 
ATOM      7  C6  BZF d   1      -1.912  -0.146   4.758  0.00  0.00     0.022 A 
ATOM      8  C7  BZF d   1      -3.144   0.378   4.549  0.00  0.00     0.029 A 
ATOM      9  C7A BZF d   1      -3.726   0.140   3.328  0.00  0.00     0.058 A 
ENDROOT
TORSDOF 0
ENDMDL
