MODEL 1
REMARK minimizedAffinity -0.782037914
REMARK minimizedRMSD -1
REMARK  0 active torsions:
REMARK  status: ('A' for Active; 'I' for Inactive)
ROOT
ATOM      1  O1  BZF d   1      -1.745   0.033   5.008  0.00  0.00    -0.204 OA
ATOM      2  C2  BZF d   1      -2.804  -0.066   5.890  0.00  0.00     0.174 A 
ATOM      3  C3  BZF d   1      -3.874  -0.628   5.292  0.00  0.00    -0.012 A 
ATOM      4  C3A BZF d   1      -3.429  -0.982   3.979  0.00  0.00    -0.107 A 
ATOM      5  C4  BZF d   1      -4.032  -1.589   2.915  0.00  0.00     0.055 A 
ATOM      6  C5  BZF d   1      -3.342  -1.721   1.752  0.00  0.00    -0.016 A 
ATOM      7  C6  BZF d   1      -2.052  -1.253   1.616  0.00  0.00     0.022 A 
ATOM      8  C7  BZF d   1      -1.410  -0.649   2.645  0.00  0.00     0.029 A 
ATOM      9  C7A BZF d   1      -2.092  -0.544   3.832  0.00  0.00     0.058 A 
ENDROOT
TORSDOF 0
ENDMDL
