MODEL 1
REMARK minimizedAffinity 12.7628164
REMARK minimizedRMSD -1
REMARK  0 active torsions:
REMARK  status: ('A' for Active; 'I' for Inactive)
ROOT
ATOM      1  O1  BZF d   1       1.987   3.371  -4.481  0.00  0.00    -0.204 OA
ATOM      2  C2  BZF d   1       1.905   2.961  -3.164  0.00  0.00     0.174 A 
ATOM      3  C3  BZF d   1       0.756   3.388  -2.601  0.00  0.00    -0.012 A 
ATOM      4  C3A BZF d   1       0.035   4.030  -3.656  0.00  0.00    -0.107 A 
ATOM      5  C4  BZF d   1      -1.184   4.642  -3.724  0.00  0.00     0.055 A 
ATOM      6  C5  BZF d   1      -1.562   5.233  -4.887  0.00  0.00    -0.016 A 
ATOM      7  C6  BZF d   1      -0.747   5.235  -6.000  0.00  0.00     0.022 A 
ATOM      8  C7  BZF d   1       0.469   4.636  -5.983  0.00  0.00     0.029 A 
ATOM      9  C7A BZF d   1       0.841   4.010  -4.818  0.00  0.00     0.058 A 
ENDROOT
TORSDOF 0
ENDMDL
