MODEL 1
REMARK minimizedAffinity 0.88904798
REMARK minimizedRMSD -1
REMARK  0 active torsions:
REMARK  status: ('A' for Active; 'I' for Inactive)
ROOT
ATOM      1  O1  BZF d   1      -3.466  -1.150   2.239  0.00  0.00    -0.204 OA
ATOM      2  C2  BZF d   1      -2.186  -0.874   1.796  0.00  0.00     0.174 A 
ATOM      3  C3  BZF d   1      -1.478  -0.232   2.747  0.00  0.00    -0.012 A 
ATOM      4  C3A BZF d   1      -2.342  -0.179   3.887  0.00  0.00    -0.107 A 
ATOM      5  C4  BZF d   1      -2.200   0.322   5.149  0.00  0.00     0.055 A 
ATOM      6  C5  BZF d   1      -3.260   0.279   6.000  0.00  0.00    -0.016 A 
ATOM      7  C6  BZF d   1      -4.474  -0.253   5.620  0.00  0.00     0.022 A 
ATOM      8  C7  BZF d   1      -4.661  -0.767   4.380  0.00  0.00     0.029 A 
ATOM      9  C7A BZF d   1      -3.583  -0.755   3.529  0.00  0.00     0.058 A 
ENDROOT
TORSDOF 0
ENDMDL
