MODEL 1
REMARK minimizedAffinity 1.14134133
REMARK minimizedRMSD -1
REMARK  0 active torsions:
REMARK  status: ('A' for Active; 'I' for Inactive)
ROOT
ATOM      1  O1  BZF d   1      -5.956   0.623  -4.835  0.00  0.00    -0.204 OA
ATOM      2  C2  BZF d   1      -5.952  -0.742  -5.044  0.00  0.00     0.174 A 
ATOM      3  C3  BZF d   1      -5.910  -1.406  -3.871  0.00  0.00    -0.012 A 
ATOM      4  C3A BZF d   1      -5.981  -0.393  -2.863  0.00  0.00    -0.107 A 
ATOM      5  C4  BZF d   1      -5.997  -0.426  -1.498  0.00  0.00     0.055 A 
ATOM      6  C5  BZF d   1      -5.998   0.745  -0.808  0.00  0.00    -0.016 A 
ATOM      7  C6  BZF d   1      -5.977   1.965  -1.451  0.00  0.00     0.022 A 
ATOM      8  C7  BZF d   1      -5.965   2.049  -2.803  0.00  0.00     0.029 A 
ATOM      9  C7A BZF d   1      -5.998   0.868  -3.503  0.00  0.00     0.058 A 
ENDROOT
TORSDOF 0
ENDMDL
