MODEL 1
REMARK minimizedAffinity 1.38969553
REMARK minimizedRMSD -1
REMARK  0 active torsions:
REMARK  status: ('A' for Active; 'I' for Inactive)
ROOT
ATOM      1  O1  BZF d   1      -5.924   2.652  -3.017  0.00  0.00    -0.204 OA
ATOM      2  C2  BZF d   1      -5.921   2.385  -1.661  0.00  0.00     0.174 A 
ATOM      3  C3  BZF d   1      -5.994   1.058  -1.434  0.00  0.00    -0.012 A 
ATOM      4  C3A BZF d   1      -5.952   0.452  -2.730  0.00  0.00    -0.107 A 
ATOM      5  C4  BZF d   1      -5.974  -0.844  -3.162  0.00  0.00     0.055 A 
ATOM      6  C5  BZF d   1      -5.993  -1.094  -4.497  0.00  0.00    -0.016 A 
ATOM      7  C6  BZF d   1      -5.998  -0.076  -5.427  0.00  0.00     0.022 A 
ATOM      8  C7  BZF d   1      -5.972   1.225  -5.047  0.00  0.00     0.029 A 
ATOM      9  C7A BZF d   1      -5.919   1.481  -3.699  0.00  0.00     0.058 A 
ENDROOT
TORSDOF 0
ENDMDL
