MODEL 1
REMARK minimizedAffinity 2.4553926
REMARK minimizedRMSD -1
REMARK  0 active torsions:
REMARK  status: ('A' for Active; 'I' for Inactive)
ROOT
ATOM      1  O1  BZF d   1      -5.914   0.442  -4.909  0.00  0.00    -0.204 OA
ATOM      2  C2  BZF d   1      -5.917  -0.927  -5.092  0.00  0.00     0.174 A 
ATOM      3  C3  BZF d   1      -5.894  -1.568  -3.906  0.00  0.00    -0.012 A 
ATOM      4  C3A BZF d   1      -5.968  -0.536  -2.919  0.00  0.00    -0.107 A 
ATOM      5  C4  BZF d   1      -6.000  -0.543  -1.553  0.00  0.00     0.055 A 
ATOM      6  C5  BZF d   1      -5.999   0.641  -0.886  0.00  0.00    -0.016 A 
ATOM      7  C6  BZF d   1      -5.963   1.849  -1.551  0.00  0.00     0.022 A 
ATOM      8  C7  BZF d   1      -5.936   1.907  -2.905  0.00  0.00     0.029 A 
ATOM      9  C7A BZF d   1      -5.969   0.712  -3.583  0.00  0.00     0.058 A 
ENDROOT
TORSDOF 0
ENDMDL
