MODEL 1
REMARK minimizedAffinity 6.20080328
REMARK minimizedRMSD -1
REMARK  0 active torsions:
REMARK  status: ('A' for Active; 'I' for Inactive)
ROOT
ATOM      1  O1  BZF d   1      -5.679  -1.442  -4.787  0.00  0.00    -0.204 OA
ATOM      2  C2  BZF d   1      -5.711  -0.780  -5.999  0.00  0.00     0.174 A 
ATOM      3  C3  BZF d   1      -5.881   0.545  -5.816  0.00  0.00    -0.012 A 
ATOM      4  C3A BZF d   1      -5.868   0.734  -4.397  0.00  0.00    -0.107 A 
ATOM      5  C4  BZF d   1      -5.977   1.833  -3.595  0.00  0.00     0.055 A 
ATOM      6  C5  BZF d   1      -6.000   1.668  -2.247  0.00  0.00    -0.016 A 
ATOM      7  C6  BZF d   1      -5.920   0.418  -1.667  0.00  0.00     0.022 A 
ATOM      8  C7  BZF d   1      -5.806  -0.702  -2.422  0.00  0.00     0.029 A 
ATOM      9  C7A BZF d   1      -5.750  -0.535  -3.784  0.00  0.00     0.058 A 
ENDROOT
TORSDOF 0
ENDMDL
