MODEL 1
REMARK minimizedAffinity 2.76064396
REMARK minimizedRMSD -1
REMARK  0 active torsions:
REMARK  status: ('A' for Active; 'I' for Inactive)
ROOT
ATOM      1  O1  BZF d   1      -5.982   2.055  -2.567  0.00  0.00    -0.204 OA
ATOM      2  C2  BZF d   1      -5.965   1.373  -1.366  0.00  0.00     0.174 A 
ATOM      3  C3  BZF d   1      -5.993   0.040  -1.573  0.00  0.00    -0.012 A 
ATOM      4  C3A BZF d   1      -5.936  -0.122  -2.993  0.00  0.00    -0.107 A 
ATOM      5  C4  BZF d   1      -5.916  -1.213  -3.814  0.00  0.00     0.055 A 
ATOM      6  C5  BZF d   1      -5.933  -1.028  -5.160  0.00  0.00    -0.016 A 
ATOM      7  C6  BZF d   1      -5.975   0.233  -5.719  0.00  0.00     0.022 A 
ATOM      8  C7  BZF d   1      -5.991   1.346  -4.946  0.00  0.00     0.029 A 
ATOM      9  C7A BZF d   1      -5.941   1.163  -3.585  0.00  0.00     0.058 A 
ENDROOT
TORSDOF 0
ENDMDL
