MODEL 1
REMARK minimizedAffinity 6.32549572
REMARK minimizedRMSD -1
REMARK  0 active torsions:
REMARK  status: ('A' for Active; 'I' for Inactive)
ROOT
ATOM      1  O1  BZF d   1      -5.983   3.188  -2.945  0.00  0.00    -0.204 OA
ATOM      2  C2  BZF d   1      -5.981   1.942  -3.541  0.00  0.00     0.174 A 
ATOM      3  C3  BZF d   1      -5.915   0.967  -2.611  0.00  0.00    -0.012 A 
ATOM      4  C3A BZF d   1      -5.968   1.644  -1.352  0.00  0.00    -0.107 A 
ATOM      5  C4  BZF d   1      -5.957   1.216  -0.055  0.00  0.00     0.055 A 
ATOM      6  C5  BZF d   1      -5.946   2.137   0.944  0.00  0.00    -0.016 A 
ATOM      7  C6  BZF d   1      -5.940   3.492   0.683  0.00  0.00     0.022 A 
ATOM      8  C7  BZF d   1      -5.955   3.964  -0.587  0.00  0.00     0.029 A 
ATOM      9  C7A BZF d   1      -6.000   3.036  -1.599  0.00  0.00     0.058 A 
ENDROOT
TORSDOF 0
ENDMDL
