MODEL 1
REMARK minimizedAffinity 1.57326376
REMARK minimizedRMSD -1
REMARK  1 active torsions:
REMARK  status: ('A' for Active; 'I' for Inactive)
REMARK    1  A    between atoms: C1_2  and  C2_3 
ROOT
ATOM      1  C2  UNL d   1      -3.992   1.837   0.412  0.00  0.00    -0.081 A 
ATOM      2  C3  UNL d   1      -3.403   2.476  -0.685  0.00  0.00     0.006 A 
ATOM      3  C4  UNL d   1      -2.015   2.468  -0.849  0.00  0.00     0.002 A 
ATOM      4  C5  UNL d   1      -1.195   1.814   0.077  0.00  0.00    -0.080 A 
ATOM      5  C6  UNL d   1       0.293   1.772  -0.103  0.00  0.00     0.076 C 
ATOM      6  C7  UNL d   1      -1.783   1.190   1.183  0.00  0.00     0.002 A 
ATOM      7  C8  UNL d   1      -3.170   1.199   1.347  0.00  0.00     0.006 A 
ENDROOT
BRANCH   1   8
ATOM      8  C1  UNL d   1      -5.492   1.788   0.557  0.00  0.00     0.054 C 
ATOM      9  C   UNL d   1      -5.998   2.915   1.446  0.00  0.00     0.018 C 
ENDBRANCH   1   8
TORSDOF 1
ENDMDL
