MODEL 1
REMARK minimizedAffinity -0.14008607
REMARK minimizedRMSD -1
REMARK  1 active torsions:
REMARK  status: ('A' for Active; 'I' for Inactive)
REMARK    1  A    between atoms: C1_2  and  C2_3 
ROOT
ATOM      1  C2  UNL d   1      -2.981   0.069   0.719  0.00  0.00    -0.081 A 
ATOM      2  C3  UNL d   1      -2.138  -0.563   1.641  0.00  0.00     0.006 A 
ATOM      3  C4  UNL d   1      -0.761  -0.332   1.616  0.00  0.00     0.002 A 
ATOM      4  C5  UNL d   1      -0.205   0.540   0.674  0.00  0.00    -0.080 A 
ATOM      5  C6  UNL d   1       1.269   0.820   0.655  0.00  0.00     0.076 C 
ATOM      6  C7  UNL d   1      -1.045   1.159  -0.259  0.00  0.00     0.002 A 
ATOM      7  C8  UNL d   1      -2.422   0.927  -0.234  0.00  0.00     0.006 A 
ENDROOT
BRANCH   1   8
ATOM      8  C1  UNL d   1      -4.474  -0.127   0.785  0.00  0.00     0.054 C 
ATOM      9  C   UNL d   1      -5.217   1.166   0.484  0.00  0.00     0.018 C 
ENDBRANCH   1   8
TORSDOF 1
ENDMDL
