MODEL 1
REMARK minimizedAffinity -2.92783666
REMARK minimizedRMSD -1
REMARK  1 active torsions:
REMARK  status: ('A' for Active; 'I' for Inactive)
REMARK    1  A    between atoms: C1_2  and  C2_3 
ROOT
ATOM      1  C2  UNL d   1      -1.890   1.295   0.330  0.00  0.00    -0.081 A 
ATOM      2  C3  UNL d   1      -2.285   2.545  -0.161  0.00  0.00     0.006 A 
ATOM      3  C4  UNL d   1      -3.611   2.968  -0.038  0.00  0.00     0.002 A 
ATOM      4  C5  UNL d   1      -4.561   2.151   0.584  0.00  0.00    -0.080 A 
ATOM      5  C6  UNL d   1      -5.981   2.605   0.749  0.00  0.00     0.076 C 
ATOM      6  C7  UNL d   1      -4.170   0.894   1.059  0.00  0.00     0.002 A 
ATOM      7  C8  UNL d   1      -2.845   0.471   0.936  0.00  0.00     0.006 A 
ENDROOT
BRANCH   1   8
ATOM      8  C1  UNL d   1      -0.447   0.864   0.257  0.00  0.00     0.054 C 
ATOM      9  C   UNL d   1      -0.143  -0.224   1.277  0.00  0.00     0.018 C 
ENDBRANCH   1   8
TORSDOF 1
ENDMDL
