MODEL 1
REMARK minimizedAffinity 10.0223913
REMARK minimizedRMSD -1
REMARK  1 active torsions:
REMARK  status: ('A' for Active; 'I' for Inactive)
REMARK    1  A    between atoms: C1_2  and  C2_3 
ROOT
ATOM      1  C2  UNL d   1      -3.481   2.281   0.335  0.00  0.00    -0.081 A 
ATOM      2  C3  UNL d   1      -3.241   1.103   1.053  0.00  0.00     0.006 A 
ATOM      3  C4  UNL d   1      -1.935   0.646   1.247  0.00  0.00     0.002 A 
ATOM      4  C5  UNL d   1      -0.849   1.363   0.734  0.00  0.00    -0.080 A 
ATOM      5  C6  UNL d   1       0.559   0.899   0.961  0.00  0.00     0.076 C 
ATOM      6  C7  UNL d   1      -1.090   2.530   0.002  0.00  0.00     0.002 A 
ATOM      7  C8  UNL d   1      -2.395   2.988  -0.193  0.00  0.00     0.006 A 
ENDROOT
BRANCH   1   8
ATOM      8  C1  UNL d   1      -4.884   2.811   0.180  0.00  0.00     0.054 C 
ATOM      9  C   UNL d   1      -5.867   2.038   1.047  0.00  0.00     0.018 C 
ENDBRANCH   1   8
TORSDOF 1
ENDMDL
