MODEL 1
REMARK minimizedAffinity -2.71137786
REMARK minimizedRMSD -1
REMARK  1 active torsions:
REMARK  status: ('A' for Active; 'I' for Inactive)
REMARK    1  A    between atoms: C1_2  and  C2_3 
ROOT
ATOM      1  C2  UNL d   1      -3.789   1.163   0.729  0.00  0.00    -0.081 A 
ATOM      2  C3  UNL d   1      -2.956   0.156   1.232  0.00  0.00     0.006 A 
ATOM      3  C4  UNL d   1      -1.574   0.349   1.298  0.00  0.00     0.002 A 
ATOM      4  C5  UNL d   1      -1.003   1.552   0.870  0.00  0.00    -0.080 A 
ATOM      5  C6  UNL d   1       0.476   1.783   0.964  0.00  0.00     0.076 C 
ATOM      6  C7  UNL d   1      -1.834   2.551   0.352  0.00  0.00     0.002 A 
ATOM      7  C8  UNL d   1      -3.215   2.359   0.285  0.00  0.00     0.006 A 
ENDROOT
BRANCH   1   8
ATOM      8  C1  UNL d   1      -5.286   0.984   0.717  0.00  0.00     0.054 C 
ATOM      9  C   UNL d   1      -5.999   2.255   1.155  0.00  0.00     0.018 C 
ENDBRANCH   1   8
TORSDOF 1
ENDMDL
