MODEL 1
REMARK minimizedAffinity 2.62224364
REMARK minimizedRMSD -1
REMARK  1 active torsions:
REMARK  status: ('A' for Active; 'I' for Inactive)
REMARK    1  A    between atoms: C1_2  and  C2_3 
ROOT
ATOM      1  C2  UNL d   1      -2.692   1.353   0.497  0.00  0.00    -0.081 A 
ATOM      2  C3  UNL d   1      -2.041   0.137   0.734  0.00  0.00     0.006 A 
ATOM      3  C4  UNL d   1      -0.686   0.113   1.073  0.00  0.00     0.002 A 
ATOM      4  C5  UNL d   1       0.038   1.305   1.188  0.00  0.00    -0.080 A 
ATOM      5  C6  UNL d   1       1.486   1.295   1.581  0.00  0.00     0.076 C 
ATOM      6  C7  UNL d   1      -0.608   2.519   0.934  0.00  0.00     0.002 A 
ATOM      7  C8  UNL d   1      -1.962   2.543   0.594  0.00  0.00     0.006 A 
ENDROOT
BRANCH   1   8
ATOM      8  C1  UNL d   1      -4.168   1.386   0.194  0.00  0.00     0.054 C 
ATOM      9  C   UNL d   1      -4.931   0.388   1.053  0.00  0.00     0.018 C 
ENDBRANCH   1   8
TORSDOF 1
ENDMDL
