MODEL 1
REMARK minimizedAffinity 1.75087297
REMARK minimizedRMSD -1
REMARK  1 active torsions:
REMARK  status: ('A' for Active; 'I' for Inactive)
REMARK    1  A    between atoms: C1_2  and  C2_3 
ROOT
ATOM      1  C2  UNL d   1      -2.127   2.447   0.358  0.00  0.00    -0.081 A 
ATOM      2  C3  UNL d   1      -0.847   3.008   0.259  0.00  0.00     0.006 A 
ATOM      3  C4  UNL d   1       0.289   2.215   0.438  0.00  0.00     0.002 A 
ATOM      4  C5  UNL d   1       0.166   0.849   0.710  0.00  0.00    -0.080 A 
ATOM      5  C6  UNL d   1       1.378  -0.019   0.875  0.00  0.00     0.076 C 
ATOM      6  C7  UNL d   1      -1.112   0.292   0.826  0.00  0.00     0.002 A 
ATOM      7  C8  UNL d   1      -2.249   1.083   0.648  0.00  0.00     0.006 A 
ENDROOT
BRANCH   1   8
ATOM      8  C1  UNL d   1      -3.353   3.285   0.101  0.00  0.00     0.054 C 
ATOM      9  C   UNL d   1      -4.625   2.530   0.461  0.00  0.00     0.018 C 
ENDBRANCH   1   8
TORSDOF 1
ENDMDL
