MODEL 1
REMARK minimizedAffinity -1.24501121
REMARK minimizedRMSD -1
REMARK  1 active torsions:
REMARK  status: ('A' for Active; 'I' for Inactive)
REMARK    1  A    between atoms: C1_2  and  C2_3 
ROOT
ATOM      1  C2  UNL d   1      -1.560   0.984   0.853  0.00  0.00    -0.081 A 
ATOM      2  C3  UNL d   1      -1.919   2.187   0.232  0.00  0.00     0.006 A 
ATOM      3  C4  UNL d   1      -3.241   2.636   0.271  0.00  0.00     0.002 A 
ATOM      4  C5  UNL d   1      -4.224   1.896   0.937  0.00  0.00    -0.080 A 
ATOM      5  C6  UNL d   1      -5.640   2.382   1.012  0.00  0.00     0.076 C 
ATOM      6  C7  UNL d   1      -3.868   0.686   1.542  0.00  0.00     0.002 A 
ATOM      7  C8  UNL d   1      -2.547   0.235   1.503  0.00  0.00     0.006 A 
ENDROOT
BRANCH   1   8
ATOM      8  C1  UNL d   1      -0.123   0.529   0.869  0.00  0.00     0.054 C 
ATOM      9  C   UNL d   1       0.705   1.276  -0.168  0.00  0.00     0.018 C 
ENDBRANCH   1   8
TORSDOF 1
ENDMDL
