MODEL 1
REMARK minimizedAffinity -1.92956865
REMARK minimizedRMSD -1
REMARK  1 active torsions:
REMARK  status: ('A' for Active; 'I' for Inactive)
REMARK    1  A    between atoms: C1_2  and  C2_3 
ROOT
ATOM      1  C2  UNL d   1      -2.695   1.556  -0.147  0.00  0.00    -0.081 A 
ATOM      2  C3  UNL d   1      -2.440   0.629   0.871  0.00  0.00     0.006 A 
ATOM      3  C4  UNL d   1      -1.126   0.307   1.222  0.00  0.00     0.002 A 
ATOM      4  C5  UNL d   1      -0.048   0.912   0.568  0.00  0.00    -0.080 A 
ATOM      5  C6  UNL d   1       1.366   0.598   0.956  0.00  0.00     0.076 C 
ATOM      6  C7  UNL d   1      -0.303   1.825  -0.461  0.00  0.00     0.002 A 
ATOM      7  C8  UNL d   1      -1.616   2.146  -0.814  0.00  0.00     0.006 A 
ENDROOT
BRANCH   1   8
ATOM      8  C1  UNL d   1      -4.109   1.953  -0.485  0.00  0.00     0.054 C 
ATOM      9  C   UNL d   1      -4.994   1.954   0.754  0.00  0.00     0.018 C 
ENDBRANCH   1   8
TORSDOF 1
ENDMDL
