MODEL 1
REMARK minimizedAffinity 1.2661289
REMARK minimizedRMSD -1
REMARK  1 active torsions:
REMARK  status: ('A' for Active; 'I' for Inactive)
REMARK    1  A    between atoms: C1_2  and  C2_3 
ROOT
ATOM      1  C2  UNL d   1      -2.885   1.834   0.166  0.00  0.00    -0.081 A 
ATOM      2  C3  UNL d   1      -2.779   0.776   1.077  0.00  0.00     0.006 A 
ATOM      3  C4  UNL d   1      -1.524   0.303   1.471  0.00  0.00     0.002 A 
ATOM      4  C5  UNL d   1      -0.356   0.886   0.967  0.00  0.00    -0.080 A 
ATOM      5  C6  UNL d   1       0.996   0.409   1.404  0.00  0.00     0.076 C 
ATOM      6  C7  UNL d   1      -0.463   1.932   0.043  0.00  0.00     0.002 A 
ATOM      7  C8  UNL d   1      -1.716   2.404  -0.351  0.00  0.00     0.006 A 
ENDROOT
BRANCH   1   8
ATOM      8  C1  UNL d   1      -4.235   2.388  -0.211  0.00  0.00     0.054 C 
ATOM      9  C   UNL d   1      -5.249   2.182   0.906  0.00  0.00     0.018 C 
ENDBRANCH   1   8
TORSDOF 1
ENDMDL
