MODEL 1
REMARK minimizedAffinity 8.06286621
REMARK minimizedRMSD -1
REMARK  1 active torsions:
REMARK  status: ('A' for Active; 'I' for Inactive)
REMARK    1  A    between atoms: C1_2  and  C2_3 
ROOT
ATOM      1  C2  UNL d   1      -0.998   2.159   1.939  0.00  0.00    -0.081 A 
ATOM      2  C3  UNL d   1      -0.274   1.824   3.089  0.00  0.00     0.006 A 
ATOM      3  C4  UNL d   1       1.091   1.537   3.009  0.00  0.00     0.002 A 
ATOM      4  C5  UNL d   1       1.756   1.589   1.779  0.00  0.00    -0.080 A 
ATOM      5  C6  UNL d   1       3.227   1.313   1.683  0.00  0.00     0.076 C 
ATOM      6  C7  UNL d   1       1.029   1.907   0.627  0.00  0.00     0.002 A 
ATOM      7  C8  UNL d   1      -0.336   2.193   0.706  0.00  0.00     0.006 A 
ENDROOT
BRANCH   1   8
ATOM      8  C1  UNL d   1      -2.456   2.532   2.032  0.00  0.00     0.054 C 
ATOM      9  C   UNL d   1      -3.200   2.177   0.753  0.00  0.00     0.018 C 
ENDBRANCH   1   8
TORSDOF 1
ENDMDL
