MODEL 1
REMARK minimizedAffinity 2.38017774
REMARK minimizedRMSD -1
REMARK  0 active torsions:
REMARK  status: ('A' for Active; 'I' for Inactive)
ROOT
ATOM      1  C4' PXY d   1       0.865   0.207  -3.710  0.00  0.00     0.077 C 
ATOM      2  C1' PXY d   1       0.508  -0.193   2.046  0.00  0.00     0.077 C 
ATOM      3  C1  PXY d   1       0.614  -0.088   0.537  0.00  0.00    -0.082 A 
ATOM      4  C2  PXY d   1      -0.387   0.430  -0.155  0.00  0.00     0.003 A 
ATOM      5  C3  PXY d   1      -0.320   0.503  -1.523  0.00  0.00     0.003 A 
ATOM      6  C4  PXY d   1       0.805   0.090  -2.184  0.00  0.00    -0.082 A 
ATOM      7  C5  PXY d   1       1.835  -0.430  -1.484  0.00  0.00     0.003 A 
ATOM      8  C6  PXY d   1       1.731  -0.533  -0.100  0.00  0.00     0.003 A 
ENDROOT
TORSDOF 0
ENDMDL
