MODEL 1
REMARK minimizedAffinity -3.48989606
REMARK minimizedRMSD -1
REMARK  0 active torsions:
REMARK  status: ('A' for Active; 'I' for Inactive)
ROOT
ATOM      1  C4' PXY d   1       0.565  -0.543  -1.788  0.00  0.00     0.077 C 
ATOM      2  C1' PXY d   1      -0.941   1.448   3.425  0.00  0.00     0.077 C 
ATOM      3  C1  PXY d   1      -0.558   0.919   2.057  0.00  0.00    -0.082 A 
ATOM      4  C2  PXY d   1       0.720   0.824   1.728  0.00  0.00     0.003 A 
ATOM      5  C3  PXY d   1       1.084   0.378   0.483  0.00  0.00     0.003 A 
ATOM      6  C4  PXY d   1       0.132  -0.024  -0.414  0.00  0.00    -0.082 A 
ATOM      7  C5  PXY d   1      -1.174   0.060  -0.082  0.00  0.00     0.003 A 
ATOM      8  C6  PXY d   1      -1.524   0.554   1.171  0.00  0.00     0.003 A 
ENDROOT
TORSDOF 0
ENDMDL
