MODEL 1
REMARK minimizedAffinity -4.30458021
REMARK minimizedRMSD -1
REMARK  0 active torsions:
REMARK  status: ('A' for Active; 'I' for Inactive)
ROOT
ATOM      1  C4' PXY d   1      -1.055   1.508   2.898  0.00  0.00     0.077 C 
ATOM      2  C1' PXY d   1       0.708  -1.138  -1.930  0.00  0.00     0.077 C 
ATOM      3  C1  PXY d   1       0.235  -0.441  -0.670  0.00  0.00    -0.082 A 
ATOM      4  C2  PXY d   1       1.121  -0.029   0.222  0.00  0.00     0.003 A 
ATOM      5  C3  PXY d   1       0.708   0.575   1.382  0.00  0.00     0.003 A 
ATOM      6  C4  PXY d   1      -0.622   0.807   1.607  0.00  0.00    -0.082 A 
ATOM      7  C5  PXY d   1      -1.532   0.400   0.697  0.00  0.00     0.003 A 
ATOM      8  C6  PXY d   1      -1.095  -0.248  -0.455  0.00  0.00     0.003 A 
ENDROOT
TORSDOF 0
ENDMDL
