MODEL 1
REMARK minimizedAffinity -4.69463921
REMARK minimizedRMSD -1
REMARK  0 active torsions:
REMARK  status: ('A' for Active; 'I' for Inactive)
ROOT
ATOM      1  C4' PXY d   1      -1.817  -0.422  -0.467  0.00  0.00     0.077 C 
ATOM      2  C1' PXY d   1       2.870   0.779  -3.630  0.00  0.00     0.077 C 
ATOM      3  C1  PXY d   1       1.646   0.471  -2.790  0.00  0.00    -0.082 A 
ATOM      4  C2  PXY d   1       0.930  -0.611  -3.050  0.00  0.00     0.003 A 
ATOM      5  C3  PXY d   1      -0.199  -0.887  -2.322  0.00  0.00     0.003 A 
ATOM      6  C4  PXY d   1      -0.568  -0.076  -1.282  0.00  0.00    -0.082 A 
ATOM      7  C5  PXY d   1       0.163   1.024  -1.004  0.00  0.00     0.003 A 
ATOM      8  C6  PXY d   1       1.282   1.309  -1.782  0.00  0.00     0.003 A 
ENDROOT
TORSDOF 0
ENDMDL
