MODEL 1
REMARK minimizedAffinity -4.51651955
REMARK minimizedRMSD -1
REMARK  0 active torsions:
REMARK  status: ('A' for Active; 'I' for Inactive)
ROOT
ATOM      1  C4' PXY d   1       0.287  -0.464  -2.114  0.00  0.00     0.077 C 
ATOM      2  C1' PXY d   1      -0.688   1.227   3.327  0.00  0.00     0.077 C 
ATOM      3  C1  PXY d   1      -0.444   0.778   1.900  0.00  0.00    -0.082 A 
ATOM      4  C2  PXY d   1       0.795   0.608   1.470  0.00  0.00     0.003 A 
ATOM      5  C3  PXY d   1       1.035   0.234   0.173  0.00  0.00     0.003 A 
ATOM      6  C4  PXY d   1      -0.007  -0.021  -0.678  0.00  0.00    -0.082 A 
ATOM      7  C5  PXY d   1      -1.275   0.140  -0.244  0.00  0.00     0.003 A 
ATOM      8  C6  PXY d   1      -1.496   0.561   1.064  0.00  0.00     0.003 A 
ENDROOT
TORSDOF 0
ENDMDL
