MODEL 1
REMARK minimizedAffinity -4.31555557
REMARK minimizedRMSD -1
REMARK  0 active torsions:
REMARK  status: ('A' for Active; 'I' for Inactive)
ROOT
ATOM      1  C4' PXY d   1       1.726   0.311  -1.206  0.00  0.00     0.077 C 
ATOM      2  C1' PXY d   1      -2.711   0.244   2.498  0.00  0.00     0.077 C 
ATOM      3  C1  PXY d   1      -1.543   0.272   1.533  0.00  0.00    -0.082 A 
ATOM      4  C2  PXY d   1      -1.671  -0.275   0.335  0.00  0.00     0.003 A 
ATOM      5  C3  PXY d   1      -0.614  -0.287  -0.538  0.00  0.00     0.003 A 
ATOM      6  C4  PXY d   1       0.569   0.314  -0.202  0.00  0.00    -0.082 A 
ATOM      7  C5  PXY d   1       0.704   0.884   1.014  0.00  0.00     0.003 A 
ATOM      8  C6  PXY d   1      -0.367   0.849   1.902  0.00  0.00     0.003 A 
ENDROOT
TORSDOF 0
ENDMDL
