MODEL 1
REMARK minimizedAffinity -4.80641603
REMARK minimizedRMSD -1
REMARK  0 active torsions:
REMARK  status: ('A' for Active; 'I' for Inactive)
ROOT
ATOM      1  C4' PXY d   1       0.390  -1.334  -1.911  0.00  0.00     0.077 C 
ATOM      2  C1' PXY d   1      -0.746   1.250   3.133  0.00  0.00     0.077 C 
ATOM      3  C1  PXY d   1      -0.461   0.568   1.809  0.00  0.00    -0.082 A 
ATOM      4  C2  PXY d   1       0.773   0.183   1.525  0.00  0.00     0.003 A 
ATOM      5  C3  PXY d   1       1.054  -0.406   0.319  0.00  0.00     0.003 A 
ATOM      6  C4  PXY d   1       0.054  -0.651  -0.583  0.00  0.00    -0.082 A 
ATOM      7  C5  PXY d   1      -1.209  -0.270  -0.296  0.00  0.00     0.003 A 
ATOM      8  C6  PXY d   1      -1.467   0.363   0.916  0.00  0.00     0.003 A 
ENDROOT
TORSDOF 0
ENDMDL
