MODEL 1
REMARK minimizedAffinity -3.05307674
REMARK minimizedRMSD -1
REMARK  0 active torsions:
REMARK  status: ('A' for Active; 'I' for Inactive)
ROOT
ATOM      1  C4' PXY d   1      -0.667   1.603   2.809  0.00  0.00     0.077 C 
ATOM      2  C1' PXY d   1      -0.179  -1.394  -2.110  0.00  0.00     0.077 C 
ATOM      3  C1  PXY d   1      -0.319  -0.605  -0.823  0.00  0.00    -0.082 A 
ATOM      4  C2  PXY d   1       0.763  -0.147  -0.215  0.00  0.00     0.003 A 
ATOM      5  C3  PXY d   1       0.657   0.541   0.966  0.00  0.00     0.003 A 
ATOM      6  C4  PXY d   1      -0.574   0.809   1.503  0.00  0.00    -0.082 A 
ATOM      7  C5  PXY d   1      -1.684   0.355   0.883  0.00  0.00     0.003 A 
ATOM      8  C6  PXY d   1      -1.552  -0.377  -0.293  0.00  0.00     0.003 A 
ENDROOT
TORSDOF 0
ENDMDL
