MODEL 1
REMARK minimizedAffinity -3.00280905
REMARK minimizedRMSD -1
REMARK  0 active torsions:
REMARK  status: ('A' for Active; 'I' for Inactive)
ROOT
ATOM      1  C4' PXY d   1       0.374  -1.128  -3.217  0.00  0.00     0.077 C 
ATOM      2  C1' PXY d   1       2.015  -0.327   2.268  0.00  0.00     0.077 C 
ATOM      3  C1  PXY d   1       1.572  -0.534   0.833  0.00  0.00    -0.082 A 
ATOM      4  C2  PXY d   1       2.278  -1.322   0.038  0.00  0.00     0.003 A 
ATOM      5  C3  PXY d   1       1.910  -1.494  -1.272  0.00  0.00     0.003 A 
ATOM      6  C4  PXY d   1       0.778  -0.897  -1.758  0.00  0.00    -0.082 A 
ATOM      7  C5  PXY d   1       0.047  -0.101  -0.950  0.00  0.00     0.003 A 
ATOM      8  C6  PXY d   1       0.460   0.095   0.365  0.00  0.00     0.003 A 
ENDROOT
TORSDOF 0
ENDMDL
