MODEL 1
REMARK minimizedAffinity -4.05533886
REMARK minimizedRMSD -1
REMARK  0 active torsions:
REMARK  status: ('A' for Active; 'I' for Inactive)
ROOT
ATOM      1  C4' PXY d   1       0.323  -1.603  -1.701  0.00  0.00     0.077 C 
ATOM      2  C1' PXY d   1      -0.390   1.324   3.233  0.00  0.00     0.077 C 
ATOM      3  C1  PXY d   1      -0.190   0.557   1.940  0.00  0.00    -0.082 A 
ATOM      4  C2  PXY d   1      -1.151   0.546   1.031  0.00  0.00     0.003 A 
ATOM      5  C3  PXY d   1      -1.000  -0.169  -0.130  0.00  0.00     0.003 A 
ATOM      6  C4  PXY d   1       0.169  -0.835  -0.385  0.00  0.00    -0.082 A 
ATOM      7  C5  PXY d   1       1.158  -0.819   0.533  0.00  0.00     0.003 A 
ATOM      8  C6  PXY d   1       0.969  -0.122   1.722  0.00  0.00     0.003 A 
ENDROOT
TORSDOF 0
ENDMDL
