MODEL 1
REMARK minimizedAffinity -3.21296287
REMARK minimizedRMSD -1
REMARK  1 active torsions:
REMARK  status: ('A' for Active; 'I' for Inactive)
REMARK    1  A    between atoms: N_2  and  C1_3 
ROOT
ATOM      1  C1  UNL d   1       1.660   3.074  -1.223  0.00  0.00     0.143 A 
ATOM      2  C2  UNL d   1       1.553   2.776   0.140  0.00  0.00    -0.057 A 
ATOM      3  C3  UNL d   1       1.229   1.487   0.579  0.00  0.00     0.033 A 
ATOM      4  C4  UNL d   1       0.978   0.475  -0.342  0.00  0.00    -0.042 A 
ATOM      5  C5  UNL d   1       1.054   0.754  -1.702  0.00  0.00     0.033 A 
ATOM      6  C6  UNL d   1       1.385   2.042  -2.134  0.00  0.00    -0.057 A 
ENDROOT
BRANCH   1   7
ATOM      7  N   UNL d   1       1.882   4.359  -1.723  0.00  0.00    -0.732 N 
ATOM      8  C   UNL d   1       2.193   5.454  -0.830  0.00  0.00     0.284 C 
ATOM      9  H3  UNL d   1       2.431   4.352  -2.580  0.00  0.00     0.395 HD
ENDBRANCH   1   7
TORSDOF 1
ENDMDL
