MODEL 1
REMARK minimizedAffinity -4.75043869
REMARK minimizedRMSD -1
REMARK  1 active torsions:
REMARK  status: ('A' for Active; 'I' for Inactive)
REMARK    1  A    between atoms: N_2  and  C1_3 
ROOT
ATOM      1  C1  UNL d   1       1.057   2.955  -0.308  0.00  0.00     0.143 A 
ATOM      2  C2  UNL d   1       0.838   2.261   0.886  0.00  0.00    -0.057 A 
ATOM      3  C3  UNL d   1       0.682   0.869   0.900  0.00  0.00     0.033 A 
ATOM      4  C4  UNL d   1       0.713   0.149  -0.290  0.00  0.00    -0.042 A 
ATOM      5  C5  UNL d   1       0.904   0.821  -1.492  0.00  0.00     0.033 A 
ATOM      6  C6  UNL d   1       1.067   2.209  -1.498  0.00  0.00    -0.057 A 
ENDROOT
BRANCH   1   7
ATOM      7  N   UNL d   1       1.122   4.348  -0.398  0.00  0.00    -0.732 N 
ATOM      8  C   UNL d   1       2.151   4.988  -1.188  0.00  0.00     0.284 C 
ATOM      9  H3  UNL d   1       0.203   4.774  -0.489  0.00  0.00     0.395 HD
ENDBRANCH   1   7
TORSDOF 1
ENDMDL
