MODEL 1
REMARK minimizedAffinity 0.91189754
REMARK minimizedRMSD -1
REMARK  1 active torsions:
REMARK  status: ('A' for Active; 'I' for Inactive)
REMARK    1  A    between atoms: N_2  and  C1_3 
ROOT
ATOM      1  C1  UNL d   1       0.761  -1.273  -1.209  0.00  0.00     0.143 A 
ATOM      2  C2  UNL d   1      -0.455  -1.792  -1.667  0.00  0.00    -0.057 A 
ATOM      3  C3  UNL d   1      -0.700  -3.170  -1.671  0.00  0.00     0.033 A 
ATOM      4  C4  UNL d   1       0.280  -4.059  -1.241  0.00  0.00    -0.042 A 
ATOM      5  C5  UNL d   1       1.505  -3.566  -0.805  0.00  0.00     0.033 A 
ATOM      6  C6  UNL d   1       1.742  -2.188  -0.798  0.00  0.00    -0.057 A 
ENDROOT
BRANCH   1   7
ATOM      7  N   UNL d   1       1.102   0.081  -1.273  0.00  0.00    -0.732 N 
ATOM      8  C   UNL d   1       1.766   0.727  -0.162  0.00  0.00     0.284 C 
ATOM      9  H3  UNL d   1       1.464   0.347  -2.186  0.00  0.00     0.395 HD
ENDBRANCH   1   7
TORSDOF 1
ENDMDL
