MODEL 1
REMARK minimizedAffinity -2.53274417
REMARK minimizedRMSD -1
REMARK  1 active torsions:
REMARK  status: ('A' for Active; 'I' for Inactive)
REMARK    1  A    between atoms: N_2  and  C1_3 
ROOT
ATOM      1  C1  UNL d   1       1.090   2.275  -1.189  0.00  0.00     0.143 A 
ATOM      2  C2  UNL d   1       1.159   1.021  -1.805  0.00  0.00    -0.057 A 
ATOM      3  C3  UNL d   1       1.184  -0.158  -1.050  0.00  0.00     0.033 A 
ATOM      4  C4  UNL d   1       1.171  -0.102   0.340  0.00  0.00    -0.042 A 
ATOM      5  C5  UNL d   1       1.128   1.135   0.973  0.00  0.00     0.033 A 
ATOM      6  C6  UNL d   1       1.096   2.308   0.214  0.00  0.00    -0.057 A 
ENDROOT
BRANCH   1   7
ATOM      7  N   UNL d   1       1.161   3.486  -1.882  0.00  0.00    -0.732 N 
ATOM      8  C   UNL d   1       1.766   4.650  -1.270  0.00  0.00     0.284 C 
ATOM      9  H3  UNL d   1       1.401   3.360  -2.862  0.00  0.00     0.395 HD
ENDBRANCH   1   7
TORSDOF 1
ENDMDL
