MODEL 1
REMARK minimizedAffinity -1.61428678
REMARK minimizedRMSD -1
REMARK  1 active torsions:
REMARK  status: ('A' for Active; 'I' for Inactive)
REMARK    1  A    between atoms: N_2  and  C1_3 
ROOT
ATOM      1  C1  UNL d   1       1.487   2.944  -1.208  0.00  0.00     0.143 A 
ATOM      2  C2  UNL d   1       1.445   1.662  -1.767  0.00  0.00    -0.057 A 
ATOM      3  C3  UNL d   1       1.121   0.542  -0.993  0.00  0.00     0.033 A 
ATOM      4  C4  UNL d   1       0.861   0.680   0.367  0.00  0.00    -0.042 A 
ATOM      5  C5  UNL d   1       0.921   1.941   0.950  0.00  0.00     0.033 A 
ATOM      6  C6  UNL d   1       1.238   3.057   0.169  0.00  0.00    -0.057 A 
ENDROOT
BRANCH   1   7
ATOM      7  N   UNL d   1       1.898   4.083  -1.903  0.00  0.00    -0.732 N 
ATOM      8  C   UNL d   1       1.960   5.368  -1.241  0.00  0.00     0.284 C 
ATOM      9  H3  UNL d   1       2.682   3.897  -2.524  0.00  0.00     0.395 HD
ENDBRANCH   1   7
TORSDOF 1
ENDMDL
