MODEL 1
REMARK minimizedAffinity 7.4454298
REMARK minimizedRMSD -1
REMARK  1 active torsions:
REMARK  status: ('A' for Active; 'I' for Inactive)
REMARK    1  A    between atoms: N_2  and  C1_3 
ROOT
ATOM      1  C1  UNL d   1       1.603   3.125  -1.577  0.00  0.00     0.143 A 
ATOM      2  C2  UNL d   1       0.882   2.489  -2.594  0.00  0.00    -0.057 A 
ATOM      3  C3  UNL d   1       0.600   1.119  -2.536  0.00  0.00     0.033 A 
ATOM      4  C4  UNL d   1       1.061   0.352  -1.472  0.00  0.00    -0.042 A 
ATOM      5  C5  UNL d   1       1.801   0.957  -0.462  0.00  0.00     0.033 A 
ATOM      6  C6  UNL d   1       2.073   2.327  -0.522  0.00  0.00    -0.057 A 
ENDROOT
BRANCH   1   7
ATOM      7  N   UNL d   1       2.000   4.463  -1.625  0.00  0.00    -0.732 N 
ATOM      8  C   UNL d   1       1.807   5.331  -0.482  0.00  0.00     0.284 C 
ATOM      9  H3  UNL d   1       2.894   4.587  -2.094  0.00  0.00     0.395 HD
ENDBRANCH   1   7
TORSDOF 1
ENDMDL
