MODEL 1
REMARK minimizedAffinity 7.84918213
REMARK minimizedRMSD -1
REMARK  1 active torsions:
REMARK  status: ('A' for Active; 'I' for Inactive)
REMARK    1  A    between atoms: N_2  and  C1_3 
ROOT
ATOM      1  C1  UNL d   1      -0.816   1.761   0.139  0.00  0.00     0.143 A 
ATOM      2  C2  UNL d   1       0.206   1.787   1.095  0.00  0.00    -0.057 A 
ATOM      3  C3  UNL d   1       1.422   1.130   0.876  0.00  0.00     0.033 A 
ATOM      4  C4  UNL d   1       1.628   0.407  -0.295  0.00  0.00    -0.042 A 
ATOM      5  C5  UNL d   1       0.618   0.347  -1.248  0.00  0.00     0.033 A 
ATOM      6  C6  UNL d   1      -0.592   1.011  -1.026  0.00  0.00    -0.057 A 
ENDROOT
BRANCH   1   7
ATOM      7  N   UNL d   1      -2.084   2.312   0.340  0.00  0.00    -0.732 N 
ATOM      8  C   UNL d   1      -2.441   2.891   1.617  0.00  0.00     0.284 C 
ATOM      9  H3  UNL d   1      -2.407   2.845  -0.463  0.00  0.00     0.395 HD
ENDBRANCH   1   7
TORSDOF 1
ENDMDL
