MODEL 1
REMARK minimizedAffinity -2.26020241
REMARK minimizedRMSD -1
REMARK  1 active torsions:
REMARK  status: ('A' for Active; 'I' for Inactive)
REMARK    1  A    between atoms: N_2  and  C1_3 
ROOT
ATOM      1  C1  UNL d   1       1.217   1.877  -0.558  0.00  0.00     0.143 A 
ATOM      2  C2  UNL d   1       1.014   2.242   0.777  0.00  0.00    -0.057 A 
ATOM      3  C3  UNL d   1       0.942   3.587   1.159  0.00  0.00     0.033 A 
ATOM      4  C4  UNL d   1       1.101   4.594   0.213  0.00  0.00    -0.042 A 
ATOM      5  C5  UNL d   1       1.329   4.255  -1.116  0.00  0.00     0.033 A 
ATOM      6  C6  UNL d   1       1.393   2.910  -1.492  0.00  0.00    -0.057 A 
ENDROOT
BRANCH   1   7
ATOM      7  N   UNL d   1       1.397   0.559  -0.985  0.00  0.00    -0.732 N 
ATOM      8  C   UNL d   1       0.884   0.122  -2.266  0.00  0.00     0.284 C 
ATOM      9  H3  UNL d   1       2.324   0.202  -0.765  0.00  0.00     0.395 HD
ENDBRANCH   1   7
TORSDOF 1
ENDMDL
