MODEL 1
REMARK minimizedAffinity 3.28609252
REMARK minimizedRMSD -1
REMARK  1 active torsions:
REMARK  status: ('A' for Active; 'I' for Inactive)
REMARK    1  A    between atoms: N_2  and  C1_3 
ROOT
ATOM      1  C1  UNL d   1       1.826   1.712  -0.803  0.00  0.00     0.143 A 
ATOM      2  C2  UNL d   1       2.752   0.664  -0.832  0.00  0.00    -0.057 A 
ATOM      3  C3  UNL d   1       3.449   0.280   0.319  0.00  0.00     0.033 A 
ATOM      4  C4  UNL d   1       3.253   0.958   1.518  0.00  0.00    -0.042 A 
ATOM      5  C5  UNL d   1       2.355   2.019   1.564  0.00  0.00     0.033 A 
ATOM      6  C6  UNL d   1       1.657   2.394   0.412  0.00  0.00    -0.057 A 
ENDROOT
BRANCH   1   7
ATOM      7  N   UNL d   1       1.174   2.206  -1.936  0.00  0.00    -0.732 N 
ATOM      8  C   UNL d   1       0.687   3.568  -1.972  0.00  0.00     0.284 C 
ATOM      9  H3  UNL d   1       1.612   1.898  -2.801  0.00  0.00     0.395 HD
ENDBRANCH   1   7
TORSDOF 1
ENDMDL
