MODEL 1
REMARK minimizedAffinity 0.373215109
REMARK minimizedRMSD -1
REMARK  1 active torsions:
REMARK  status: ('A' for Active; 'I' for Inactive)
REMARK    1  A    between atoms: N_2  and  C1_3 
ROOT
ATOM      1  C1  UNL d   1       0.723   1.112  -0.807  0.00  0.00     0.143 A 
ATOM      2  C2  UNL d   1       1.362  -0.114  -0.594  0.00  0.00    -0.057 A 
ATOM      3  C3  UNL d   1       1.958  -0.419   0.635  0.00  0.00     0.033 A 
ATOM      4  C4  UNL d   1       1.951   0.512   1.668  0.00  0.00    -0.042 A 
ATOM      5  C5  UNL d   1       1.344   1.747   1.472  0.00  0.00     0.033 A 
ATOM      6  C6  UNL d   1       0.744   2.043   0.244  0.00  0.00    -0.057 A 
ENDROOT
BRANCH   1   7
ATOM      7  N   UNL d   1       0.198   1.513  -2.038  0.00  0.00    -0.732 N 
ATOM      8  C   UNL d   1       0.994   2.296  -2.958  0.00  0.00     0.284 C 
ATOM      9  H3  UNL d   1      -0.352   0.781  -2.482  0.00  0.00     0.395 HD
ENDBRANCH   1   7
TORSDOF 1
ENDMDL
