MODEL 1
REMARK minimizedAffinity 4.30985022
REMARK minimizedRMSD -1
REMARK  1 active torsions:
REMARK  status: ('A' for Active; 'I' for Inactive)
REMARK    1  A    between atoms: N_2  and  C1_3 
ROOT
ATOM      1  C1  UNL d   1       1.273   2.794  -0.665  0.00  0.00     0.143 A 
ATOM      2  C2  UNL d   1       1.735   1.633  -0.035  0.00  0.00    -0.057 A 
ATOM      3  C3  UNL d   1       1.422   0.363  -0.534  0.00  0.00     0.033 A 
ATOM      4  C4  UNL d   1       0.614   0.230  -1.658  0.00  0.00    -0.042 A 
ATOM      5  C5  UNL d   1       0.123   1.369  -2.286  0.00  0.00     0.033 A 
ATOM      6  C6  UNL d   1       0.445   2.635  -1.787  0.00  0.00    -0.057 A 
ENDROOT
BRANCH   1   7
ATOM      7  N   UNL d   1       1.468   4.082  -0.161  0.00  0.00    -0.732 N 
ATOM      8  C   UNL d   1       1.612   5.210  -1.057  0.00  0.00     0.284 C 
ATOM      9  H3  UNL d   1       0.892   4.271   0.656  0.00  0.00     0.395 HD
ENDBRANCH   1   7
TORSDOF 1
ENDMDL
