MODEL 1
REMARK minimizedAffinity 5.99183655
REMARK minimizedRMSD -1
REMARK  1 active torsions:
REMARK  status: ('A' for Active; 'I' for Inactive)
REMARK    1  A    between atoms: N_2  and  C1_3 
ROOT
ATOM      1  C1  UNL d   1       0.921   3.361  -0.829  0.00  0.00     0.143 A 
ATOM      2  C2  UNL d   1       1.620   2.223  -0.411  0.00  0.00    -0.057 A 
ATOM      3  C3  UNL d   1       1.537   1.019  -1.121  0.00  0.00     0.033 A 
ATOM      4  C4  UNL d   1       0.728   0.925  -2.249  0.00  0.00    -0.042 A 
ATOM      5  C5  UNL d   1       0.006   2.036  -2.668  0.00  0.00     0.033 A 
ATOM      6  C6  UNL d   1       0.098   3.237  -1.959  0.00  0.00    -0.057 A 
ENDROOT
BRANCH   1   7
ATOM      7  N   UNL d   1       0.885   4.559  -0.110  0.00  0.00    -0.732 N 
ATOM      8  C   UNL d   1       1.430   5.775  -0.675  0.00  0.00     0.284 C 
ATOM      9  H3  UNL d   1       0.006   4.688   0.385  0.00  0.00     0.395 HD
ENDBRANCH   1   7
TORSDOF 1
ENDMDL
