MODEL 1
REMARK minimizedAffinity -0.534466326
REMARK minimizedRMSD -1
REMARK  2 active torsions:
REMARK  status: ('A' for Active; 'I' for Inactive)
REMARK    1  A    between atoms: C2'_3  and  C1'_4 
REMARK    2  A    between atoms: C1'_4  and  C1_5 
ROOT
ATOM      1  C1  I4B d   1       0.674   0.369  -0.242  0.00  0.00    -0.075 A 
ATOM      2  C2  I4B d   1       0.628  -0.336  -1.419  0.00  0.00     0.003 A 
ATOM      3  C3  I4B d   1      -0.590  -0.456  -2.131  0.00  0.00     0.002 A 
ATOM      4  C4  I4B d   1      -1.740   0.097  -1.608  0.00  0.00    -0.004 A 
ATOM      5  C5  I4B d   1      -1.687   0.830  -0.426  0.00  0.00     0.002 A 
ATOM      6  C6  I4B d   1      -0.470   0.978   0.255  0.00  0.00     0.003 A 
ENDROOT
BRANCH   1   7
ATOM      7  C1' I4B d   1       1.970   0.448   0.500  0.00  0.00     0.060 C 
BRANCH   7   8
ATOM      8  C2' I4B d   1       2.194   1.893   0.896  0.00  0.00    -0.013 C 
ATOM      9  C4' I4B d   1       2.773   1.995   2.283  0.00  0.00     0.013 C 
ATOM     10  C3' I4B d   1       3.105   2.516  -0.119  0.00  0.00     0.013 C 
ENDBRANCH   7   8
ENDBRANCH   1   7
TORSDOF 2
ENDMDL
