MODEL 1
REMARK minimizedAffinity -4.19667578
REMARK minimizedRMSD -1
REMARK  2 active torsions:
REMARK  status: ('A' for Active; 'I' for Inactive)
REMARK    1  A    between atoms: C2'_3  and  C1'_4 
REMARK    2  A    between atoms: C1'_4  and  C1_5 
ROOT
ATOM      1  C1  I4B d   1      -1.227  -0.668   0.232  0.00  0.00    -0.075 A 
ATOM      2  C2  I4B d   1      -0.854  -1.588   1.180  0.00  0.00     0.003 A 
ATOM      3  C3  I4B d   1      -1.547  -2.819   1.289  0.00  0.00     0.002 A 
ATOM      4  C4  I4B d   1      -2.630  -3.064   0.471  0.00  0.00    -0.004 A 
ATOM      5  C5  I4B d   1      -2.992  -2.139  -0.505  0.00  0.00     0.002 A 
ATOM      6  C6  I4B d   1      -2.279  -0.939  -0.633  0.00  0.00     0.003 A 
ENDROOT
BRANCH   1   7
ATOM      7  C1' I4B d   1      -0.495   0.635   0.166  0.00  0.00     0.060 C 
BRANCH   7   8
ATOM      8  C2' I4B d   1       0.917   0.403   0.664  0.00  0.00    -0.013 C 
ATOM      9  C4' I4B d   1       1.807  -0.110  -0.437  0.00  0.00     0.013 C 
ATOM     10  C3' I4B d   1       1.432   1.699   1.217  0.00  0.00     0.013 C 
ENDBRANCH   7   8
ENDBRANCH   1   7
TORSDOF 2
ENDMDL
