MODEL 1
REMARK minimizedAffinity -3.67800927
REMARK minimizedRMSD -1
REMARK  2 active torsions:
REMARK  status: ('A' for Active; 'I' for Inactive)
REMARK    1  A    between atoms: C2'_3  and  C1'_4 
REMARK    2  A    between atoms: C1'_4  and  C1_5 
ROOT
ATOM      1  C1  I4B d   1       0.382   0.449  -0.317  0.00  0.00    -0.075 A 
ATOM      2  C2  I4B d   1       0.132   1.404  -1.271  0.00  0.00     0.003 A 
ATOM      3  C3  I4B d   1      -1.104   1.414  -1.962  0.00  0.00     0.002 A 
ATOM      4  C4  I4B d   1      -2.034   0.428  -1.706  0.00  0.00    -0.004 A 
ATOM      5  C5  I4B d   1      -1.789  -0.525  -0.722  0.00  0.00     0.002 A 
ATOM      6  C6  I4B d   1      -0.578  -0.508  -0.014  0.00  0.00     0.003 A 
ENDROOT
BRANCH   1   7
ATOM      7  C1' I4B d   1       1.710   0.447   0.370  0.00  0.00     0.060 C 
BRANCH   7   8
ATOM      8  C2' I4B d   1       1.961   1.842   0.905  0.00  0.00    -0.013 C 
ATOM      9  C4' I4B d   1       2.392   1.804   2.348  0.00  0.00     0.013 C 
ATOM     10  C3' I4B d   1       3.006   2.487   0.045  0.00  0.00     0.013 C 
ENDBRANCH   7   8
ENDBRANCH   1   7
TORSDOF 2
ENDMDL
