MODEL 1
REMARK minimizedAffinity -2.9796927
REMARK minimizedRMSD -1
REMARK  2 active torsions:
REMARK  status: ('A' for Active; 'I' for Inactive)
REMARK    1  A    between atoms: C2'_3  and  C1'_4 
REMARK    2  A    between atoms: C1'_4  and  C1_5 
ROOT
ATOM      1  C1  I4B d   1       1.721   1.460  -0.094  0.00  0.00    -0.075 A 
ATOM      2  C2  I4B d   1       1.919   1.744   1.234  0.00  0.00     0.003 A 
ATOM      3  C3  I4B d   1       2.452   2.996   1.624  0.00  0.00     0.002 A 
ATOM      4  C4  I4B d   1       2.818   3.910   0.657  0.00  0.00    -0.004 A 
ATOM      5  C5  I4B d   1       2.596   3.630  -0.688  0.00  0.00     0.002 A 
ATOM      6  C6  I4B d   1       2.032   2.402  -1.066  0.00  0.00     0.003 A 
ENDROOT
BRANCH   1   7
ATOM      7  C1' I4B d   1       1.186   0.115  -0.472  0.00  0.00     0.060 C 
BRANCH   7   8
ATOM      8  C2' I4B d   1      -0.283   0.077  -0.104  0.00  0.00    -0.013 C 
ATOM      9  C4' I4B d   1      -1.149  -0.054  -1.330  0.00  0.00     0.013 C 
ATOM     10  C3' I4B d   1      -0.495  -1.074   0.834  0.00  0.00     0.013 C 
ENDBRANCH   7   8
ENDBRANCH   1   7
TORSDOF 2
ENDMDL
