MODEL 1
REMARK minimizedAffinity -3.09657216
REMARK minimizedRMSD -1
REMARK  2 active torsions:
REMARK  status: ('A' for Active; 'I' for Inactive)
REMARK    1  A    between atoms: C2'_3  and  C1'_4 
REMARK    2  A    between atoms: C1'_4  and  C1_5 
ROOT
ATOM      1  C1  I4B d   1       0.215  -0.214  -0.204  0.00  0.00    -0.075 A 
ATOM      2  C2  I4B d   1      -0.502  -0.978   0.683  0.00  0.00     0.003 A 
ATOM      3  C3  I4B d   1      -1.768  -1.496   0.317  0.00  0.00     0.002 A 
ATOM      4  C4  I4B d   1      -2.298  -1.185  -0.919  0.00  0.00    -0.004 A 
ATOM      5  C5  I4B d   1      -1.559  -0.430  -1.825  0.00  0.00     0.002 A 
ATOM      6  C6  I4B d   1      -0.290   0.049  -1.471  0.00  0.00     0.003 A 
ENDROOT
BRANCH   1   7
ATOM      7  C1' I4B d   1       1.535   0.344   0.227  0.00  0.00     0.060 C 
BRANCH   7   8
ATOM      8  C2' I4B d   1       1.324   1.792   0.617  0.00  0.00    -0.013 C 
ATOM      9  C4' I4B d   1       1.187   1.941   2.109  0.00  0.00     0.013 C 
ATOM     10  C3' I4B d   1       2.486   2.585   0.098  0.00  0.00     0.013 C 
ENDBRANCH   7   8
ENDBRANCH   1   7
TORSDOF 2
ENDMDL
