MODEL 1
REMARK minimizedAffinity -3.9079566
REMARK minimizedRMSD -1
REMARK  2 active torsions:
REMARK  status: ('A' for Active; 'I' for Inactive)
REMARK    1  A    between atoms: C2'_3  and  C1'_4 
REMARK    2  A    between atoms: C1'_4  and  C1_5 
ROOT
ATOM      1  C1  I4B d   1       1.982   1.327   0.502  0.00  0.00    -0.075 A 
ATOM      2  C2  I4B d   1       2.934   1.995  -0.227  0.00  0.00     0.003 A 
ATOM      3  C3  I4B d   1       3.354   3.289   0.164  0.00  0.00     0.002 A 
ATOM      4  C4  I4B d   1       2.763   3.895   1.254  0.00  0.00    -0.004 A 
ATOM      5  C5  I4B d   1       1.814   3.207   2.006  0.00  0.00     0.002 A 
ATOM      6  C6  I4B d   1       1.430   1.910   1.635  0.00  0.00     0.003 A 
ENDROOT
BRANCH   1   7
ATOM      7  C1' I4B d   1       1.538  -0.025   0.042  0.00  0.00     0.060 C 
BRANCH   7   8
ATOM      8  C2' I4B d   1       0.024  -0.023  -0.023  0.00  0.00    -0.013 C 
ATOM      9  C4' I4B d   1      -0.461  -0.124  -1.445  0.00  0.00     0.013 C 
ATOM     10  C3' I4B d   1      -0.476  -1.170   0.802  0.00  0.00     0.013 C 
ENDBRANCH   7   8
ENDBRANCH   1   7
TORSDOF 2
ENDMDL
