MODEL 1
REMARK minimizedAffinity -0.695996761
REMARK minimizedRMSD -1
REMARK  2 active torsions:
REMARK  status: ('A' for Active; 'I' for Inactive)
REMARK    1  A    between atoms: C2'_3  and  C1'_4 
REMARK    2  A    between atoms: C1'_4  and  C1_5 
ROOT
ATOM      1  C1  I4B d   1      -1.156   0.154  -1.092  0.00  0.00    -0.075 A 
ATOM      2  C2  I4B d   1      -0.852   0.236  -2.428  0.00  0.00     0.003 A 
ATOM      3  C3  I4B d   1      -1.531  -0.580  -3.365  0.00  0.00     0.002 A 
ATOM      4  C4  I4B d   1      -2.464  -1.494  -2.920  0.00  0.00    -0.004 A 
ATOM      5  C5  I4B d   1      -2.788  -1.559  -1.568  0.00  0.00     0.002 A 
ATOM      6  C6  I4B d   1      -2.139  -0.721  -0.649  0.00  0.00     0.003 A 
ENDROOT
BRANCH   1   7
ATOM      7  C1' I4B d   1      -0.397   1.007  -0.126  0.00  0.00     0.060 C 
BRANCH   7   8
ATOM      8  C2' I4B d   1       1.011   0.457  -0.025  0.00  0.00    -0.013 C 
ATOM      9  C4' I4B d   1       1.911   1.399   0.731  0.00  0.00     0.013 C 
ATOM     10  C3' I4B d   1       0.939  -0.880   0.649  0.00  0.00     0.013 C 
ENDBRANCH   7   8
ENDBRANCH   1   7
TORSDOF 2
ENDMDL
