MODEL 1
REMARK minimizedAffinity -6.01983881
REMARK minimizedRMSD -1
REMARK  2 active torsions:
REMARK  status: ('A' for Active; 'I' for Inactive)
REMARK    1  A    between atoms: C2'_3  and  C1'_4 
REMARK    2  A    between atoms: C1'_4  and  C1_5 
ROOT
ATOM      1  C1  I4B d   1       0.545   0.217  -0.109  0.00  0.00    -0.075 A 
ATOM      2  C2  I4B d   1       0.368   0.736  -1.367  0.00  0.00     0.003 A 
ATOM      3  C3  I4B d   1      -0.870   0.580  -2.035  0.00  0.00     0.002 A 
ATOM      4  C4  I4B d   1      -1.881  -0.140  -1.432  0.00  0.00    -0.004 A 
ATOM      5  C5  I4B d   1      -1.708  -0.646  -0.147  0.00  0.00     0.002 A 
ATOM      6  C6  I4B d   1      -0.492  -0.456   0.524  0.00  0.00     0.003 A 
ENDROOT
BRANCH   1   7
ATOM      7  C1' I4B d   1       1.877   0.372   0.554  0.00  0.00     0.060 C 
BRANCH   7   8
ATOM      8  C2' I4B d   1       2.084   1.844   0.848  0.00  0.00    -0.013 C 
ATOM      9  C4' I4B d   1       2.226   2.089   2.328  0.00  0.00     0.013 C 
ATOM     10  C3' I4B d   1       3.304   2.298   0.104  0.00  0.00     0.013 C 
ENDBRANCH   7   8
ENDBRANCH   1   7
TORSDOF 2
ENDMDL
