MODEL 1
REMARK minimizedAffinity -1.86340559
REMARK minimizedRMSD -1
REMARK  2 active torsions:
REMARK  status: ('A' for Active; 'I' for Inactive)
REMARK    1  A    between atoms: C2'_3  and  C1'_4 
REMARK    2  A    between atoms: C1'_4  and  C1_5 
ROOT
ATOM      1  C1  I4B d   1       0.184   1.496   0.515  0.00  0.00    -0.075 A 
ATOM      2  C2  I4B d   1       1.058   0.689  -0.170  0.00  0.00     0.003 A 
ATOM      3  C3  I4B d   1       0.663   0.083  -1.387  0.00  0.00     0.002 A 
ATOM      4  C4  I4B d   1      -0.623   0.270  -1.854  0.00  0.00    -0.004 A 
ATOM      5  C5  I4B d   1      -1.499   1.107  -1.170  0.00  0.00     0.002 A 
ATOM      6  C6  I4B d   1      -1.090   1.734   0.016  0.00  0.00     0.003 A 
ENDROOT
BRANCH   1   7
ATOM      7  C1' I4B d   1       0.623   2.093   1.815  0.00  0.00     0.060 C 
BRANCH   7   8
ATOM      8  C2' I4B d   1       2.006   2.679   1.616  0.00  0.00    -0.013 C 
ATOM      9  C4' I4B d   1       1.950   4.179   1.494  0.00  0.00     0.013 C 
ATOM     10  C3' I4B d   1       2.857   2.262   2.778  0.00  0.00     0.013 C 
ENDBRANCH   7   8
ENDBRANCH   1   7
TORSDOF 2
ENDMDL
