MODEL 1
REMARK minimizedAffinity -0.987249255
REMARK minimizedRMSD -1
REMARK  2 active torsions:
REMARK  status: ('A' for Active; 'I' for Inactive)
REMARK    1  A    between atoms: C2'_3  and  C1'_4 
REMARK    2  A    between atoms: C1'_4  and  C1_5 
ROOT
ATOM      1  C1  I4B d   1       0.471   0.279  -0.028  0.00  0.00    -0.075 A 
ATOM      2  C2  I4B d   1       0.067   1.071  -1.073  0.00  0.00     0.003 A 
ATOM      3  C3  I4B d   1      -1.143   0.791  -1.754  0.00  0.00     0.002 A 
ATOM      4  C4  I4B d   1      -1.887  -0.313  -1.392  0.00  0.00    -0.004 A 
ATOM      5  C5  I4B d   1      -1.487  -1.102  -0.317  0.00  0.00     0.002 A 
ATOM      6  C6  I4B d   1      -0.307  -0.798   0.377  0.00  0.00     0.003 A 
ENDROOT
BRANCH   1   7
ATOM      7  C1' I4B d   1       1.770   0.583   0.647  0.00  0.00     0.060 C 
BRANCH   7   8
ATOM      8  C2' I4B d   1       1.994   2.080   0.575  0.00  0.00    -0.013 C 
ATOM      9  C4' I4B d   1       2.122   2.679   1.951  0.00  0.00     0.013 C 
ATOM     10  C3' I4B d   1       3.230   2.325  -0.239  0.00  0.00     0.013 C 
ENDBRANCH   7   8
ENDBRANCH   1   7
TORSDOF 2
ENDMDL
