MODEL 1
REMARK minimizedAffinity -2.95612288
REMARK minimizedRMSD -1
REMARK  2 active torsions:
REMARK  status: ('A' for Active; 'I' for Inactive)
REMARK    1  A    between atoms: C2'_3  and  C1'_4 
REMARK    2  A    between atoms: C1'_4  and  C1_5 
ROOT
ATOM      1  C1  I4B d   1       0.704   0.385  -0.292  0.00  0.00    -0.075 A 
ATOM      2  C2  I4B d   1       0.176  -0.546   0.566  0.00  0.00     0.003 A 
ATOM      3  C3  I4B d   1      -1.121  -1.068   0.342  0.00  0.00     0.002 A 
ATOM      4  C4  I4B d   1      -1.870  -0.596  -0.716  0.00  0.00    -0.004 A 
ATOM      5  C5  I4B d   1      -1.324   0.331  -1.599  0.00  0.00     0.002 A 
ATOM      6  C6  I4B d   1      -0.024   0.816  -1.394  0.00  0.00     0.003 A 
ENDROOT
BRANCH   1   7
ATOM      7  C1' I4B d   1       2.064   0.939  -0.007  0.00  0.00     0.060 C 
BRANCH   7   8
ATOM      8  C2' I4B d   1       1.899   2.129   0.917  0.00  0.00    -0.013 C 
ATOM      9  C4' I4B d   1       2.753   1.984   2.149  0.00  0.00     0.013 C 
ATOM     10  C3' I4B d   1       2.261   3.365   0.149  0.00  0.00     0.013 C 
ENDBRANCH   7   8
ENDBRANCH   1   7
TORSDOF 2
ENDMDL
