MODEL 1
REMARK minimizedAffinity -5.01141834
REMARK minimizedRMSD -1
REMARK  2 active torsions:
REMARK  status: ('A' for Active; 'I' for Inactive)
REMARK    1  A    between atoms: C2'_3  and  C1'_4 
REMARK    2  A    between atoms: C1'_4  and  C1_5 
ROOT
ATOM      1  C1  I4B d   1       0.925   0.507   0.267  0.00  0.00    -0.075 A 
ATOM      2  C2  I4B d   1       1.711   1.623   0.129  0.00  0.00     0.003 A 
ATOM      3  C3  I4B d   1       2.067   2.390   1.265  0.00  0.00     0.002 A 
ATOM      4  C4  I4B d   1       1.576   2.035   2.505  0.00  0.00    -0.004 A 
ATOM      5  C5  I4B d   1       0.798   0.890   2.647  0.00  0.00     0.002 A 
ATOM      6  C6  I4B d   1       0.480   0.113   1.523  0.00  0.00     0.003 A 
ENDROOT
BRANCH   1   7
ATOM      7  C1' I4B d   1       0.541  -0.261  -0.958  0.00  0.00     0.060 C 
BRANCH   7   8
ATOM      8  C2' I4B d   1      -0.603   0.472  -1.629  0.00  0.00    -0.013 C 
ATOM      9  C4' I4B d   1      -0.244   0.873  -3.035  0.00  0.00     0.013 C 
ATOM     10  C3' I4B d   1      -1.803  -0.428  -1.611  0.00  0.00     0.013 C 
ENDBRANCH   7   8
ENDBRANCH   1   7
TORSDOF 2
ENDMDL
