MODEL 1
REMARK minimizedAffinity 8.58586884
REMARK minimizedRMSD -1
REMARK  0 active torsions:
REMARK  status: ('A' for Active; 'I' for Inactive)
ROOT
ATOM      1  C   UNL d   1       1.503  -1.013   3.931  0.00  0.00    -0.002 A 
ATOM      2  C1  UNL d   1       1.827  -1.935   2.945  0.00  0.00     0.010 A 
ATOM      3  C2  UNL d   1       1.053  -2.038   1.788  0.00  0.00     0.041 A 
ATOM      4  C3  UNL d   1      -0.062  -1.190   1.635  0.00  0.00    -0.075 A 
ATOM      5  S   UNL d   1      -1.153  -1.138   0.302  0.00  0.00     0.015 SA
ATOM      6  C4  UNL d   1      -2.074   0.110   1.008  0.00  0.00     0.022 A 
ATOM      7  C5  UNL d   1      -1.575   0.489   2.232  0.00  0.00     0.026 A 
ATOM      8  C6  UNL d   1      -0.407  -0.253   2.613  0.00  0.00    -0.082 A 
ATOM      9  C7  UNL d   1       0.397  -0.173   3.776  0.00  0.00     0.045 A 
ENDROOT
TORSDOF 0
ENDMDL
