MODEL 1
REMARK minimizedAffinity 9.77026367
REMARK minimizedRMSD -1
REMARK  0 active torsions:
REMARK  status: ('A' for Active; 'I' for Inactive)
ROOT
ATOM      1  C   UNL d   1      -2.971   1.420   1.933  0.00  0.00    -0.002 A 
ATOM      2  C1  UNL d   1      -3.090   0.762   0.718  0.00  0.00     0.010 A 
ATOM      3  C2  UNL d   1      -2.227  -0.286   0.390  0.00  0.00     0.041 A 
ATOM      4  C3  UNL d   1      -1.234  -0.665   1.314  0.00  0.00    -0.075 A 
ATOM      5  S   UNL d   1      -0.066  -1.920   1.129  0.00  0.00     0.015 SA
ATOM      6  C4  UNL d   1       0.618  -1.612   2.660  0.00  0.00     0.022 A 
ATOM      7  C5  UNL d   1      -0.017  -0.580   3.310  0.00  0.00     0.026 A 
ATOM      8  C6  UNL d   1      -1.095  -0.018   2.546  0.00  0.00    -0.082 A 
ATOM      9  C7  UNL d   1      -1.985   1.041   2.848  0.00  0.00     0.045 A 
ENDROOT
TORSDOF 0
ENDMDL
