MODEL 1
REMARK minimizedAffinity 5.28318501
REMARK minimizedRMSD -1
REMARK  0 active torsions:
REMARK  status: ('A' for Active; 'I' for Inactive)
ROOT
ATOM      1  C   UNL d   1      -0.726  -1.812  -1.542  0.00  0.00    -0.002 A 
ATOM      2  C1  UNL d   1      -0.327  -2.963  -2.207  0.00  0.00     0.010 A 
ATOM      3  C2  UNL d   1      -0.132  -2.953  -3.589  0.00  0.00     0.041 A 
ATOM      4  C3  UNL d   1      -0.346  -1.756  -4.300  0.00  0.00    -0.075 A 
ATOM      5  S   UNL d   1      -0.168  -1.507  -5.996  0.00  0.00     0.015 SA
ATOM      6  C4  UNL d   1      -0.617   0.133  -5.879  0.00  0.00     0.022 A 
ATOM      7  C5  UNL d   1      -0.899   0.499  -4.584  0.00  0.00     0.026 A 
ATOM      8  C6  UNL d   1      -0.747  -0.583  -3.652  0.00  0.00    -0.082 A 
ATOM      9  C7  UNL d   1      -0.937  -0.626  -2.250  0.00  0.00     0.045 A 
ENDROOT
TORSDOF 0
ENDMDL
