MODEL 1
REMARK minimizedAffinity 9.22143459
REMARK minimizedRMSD -1
REMARK  0 active torsions:
REMARK  status: ('A' for Active; 'I' for Inactive)
ROOT
ATOM      1  C   UNL d   1       0.380   0.534  -5.997  0.00  0.00    -0.002 A 
ATOM      2  C1  UNL d   1       0.047   1.357  -4.931  0.00  0.00     0.010 A 
ATOM      3  C2  UNL d   1      -0.256   0.813  -3.681  0.00  0.00     0.041 A 
ATOM      4  C3  UNL d   1      -0.217  -0.586  -3.519  0.00  0.00    -0.075 A 
ATOM      5  S   UNL d   1      -0.549  -1.476  -2.081  0.00  0.00     0.015 SA
ATOM      6  C4  UNL d   1      -0.256  -2.970  -2.848  0.00  0.00     0.022 A 
ATOM      7  C5  UNL d   1       0.088  -2.812  -4.169  0.00  0.00     0.026 A 
ATOM      8  C6  UNL d   1       0.117  -1.436  -4.578  0.00  0.00    -0.082 A 
ATOM      9  C7  UNL d   1       0.418  -0.853  -5.833  0.00  0.00     0.045 A 
ENDROOT
TORSDOF 0
ENDMDL
