MODEL 1
REMARK minimizedAffinity -2.12446189
REMARK minimizedRMSD -1
REMARK  0 active torsions:
REMARK  status: ('A' for Active; 'I' for Inactive)
ROOT
ATOM      1  C   UNL d   1      -0.761  -2.617  -2.503  0.00  0.00    -0.002 A 
ATOM      2  C1  UNL d   1      -0.205  -2.552  -3.772  0.00  0.00     0.010 A 
ATOM      3  C2  UNL d   1       1.179  -2.619  -3.946  0.00  0.00     0.041 A 
ATOM      4  C3  UNL d   1       2.002  -2.756  -2.811  0.00  0.00    -0.075 A 
ATOM      5  S   UNL d   1       3.723  -2.859  -2.782  0.00  0.00     0.015 SA
ATOM      6  C4  UNL d   1       3.761  -2.993  -1.083  0.00  0.00     0.022 A 
ATOM      7  C5  UNL d   1       2.500  -2.961  -0.535  0.00  0.00     0.026 A 
ATOM      8  C6  UNL d   1       1.466  -2.825  -1.522  0.00  0.00    -0.082 A 
ATOM      9  C7  UNL d   1       0.059  -2.753  -1.379  0.00  0.00     0.045 A 
ENDROOT
TORSDOF 0
ENDMDL
