MODEL 1
REMARK minimizedAffinity 0.637422264
REMARK minimizedRMSD -1
REMARK  0 active torsions:
REMARK  status: ('A' for Active; 'I' for Inactive)
ROOT
ATOM      1  C   UNL d   1       0.750  -2.608  -2.895  0.00  0.00    -0.002 A 
ATOM      2  C1  UNL d   1       0.033  -1.868  -1.965  0.00  0.00     0.010 A 
ATOM      3  C2  UNL d   1      -0.707  -0.753  -2.362  0.00  0.00     0.041 A 
ATOM      4  C3  UNL d   1      -0.716  -0.391  -3.724  0.00  0.00    -0.075 A 
ATOM      5  S   UNL d   1      -1.551   0.936  -4.441  0.00  0.00     0.015 SA
ATOM      6  C4  UNL d   1      -0.977   0.552  -5.999  0.00  0.00     0.022 A 
ATOM      7  C5  UNL d   1      -0.166  -0.558  -5.990  0.00  0.00     0.026 A 
ATOM      8  C6  UNL d   1      -0.003  -1.120  -4.679  0.00  0.00    -0.082 A 
ATOM      9  C7  UNL d   1       0.738  -2.245  -4.244  0.00  0.00     0.045 A 
ENDROOT
TORSDOF 0
ENDMDL
