MODEL 1
REMARK minimizedAffinity 4.87918854
REMARK minimizedRMSD -1
REMARK  0 active torsions:
REMARK  status: ('A' for Active; 'I' for Inactive)
ROOT
ATOM      1  C   UNL d   1       4.213   1.406   3.750  0.00  0.00    -0.002 A 
ATOM      2  C1  UNL d   1       4.675   2.050   4.889  0.00  0.00     0.010 A 
ATOM      3  C2  UNL d   1       5.244   3.322   4.804  0.00  0.00     0.041 A 
ATOM      4  C3  UNL d   1       5.341   3.942   3.543  0.00  0.00    -0.075 A 
ATOM      5  S   UNL d   1       6.000   5.498   3.197  0.00  0.00     0.015 SA
ATOM      6  C4  UNL d   1       5.682   5.344   1.530  0.00  0.00     0.022 A 
ATOM      7  C5  UNL d   1       5.089   4.142   1.226  0.00  0.00     0.026 A 
ATOM      8  C6  UNL d   1       4.881   3.314   2.381  0.00  0.00    -0.082 A 
ATOM      9  C7  UNL d   1       4.310   2.025   2.501  0.00  0.00     0.045 A 
ENDROOT
TORSDOF 0
ENDMDL
