MODEL 1
REMARK minimizedAffinity 8.342103
REMARK minimizedRMSD -1
REMARK  0 active torsions:
REMARK  status: ('A' for Active; 'I' for Inactive)
ROOT
ATOM      1  C   UNL d   1      -0.825  -1.958  -1.692  0.00  0.00    -0.002 A 
ATOM      2  C1  UNL d   1       0.028  -2.734  -2.463  0.00  0.00     0.010 A 
ATOM      3  C2  UNL d   1       0.255  -2.421  -3.805  0.00  0.00     0.041 A 
ATOM      4  C3  UNL d   1      -0.395  -1.303  -4.363  0.00  0.00    -0.075 A 
ATOM      5  S   UNL d   1      -0.267  -0.729  -5.983  0.00  0.00     0.015 SA
ATOM      6  C4  UNL d   1      -1.342   0.561  -5.690  0.00  0.00     0.022 A 
ATOM      7  C5  UNL d   1      -1.797   0.568  -4.393  0.00  0.00     0.026 A 
ATOM      8  C6  UNL d   1      -1.258  -0.506  -3.606  0.00  0.00    -0.082 A 
ATOM      9  C7  UNL d   1      -1.469  -0.850  -2.249  0.00  0.00     0.045 A 
ENDROOT
TORSDOF 0
ENDMDL
