MODEL 1
REMARK minimizedAffinity 10.2343311
REMARK minimizedRMSD -1
REMARK  0 active torsions:
REMARK  status: ('A' for Active; 'I' for Inactive)
ROOT
ATOM      1  C   UNL d   1       4.497   1.683   1.531  0.00  0.00    -0.002 A 
ATOM      2  C1  UNL d   1       4.109   2.936   1.986  0.00  0.00     0.010 A 
ATOM      3  C2  UNL d   1       4.327   3.307   3.314  0.00  0.00     0.041 A 
ATOM      4  C3  UNL d   1       4.949   2.391   4.185  0.00  0.00    -0.075 A 
ATOM      5  S   UNL d   1       5.318   2.628   5.853  0.00  0.00     0.015 SA
ATOM      6  C4  UNL d   1       5.999   1.073   6.000  0.00  0.00     0.022 A 
ATOM      7  C5  UNL d   1       5.954   0.376   4.816  0.00  0.00     0.026 A 
ATOM      8  C6  UNL d   1       5.349   1.124   3.750  0.00  0.00    -0.082 A 
ATOM      9  C7  UNL d   1       5.113   0.777   2.398  0.00  0.00     0.045 A 
ENDROOT
TORSDOF 0
ENDMDL
