MODEL 1
REMARK minimizedAffinity -3.72318053
REMARK minimizedRMSD -1
REMARK  0 active torsions:
REMARK  status: ('A' for Active; 'I' for Inactive)
ROOT
ATOM      1  C2' OXE d   1      -1.489   0.325   1.161  0.00  0.00     0.078 C 
ATOM      2  C1' OXE d   1      -3.076  -0.602  -0.961  0.00  0.00     0.078 C 
ATOM      3  C1  OXE d   1      -1.599  -0.427  -1.211  0.00  0.00    -0.078 A 
ATOM      4  C2  OXE d   1      -0.838   0.071  -0.181  0.00  0.00    -0.078 A 
ATOM      5  C3  OXE d   1       0.539   0.200  -0.341  0.00  0.00     0.003 A 
ATOM      6  C4  OXE d   1       1.131  -0.028  -1.589  0.00  0.00    -0.002 A 
ATOM      7  C5  OXE d   1       0.368  -0.498  -2.663  0.00  0.00    -0.002 A 
ATOM      8  C6  OXE d   1      -0.988  -0.743  -2.479  0.00  0.00     0.003 A 
ENDROOT
TORSDOF 0
ENDMDL
