MODEL 1
REMARK minimizedAffinity -3.46673203
REMARK minimizedRMSD -1
REMARK  0 active torsions:
REMARK  status: ('A' for Active; 'I' for Inactive)
ROOT
ATOM      1  C2' OXE d   1       0.344  -0.447  -1.503  0.00  0.00     0.078 C 
ATOM      2  C1' OXE d   1       1.812  -1.177   0.776  0.00  0.00     0.078 C 
ATOM      3  C1  OXE d   1       0.419  -0.636   0.980  0.00  0.00    -0.078 A 
ATOM      4  C2  OXE d   1      -0.275  -0.238  -0.138  0.00  0.00    -0.078 A 
ATOM      5  C3  OXE d   1      -1.584   0.218  -0.011  0.00  0.00     0.003 A 
ATOM      6  C4  OXE d   1      -2.145   0.418   1.256  0.00  0.00    -0.002 A 
ATOM      7  C5  OXE d   1      -1.441   0.056   2.410  0.00  0.00    -0.002 A 
ATOM      8  C6  OXE d   1      -0.177  -0.511   2.287  0.00  0.00     0.003 A 
ENDROOT
TORSDOF 0
ENDMDL
