MODEL 1
REMARK minimizedAffinity -4.06996489
REMARK minimizedRMSD -1
REMARK  0 active torsions:
REMARK  status: ('A' for Active; 'I' for Inactive)
ROOT
ATOM      1  C2' OXE d   1       0.421  -0.243  -1.423  0.00  0.00     0.078 C 
ATOM      2  C1' OXE d   1       1.747  -0.977   0.939  0.00  0.00     0.078 C 
ATOM      3  C1  OXE d   1       0.330  -0.475   1.055  0.00  0.00    -0.078 A 
ATOM      4  C2  OXE d   1      -0.296  -0.074  -0.101  0.00  0.00    -0.078 A 
ATOM      5  C3  OXE d   1      -1.622   0.345  -0.057  0.00  0.00     0.003 A 
ATOM      6  C4  OXE d   1      -2.274   0.507   1.171  0.00  0.00    -0.002 A 
ATOM      7  C5  OXE d   1      -1.642   0.142   2.364  0.00  0.00    -0.002 A 
ATOM      8  C6  OXE d   1      -0.358  -0.390   2.320  0.00  0.00     0.003 A 
ENDROOT
TORSDOF 0
ENDMDL
