MODEL 1
REMARK minimizedAffinity -1.32306886
REMARK minimizedRMSD -1
REMARK  0 active torsions:
REMARK  status: ('A' for Active; 'I' for Inactive)
ROOT
ATOM      1  C2' OXE d   1      -2.203   0.593   0.004  0.00  0.00     0.078 C 
ATOM      2  C1' OXE d   1      -1.224   0.727   2.632  0.00  0.00     0.078 C 
ATOM      3  C1  OXE d   1      -0.300   0.199   1.562  0.00  0.00    -0.078 A 
ATOM      4  C2  OXE d   1      -0.803   0.094   0.288  0.00  0.00    -0.078 A 
ATOM      5  C3  OXE d   1       0.024  -0.336  -0.746  0.00  0.00     0.003 A 
ATOM      6  C4  OXE d   1       1.314  -0.805  -0.474  0.00  0.00    -0.002 A 
ATOM      7  C5  OXE d   1       1.833  -0.744   0.824  0.00  0.00    -0.002 A 
ATOM      8  C6  OXE d   1       1.055  -0.206   1.844  0.00  0.00     0.003 A 
ENDROOT
TORSDOF 0
ENDMDL
