MODEL 1
REMARK minimizedAffinity 6.5478425
REMARK minimizedRMSD -1
REMARK  0 active torsions:
REMARK  status: ('A' for Active; 'I' for Inactive)
ROOT
ATOM      1  C2' OXE d   1      -0.518  -0.734  -1.616  0.00  0.00     0.078 C 
ATOM      2  C1' OXE d   1       0.937  -0.876   0.780  0.00  0.00     0.078 C 
ATOM      3  C1  OXE d   1      -0.518  -0.486   0.863  0.00  0.00    -0.078 A 
ATOM      4  C2  OXE d   1      -1.210  -0.374  -0.319  0.00  0.00    -0.078 A 
ATOM      5  C3  OXE d   1      -2.568  -0.070  -0.296  0.00  0.00     0.003 A 
ATOM      6  C4  OXE d   1      -3.198   0.271   0.907  0.00  0.00    -0.002 A 
ATOM      7  C5  OXE d   1      -2.501   0.202   2.118  0.00  0.00    -0.002 A 
ATOM      8  C6  OXE d   1      -1.174  -0.215   2.118  0.00  0.00     0.003 A 
ENDROOT
TORSDOF 0
ENDMDL
