MODEL 1
REMARK minimizedAffinity -2.24315453
REMARK minimizedRMSD -1
REMARK  0 active torsions:
REMARK  status: ('A' for Active; 'I' for Inactive)
ROOT
ATOM      1  C2' OXE d   1       0.335  -0.529  -1.789  0.00  0.00     0.078 C 
ATOM      2  C1' OXE d   1       1.524  -1.373   0.609  0.00  0.00     0.078 C 
ATOM      3  C1  OXE d   1       0.179  -0.697   0.691  0.00  0.00    -0.078 A 
ATOM      4  C2  OXE d   1      -0.374  -0.245  -0.483  0.00  0.00    -0.078 A 
ATOM      5  C3  OXE d   1      -1.639   0.338  -0.470  0.00  0.00     0.003 A 
ATOM      6  C4  OXE d   1      -2.283   0.606   0.744  0.00  0.00    -0.002 A 
ATOM      7  C5  OXE d   1      -1.719   0.190   1.954  0.00  0.00    -0.002 A 
ATOM      8  C6  OXE d   1      -0.511  -0.499   1.942  0.00  0.00     0.003 A 
ENDROOT
TORSDOF 0
ENDMDL
