MODEL 1
REMARK minimizedAffinity -3.16763091
REMARK minimizedRMSD -1
REMARK  0 active torsions:
REMARK  status: ('A' for Active; 'I' for Inactive)
ROOT
ATOM      1  C2' OXE d   1      -2.322   0.377   0.031  0.00  0.00     0.078 C 
ATOM      2  C1' OXE d   1       0.084  -0.418  -1.176  0.00  0.00     0.078 C 
ATOM      3  C1  OXE d   1       0.037  -0.363   0.330  0.00  0.00    -0.078 A 
ATOM      4  C2  OXE d   1      -1.130   0.072   0.911  0.00  0.00    -0.078 A 
ATOM      5  C3  OXE d   1      -1.244   0.089   2.298  0.00  0.00     0.003 A 
ATOM      6  C4  OXE d   1      -0.133  -0.185   3.105  0.00  0.00    -0.002 A 
ATOM      7  C5  OXE d   1       1.077  -0.591   2.533  0.00  0.00    -0.002 A 
ATOM      8  C6  OXE d   1       1.166  -0.726   1.152  0.00  0.00     0.003 A 
ENDROOT
TORSDOF 0
ENDMDL
