MODEL 1
REMARK minimizedAffinity 3.47264409
REMARK minimizedRMSD -1
REMARK  0 active torsions:
REMARK  status: ('A' for Active; 'I' for Inactive)
ROOT
ATOM      1  C2' OXE d   1      -0.750   1.209   3.012  0.00  0.00     0.078 C 
ATOM      2  C1' OXE d   1      -2.712  -0.746   2.554  0.00  0.00     0.078 C 
ATOM      3  C1  OXE d   1      -1.761  -0.427   1.428  0.00  0.00    -0.078 A 
ATOM      4  C2  OXE d   1      -0.834   0.564   1.645  0.00  0.00    -0.078 A 
ATOM      5  C3  OXE d   1       0.103   0.860   0.659  0.00  0.00     0.003 A 
ATOM      6  C4  OXE d   1       0.012   0.266  -0.606  0.00  0.00    -0.002 A 
ATOM      7  C5  OXE d   1      -0.950  -0.718  -0.861  0.00  0.00    -0.002 A 
ATOM      8  C6  OXE d   1      -1.815  -1.105   0.156  0.00  0.00     0.003 A 
ENDROOT
TORSDOF 0
ENDMDL
