MODEL 1
REMARK minimizedAffinity -3.79490685
REMARK minimizedRMSD -1
REMARK  0 active torsions:
REMARK  status: ('A' for Active; 'I' for Inactive)
ROOT
ATOM      1  C2' OXE d   1       0.458  -0.709  -0.789  0.00  0.00     0.078 C 
ATOM      2  C1' OXE d   1      -2.086   0.255  -0.097  0.00  0.00     0.078 C 
ATOM      3  C1  OXE d   1      -1.081   0.063   1.011  0.00  0.00    -0.078 A 
ATOM      4  C2  OXE d   1       0.146  -0.453   0.669  0.00  0.00    -0.078 A 
ATOM      5  C3  OXE d   1       1.128  -0.598   1.645  0.00  0.00     0.003 A 
ATOM      6  C4  OXE d   1       0.828  -0.368   2.993  0.00  0.00    -0.002 A 
ATOM      7  C5  OXE d   1      -0.428   0.120   3.367  0.00  0.00    -0.002 A 
ATOM      8  C6  OXE d   1      -1.378   0.381   2.386  0.00  0.00     0.003 A 
ENDROOT
TORSDOF 0
ENDMDL
