MODEL 1
REMARK minimizedAffinity -3.45175314
REMARK minimizedRMSD -1
REMARK  0 active torsions:
REMARK  status: ('A' for Active; 'I' for Inactive)
ROOT
ATOM      1  C2' OXE d   1       1.167  -0.915  -0.369  0.00  0.00     0.078 C 
ATOM      2  C1' OXE d   1       1.629  -0.254   2.320  0.00  0.00     0.078 C 
ATOM      3  C1  OXE d   1       0.254   0.008   1.758  0.00  0.00    -0.078 A 
ATOM      4  C2  OXE d   1       0.051  -0.275   0.429  0.00  0.00    -0.078 A 
ATOM      5  C3  OXE d   1      -1.214  -0.104  -0.127  0.00  0.00     0.003 A 
ATOM      6  C4  OXE d   1      -2.238   0.498   0.615  0.00  0.00    -0.002 A 
ATOM      7  C5  OXE d   1      -2.040   0.830   1.959  0.00  0.00    -0.002 A 
ATOM      8  C6  OXE d   1      -0.815   0.554   2.556  0.00  0.00     0.003 A 
ENDROOT
TORSDOF 0
ENDMDL
