MODEL 1
REMARK minimizedAffinity -3.20557165
REMARK minimizedRMSD -1
REMARK  0 active torsions:
REMARK  status: ('A' for Active; 'I' for Inactive)
ROOT
ATOM      1  C2' OXE d   1      -2.057   0.671  -0.149  0.00  0.00     0.078 C 
ATOM      2  C1' OXE d   1       0.430  -0.318  -0.997  0.00  0.00     0.078 C 
ATOM      3  C1  OXE d   1       0.200  -0.169   0.486  0.00  0.00    -0.078 A 
ATOM      4  C2  OXE d   1      -1.002   0.359   0.890  0.00  0.00    -0.078 A 
ATOM      5  C3  OXE d   1      -1.286   0.467   2.249  0.00  0.00     0.003 A 
ATOM      6  C4  OXE d   1      -0.302   0.186   3.203  0.00  0.00    -0.002 A 
ATOM      7  C5  OXE d   1       0.944  -0.316   2.812  0.00  0.00    -0.002 A 
ATOM      8  C6  OXE d   1       1.195  -0.539   1.463  0.00  0.00     0.003 A 
ENDROOT
TORSDOF 0
ENDMDL
