MODEL 1
REMARK minimizedAffinity -6.13868904
REMARK minimizedRMSD -1
REMARK  2 active torsions:
REMARK  status: ('A' for Active; 'I' for Inactive)
REMARK    1  A    between atoms: C1_2  and  C2_3 
REMARK    2  A    between atoms: C2_3  and  C3_4 
ROOT
ATOM      1  C3  UNL d   1      -0.460   0.482   0.238  0.00  0.00    -0.075 A 
ATOM      2  C4  UNL d   1      -0.181   1.528  -0.654  0.00  0.00     0.002 A 
ATOM      3  C5  UNL d   1      -0.753   2.787  -0.468  0.00  0.00     0.002 A 
ATOM      4  C6  UNL d   1      -1.616   3.014   0.602  0.00  0.00    -0.004 A 
ATOM      5  C7  UNL d   1      -1.912   1.977   1.484  0.00  0.00     0.002 A 
ATOM      6  C8  UNL d   1      -1.339   0.717   1.304  0.00  0.00     0.002 A 
ENDROOT
BRANCH   1   7
ATOM      7  C2  UNL d   1       0.179  -0.875   0.060  0.00  0.00     0.056 C 
BRANCH   7   8
ATOM      8  C1  UNL d   1       0.986  -1.020  -1.234  0.00  0.00     0.007 C 
ATOM      9  C   UNL d   1       0.785  -2.365  -1.920  0.00  0.00     0.009 C 
ENDBRANCH   7   8
ENDBRANCH   1   7
TORSDOF 2
ENDMDL
