MODEL 1
REMARK minimizedAffinity -5.47289085
REMARK minimizedRMSD -1
REMARK  2 active torsions:
REMARK  status: ('A' for Active; 'I' for Inactive)
REMARK    1  A    between atoms: C1_2  and  C2_3 
REMARK    2  A    between atoms: C2_3  and  C3_4 
ROOT
ATOM      1  C3  UNL d   1      -0.676   1.048   0.236  0.00  0.00    -0.075 A 
ATOM      2  C4  UNL d   1      -0.213   2.002  -0.682  0.00  0.00     0.002 A 
ATOM      3  C5  UNL d   1      -0.467   3.359  -0.483  0.00  0.00     0.002 A 
ATOM      4  C6  UNL d   1      -1.193   3.779   0.629  0.00  0.00    -0.004 A 
ATOM      5  C7  UNL d   1      -1.673   2.840   1.539  0.00  0.00     0.002 A 
ATOM      6  C8  UNL d   1      -1.417   1.481   1.344  0.00  0.00     0.002 A 
ENDROOT
BRANCH   1   7
ATOM      7  C2  UNL d   1      -0.380  -0.419   0.042  0.00  0.00     0.056 C 
BRANCH   7   8
ATOM      8  C1  UNL d   1       0.950  -0.699  -0.666  0.00  0.00     0.007 C 
ATOM      9  C   UNL d   1       0.863  -1.829  -1.684  0.00  0.00     0.009 C 
ENDBRANCH   7   8
ENDBRANCH   1   7
TORSDOF 2
ENDMDL
