MODEL 1
REMARK minimizedAffinity -5.88570023
REMARK minimizedRMSD -1
REMARK  2 active torsions:
REMARK  status: ('A' for Active; 'I' for Inactive)
REMARK    1  A    between atoms: C1_2  and  C2_3 
REMARK    2  A    between atoms: C2_3  and  C3_4 
ROOT
ATOM      1  C3  UNL d   1      -0.506   0.705   1.000  0.00  0.00    -0.075 A 
ATOM      2  C4  UNL d   1      -0.330   2.083   0.803  0.00  0.00     0.002 A 
ATOM      3  C5  UNL d   1      -1.417   2.954   0.883  0.00  0.00     0.002 A 
ATOM      4  C6  UNL d   1      -2.692   2.460   1.149  0.00  0.00    -0.004 A 
ATOM      5  C7  UNL d   1      -2.881   1.091   1.330  0.00  0.00     0.002 A 
ATOM      6  C8  UNL d   1      -1.794   0.218   1.256  0.00  0.00     0.002 A 
ENDROOT
BRANCH   1   7
ATOM      7  C2  UNL d   1       0.671  -0.239   0.945  0.00  0.00     0.056 C 
BRANCH   7   8
ATOM      8  C1  UNL d   1       1.306  -0.365  -0.444  0.00  0.00     0.007 C 
ATOM      9  C   UNL d   1       0.939  -1.660  -1.157  0.00  0.00     0.009 C 
ENDBRANCH   7   8
ENDBRANCH   1   7
TORSDOF 2
ENDMDL
