MODEL 1
REMARK minimizedAffinity -4.86619997
REMARK minimizedRMSD -1
REMARK  2 active torsions:
REMARK  status: ('A' for Active; 'I' for Inactive)
REMARK    1  A    between atoms: C1_2  and  C2_3 
REMARK    2  A    between atoms: C2_3  and  C3_4 
ROOT
ATOM      1  C3  UNL d   1       0.393   0.351   0.215  0.00  0.00    -0.075 A 
ATOM      2  C4  UNL d   1       0.217   1.735   0.068  0.00  0.00     0.002 A 
ATOM      3  C5  UNL d   1      -0.666   2.428   0.897  0.00  0.00     0.002 A 
ATOM      4  C6  UNL d   1      -1.390   1.748   1.873  0.00  0.00    -0.004 A 
ATOM      5  C7  UNL d   1      -1.235   0.370   2.017  0.00  0.00     0.002 A 
ATOM      6  C8  UNL d   1      -0.350  -0.325   1.192  0.00  0.00     0.002 A 
ENDROOT
BRANCH   1   7
ATOM      7  C2  UNL d   1       1.368  -0.400  -0.659  0.00  0.00     0.056 C 
BRANCH   7   8
ATOM      8  C1  UNL d   1       1.068  -1.898  -0.784  0.00  0.00     0.007 C 
ATOM      9  C   UNL d   1       0.476  -2.281  -2.134  0.00  0.00     0.009 C 
ENDBRANCH   7   8
ENDBRANCH   1   7
TORSDOF 2
ENDMDL
