MODEL 1
REMARK minimizedAffinity -5.05426216
REMARK minimizedRMSD -1
REMARK  2 active torsions:
REMARK  status: ('A' for Active; 'I' for Inactive)
REMARK    1  A    between atoms: C1_2  and  C2_3 
REMARK    2  A    between atoms: C2_3  and  C3_4 
ROOT
ATOM      1  C3  UNL d   1      -0.193   0.192   0.235  0.00  0.00    -0.075 A 
ATOM      2  C4  UNL d   1      -0.455   1.532  -0.085  0.00  0.00     0.002 A 
ATOM      3  C5  UNL d   1      -1.290   2.303   0.723  0.00  0.00     0.002 A 
ATOM      4  C6  UNL d   1      -1.881   1.744   1.854  0.00  0.00    -0.004 A 
ATOM      5  C7  UNL d   1      -1.642   0.408   2.172  0.00  0.00     0.002 A 
ATOM      6  C8  UNL d   1      -0.803  -0.365   1.367  0.00  0.00     0.002 A 
ENDROOT
BRANCH   1   7
ATOM      7  C2  UNL d   1       0.733  -0.640  -0.620  0.00  0.00     0.056 C 
BRANCH   7   8
ATOM      8  C1  UNL d   1       0.111  -1.947  -1.124  0.00  0.00     0.007 C 
ATOM      9  C   UNL d   1       0.844  -2.538  -2.321  0.00  0.00     0.009 C 
ENDBRANCH   7   8
ENDBRANCH   1   7
TORSDOF 2
ENDMDL
