MODEL 1
REMARK minimizedAffinity -5.39642334
REMARK minimizedRMSD -1
REMARK  2 active torsions:
REMARK  status: ('A' for Active; 'I' for Inactive)
REMARK    1  A    between atoms: C1_2  and  C2_3 
REMARK    2  A    between atoms: C2_3  and  C3_4 
ROOT
ATOM      1  C3  UNL d   1      -1.047   1.059   0.497  0.00  0.00    -0.075 A 
ATOM      2  C4  UNL d   1      -0.916   1.910  -0.610  0.00  0.00     0.002 A 
ATOM      3  C5  UNL d   1      -1.376   3.226  -0.550  0.00  0.00     0.002 A 
ATOM      4  C6  UNL d   1      -1.979   3.704   0.611  0.00  0.00    -0.004 A 
ATOM      5  C7  UNL d   1      -2.129   2.862   1.711  0.00  0.00     0.002 A 
ATOM      6  C8  UNL d   1      -1.666   1.546   1.655  0.00  0.00     0.002 A 
ENDROOT
BRANCH   1   7
ATOM      7  C2  UNL d   1      -0.525  -0.357   0.448  0.00  0.00     0.056 C 
BRANCH   7   8
ATOM      8  C1  UNL d   1       0.626  -0.564  -0.541  0.00  0.00     0.007 C 
ATOM      9  C   UNL d   1       0.376  -1.699  -1.526  0.00  0.00     0.009 C 
ENDBRANCH   7   8
ENDBRANCH   1   7
TORSDOF 2
ENDMDL
