MODEL 1
REMARK minimizedAffinity -5.69880199
REMARK minimizedRMSD -1
REMARK  2 active torsions:
REMARK  status: ('A' for Active; 'I' for Inactive)
REMARK    1  A    between atoms: C1_2  and  C2_3 
REMARK    2  A    between atoms: C2_3  and  C3_4 
ROOT
ATOM      1  C3  UNL d   1      -0.398   0.833   0.335  0.00  0.00    -0.075 A 
ATOM      2  C4  UNL d   1       0.003   1.934  -0.435  0.00  0.00     0.002 A 
ATOM      3  C5  UNL d   1      -0.650   3.161  -0.312  0.00  0.00     0.002 A 
ATOM      4  C6  UNL d   1      -1.718   3.299   0.572  0.00  0.00    -0.004 A 
ATOM      5  C7  UNL d   1      -2.136   2.207   1.330  0.00  0.00     0.002 A 
ATOM      6  C8  UNL d   1      -1.481   0.980   1.212  0.00  0.00     0.002 A 
ENDROOT
BRANCH   1   7
ATOM      7  C2  UNL d   1       0.324  -0.489   0.228  0.00  0.00     0.056 C 
BRANCH   7   8
ATOM      8  C1  UNL d   1       1.084  -0.680  -1.089  0.00  0.00     0.007 C 
ATOM      9  C   UNL d   1       0.745  -1.986  -1.794  0.00  0.00     0.009 C 
ENDBRANCH   7   8
ENDBRANCH   1   7
TORSDOF 2
ENDMDL
