MODEL 1
REMARK minimizedAffinity -5.02466393
REMARK minimizedRMSD -1
REMARK  2 active torsions:
REMARK  status: ('A' for Active; 'I' for Inactive)
REMARK    1  A    between atoms: C1_2  and  C2_3 
REMARK    2  A    between atoms: C2_3  and  C3_4 
ROOT
ATOM      1  C3  UNL d   1       0.070   0.346   0.079  0.00  0.00    -0.075 A 
ATOM      2  C4  UNL d   1       0.052  -0.155   1.389  0.00  0.00     0.002 A 
ATOM      3  C5  UNL d   1      -0.642   0.517   2.395  0.00  0.00     0.002 A 
ATOM      4  C6  UNL d   1      -1.317   1.702   2.108  0.00  0.00    -0.004 A 
ATOM      5  C7  UNL d   1      -1.291   2.218   0.814  0.00  0.00     0.002 A 
ATOM      6  C8  UNL d   1      -0.601   1.545  -0.196  0.00  0.00     0.002 A 
ENDROOT
BRANCH   1   7
ATOM      7  C2  UNL d   1       0.795  -0.393  -1.020  0.00  0.00     0.056 C 
BRANCH   7   8
ATOM      8  C1  UNL d   1       1.093  -1.860  -0.695  0.00  0.00     0.007 C 
ATOM      9  C   UNL d   1       1.176  -2.745  -1.932  0.00  0.00     0.009 C 
ENDBRANCH   7   8
ENDBRANCH   1   7
TORSDOF 2
ENDMDL
