MODEL 1
REMARK minimizedAffinity -5.98735094
REMARK minimizedRMSD -1
REMARK  2 active torsions:
REMARK  status: ('A' for Active; 'I' for Inactive)
REMARK    1  A    between atoms: C1_2  and  C2_3 
REMARK    2  A    between atoms: C2_3  and  C3_4 
ROOT
ATOM      1  C3  UNL d   1      -0.104   0.984  -0.130  0.00  0.00    -0.075 A 
ATOM      2  C4  UNL d   1      -0.796   0.551   1.011  0.00  0.00     0.002 A 
ATOM      3  C5  UNL d   1      -1.773   1.357   1.595  0.00  0.00     0.002 A 
ATOM      4  C6  UNL d   1      -2.063   2.608   1.055  0.00  0.00    -0.004 A 
ATOM      5  C7  UNL d   1      -1.371   3.055  -0.068  0.00  0.00     0.002 A 
ATOM      6  C8  UNL d   1      -0.396   2.249  -0.658  0.00  0.00     0.002 A 
ENDROOT
BRANCH   1   7
ATOM      7  C2  UNL d   1       0.934   0.104  -0.785  0.00  0.00     0.056 C 
BRANCH   7   8
ATOM      8  C1  UNL d   1       0.990  -1.320  -0.220  0.00  0.00     0.007 C 
ATOM      9  C   UNL d   1       0.919  -2.395  -1.296  0.00  0.00     0.009 C 
ENDBRANCH   7   8
ENDBRANCH   1   7
TORSDOF 2
ENDMDL
