MODEL 1
REMARK minimizedAffinity -6.19269228
REMARK minimizedRMSD -1
REMARK  2 active torsions:
REMARK  status: ('A' for Active; 'I' for Inactive)
REMARK    1  A    between atoms: C1_2  and  C2_3 
REMARK    2  A    between atoms: C2_3  and  C3_4 
ROOT
ATOM      1  C3  UNL d   1       0.052   0.082   0.169  0.00  0.00    -0.075 A 
ATOM      2  C4  UNL d   1      -0.287  -0.128   1.513  0.00  0.00     0.002 A 
ATOM      3  C5  UNL d   1      -1.188   0.720   2.157  0.00  0.00     0.002 A 
ATOM      4  C6  UNL d   1      -1.751   1.794   1.470  0.00  0.00    -0.004 A 
ATOM      5  C7  UNL d   1      -1.408   2.022   0.140  0.00  0.00     0.002 A 
ATOM      6  C8  UNL d   1      -0.511   1.172  -0.509  0.00  0.00     0.002 A 
ENDROOT
BRANCH   1   7
ATOM      7  C2  UNL d   1       1.004  -0.850  -0.543  0.00  0.00     0.056 C 
BRANCH   7   8
ATOM      8  C1  UNL d   1       0.329  -1.764  -1.572  0.00  0.00     0.007 C 
ATOM      9  C   UNL d   1       1.129  -3.025  -1.870  0.00  0.00     0.009 C 
ENDBRANCH   7   8
ENDBRANCH   1   7
TORSDOF 2
ENDMDL
