MODEL 1
REMARK minimizedAffinity -4.97142506
REMARK minimizedRMSD -1
REMARK  2 active torsions:
REMARK  status: ('A' for Active; 'I' for Inactive)
REMARK    1  A    between atoms: C1_2  and  C2_3 
REMARK    2  A    between atoms: C2_3  and  C3_4 
ROOT
ATOM      1  C3  UNL d   1       0.099  -0.352  -0.262  0.00  0.00    -0.075 A 
ATOM      2  C4  UNL d   1      -0.484   0.803  -0.803  0.00  0.00     0.002 A 
ATOM      3  C5  UNL d   1      -1.338   1.593  -0.032  0.00  0.00     0.002 A 
ATOM      4  C6  UNL d   1      -1.627   1.233   1.283  0.00  0.00    -0.004 A 
ATOM      5  C7  UNL d   1      -1.066   0.079   1.825  0.00  0.00     0.002 A 
ATOM      6  C8  UNL d   1      -0.208  -0.711   1.057  0.00  0.00     0.002 A 
ENDROOT
BRANCH   1   7
ATOM      7  C2  UNL d   1       1.047  -1.195  -1.082  0.00  0.00     0.056 C 
BRANCH   7   8
ATOM      8  C1  UNL d   1       0.381  -1.920  -2.256  0.00  0.00     0.007 C 
ATOM      9  C   UNL d   1      -0.072  -3.332  -1.911  0.00  0.00     0.009 C 
ENDBRANCH   7   8
ENDBRANCH   1   7
TORSDOF 2
ENDMDL
