MODEL 1
REMARK minimizedAffinity -5.51648331
REMARK minimizedRMSD -1
REMARK  2 active torsions:
REMARK  status: ('A' for Active; 'I' for Inactive)
REMARK    1  A    between atoms: C1_2  and  C2_3 
REMARK    2  A    between atoms: C2_3  and  C3_4 
ROOT
ATOM      1  C3  UNL d   1      -0.339  -0.304   0.263  0.00  0.00    -0.075 A 
ATOM      2  C4  UNL d   1      -0.864  -0.518   1.546  0.00  0.00     0.002 A 
ATOM      3  C5  UNL d   1      -1.671   0.446   2.151  0.00  0.00     0.002 A 
ATOM      4  C6  UNL d   1      -1.955   1.637   1.487  0.00  0.00    -0.004 A 
ATOM      5  C7  UNL d   1      -1.425   1.868   0.219  0.00  0.00     0.002 A 
ATOM      6  C8  UNL d   1      -0.621   0.903  -0.390  0.00  0.00     0.002 A 
ENDROOT
BRANCH   1   7
ATOM      7  C2  UNL d   1       0.511  -1.356  -0.410  0.00  0.00     0.056 C 
BRANCH   7   8
ATOM      8  C1  UNL d   1      -0.277  -2.309  -1.314  0.00  0.00     0.007 C 
ATOM      9  C   UNL d   1       0.477  -2.696  -2.579  0.00  0.00     0.009 C 
ENDBRANCH   7   8
ENDBRANCH   1   7
TORSDOF 2
ENDMDL
