MODEL 1
REMARK minimizedAffinity -5.45852375
REMARK minimizedRMSD -1
REMARK  2 active torsions:
REMARK  status: ('A' for Active; 'I' for Inactive)
REMARK    1  A    between atoms: C1_2  and  C2_3 
REMARK    2  A    between atoms: C2_3  and  C3_4 
ROOT
ATOM      1  C3  UNL d   1       0.122   1.096  -0.049  0.00  0.00    -0.075 A 
ATOM      2  C4  UNL d   1       0.112   2.425  -0.498  0.00  0.00     0.002 A 
ATOM      3  C5  UNL d   1      -0.728   3.367   0.096  0.00  0.00     0.002 A 
ATOM      4  C6  UNL d   1      -1.575   2.992   1.136  0.00  0.00    -0.004 A 
ATOM      5  C7  UNL d   1      -1.586   1.671   1.579  0.00  0.00     0.002 A 
ATOM      6  C8  UNL d   1      -0.742   0.727   0.990  0.00  0.00     0.002 A 
ENDROOT
BRANCH   1   7
ATOM      7  C2  UNL d   1       1.051   0.079  -0.667  0.00  0.00     0.056 C 
BRANCH   7   8
ATOM      8  C1  UNL d   1       0.678  -1.375  -0.357  0.00  0.00     0.007 C 
ATOM      9  C   UNL d   1       1.117  -2.351  -1.440  0.00  0.00     0.009 C 
ENDBRANCH   7   8
ENDBRANCH   1   7
TORSDOF 2
ENDMDL
