MODEL 1
REMARK minimizedAffinity 4.95489359
REMARK minimizedRMSD -1
REMARK  1 active torsions:
REMARK  status: ('A' for Active; 'I' for Inactive)
REMARK    1  A    between atoms: N_2  and  C1_3 
ROOT
ATOM      1  C1  UNL d   1      -3.264  -2.516  -3.455  0.00  0.00     0.143 A 
ATOM      2  C2  UNL d   1      -2.599  -1.410  -3.997  0.00  0.00    -0.057 A 
ATOM      3  C3  UNL d   1      -2.501  -0.204  -3.293  0.00  0.00     0.033 A 
ATOM      4  C4  UNL d   1      -3.094  -0.073  -2.041  0.00  0.00    -0.042 A 
ATOM      5  C5  UNL d   1      -3.781  -1.150  -1.493  0.00  0.00     0.033 A 
ATOM      6  C6  UNL d   1      -3.870  -2.354  -2.199  0.00  0.00    -0.057 A 
ENDROOT
BRANCH   1   7
ATOM      7  N   UNL d   1      -3.480  -3.710  -4.147  0.00  0.00    -0.732 N 
ATOM      8  C   UNL d   1      -4.737  -3.954  -4.821  0.00  0.00     0.284 C 
ATOM      9  H3  UNL d   1      -2.662  -4.008  -4.673  0.00  0.00     0.395 HD
ENDBRANCH   1   7
TORSDOF 1
ENDMDL
