MODEL 1
REMARK minimizedAffinity 8.90374374
REMARK minimizedRMSD -1
REMARK  1 active torsions:
REMARK  status: ('A' for Active; 'I' for Inactive)
REMARK    1  A    between atoms: N_2  and  C1_3 
ROOT
ATOM      1  C1  UNL d   1       2.094   1.473   1.529  0.00  0.00     0.143 A 
ATOM      2  C2  UNL d   1       1.168   2.423   1.081  0.00  0.00    -0.057 A 
ATOM      3  C3  UNL d   1       1.400   3.173  -0.078  0.00  0.00     0.033 A 
ATOM      4  C4  UNL d   1       2.580   3.007  -0.797  0.00  0.00    -0.042 A 
ATOM      5  C5  UNL d   1       3.525   2.087  -0.357  0.00  0.00     0.033 A 
ATOM      6  C6  UNL d   1       3.284   1.336   0.798  0.00  0.00    -0.057 A 
ENDROOT
BRANCH   1   7
ATOM      7  N   UNL d   1       1.966   0.767   2.727  0.00  0.00    -0.732 N 
ATOM      8  C   UNL d   1       1.493   1.427   3.925  0.00  0.00     0.284 C 
ATOM      9  H3  UNL d   1       1.585  -0.167   2.589  0.00  0.00     0.395 HD
ENDBRANCH   1   7
TORSDOF 1
ENDMDL
