MODEL 1
REMARK minimizedAffinity 9.51751995
REMARK minimizedRMSD -1
REMARK  1 active torsions:
REMARK  status: ('A' for Active; 'I' for Inactive)
REMARK    1  A    between atoms: N_2  and  C1_3 
ROOT
ATOM      1  C1  UNL d   1       2.813  -5.826   1.549  0.00  0.00     0.143 A 
ATOM      2  C2  UNL d   1       3.723  -5.778   0.487  0.00  0.00    -0.057 A 
ATOM      3  C3  UNL d   1       3.289  -5.808  -0.843  0.00  0.00     0.033 A 
ATOM      4  C4  UNL d   1       1.933  -5.915  -1.137  0.00  0.00    -0.042 A 
ATOM      5  C5  UNL d   1       1.012  -5.989  -0.098  0.00  0.00     0.033 A 
ATOM      6  C6  UNL d   1       1.452  -5.952   1.229  0.00  0.00    -0.057 A 
ENDROOT
BRANCH   1   7
ATOM      7  N   UNL d   1       3.188  -5.899   2.893  0.00  0.00    -0.732 N 
ATOM      8  C   UNL d   1       2.211  -5.703   3.942  0.00  0.00     0.284 C 
ATOM      9  H3  UNL d   1       3.844  -6.655   3.072  0.00  0.00     0.395 HD
ENDBRANCH   1   7
TORSDOF 1
ENDMDL
