MODEL 1
REMARK minimizedAffinity 1.22965431
REMARK minimizedRMSD -1
REMARK  1 active torsions:
REMARK  status: ('A' for Active; 'I' for Inactive)
REMARK    1  A    between atoms: N_2  and  C1_3 
ROOT
ATOM      1  C1  UNL d   1       2.918  -5.914  -1.375  0.00  0.00     0.143 A 
ATOM      2  C2  UNL d   1       1.572  -5.914  -0.993  0.00  0.00    -0.057 A 
ATOM      3  C3  UNL d   1       1.201  -5.929   0.357  0.00  0.00     0.033 A 
ATOM      4  C4  UNL d   1       2.173  -5.974   1.352  0.00  0.00    -0.042 A 
ATOM      5  C5  UNL d   1       3.516  -6.000   0.994  0.00  0.00     0.033 A 
ATOM      6  C6  UNL d   1       3.880  -5.978  -0.355  0.00  0.00    -0.057 A 
ENDROOT
BRANCH   1   7
ATOM      7  N   UNL d   1       3.349  -6.000  -2.701  0.00  0.00    -0.732 N 
ATOM      8  C   UNL d   1       4.761  -5.993  -3.018  0.00  0.00     0.284 C 
ATOM      9  H3  UNL d   1       2.804  -6.664  -3.245  0.00  0.00     0.395 HD
ENDBRANCH   1   7
TORSDOF 1
ENDMDL
