MODEL 1
REMARK minimizedAffinity 5.43317175
REMARK minimizedRMSD -1
REMARK  1 active torsions:
REMARK  status: ('A' for Active; 'I' for Inactive)
REMARK    1  A    between atoms: N_2  and  C1_3 
ROOT
ATOM      1  C1  UNL d   1       1.091  -0.547  -0.341  0.00  0.00     0.143 A 
ATOM      2  C2  UNL d   1       1.997   0.333  -0.942  0.00  0.00    -0.057 A 
ATOM      3  C3  UNL d   1       1.961   1.707  -0.675  0.00  0.00     0.033 A 
ATOM      4  C4  UNL d   1       0.996   2.230   0.179  0.00  0.00    -0.042 A 
ATOM      5  C5  UNL d   1       0.069   1.377   0.768  0.00  0.00     0.033 A 
ATOM      6  C6  UNL d   1       0.115   0.006   0.502  0.00  0.00    -0.057 A 
ENDROOT
BRANCH   1   7
ATOM      7  N   UNL d   1       1.013  -1.909  -0.642  0.00  0.00    -0.732 N 
ATOM      8  C   UNL d   1       2.202  -2.656  -0.991  0.00  0.00     0.284 C 
ATOM      9  H3  UNL d   1       0.375  -2.408  -0.026  0.00  0.00     0.395 HD
ENDBRANCH   1   7
TORSDOF 1
ENDMDL
