MODEL 1
REMARK minimizedAffinity 4.91810989
REMARK minimizedRMSD -1
REMARK  1 active torsions:
REMARK  status: ('A' for Active; 'I' for Inactive)
REMARK    1  A    between atoms: N_2  and  C1_3 
ROOT
ATOM      1  C1  UNL d   1       0.290   1.024   0.111  0.00  0.00     0.143 A 
ATOM      2  C2  UNL d   1       0.706  -0.083   0.857  0.00  0.00    -0.057 A 
ATOM      3  C3  UNL d   1       1.185  -1.241   0.233  0.00  0.00     0.033 A 
ATOM      4  C4  UNL d   1       1.230  -1.323  -1.155  0.00  0.00    -0.042 A 
ATOM      5  C5  UNL d   1       0.798  -0.244  -1.917  0.00  0.00     0.033 A 
ATOM      6  C6  UNL d   1       0.327   0.912  -1.288  0.00  0.00    -0.057 A 
ENDROOT
BRANCH   1   7
ATOM      7  N   UNL d   1      -0.289   2.166   0.670  0.00  0.00    -0.732 N 
ATOM      8  C   UNL d   1       0.143   3.486   0.262  0.00  0.00     0.284 C 
ATOM      9  H3  UNL d   1      -1.295   2.075   0.785  0.00  0.00     0.395 HD
ENDBRANCH   1   7
TORSDOF 1
ENDMDL
