MODEL 1
REMARK minimizedAffinity -2.83709335
REMARK minimizedRMSD -1
REMARK  1 active torsions:
REMARK  status: ('A' for Active; 'I' for Inactive)
REMARK    1  A    between atoms: N_2  and  C1_3 
ROOT
ATOM      1  C1  UNL d   1       5.649  -2.207  -5.159  0.00  0.00     0.143 A 
ATOM      2  C2  UNL d   1       5.620  -1.089  -6.000  0.00  0.00    -0.057 A 
ATOM      3  C3  UNL d   1       5.211   0.164  -5.528  0.00  0.00     0.033 A 
ATOM      4  C4  UNL d   1       4.795   0.315  -4.209  0.00  0.00    -0.042 A 
ATOM      5  C5  UNL d   1       4.791  -0.787  -3.363  0.00  0.00     0.033 A 
ATOM      6  C6  UNL d   1       5.207  -2.035  -3.838  0.00  0.00    -0.057 A 
ENDROOT
BRANCH   1   7
ATOM      7  N   UNL d   1       5.951  -3.500  -5.594  0.00  0.00    -0.732 N 
ATOM      8  C   UNL d   1       4.898  -4.409  -5.993  0.00  0.00     0.284 C 
ATOM      9  H3  UNL d   1       6.772  -3.526  -6.195  0.00  0.00     0.395 HD
ENDBRANCH   1   7
TORSDOF 1
ENDMDL
