MODEL 1
REMARK minimizedAffinity -4.0835886
REMARK minimizedRMSD -1
REMARK  1 active torsions:
REMARK  status: ('A' for Active; 'I' for Inactive)
REMARK    1  A    between atoms: C1_2  and  C2_3 
ROOT
ATOM      1  C2  UNL d   1       0.411   3.171  -0.377  0.00  0.00    -0.081 A 
ATOM      2  C3  UNL d   1       0.025   3.904  -1.506  0.00  0.00     0.006 A 
ATOM      3  C4  UNL d   1      -0.929   3.393  -2.390  0.00  0.00     0.002 A 
ATOM      4  C5  UNL d   1      -1.517   2.146  -2.156  0.00  0.00    -0.080 A 
ATOM      5  C6  UNL d   1      -2.564   1.599  -3.081  0.00  0.00     0.076 C 
ATOM      6  C7  UNL d   1      -1.119   1.406  -1.038  0.00  0.00     0.002 A 
ATOM      7  C8  UNL d   1      -0.165   1.915  -0.154  0.00  0.00     0.006 A 
ENDROOT
BRANCH   1   8
ATOM      8  C1  UNL d   1       1.391   3.747   0.612  0.00  0.00     0.054 C 
ATOM      9  C   UNL d   1       2.820   3.345   0.274  0.00  0.00     0.018 C 
ENDBRANCH   1   8
TORSDOF 1
ENDMDL
