MODEL 1
REMARK minimizedAffinity -4.70425797
REMARK minimizedRMSD -1
REMARK  1 active torsions:
REMARK  status: ('A' for Active; 'I' for Inactive)
REMARK    1  A    between atoms: C1_2  and  C2_3 
ROOT
ATOM      1  C2  UNL d   1      -0.222   3.714  -0.794  0.00  0.00    -0.081 A 
ATOM      2  C3  UNL d   1      -0.261   4.196  -2.108  0.00  0.00     0.006 A 
ATOM      3  C4  UNL d   1      -1.031   3.549  -3.077  0.00  0.00     0.002 A 
ATOM      4  C5  UNL d   1      -1.780   2.415  -2.748  0.00  0.00    -0.080 A 
ATOM      5  C6  UNL d   1      -2.635   1.729  -3.772  0.00  0.00     0.076 C 
ATOM      6  C7  UNL d   1      -1.728   1.922  -1.440  0.00  0.00     0.002 A 
ATOM      7  C8  UNL d   1      -0.958   2.568  -0.470  0.00  0.00     0.006 A 
ENDROOT
BRANCH   1   8
ATOM      8  C1  UNL d   1       0.556   4.447   0.269  0.00  0.00     0.054 C 
ATOM      9  C   UNL d   1       2.020   4.032   0.267  0.00  0.00     0.018 C 
ENDBRANCH   1   8
TORSDOF 1
ENDMDL
