MODEL 1
REMARK minimizedAffinity -0.894730508
REMARK minimizedRMSD -1
REMARK  1 active torsions:
REMARK  status: ('A' for Active; 'I' for Inactive)
REMARK    1  A    between atoms: C1_2  and  C2_3 
ROOT
ATOM      1  C2  UNL d   1      -0.903   0.700  -0.631  0.00  0.00    -0.081 A 
ATOM      2  C3  UNL d   1       0.167   0.109  -1.314  0.00  0.00     0.006 A 
ATOM      3  C4  UNL d   1       0.898  -0.926  -0.725  0.00  0.00     0.002 A 
ATOM      4  C5  UNL d   1       0.567  -1.391   0.552  0.00  0.00    -0.080 A 
ATOM      5  C6  UNL d   1       1.325  -2.522   1.183  0.00  0.00     0.076 C 
ATOM      6  C7  UNL d   1      -0.491  -0.789   1.242  0.00  0.00     0.002 A 
ATOM      7  C8  UNL d   1      -1.222   0.245   0.654  0.00  0.00     0.006 A 
ENDROOT
BRANCH   1   8
ATOM      8  C1  UNL d   1      -1.735   1.771  -1.289  0.00  0.00     0.054 C 
ATOM      9  C   UNL d   1      -1.961   1.469  -2.763  0.00  0.00     0.018 C 
ENDBRANCH   1   8
TORSDOF 1
ENDMDL
