MODEL 1
REMARK minimizedAffinity -2.772964
REMARK minimizedRMSD -1
REMARK  1 active torsions:
REMARK  status: ('A' for Active; 'I' for Inactive)
REMARK    1  A    between atoms: C1_2  and  C2_3 
ROOT
ATOM      1  C2  UNL d   1      -1.484   1.833  -1.525  0.00  0.00    -0.081 A 
ATOM      2  C3  UNL d   1      -2.126   1.457  -2.711  0.00  0.00     0.006 A 
ATOM      3  C4  UNL d   1      -1.989   2.232  -3.866  0.00  0.00     0.002 A 
ATOM      4  C5  UNL d   1      -1.203   3.389  -3.856  0.00  0.00    -0.080 A 
ATOM      5  C6  UNL d   1      -1.023   4.212  -5.097  0.00  0.00     0.076 C 
ATOM      6  C7  UNL d   1      -0.576   3.774  -2.666  0.00  0.00     0.002 A 
ATOM      7  C8  UNL d   1      -0.713   3.001  -1.511  0.00  0.00     0.006 A 
ENDROOT
BRANCH   1   8
ATOM      8  C1  UNL d   1      -1.577   0.966  -0.296  0.00  0.00     0.054 C 
ATOM      9  C   UNL d   1      -0.481  -0.090  -0.279  0.00  0.00     0.018 C 
ENDBRANCH   1   8
TORSDOF 1
ENDMDL
