MODEL 1
REMARK minimizedAffinity -0.963228047
REMARK minimizedRMSD -1
REMARK  1 active torsions:
REMARK  status: ('A' for Active; 'I' for Inactive)
REMARK    1  A    between atoms: C1_2  and  C2_3 
ROOT
ATOM      1  C2  UNL d   1       0.662   1.770  -0.156  0.00  0.00    -0.081 A 
ATOM      2  C3  UNL d   1      -0.636   1.246  -0.139  0.00  0.00     0.006 A 
ATOM      3  C4  UNL d   1      -0.841  -0.134  -0.067  0.00  0.00     0.002 A 
ATOM      4  C5  UNL d   1       0.247  -1.011  -0.002  0.00  0.00    -0.080 A 
ATOM      5  C6  UNL d   1       0.040  -2.493   0.107  0.00  0.00     0.076 C 
ATOM      6  C7  UNL d   1       1.544  -0.488  -0.036  0.00  0.00     0.002 A 
ATOM      7  C8  UNL d   1       1.750   0.892  -0.109  0.00  0.00     0.006 A 
ENDROOT
BRANCH   1   8
ATOM      8  C1  UNL d   1       0.886   3.261  -0.168  0.00  0.00     0.054 C 
ATOM      9  C   UNL d   1       2.325   3.607   0.186  0.00  0.00     0.018 C 
ENDBRANCH   1   8
TORSDOF 1
ENDMDL
