MODEL 1
REMARK minimizedAffinity -2.28145337
REMARK minimizedRMSD -1
REMARK  1 active torsions:
REMARK  status: ('A' for Active; 'I' for Inactive)
REMARK    1  A    between atoms: C1_2  and  C2_3 
ROOT
ATOM      1  C2  UNL d   1      -1.379   1.726  -1.891  0.00  0.00    -0.081 A 
ATOM      2  C3  UNL d   1      -2.309   1.435  -2.897  0.00  0.00     0.006 A 
ATOM      3  C4  UNL d   1      -2.444   2.279  -4.001  0.00  0.00     0.002 A 
ATOM      4  C5  UNL d   1      -1.647   3.423  -4.123  0.00  0.00    -0.080 A 
ATOM      5  C6  UNL d   1      -1.761   4.320  -5.319  0.00  0.00     0.076 C 
ATOM      6  C7  UNL d   1      -0.730   3.722  -3.110  0.00  0.00     0.002 A 
ATOM      7  C8  UNL d   1      -0.595   2.879  -2.005  0.00  0.00     0.006 A 
ENDROOT
BRANCH   1   8
ATOM      8  C1  UNL d   1      -1.185   0.784  -0.730  0.00  0.00     0.054 C 
ATOM      9  C   UNL d   1      -0.426   1.454   0.406  0.00  0.00     0.018 C 
ENDBRANCH   1   8
TORSDOF 1
ENDMDL
