MODEL 1
REMARK minimizedAffinity 5.8547473
REMARK minimizedRMSD -1
REMARK  1 active torsions:
REMARK  status: ('A' for Active; 'I' for Inactive)
REMARK    1  A    between atoms: C1_2  and  C2_3 
ROOT
ATOM      1  C2  UNL d   1       1.186   1.618  -0.343  0.00  0.00    -0.081 A 
ATOM      2  C3  UNL d   1       2.561   1.355  -0.308  0.00  0.00     0.006 A 
ATOM      3  C4  UNL d   1       3.465   2.357   0.054  0.00  0.00     0.002 A 
ATOM      4  C5  UNL d   1       3.009   3.635   0.394  0.00  0.00    -0.080 A 
ATOM      5  C6  UNL d   1       3.966   4.711   0.813  0.00  0.00     0.076 C 
ATOM      6  C7  UNL d   1       1.637   3.902   0.343  0.00  0.00     0.002 A 
ATOM      7  C8  UNL d   1       0.733   2.901  -0.019  0.00  0.00     0.006 A 
ENDROOT
BRANCH   1   8
ATOM      8  C1  UNL d   1       0.204   0.522  -0.669  0.00  0.00     0.054 C 
ATOM      9  C   UNL d   1      -0.128  -0.308   0.562  0.00  0.00     0.018 C 
ENDBRANCH   1   8
TORSDOF 1
ENDMDL
