MODEL 1
REMARK minimizedAffinity -2.90659261
REMARK minimizedRMSD -1
REMARK  1 active torsions:
REMARK  status: ('A' for Active; 'I' for Inactive)
REMARK    1  A    between atoms: C1_2  and  C2_3 
ROOT
ATOM      1  C2  UNL d   1       0.737   1.119  -0.374  0.00  0.00    -0.081 A 
ATOM      2  C3  UNL d   1      -0.458   0.514   0.032  0.00  0.00     0.006 A 
ATOM      3  C4  UNL d   1      -0.461  -0.800   0.508  0.00  0.00     0.002 A 
ATOM      4  C5  UNL d   1       0.731  -1.526   0.593  0.00  0.00    -0.080 A 
ATOM      5  C6  UNL d   1       0.747  -2.927   1.130  0.00  0.00     0.076 C 
ATOM      6  C7  UNL d   1       1.923  -0.928   0.171  0.00  0.00     0.002 A 
ATOM      7  C8  UNL d   1       1.927   0.385  -0.305  0.00  0.00     0.006 A 
ENDROOT
BRANCH   1   8
ATOM      8  C1  UNL d   1       0.753   2.557  -0.826  0.00  0.00     0.054 C 
ATOM      9  C   UNL d   1       1.749   3.379  -0.021  0.00  0.00     0.018 C 
ENDBRANCH   1   8
TORSDOF 1
ENDMDL
