MODEL 1
REMARK minimizedAffinity -3.90077186
REMARK minimizedRMSD -1
REMARK  1 active torsions:
REMARK  status: ('A' for Active; 'I' for Inactive)
REMARK    1  A    between atoms: C1_2  and  C2_3 
ROOT
ATOM      1  C2  UNL d   1      -0.734   3.592  -2.248  0.00  0.00    -0.081 A 
ATOM      2  C3  UNL d   1      -1.589   2.727  -1.555  0.00  0.00     0.006 A 
ATOM      3  C4  UNL d   1      -2.568   2.001  -2.238  0.00  0.00     0.002 A 
ATOM      4  C5  UNL d   1      -2.703   2.122  -3.625  0.00  0.00    -0.080 A 
ATOM      5  C6  UNL d   1      -3.729   1.326  -4.374  0.00  0.00     0.076 C 
ATOM      6  C7  UNL d   1      -1.860   3.000  -4.316  0.00  0.00     0.002 A 
ATOM      7  C8  UNL d   1      -0.881   3.726  -3.633  0.00  0.00     0.006 A 
ENDROOT
BRANCH   1   8
ATOM      8  C1  UNL d   1       0.365   4.327  -1.524  0.00  0.00     0.054 C 
ATOM      9  C   UNL d   1       0.852   3.542  -0.315  0.00  0.00     0.018 C 
ENDBRANCH   1   8
TORSDOF 1
ENDMDL
