MODEL 1
REMARK minimizedAffinity -2.27756047
REMARK minimizedRMSD -1
REMARK  1 active torsions:
REMARK  status: ('A' for Active; 'I' for Inactive)
REMARK    1  A    between atoms: C1_2  and  C2_3 
ROOT
ATOM      1  C2  UNL d   1       1.563  -1.196   1.338  0.00  0.00    -0.081 A 
ATOM      2  C3  UNL d   1       0.348  -1.850   1.103  0.00  0.00     0.006 A 
ATOM      3  C4  UNL d   1      -0.592  -1.305   0.225  0.00  0.00     0.002 A 
ATOM      4  C5  UNL d   1      -0.329  -0.102  -0.438  0.00  0.00    -0.080 A 
ATOM      5  C6  UNL d   1      -1.316   0.479  -1.407  0.00  0.00     0.076 C 
ATOM      6  C7  UNL d   1       0.878   0.561  -0.191  0.00  0.00     0.002 A 
ATOM      7  C8  UNL d   1       1.818   0.016   0.688  0.00  0.00     0.006 A 
ENDROOT
BRANCH   1   8
ATOM      8  C1  UNL d   1       2.606  -1.814   2.234  0.00  0.00     0.054 C 
ATOM      9  C   UNL d   1       3.729  -0.833   2.535  0.00  0.00     0.018 C 
ENDBRANCH   1   8
TORSDOF 1
ENDMDL
