MODEL 1
REMARK minimizedAffinity -4.80156088
REMARK minimizedRMSD -1
REMARK  1 active torsions:
REMARK  status: ('A' for Active; 'I' for Inactive)
REMARK    1  A    between atoms: C1_2  and  C2_3 
ROOT
ATOM      1  C2  UNL d   1       1.416   1.668   0.119  0.00  0.00    -0.081 A 
ATOM      2  C3  UNL d   1       2.422   0.695   0.087  0.00  0.00     0.006 A 
ATOM      3  C4  UNL d   1       2.095  -0.663   0.125  0.00  0.00     0.002 A 
ATOM      4  C5  UNL d   1       0.758  -1.069   0.187  0.00  0.00    -0.080 A 
ATOM      5  C6  UNL d   1       0.391  -2.524   0.197  0.00  0.00     0.076 C 
ATOM      6  C7  UNL d   1      -0.246  -0.096   0.236  0.00  0.00     0.002 A 
ATOM      7  C8  UNL d   1       0.080   1.261   0.199  0.00  0.00     0.006 A 
ENDROOT
BRANCH   1   8
ATOM      8  C1  UNL d   1       1.763   3.132   0.013  0.00  0.00     0.054 C 
ATOM      9  C   UNL d   1       3.251   3.365   0.228  0.00  0.00     0.018 C 
ENDBRANCH   1   8
TORSDOF 1
ENDMDL
