MODEL 1
REMARK minimizedAffinity -0.26015687
REMARK minimizedRMSD -1
REMARK  1 active torsions:
REMARK  status: ('A' for Active; 'I' for Inactive)
REMARK    1  A    between atoms: C3_4  and  O_7 
ROOT
ATOM      1  C   UNL d   1      -1.657   1.228   0.116  0.00  0.00    -0.033 A 
ATOM      2  C1  UNL d   1      -2.964   1.556   0.482  0.00  0.00     0.039 A 
ATOM      3  C2  UNL d   1      -3.491   2.805   0.149  0.00  0.00    -0.080 A 
ATOM      4  C3  UNL d   1      -2.703   3.715  -0.549  0.00  0.00     0.150 A 
ATOM      5  C4  UNL d   1      -1.401   3.394  -0.920  0.00  0.00    -0.007 A 
ATOM      6  C5  UNL d   1      -0.876   2.146  -0.586  0.00  0.00     0.039 A 
ENDROOT
BRANCH   4   7
ATOM      7  O   UNL d   1      -3.172   4.949  -0.892  0.00  0.00    -0.526 OA
ATOM      8  H5  UNL d   1      -4.075   5.042  -0.546  0.00  0.00     0.418 HD
ENDBRANCH   4   7
TORSDOF 1
ENDMDL
