MODEL 1
REMARK minimizedAffinity 4.09549236
REMARK minimizedRMSD -1
REMARK  1 active torsions:
REMARK  status: ('A' for Active; 'I' for Inactive)
REMARK    1  A    between atoms: C3_4  and  O_7 
ROOT
ATOM      1  C   UNL d   1      -3.299  -0.794   4.403  0.00  0.00    -0.033 A 
ATOM      2  C1  UNL d   1      -4.239  -1.483   3.635  0.00  0.00     0.039 A 
ATOM      3  C2  UNL d   1      -4.069  -1.595   2.254  0.00  0.00    -0.080 A 
ATOM      4  C3  UNL d   1      -2.954  -1.015   1.654  0.00  0.00     0.150 A 
ATOM      5  C4  UNL d   1      -2.011  -0.330   2.414  0.00  0.00    -0.007 A 
ATOM      6  C5  UNL d   1      -2.184  -0.218   3.793  0.00  0.00     0.039 A 
ENDROOT
BRANCH   4   7
ATOM      7  O   UNL d   1      -2.748  -1.093   0.309  0.00  0.00    -0.526 OA
ATOM      8  H5  UNL d   1      -3.494  -1.571  -0.090  0.00  0.00     0.418 HD
ENDBRANCH   4   7
TORSDOF 1
ENDMDL
