MODEL 1
REMARK minimizedAffinity -1.13325036
REMARK minimizedRMSD -1
REMARK  1 active torsions:
REMARK  status: ('A' for Active; 'I' for Inactive)
REMARK    1  A    between atoms: C3_4  and  O_7 
ROOT
ATOM      1  C   UNL d   1      -3.239   0.474   0.191  0.00  0.00    -0.033 A 
ATOM      2  C1  UNL d   1      -4.108   1.239  -0.590  0.00  0.00     0.039 A 
ATOM      3  C2  UNL d   1      -4.062   2.634  -0.526  0.00  0.00    -0.080 A 
ATOM      4  C3  UNL d   1      -3.144   3.249   0.320  0.00  0.00     0.150 A 
ATOM      5  C4  UNL d   1      -2.273   2.493   1.098  0.00  0.00    -0.007 A 
ATOM      6  C5  UNL d   1      -2.321   1.101   1.033  0.00  0.00     0.039 A 
ENDROOT
BRANCH   4   7
ATOM      7  O   UNL d   1      -3.066   4.606   0.420  0.00  0.00    -0.526 OA
ATOM      8  H5  UNL d   1      -3.747   4.997  -0.152  0.00  0.00     0.418 HD
ENDBRANCH   4   7
TORSDOF 1
ENDMDL
