MODEL 1
REMARK minimizedAffinity -4.26398039
REMARK minimizedRMSD -1
REMARK  1 active torsions:
REMARK  status: ('A' for Active; 'I' for Inactive)
REMARK    1  A    between atoms: C3_4  and  O_7 
ROOT
ATOM      1  C   UNL d   1      -2.725   0.668   0.242  0.00  0.00    -0.033 A 
ATOM      2  C1  UNL d   1      -3.129  -0.482   0.922  0.00  0.00     0.039 A 
ATOM      3  C2  UNL d   1      -3.224  -0.475   2.315  0.00  0.00    -0.080 A 
ATOM      4  C3  UNL d   1      -2.913   0.687   3.015  0.00  0.00     0.150 A 
ATOM      5  C4  UNL d   1      -2.514   1.838   2.344  0.00  0.00    -0.007 A 
ATOM      6  C5  UNL d   1      -2.419   1.829   0.953  0.00  0.00     0.039 A 
ENDROOT
BRANCH   4   7
ATOM      7  O   UNL d   1      -2.986   0.741   4.375  0.00  0.00    -0.526 OA
ATOM      8  H5  UNL d   1      -3.248  -0.135   4.704  0.00  0.00     0.418 HD
ENDBRANCH   4   7
TORSDOF 1
ENDMDL
