MODEL 1
REMARK minimizedAffinity -2.16657901
REMARK minimizedRMSD -1
REMARK  1 active torsions:
REMARK  status: ('A' for Active; 'I' for Inactive)
REMARK    1  A    between atoms: C3_4  and  O_7 
ROOT
ATOM      1  C   UNL d   1       4.858  -0.339   3.277  0.00  0.00    -0.033 A 
ATOM      2  C1  UNL d   1       5.610   0.131   4.355  0.00  0.00     0.039 A 
ATOM      3  C2  UNL d   1       6.000   1.470   4.406  0.00  0.00    -0.080 A 
ATOM      4  C3  UNL d   1       5.631   2.329   3.374  0.00  0.00     0.150 A 
ATOM      5  C4  UNL d   1       4.879   1.868   2.298  0.00  0.00    -0.007 A 
ATOM      6  C5  UNL d   1       4.491   0.530   2.249  0.00  0.00     0.039 A 
ENDROOT
BRANCH   4   7
ATOM      7  O   UNL d   1       5.992   3.643   3.377  0.00  0.00    -0.526 OA
ATOM      8  H5  UNL d   1       6.533   3.812   4.167  0.00  0.00     0.418 HD
ENDBRANCH   4   7
TORSDOF 1
ENDMDL
