MODEL 1
REMARK minimizedAffinity 2.1479609
REMARK minimizedRMSD -1
REMARK  1 active torsions:
REMARK  status: ('A' for Active; 'I' for Inactive)
REMARK    1  A    between atoms: C3_4  and  O_7 
ROOT
ATOM      1  C   UNL d   1       5.254   0.523   4.122  0.00  0.00    -0.033 A 
ATOM      2  C1  UNL d   1       6.000   1.215   5.078  0.00  0.00     0.039 A 
ATOM      3  C2  UNL d   1       6.000   2.611   5.089  0.00  0.00    -0.080 A 
ATOM      4  C3  UNL d   1       5.249   3.302   4.141  0.00  0.00     0.150 A 
ATOM      5  C4  UNL d   1       4.501   2.618   3.189  0.00  0.00    -0.007 A 
ATOM      6  C5  UNL d   1       4.503   1.224   3.179  0.00  0.00     0.039 A 
ENDROOT
BRANCH   4   7
ATOM      7  O   UNL d   1       5.222   4.664   4.110  0.00  0.00    -0.526 OA
ATOM      8  H5  UNL d   1       5.808   5.001   4.808  0.00  0.00     0.418 HD
ENDBRANCH   4   7
TORSDOF 1
ENDMDL
