MODEL 1
REMARK minimizedAffinity 3.12371039
REMARK minimizedRMSD -1
REMARK  1 active torsions:
REMARK  status: ('A' for Active; 'I' for Inactive)
REMARK    1  A    between atoms: C3_4  and  O_7 
ROOT
ATOM      1  C   UNL d   1       6.000  -0.406   3.871  0.00  0.00    -0.033 A 
ATOM      2  C1  UNL d   1       5.235  -0.484   2.706  0.00  0.00     0.039 A 
ATOM      3  C2  UNL d   1       4.464   0.607   2.301  0.00  0.00    -0.080 A 
ATOM      4  C3  UNL d   1       4.468   1.770   3.067  0.00  0.00     0.150 A 
ATOM      5  C4  UNL d   1       5.231   1.856   4.227  0.00  0.00    -0.007 A 
ATOM      6  C5  UNL d   1       5.999   0.765   4.631  0.00  0.00     0.039 A 
ENDROOT
BRANCH   4   7
ATOM      7  O   UNL d   1       3.728   2.859   2.714  0.00  0.00    -0.526 OA
ATOM      8  H5  UNL d   1       3.230   2.644   1.908  0.00  0.00     0.418 HD
ENDBRANCH   4   7
TORSDOF 1
ENDMDL
