MODEL 1
REMARK minimizedAffinity -0.250655591
REMARK minimizedRMSD -1
REMARK  1 active torsions:
REMARK  status: ('A' for Active; 'I' for Inactive)
REMARK    1  A    between atoms: C3_4  and  O_7 
ROOT
ATOM      1  C   UNL d   1       3.892  -2.003   5.246  0.00  0.00    -0.033 A 
ATOM      2  C1  UNL d   1       5.282  -2.046   5.126  0.00  0.00     0.039 A 
ATOM      3  C2  UNL d   1       6.000  -0.875   4.876  0.00  0.00    -0.080 A 
ATOM      4  C3  UNL d   1       5.317   0.331   4.750  0.00  0.00     0.150 A 
ATOM      5  C4  UNL d   1       3.932   0.382   4.872  0.00  0.00    -0.007 A 
ATOM      6  C5  UNL d   1       3.217  -0.788   5.120  0.00  0.00     0.039 A 
ENDROOT
BRANCH   4   7
ATOM      7  O   UNL d   1       5.974   1.500   4.501  0.00  0.00    -0.526 OA
ATOM      8  H5  UNL d   1       6.922   1.307   4.413  0.00  0.00     0.418 HD
ENDBRANCH   4   7
TORSDOF 1
ENDMDL
