MODEL 1
REMARK minimizedAffinity 1.29405487
REMARK minimizedRMSD -1
REMARK  1 active torsions:
REMARK  status: ('A' for Active; 'I' for Inactive)
REMARK    1  A    between atoms: C3_4  and  O_7 
ROOT
ATOM      1  C   UNL d   1       5.491  -0.079   4.663  0.00  0.00    -0.033 A 
ATOM      2  C1  UNL d   1       5.986   0.853   5.577  0.00  0.00     0.039 A 
ATOM      3  C2  UNL d   1       5.998   2.211   5.255  0.00  0.00    -0.080 A 
ATOM      4  C3  UNL d   1       5.512   2.624   4.018  0.00  0.00     0.150 A 
ATOM      5  C4  UNL d   1       5.014   1.702   3.103  0.00  0.00    -0.007 A 
ATOM      6  C5  UNL d   1       5.004   0.346   3.426  0.00  0.00     0.039 A 
ENDROOT
BRANCH   4   7
ATOM      7  O   UNL d   1       5.507   3.939   3.657  0.00  0.00    -0.526 OA
ATOM      8  H5  UNL d   1       5.907   4.457   4.376  0.00  0.00     0.418 HD
ENDBRANCH   4   7
TORSDOF 1
ENDMDL
