MODEL 1
REMARK minimizedAffinity -1.40027285
REMARK minimizedRMSD -1
REMARK  1 active torsions:
REMARK  status: ('A' for Active; 'I' for Inactive)
REMARK    1  A    between atoms: C3_4  and  O_7 
ROOT
ATOM      1  C   UNL d   1      -3.334   0.766   0.459  0.00  0.00    -0.033 A 
ATOM      2  C1  UNL d   1      -2.480   1.538   1.249  0.00  0.00     0.039 A 
ATOM      3  C2  UNL d   1      -2.489   2.930   1.135  0.00  0.00    -0.080 A 
ATOM      4  C3  UNL d   1      -3.357   3.536   0.231  0.00  0.00     0.150 A 
ATOM      5  C4  UNL d   1      -4.213   2.773  -0.556  0.00  0.00    -0.007 A 
ATOM      6  C5  UNL d   1      -4.202   1.383  -0.442  0.00  0.00     0.039 A 
ENDROOT
BRANCH   4   7
ATOM      7  O   UNL d   1      -3.398   4.890   0.081  0.00  0.00    -0.526 OA
ATOM      8  H5  UNL d   1      -2.732   5.285   0.668  0.00  0.00     0.418 HD
ENDBRANCH   4   7
TORSDOF 1
ENDMDL
