MODEL 1
REMARK minimizedAffinity 6.41046906
REMARK minimizedRMSD -1
REMARK  1 active torsions:
REMARK  status: ('A' for Active; 'I' for Inactive)
REMARK    1  A    between atoms: C3_4  and  O_7 
ROOT
ATOM      1  C   UNL d   1       6.000   0.747   4.455  0.00  0.00    -0.033 A 
ATOM      2  C1  UNL d   1       5.231   0.086   3.496  0.00  0.00     0.039 A 
ATOM      3  C2  UNL d   1       4.455   0.818   2.595  0.00  0.00    -0.080 A 
ATOM      4  C3  UNL d   1       4.458   2.208   2.663  0.00  0.00     0.150 A 
ATOM      5  C4  UNL d   1       5.225   2.874   3.614  0.00  0.00    -0.007 A 
ATOM      6  C5  UNL d   1       5.998   2.141   4.513  0.00  0.00     0.039 A 
ENDROOT
BRANCH   4   7
ATOM      7  O   UNL d   1       3.713   2.965   1.808  0.00  0.00    -0.526 OA
ATOM      8  H5  UNL d   1       3.212   2.369   1.226  0.00  0.00     0.418 HD
ENDBRANCH   4   7
TORSDOF 1
ENDMDL
