MODEL 1
REMARK minimizedAffinity -1.10612345
REMARK minimizedRMSD -1
REMARK  1 active torsions:
REMARK  status: ('A' for Active; 'I' for Inactive)
REMARK    1  A    between atoms: C3_4  and  O_7 
ROOT
ATOM      1  C   UNL d   1       4.288  -0.378   4.062  0.00  0.00    -0.033 A 
ATOM      2  C1  UNL d   1       5.209   0.516   4.612  0.00  0.00     0.039 A 
ATOM      3  C2  UNL d   1       5.302   1.818   4.117  0.00  0.00    -0.080 A 
ATOM      4  C3  UNL d   1       4.470   2.213   3.073  0.00  0.00     0.150 A 
ATOM      5  C4  UNL d   1       3.547   1.329   2.523  0.00  0.00    -0.007 A 
ATOM      6  C5  UNL d   1       3.456   0.029   3.019  0.00  0.00     0.039 A 
ENDROOT
BRANCH   4   7
ATOM      7  O   UNL d   1       4.528   3.472   2.554  0.00  0.00    -0.526 OA
ATOM      8  H5  UNL d   1       5.230   3.963   3.012  0.00  0.00     0.418 HD
ENDBRANCH   4   7
TORSDOF 1
ENDMDL
