MODEL 1
REMARK minimizedAffinity 0.257551253
REMARK minimizedRMSD -1
REMARK  1 active torsions:
REMARK  status: ('A' for Active; 'I' for Inactive)
REMARK    1  A    between atoms: C3_4  and  O_7 
ROOT
ATOM      1  C   UNL d   1       5.627   0.005   4.181  0.00  0.00    -0.033 A 
ATOM      2  C1  UNL d   1       4.850   0.025   3.021  0.00  0.00     0.039 A 
ATOM      3  C2  UNL d   1       4.441   1.243   2.473  0.00  0.00    -0.080 A 
ATOM      4  C3  UNL d   1       4.815   2.431   3.094  0.00  0.00     0.150 A 
ATOM      5  C4  UNL d   1       5.592   2.419   4.248  0.00  0.00    -0.007 A 
ATOM      6  C5  UNL d   1       5.999   1.202   4.794  0.00  0.00     0.039 A 
ENDROOT
BRANCH   4   7
ATOM      7  O   UNL d   1       4.436   3.644   2.600  0.00  0.00    -0.526 OA
ATOM      8  H5  UNL d   1       3.879   3.496   1.817  0.00  0.00     0.418 HD
ENDBRANCH   4   7
TORSDOF 1
ENDMDL
