MODEL 1
REMARK minimizedAffinity -0.991222203
REMARK minimizedRMSD -1
REMARK  1 active torsions:
REMARK  status: ('A' for Active; 'I' for Inactive)
REMARK    1  A    between atoms: C3_4  and  O_7 
ROOT
ATOM      1  C   UNL d   1      -3.914  -0.340   0.247  0.00  0.00    -0.033 A 
ATOM      2  C1  UNL d   1      -3.335  -0.145   1.503  0.00  0.00     0.039 A 
ATOM      3  C2  UNL d   1      -2.874   1.120   1.872  0.00  0.00    -0.080 A 
ATOM      4  C3  UNL d   1      -2.998   2.181   0.979  0.00  0.00     0.150 A 
ATOM      5  C4  UNL d   1      -3.578   1.995  -0.272  0.00  0.00    -0.007 A 
ATOM      6  C5  UNL d   1      -4.037   0.730  -0.640  0.00  0.00     0.039 A 
ENDROOT
BRANCH   4   7
ATOM      7  O   UNL d   1      -2.559   3.432   1.293  0.00  0.00    -0.526 OA
ATOM      8  H5  UNL d   1      -2.156   3.404   2.176  0.00  0.00     0.418 HD
ENDBRANCH   4   7
TORSDOF 1
ENDMDL
