MODEL 1
REMARK minimizedAffinity -0.620504618
REMARK minimizedRMSD -1
REMARK  1 active torsions:
REMARK  status: ('A' for Active; 'I' for Inactive)
REMARK    1  A    between atoms: C3_4  and  O_7 
ROOT
ATOM      1  C   UNL d   1       0.478  -4.054   0.915  0.00  0.00    -0.033 A 
ATOM      2  C1  UNL d   1      -0.652  -3.390   0.435  0.00  0.00     0.039 A 
ATOM      3  C2  UNL d   1      -0.588  -2.677  -0.764  0.00  0.00    -0.080 A 
ATOM      4  C3  UNL d   1       0.610  -2.636  -1.471  0.00  0.00     0.150 A 
ATOM      5  C4  UNL d   1       1.739  -3.298  -1.000  0.00  0.00    -0.007 A 
ATOM      6  C5  UNL d   1       1.674  -4.009   0.197  0.00  0.00     0.039 A 
ENDROOT
BRANCH   4   7
ATOM      7  O   UNL d   1       0.723  -1.949  -2.643  0.00  0.00    -0.526 OA
ATOM      8  H5  UNL d   1      -0.128  -1.518  -2.830  0.00  0.00     0.418 HD
ENDBRANCH   4   7
TORSDOF 1
ENDMDL
