MODEL 1
REMARK minimizedAffinity -3.8659277
REMARK minimizedRMSD -1
REMARK  1 active torsions:
REMARK  status: ('A' for Active; 'I' for Inactive)
REMARK    1  A    between atoms: N_2  and  C1_3 
ROOT
ATOM      1  C1  UNL d   1       0.543  -0.129  -0.477  0.00  0.00     0.143 A 
ATOM      2  C2  UNL d   1      -0.162   1.007  -0.891  0.00  0.00    -0.057 A 
ATOM      3  C3  UNL d   1      -1.110   1.615  -0.060  0.00  0.00     0.033 A 
ATOM      4  C4  UNL d   1      -1.392   1.080   1.193  0.00  0.00    -0.042 A 
ATOM      5  C5  UNL d   1      -0.722  -0.063   1.615  0.00  0.00     0.033 A 
ATOM      6  C6  UNL d   1       0.228  -0.662   0.783  0.00  0.00    -0.057 A 
ENDROOT
BRANCH   1   7
ATOM      7  N   UNL d   1       1.426  -0.837  -1.295  0.00  0.00    -0.732 N 
ATOM      8  C   UNL d   1       1.166  -2.219  -1.638  0.00  0.00     0.284 C 
ATOM      9  H3  UNL d   1       1.774  -0.276  -2.069  0.00  0.00     0.395 HD
ENDBRANCH   1   7
TORSDOF 1
ENDMDL
