MODEL 1
REMARK minimizedAffinity -3.15598011
REMARK minimizedRMSD -1
REMARK  1 active torsions:
REMARK  status: ('A' for Active; 'I' for Inactive)
REMARK    1  A    between atoms: N_2  and  C1_3 
ROOT
ATOM      1  C1  UNL d   1       0.623  -0.250  -0.652  0.00  0.00     0.143 A 
ATOM      2  C2  UNL d   1      -0.228   0.832  -0.905  0.00  0.00    -0.057 A 
ATOM      3  C3  UNL d   1      -1.104   1.311   0.077  0.00  0.00     0.033 A 
ATOM      4  C4  UNL d   1      -1.166   0.695   1.323  0.00  0.00    -0.042 A 
ATOM      5  C5  UNL d   1      -0.348  -0.397   1.587  0.00  0.00     0.033 A 
ATOM      6  C6  UNL d   1       0.530  -0.867   0.605  0.00  0.00    -0.057 A 
ENDROOT
BRANCH   1   7
ATOM      7  N   UNL d   1       1.445  -0.835  -1.618  0.00  0.00    -0.732 N 
ATOM      8  C   UNL d   1       1.166  -2.165  -2.117  0.00  0.00     0.284 C 
ATOM      9  H3  UNL d   1       1.732  -0.174  -2.336  0.00  0.00     0.395 HD
ENDBRANCH   1   7
TORSDOF 1
ENDMDL
