MODEL 1
REMARK minimizedAffinity -3.44019246
REMARK minimizedRMSD -1
REMARK  1 active torsions:
REMARK  status: ('A' for Active; 'I' for Inactive)
REMARK    1  A    between atoms: N_2  and  C1_3 
ROOT
ATOM      1  C1  UNL d   1      -0.015  -0.068  -0.239  0.00  0.00     0.143 A 
ATOM      2  C2  UNL d   1      -0.422  -0.609   0.985  0.00  0.00    -0.057 A 
ATOM      3  C3  UNL d   1      -1.282   0.092   1.839  0.00  0.00     0.033 A 
ATOM      4  C4  UNL d   1      -1.727   1.364   1.496  0.00  0.00    -0.042 A 
ATOM      5  C5  UNL d   1      -1.316   1.932   0.295  0.00  0.00     0.033 A 
ATOM      6  C6  UNL d   1      -0.463   1.224  -0.556  0.00  0.00    -0.057 A 
ENDROOT
BRANCH   1   7
ATOM      7  N   UNL d   1       0.916  -0.674  -1.086  0.00  0.00    -0.732 N 
ATOM      8  C   UNL d   1       0.715  -2.029  -1.554  0.00  0.00     0.284 C 
ATOM      9  H3  UNL d   1       1.266  -0.037  -1.798  0.00  0.00     0.395 HD
ENDBRANCH   1   7
TORSDOF 1
ENDMDL
