MODEL 1
REMARK minimizedAffinity -5.44978905
REMARK minimizedRMSD -1
REMARK  1 active torsions:
REMARK  status: ('A' for Active; 'I' for Inactive)
REMARK    1  A    between atoms: N_2  and  C1_3 
ROOT
ATOM      1  C1  UNL d   1      -0.442  -0.235  -0.210  0.00  0.00     0.143 A 
ATOM      2  C2  UNL d   1      -0.601  -0.551   1.143  0.00  0.00    -0.057 A 
ATOM      3  C3  UNL d   1      -1.364   0.258   1.994  0.00  0.00     0.033 A 
ATOM      4  C4  UNL d   1      -1.960   1.418   1.509  0.00  0.00    -0.042 A 
ATOM      5  C5  UNL d   1      -1.795   1.766   0.173  0.00  0.00     0.033 A 
ATOM      6  C6  UNL d   1      -1.037   0.950  -0.672  0.00  0.00    -0.057 A 
ENDROOT
BRANCH   1   7
ATOM      7  N   UNL d   1       0.386  -0.945  -1.083  0.00  0.00    -0.732 N 
ATOM      8  C   UNL d   1      -0.160  -1.975  -1.941  0.00  0.00     0.284 C 
ATOM      9  H3  UNL d   1       1.076  -0.350  -1.535  0.00  0.00     0.395 HD
ENDBRANCH   1   7
TORSDOF 1
ENDMDL
