MODEL 1
REMARK minimizedAffinity -3.70163536
REMARK minimizedRMSD -1
REMARK  1 active torsions:
REMARK  status: ('A' for Active; 'I' for Inactive)
REMARK    1  A    between atoms: N_2  and  C1_3 
ROOT
ATOM      1  C1  UNL d   1       0.238   0.059  -0.360  0.00  0.00     0.143 A 
ATOM      2  C2  UNL d   1      -0.573   1.149  -0.695  0.00  0.00    -0.057 A 
ATOM      3  C3  UNL d   1      -1.343   1.805   0.272  0.00  0.00     0.033 A 
ATOM      4  C4  UNL d   1      -1.338   1.364   1.591  0.00  0.00    -0.042 A 
ATOM      5  C5  UNL d   1      -0.559   0.267   1.942  0.00  0.00     0.033 A 
ATOM      6  C6  UNL d   1       0.213  -0.380   0.973  0.00  0.00    -0.057 A 
ENDROOT
BRANCH   1   7
ATOM      7  N   UNL d   1       0.950  -0.697  -1.294  0.00  0.00    -0.732 N 
ATOM      8  C   UNL d   1       0.906  -2.143  -1.261  0.00  0.00     0.284 C 
ATOM      9  H3  UNL d   1       0.904  -0.301  -2.231  0.00  0.00     0.395 HD
ENDBRANCH   1   7
TORSDOF 1
ENDMDL
