MODEL 1
REMARK minimizedAffinity -3.63914251
REMARK minimizedRMSD -1
REMARK  1 active torsions:
REMARK  status: ('A' for Active; 'I' for Inactive)
REMARK    1  A    between atoms: N_2  and  C1_3 
ROOT
ATOM      1  C1  UNL d   1      -0.413   0.441   0.348  0.00  0.00     0.143 A 
ATOM      2  C2  UNL d   1      -1.552   0.775  -0.393  0.00  0.00    -0.057 A 
ATOM      3  C3  UNL d   1      -2.615   1.477   0.187  0.00  0.00     0.033 A 
ATOM      4  C4  UNL d   1      -2.571   1.834   1.530  0.00  0.00    -0.042 A 
ATOM      5  C5  UNL d   1      -1.460   1.491   2.292  0.00  0.00     0.033 A 
ATOM      6  C6  UNL d   1      -0.398   0.796   1.706  0.00  0.00    -0.057 A 
ENDROOT
BRANCH   1   7
ATOM      7  N   UNL d   1       0.634  -0.342  -0.145  0.00  0.00    -0.732 N 
ATOM      8  C   UNL d   1       0.394  -1.332  -1.172  0.00  0.00     0.284 C 
ATOM      9  H3  UNL d   1       1.491   0.192  -0.274  0.00  0.00     0.395 HD
ENDBRANCH   1   7
TORSDOF 1
ENDMDL
