MODEL 1
REMARK minimizedAffinity -0.769393623
REMARK minimizedRMSD -1
REMARK  1 active torsions:
REMARK  status: ('A' for Active; 'I' for Inactive)
REMARK    1  A    between atoms: N_2  and  C1_3 
ROOT
ATOM      1  C1  UNL d   1       0.369  -0.074  -0.056  0.00  0.00     0.143 A 
ATOM      2  C2  UNL d   1       0.282  -0.481   1.280  0.00  0.00    -0.057 A 
ATOM      3  C3  UNL d   1      -0.517   0.210   2.199  0.00  0.00     0.033 A 
ATOM      4  C4  UNL d   1      -1.222   1.342   1.804  0.00  0.00    -0.042 A 
ATOM      5  C5  UNL d   1      -1.130   1.780   0.488  0.00  0.00     0.033 A 
ATOM      6  C6  UNL d   1      -0.337   1.081  -0.427  0.00  0.00    -0.057 A 
ENDROOT
BRANCH   1   7
ATOM      7  N   UNL d   1       1.222  -0.660  -0.994  0.00  0.00    -0.732 N 
ATOM      8  C   UNL d   1       1.185  -2.087  -1.233  0.00  0.00     0.284 C 
ATOM      9  H3  UNL d   1       1.316  -0.100  -1.838  0.00  0.00     0.395 HD
ENDBRANCH   1   7
TORSDOF 1
ENDMDL
