MODEL 1
REMARK minimizedAffinity -5.17540359
REMARK minimizedRMSD -1
REMARK  1 active torsions:
REMARK  status: ('A' for Active; 'I' for Inactive)
REMARK    1  A    between atoms: N_2  and  C1_3 
ROOT
ATOM      1  C1  UNL d   1       0.041  -0.005   0.152  0.00  0.00     0.143 A 
ATOM      2  C2  UNL d   1      -0.093  -0.161   1.536  0.00  0.00    -0.057 A 
ATOM      3  C3  UNL d   1      -0.977   0.635   2.274  0.00  0.00     0.033 A 
ATOM      4  C4  UNL d   1      -1.725   1.623   1.643  0.00  0.00    -0.042 A 
ATOM      5  C5  UNL d   1      -1.591   1.812   0.272  0.00  0.00     0.033 A 
ATOM      6  C6  UNL d   1      -0.711   1.010  -0.461  0.00  0.00    -0.057 A 
ENDROOT
BRANCH   1   7
ATOM      7  N   UNL d   1       0.975  -0.698  -0.623  0.00  0.00    -0.732 N 
ATOM      8  C   UNL d   1       0.541  -1.621  -1.650  0.00  0.00     0.284 C 
ATOM      9  H3  UNL d   1       1.764  -0.115  -0.893  0.00  0.00     0.395 HD
ENDBRANCH   1   7
TORSDOF 1
ENDMDL
