MODEL 1
REMARK minimizedAffinity -3.27106571
REMARK minimizedRMSD -1
REMARK  1 active torsions:
REMARK  status: ('A' for Active; 'I' for Inactive)
REMARK    1  A    between atoms: N_2  and  C1_3 
ROOT
ATOM      1  C1  UNL d   1       0.350  -0.221  -0.258  0.00  0.00     0.143 A 
ATOM      2  C2  UNL d   1      -0.616   0.653  -0.767  0.00  0.00    -0.057 A 
ATOM      3  C3  UNL d   1      -1.457   1.381   0.084  0.00  0.00     0.033 A 
ATOM      4  C4  UNL d   1      -1.365   1.224   1.463  0.00  0.00    -0.042 A 
ATOM      5  C5  UNL d   1      -0.430   0.341   1.991  0.00  0.00     0.033 A 
ATOM      6  C6  UNL d   1       0.412  -0.378   1.136  0.00  0.00    -0.057 A 
ENDROOT
BRANCH   1   7
ATOM      7  N   UNL d   1       1.149  -1.046  -1.054  0.00  0.00    -0.732 N 
ATOM      8  C   UNL d   1       0.552  -2.064  -1.892  0.00  0.00     0.284 C 
ATOM      9  H3  UNL d   1       1.912  -0.539  -1.495  0.00  0.00     0.395 HD
ENDBRANCH   1   7
TORSDOF 1
ENDMDL
