MODEL 1
REMARK minimizedAffinity -3.62733173
REMARK minimizedRMSD -1
REMARK  1 active torsions:
REMARK  status: ('A' for Active; 'I' for Inactive)
REMARK    1  A    between atoms: N_2  and  C1_3 
ROOT
ATOM      1  C1  UNL d   1      -0.260   0.169   0.182  0.00  0.00     0.143 A 
ATOM      2  C2  UNL d   1      -0.469  -0.118   1.535  0.00  0.00    -0.057 A 
ATOM      3  C3  UNL d   1      -1.354   0.640   2.310  0.00  0.00     0.033 A 
ATOM      4  C4  UNL d   1      -2.027   1.721   1.750  0.00  0.00    -0.042 A 
ATOM      5  C5  UNL d   1      -1.816   2.040   0.413  0.00  0.00     0.033 A 
ATOM      6  C6  UNL d   1      -0.936   1.275  -0.357  0.00  0.00    -0.057 A 
ENDROOT
BRANCH   1   7
ATOM      7  N   UNL d   1       0.682  -0.486  -0.616  0.00  0.00    -0.732 N 
ATOM      8  C   UNL d   1       0.298  -1.622  -1.427  0.00  0.00     0.284 C 
ATOM      9  H3  UNL d   1       1.315   0.161  -1.080  0.00  0.00     0.395 HD
ENDBRANCH   1   7
TORSDOF 1
ENDMDL
