MODEL 1
REMARK minimizedAffinity -3.90149999
REMARK minimizedRMSD -1
REMARK  1 active torsions:
REMARK  status: ('A' for Active; 'I' for Inactive)
REMARK    1  A    between atoms: N_2  and  C1_3 
ROOT
ATOM      1  C1  UNL d   1       0.253  -0.678  -0.088  0.00  0.00     0.143 A 
ATOM      2  C2  UNL d   1      -0.257   0.457  -0.727  0.00  0.00    -0.057 A 
ATOM      3  C3  UNL d   1      -1.039   1.390  -0.036  0.00  0.00     0.033 A 
ATOM      4  C4  UNL d   1      -1.351   1.187   1.305  0.00  0.00    -0.042 A 
ATOM      5  C5  UNL d   1      -0.876   0.053   1.954  0.00  0.00     0.033 A 
ATOM      6  C6  UNL d   1      -0.089  -0.871   1.260  0.00  0.00    -0.057 A 
ENDROOT
BRANCH   1   7
ATOM      7  N   UNL d   1       0.955  -1.692  -0.745  0.00  0.00    -0.732 N 
ATOM      8  C   UNL d   1       0.290  -2.543  -1.709  0.00  0.00     0.284 C 
ATOM      9  H3  UNL d   1       1.889  -1.401  -1.023  0.00  0.00     0.395 HD
ENDBRANCH   1   7
TORSDOF 1
ENDMDL
