MODEL 1
REMARK minimizedAffinity 4.33288574
REMARK minimizedRMSD -1
REMARK  0 active torsions:
REMARK  status: ('A' for Active; 'I' for Inactive)
ROOT
ATOM      1  C   UNL d   1       1.108   4.210  -4.536  0.00  0.00     0.078 C 
ATOM      2  C1  UNL d   1      -0.036   3.524  -3.850  0.00  0.00    -0.077 A 
ATOM      3  C2  UNL d   1       0.191   2.526  -2.894  0.00  0.00    -0.001 A 
ATOM      4  C3  UNL d   1      -0.883   1.890  -2.270  0.00  0.00     0.003 A 
ATOM      5  C4  UNL d   1      -2.191   2.243  -2.595  0.00  0.00    -0.005 A 
ATOM      6  C5  UNL d   1      -2.426   3.234  -3.546  0.00  0.00     0.003 A 
ATOM      7  C6  UNL d   1      -1.354   3.871  -4.172  0.00  0.00    -0.001 A 
ENDROOT
TORSDOF 0
ENDMDL
