MODEL 1
REMARK minimizedAffinity 4.28020334
REMARK minimizedRMSD -1
REMARK  0 active torsions:
REMARK  status: ('A' for Active; 'I' for Inactive)
ROOT
ATOM      1  C   UNL d   1      -0.712  -0.860  -1.131  0.00  0.00     0.078 C 
ATOM      2  C1  UNL d   1      -0.777   0.428  -1.897  0.00  0.00    -0.077 A 
ATOM      3  C2  UNL d   1      -1.221   0.455  -3.225  0.00  0.00    -0.001 A 
ATOM      4  C3  UNL d   1      -1.267   1.660  -3.929  0.00  0.00     0.003 A 
ATOM      5  C4  UNL d   1      -0.869   2.845  -3.314  0.00  0.00    -0.005 A 
ATOM      6  C5  UNL d   1      -0.423   2.827  -1.994  0.00  0.00     0.003 A 
ATOM      7  C6  UNL d   1      -0.377   1.624  -1.288  0.00  0.00    -0.001 A 
ENDROOT
TORSDOF 0
ENDMDL
