MODEL 1
REMARK minimizedAffinity 3.35755086
REMARK minimizedRMSD -1
REMARK  0 active torsions:
REMARK  status: ('A' for Active; 'I' for Inactive)
ROOT
ATOM      1  C   UNL d   1      -0.447  -1.621   2.990  0.00  0.00     0.078 C 
ATOM      2  C1  UNL d   1      -1.598  -0.841   2.429  0.00  0.00    -0.077 A 
ATOM      3  C2  UNL d   1      -2.191   0.196   3.160  0.00  0.00    -0.001 A 
ATOM      4  C3  UNL d   1      -3.268   0.908   2.629  0.00  0.00     0.003 A 
ATOM      5  C4  UNL d   1      -3.762   0.590   1.366  0.00  0.00    -0.005 A 
ATOM      6  C5  UNL d   1      -3.180  -0.442   0.632  0.00  0.00     0.003 A 
ATOM      7  C6  UNL d   1      -2.103  -1.154   1.161  0.00  0.00    -0.001 A 
ENDROOT
TORSDOF 0
ENDMDL
