MODEL 1
REMARK minimizedAffinity 2.48468423
REMARK minimizedRMSD -1
REMARK  0 active torsions:
REMARK  status: ('A' for Active; 'I' for Inactive)
ROOT
ATOM      1  C   UNL d   1      -3.370   1.595   3.725  0.00  0.00     0.078 C 
ATOM      2  C1  UNL d   1      -2.408   0.499   3.377  0.00  0.00    -0.077 A 
ATOM      3  C2  UNL d   1      -2.594  -0.287   2.233  0.00  0.00    -0.001 A 
ATOM      4  C3  UNL d   1      -1.695  -1.311   1.926  0.00  0.00     0.003 A 
ATOM      5  C4  UNL d   1      -0.606  -1.558   2.759  0.00  0.00    -0.005 A 
ATOM      6  C5  UNL d   1      -0.414  -0.782   3.900  0.00  0.00     0.003 A 
ATOM      7  C6  UNL d   1      -1.311   0.241   4.209  0.00  0.00    -0.001 A 
ENDROOT
TORSDOF 0
ENDMDL
