MODEL 1
REMARK minimizedAffinity 1.91329813
REMARK minimizedRMSD -1
REMARK  0 active torsions:
REMARK  status: ('A' for Active; 'I' for Inactive)
ROOT
ATOM      1  C   UNL d   1       2.723  -4.564   1.768  0.00  0.00     0.078 C 
ATOM      2  C1  UNL d   1       1.955  -3.283   1.635  0.00  0.00    -0.077 A 
ATOM      3  C2  UNL d   1       1.063  -2.869   2.632  0.00  0.00    -0.001 A 
ATOM      4  C3  UNL d   1       0.348  -1.680   2.490  0.00  0.00     0.003 A 
ATOM      5  C4  UNL d   1       0.516  -0.893   1.352  0.00  0.00    -0.005 A 
ATOM      6  C5  UNL d   1       1.399  -1.297   0.354  0.00  0.00     0.003 A 
ATOM      7  C6  UNL d   1       2.116  -2.487   0.494  0.00  0.00    -0.001 A 
ENDROOT
TORSDOF 0
ENDMDL
