MODEL 1
REMARK minimizedAffinity 8.54742241
REMARK minimizedRMSD -1
REMARK  0 active torsions:
REMARK  status: ('A' for Active; 'I' for Inactive)
ROOT
ATOM      1  C   UNL d   1       4.763  -1.184   0.417  0.00  0.00     0.078 C 
ATOM      2  C1  UNL d   1       3.491  -1.859   0.837  0.00  0.00    -0.077 A 
ATOM      3  C2  UNL d   1       2.245  -1.278   0.572  0.00  0.00    -0.001 A 
ATOM      4  C3  UNL d   1       1.070  -1.912   0.976  0.00  0.00     0.003 A 
ATOM      5  C4  UNL d   1       1.129  -3.131   1.649  0.00  0.00    -0.005 A 
ATOM      6  C5  UNL d   1       2.364  -3.716   1.919  0.00  0.00     0.003 A 
ATOM      7  C6  UNL d   1       3.540  -3.083   1.515  0.00  0.00    -0.001 A 
ENDROOT
TORSDOF 0
ENDMDL
