MODEL 1
REMARK minimizedAffinity 6.05532169
REMARK minimizedRMSD -1
REMARK  0 active torsions:
REMARK  status: ('A' for Active; 'I' for Inactive)
ROOT
ATOM      1  C   UNL d   1       2.670  -3.783   1.869  0.00  0.00     0.078 C 
ATOM      2  C1  UNL d   1       1.630  -2.772   1.487  0.00  0.00    -0.077 A 
ATOM      3  C2  UNL d   1       0.590  -2.441   2.365  0.00  0.00    -0.001 A 
ATOM      4  C3  UNL d   1      -0.376  -1.505   1.993  0.00  0.00     0.003 A 
ATOM      5  C4  UNL d   1      -0.313  -0.893   0.742  0.00  0.00    -0.005 A 
ATOM      6  C5  UNL d   1       0.717  -1.218  -0.138  0.00  0.00     0.003 A 
ATOM      7  C6  UNL d   1       1.684  -2.154   0.232  0.00  0.00    -0.001 A 
ENDROOT
TORSDOF 0
ENDMDL
