MODEL 1
REMARK minimizedAffinity 6.51524496
REMARK minimizedRMSD -1
REMARK  0 active torsions:
REMARK  status: ('A' for Active; 'I' for Inactive)
ROOT
ATOM      1  C   UNL d   1       2.120  -5.602   1.124  0.00  0.00     0.078 C 
ATOM      2  C1  UNL d   1       1.975  -4.113   1.232  0.00  0.00    -0.077 A 
ATOM      3  C2  UNL d   1       3.025  -3.259   0.871  0.00  0.00    -0.001 A 
ATOM      4  C3  UNL d   1       2.880  -1.875   0.986  0.00  0.00     0.003 A 
ATOM      5  C4  UNL d   1       1.688  -1.334   1.463  0.00  0.00    -0.005 A 
ATOM      6  C5  UNL d   1       0.639  -2.176   1.826  0.00  0.00     0.003 A 
ATOM      7  C6  UNL d   1       0.782  -3.560   1.712  0.00  0.00    -0.001 A 
ENDROOT
TORSDOF 0
ENDMDL
