MODEL 1
REMARK minimizedAffinity 10.84062
REMARK minimizedRMSD -1
REMARK  1 active torsions:
REMARK  status: ('A' for Active; 'I' for Inactive)
REMARK    1  A    between atoms: C1_2  and  C2_3 
ROOT
ATOM      1  C2  UNL d   1       1.622  -5.921   2.368  0.00  0.00    -0.081 A 
ATOM      2  C3  UNL d   1       2.255  -5.972   3.616  0.00  0.00     0.006 A 
ATOM      3  C4  UNL d   1       3.649  -5.999   3.703  0.00  0.00     0.002 A 
ATOM      4  C5  UNL d   1       4.433  -5.968   2.544  0.00  0.00    -0.080 A 
ATOM      5  C6  UNL d   1       5.930  -5.966   2.624  0.00  0.00     0.076 C 
ATOM      6  C7  UNL d   1       3.800  -5.935   1.297  0.00  0.00     0.002 A 
ATOM      7  C8  UNL d   1       2.406  -5.908   1.210  0.00  0.00     0.006 A 
ENDROOT
BRANCH   1   8
ATOM      8  C1  UNL d   1       0.121  -5.827   2.274  0.00  0.00     0.054 C 
ATOM      9  C   UNL d   1      -0.313  -4.504   1.659  0.00  0.00     0.018 C 
ENDBRANCH   1   8
TORSDOF 1
ENDMDL
