MODEL 1
REMARK minimizedAffinity 2.28506827
REMARK minimizedRMSD -1
REMARK  1 active torsions:
REMARK  status: ('A' for Active; 'I' for Inactive)
REMARK    1  A    between atoms: C1_2  and  C2_3 
ROOT
ATOM      1  C2  UNL d   1      -3.122   0.619   1.673  0.00  0.00    -0.081 A 
ATOM      2  C3  UNL d   1      -3.246   1.833   2.359  0.00  0.00     0.006 A 
ATOM      3  C4  UNL d   1      -2.140   2.405   2.993  0.00  0.00     0.002 A 
ATOM      4  C5  UNL d   1      -0.891   1.776   2.946  0.00  0.00    -0.080 A 
ATOM      5  C6  UNL d   1       0.310   2.394   3.597  0.00  0.00     0.076 C 
ATOM      6  C7  UNL d   1      -0.771   0.554   2.276  0.00  0.00     0.002 A 
ATOM      7  C8  UNL d   1      -1.876  -0.018   1.642  0.00  0.00     0.006 A 
ENDROOT
BRANCH   1   8
ATOM      8  C1  UNL d   1      -4.297   0.032   0.934  0.00  0.00     0.054 C 
ATOM      9  C   UNL d   1      -4.156  -1.475   0.778  0.00  0.00     0.018 C 
ENDBRANCH   1   8
TORSDOF 1
ENDMDL
