MODEL 1
REMARK minimizedAffinity 11.3829613
REMARK minimizedRMSD -1
REMARK  1 active torsions:
REMARK  status: ('A' for Active; 'I' for Inactive)
REMARK    1  A    between atoms: C1_2  and  C2_3 
ROOT
ATOM      1  C2  UNL d   1      -4.269   0.853   1.934  0.00  0.00    -0.081 A 
ATOM      2  C3  UNL d   1      -3.887   0.711   3.274  0.00  0.00     0.006 A 
ATOM      3  C4  UNL d   1      -2.557   0.442   3.606  0.00  0.00     0.002 A 
ATOM      4  C5  UNL d   1      -1.586   0.319   2.606  0.00  0.00    -0.080 A 
ATOM      5  C6  UNL d   1      -0.150   0.061   2.951  0.00  0.00     0.076 C 
ATOM      6  C7  UNL d   1      -1.971   0.444   1.267  0.00  0.00     0.002 A 
ATOM      7  C8  UNL d   1      -3.301   0.712   0.934  0.00  0.00     0.006 A 
ENDROOT
BRANCH   1   8
ATOM      8  C1  UNL d   1      -5.689   1.208   1.576  0.00  0.00     0.054 C 
ATOM      9  C   UNL d   1      -5.831   1.488   0.086  0.00  0.00     0.018 C 
ENDBRANCH   1   8
TORSDOF 1
ENDMDL
