MODEL 1
REMARK minimizedAffinity 5.54977131
REMARK minimizedRMSD -1
REMARK  1 active torsions:
REMARK  status: ('A' for Active; 'I' for Inactive)
REMARK    1  A    between atoms: C1_2  and  C2_3 
ROOT
ATOM      1  C2  UNL d   1      -2.166   0.858   2.136  0.00  0.00    -0.081 A 
ATOM      2  C3  UNL d   1      -1.162   0.429   1.259  0.00  0.00     0.006 A 
ATOM      3  C4  UNL d   1       0.130   0.182   1.728  0.00  0.00     0.002 A 
ATOM      4  C5  UNL d   1       0.439   0.353   3.081  0.00  0.00    -0.080 A 
ATOM      5  C6  UNL d   1       1.815   0.063   3.603  0.00  0.00     0.076 C 
ATOM      6  C7  UNL d   1      -0.559   0.799   3.955  0.00  0.00     0.002 A 
ATOM      7  C8  UNL d   1      -1.852   1.046   3.486  0.00  0.00     0.006 A 
ENDROOT
BRANCH   1   8
ATOM      8  C1  UNL d   1      -3.577   1.062   1.646  0.00  0.00     0.054 C 
ATOM      9  C   UNL d   1      -3.838   0.276   0.369  0.00  0.00     0.018 C 
ENDBRANCH   1   8
TORSDOF 1
ENDMDL
