MODEL 1
REMARK minimizedAffinity 12.8318901
REMARK minimizedRMSD -1
REMARK  1 active torsions:
REMARK  status: ('A' for Active; 'I' for Inactive)
REMARK    1  A    between atoms: C1_2  and  C2_3 
ROOT
ATOM      1  C2  UNL d   1      -2.960  -1.424  -5.939  0.00  0.00    -0.081 A 
ATOM      2  C3  UNL d   1      -4.357  -1.335  -5.921  0.00  0.00     0.006 A 
ATOM      3  C4  UNL d   1      -5.140  -2.491  -5.937  0.00  0.00     0.002 A 
ATOM      4  C5  UNL d   1      -4.540  -3.755  -5.963  0.00  0.00    -0.080 A 
ATOM      5  C6  UNL d   1      -5.370  -5.004  -5.950  0.00  0.00     0.076 C 
ATOM      6  C7  UNL d   1      -3.145  -3.843  -5.999  0.00  0.00     0.002 A 
ATOM      7  C8  UNL d   1      -2.361  -2.687  -5.983  0.00  0.00     0.006 A 
ENDROOT
BRANCH   1   8
ATOM      8  C1  UNL d   1      -2.111  -0.180  -5.856  0.00  0.00     0.054 C 
ATOM      9  C   UNL d   1      -0.637  -0.525  -5.700  0.00  0.00     0.018 C 
ENDBRANCH   1   8
TORSDOF 1
ENDMDL
