MODEL 1
REMARK minimizedAffinity 11.0794544
REMARK minimizedRMSD -1
REMARK  1 active torsions:
REMARK  status: ('A' for Active; 'I' for Inactive)
REMARK    1  A    between atoms: C1_2  and  C2_3 
ROOT
ATOM      1  C2  UNL d   1      -1.532   0.602   1.828  0.00  0.00    -0.081 A 
ATOM      2  C3  UNL d   1      -2.370   1.573   1.267  0.00  0.00     0.006 A 
ATOM      3  C4  UNL d   1      -3.733   1.596   1.574  0.00  0.00     0.002 A 
ATOM      4  C5  UNL d   1      -4.278   0.654   2.453  0.00  0.00    -0.080 A 
ATOM      5  C6  UNL d   1      -5.733   0.686   2.814  0.00  0.00     0.076 C 
ATOM      6  C7  UNL d   1      -3.444  -0.327   3.000  0.00  0.00     0.002 A 
ATOM      7  C8  UNL d   1      -2.082  -0.351   2.693  0.00  0.00     0.006 A 
ENDROOT
BRANCH   1   8
ATOM      8  C1  UNL d   1      -0.051   0.614   1.550  0.00  0.00     0.054 C 
ATOM      9  C   UNL d   1       0.755   0.539   2.839  0.00  0.00     0.018 C 
ENDBRANCH   1   8
TORSDOF 1
ENDMDL
