MODEL 1
REMARK minimizedAffinity 11.9498453
REMARK minimizedRMSD -1
REMARK  1 active torsions:
REMARK  status: ('A' for Active; 'I' for Inactive)
REMARK    1  A    between atoms: C1_2  and  C2_3 
ROOT
ATOM      1  C2  UNL d   1      -2.673   0.492   1.768  0.00  0.00    -0.081 A 
ATOM      2  C3  UNL d   1      -1.555  -0.128   1.197  0.00  0.00     0.006 A 
ATOM      3  C4  UNL d   1      -0.287   0.040   1.761  0.00  0.00     0.002 A 
ATOM      4  C5  UNL d   1      -0.119   0.824   2.907  0.00  0.00    -0.080 A 
ATOM      5  C6  UNL d   1       1.231   0.989   3.539  0.00  0.00     0.076 C 
ATOM      6  C7  UNL d   1      -1.233   1.458   3.466  0.00  0.00     0.002 A 
ATOM      7  C8  UNL d   1      -2.501   1.290   2.903  0.00  0.00     0.006 A 
ENDROOT
BRANCH   1   8
ATOM      8  C1  UNL d   1      -4.050   0.259   1.201  0.00  0.00     0.054 C 
ATOM      9  C   UNL d   1      -4.396  -1.223   1.177  0.00  0.00     0.018 C 
ENDBRANCH   1   8
TORSDOF 1
ENDMDL
