MODEL 1
REMARK minimizedAffinity 4.41289902
REMARK minimizedRMSD -1
REMARK  1 active torsions:
REMARK  status: ('A' for Active; 'I' for Inactive)
REMARK    1  A    between atoms: C1_2  and  C2_3 
ROOT
ATOM      1  C2  UNL d   1      -2.829   0.597   2.729  0.00  0.00    -0.081 A 
ATOM      2  C3  UNL d   1      -1.896  -0.410   3.000  0.00  0.00     0.006 A 
ATOM      3  C4  UNL d   1      -0.527  -0.159   2.877  0.00  0.00     0.002 A 
ATOM      4  C5  UNL d   1      -0.069   1.104   2.488  0.00  0.00    -0.080 A 
ATOM      5  C6  UNL d   1       1.398   1.395   2.381  0.00  0.00     0.076 C 
ATOM      6  C7  UNL d   1      -1.003   2.106   2.200  0.00  0.00     0.002 A 
ATOM      7  C8  UNL d   1      -2.371   1.855   2.322  0.00  0.00     0.006 A 
ENDROOT
BRANCH   1   8
ATOM      8  C1  UNL d   1      -4.303   0.349   2.924  0.00  0.00     0.054 C 
ATOM      9  C   UNL d   1      -4.937  -0.233   1.668  0.00  0.00     0.018 C 
ENDBRANCH   1   8
TORSDOF 1
ENDMDL
