MODEL 1
REMARK minimizedAffinity 7.08620596
REMARK minimizedRMSD -1
REMARK  1 active torsions:
REMARK  status: ('A' for Active; 'I' for Inactive)
REMARK    1  A    between atoms: C1_2  and  C2_3 
ROOT
ATOM      1  C2  UNL d   1      -4.243   0.259   2.471  0.00  0.00    -0.081 A 
ATOM      2  C3  UNL d   1      -3.769  -0.388   3.618  0.00  0.00     0.006 A 
ATOM      3  C4  UNL d   1      -2.397  -0.552   3.824  0.00  0.00     0.002 A 
ATOM      4  C5  UNL d   1      -1.477  -0.064   2.891  0.00  0.00    -0.080 A 
ATOM      5  C6  UNL d   1      -0.000  -0.205   3.115  0.00  0.00     0.076 C 
ATOM      6  C7  UNL d   1      -1.950   0.568   1.736  0.00  0.00     0.002 A 
ATOM      7  C8  UNL d   1      -3.321   0.731   1.529  0.00  0.00     0.006 A 
ENDROOT
BRANCH   1   8
ATOM      8  C1  UNL d   1      -5.719   0.494   2.277  0.00  0.00     0.054 C 
ATOM      9  C   UNL d   1      -5.999   1.195   0.955  0.00  0.00     0.018 C 
ENDBRANCH   1   8
TORSDOF 1
ENDMDL
