MODEL 1
REMARK minimizedAffinity 1.18211424
REMARK minimizedRMSD -1
REMARK  1 active torsions:
REMARK  status: ('A' for Active; 'I' for Inactive)
REMARK    1  A    between atoms: C1_2  and  C2_3 
ROOT
ATOM      1  C2  UNL d   1      -1.103   0.723   3.066  0.00  0.00    -0.081 A 
ATOM      2  C3  UNL d   1      -1.057   0.442   1.695  0.00  0.00     0.006 A 
ATOM      3  C4  UNL d   1      -2.237   0.291   0.963  0.00  0.00     0.002 A 
ATOM      4  C5  UNL d   1      -3.482   0.424   1.587  0.00  0.00    -0.080 A 
ATOM      5  C6  UNL d   1      -4.756   0.294   0.807  0.00  0.00     0.076 C 
ATOM      6  C7  UNL d   1      -3.528   0.687   2.961  0.00  0.00     0.002 A 
ATOM      7  C8  UNL d   1      -2.349   0.838   3.693  0.00  0.00     0.006 A 
ENDROOT
BRANCH   1   8
ATOM      8  C1  UNL d   1       0.167   0.951   3.845  0.00  0.00     0.054 C 
ATOM      9  C   UNL d   1       0.479   2.435   3.972  0.00  0.00     0.018 C 
ENDBRANCH   1   8
TORSDOF 1
ENDMDL
