MODEL 1
REMARK minimizedAffinity 6.30596113
REMARK minimizedRMSD -1
REMARK  1 active torsions:
REMARK  status: ('A' for Active; 'I' for Inactive)
REMARK    1  A    between atoms: C1_2  and  C2_3 
ROOT
ATOM      1  C2  UNL d   1      -1.722   0.656   1.949  0.00  0.00    -0.081 A 
ATOM      2  C3  UNL d   1      -2.325   1.526   2.866  0.00  0.00     0.006 A 
ATOM      3  C4  UNL d   1      -3.707   1.725   2.850  0.00  0.00     0.002 A 
ATOM      4  C5  UNL d   1      -4.511   1.051   1.924  0.00  0.00    -0.080 A 
ATOM      5  C6  UNL d   1      -6.000   1.233   1.916  0.00  0.00     0.076 C 
ATOM      6  C7  UNL d   1      -3.907   0.195   0.997  0.00  0.00     0.002 A 
ATOM      7  C8  UNL d   1      -2.525  -0.003   1.011  0.00  0.00     0.006 A 
ENDROOT
BRANCH   1   8
ATOM      8  C1  UNL d   1      -0.240   0.390   2.005  0.00  0.00     0.054 C 
ATOM      9  C   UNL d   1       0.278   0.441   3.436  0.00  0.00     0.018 C 
ENDBRANCH   1   8
TORSDOF 1
ENDMDL
