MODEL 1
REMARK minimizedAffinity 1.50424671
REMARK minimizedRMSD -1
REMARK  1 active torsions:
REMARK  status: ('A' for Active; 'I' for Inactive)
REMARK    1  A    between atoms: C1_2  and  C2_3 
ROOT
ATOM      1  C2  UNL d   1       4.368  -5.772   2.778  0.00  0.00    -0.081 A 
ATOM      2  C3  UNL d   1       4.108  -5.284   1.491  0.00  0.00     0.006 A 
ATOM      3  C4  UNL d   1       2.798  -5.018   1.086  0.00  0.00     0.002 A 
ATOM      4  C5  UNL d   1       1.727  -5.227   1.962  0.00  0.00    -0.080 A 
ATOM      5  C6  UNL d   1       0.319  -4.916   1.550  0.00  0.00     0.076 C 
ATOM      6  C7  UNL d   1       1.985  -5.730   3.241  0.00  0.00     0.002 A 
ATOM      7  C8  UNL d   1       3.295  -5.997   3.647  0.00  0.00     0.006 A 
ENDROOT
BRANCH   1   8
ATOM      8  C1  UNL d   1       5.784  -5.999   3.240  0.00  0.00     0.054 C 
ATOM      9  C   UNL d   1       5.878  -5.994   4.759  0.00  0.00     0.018 C 
ENDBRANCH   1   8
TORSDOF 1
ENDMDL
