MODEL 1
REMARK minimizedAffinity 3.9709928
REMARK minimizedRMSD -1
REMARK  1 active torsions:
REMARK  status: ('A' for Active; 'I' for Inactive)
REMARK    1  A    between atoms: C1_2  and  C2_3 
ROOT
ATOM      1  C2  UNL d   1       3.325  -0.095   1.662  0.00  0.00    -0.081 A 
ATOM      2  C3  UNL d   1       2.321   0.288   0.763  0.00  0.00     0.006 A 
ATOM      3  C4  UNL d   1       1.034   0.577   1.220  0.00  0.00     0.002 A 
ATOM      4  C5  UNL d   1       0.730   0.497   2.583  0.00  0.00    -0.080 A 
ATOM      5  C6  UNL d   1      -0.640   0.835   3.091  0.00  0.00     0.076 C 
ATOM      6  C7  UNL d   1       1.727   0.098   3.479  0.00  0.00     0.002 A 
ATOM      7  C8  UNL d   1       3.015  -0.192   3.023  0.00  0.00     0.006 A 
ENDROOT
BRANCH   1   8
ATOM      8  C1  UNL d   1       4.731  -0.345   1.180  0.00  0.00     0.054 C 
ATOM      9  C   UNL d   1       5.753  -0.005   2.255  0.00  0.00     0.018 C 
ENDBRANCH   1   8
TORSDOF 1
ENDMDL
