MODEL 1
REMARK minimizedAffinity 12.1545973
REMARK minimizedRMSD -1
REMARK  1 active torsions:
REMARK  status: ('A' for Active; 'I' for Inactive)
REMARK    1  A    between atoms: C1_2  and  C2_3 
ROOT
ATOM      1  C2  UNL d   1      -4.132   1.523   1.545  0.00  0.00    -0.081 A 
ATOM      2  C3  UNL d   1      -5.115   0.976   0.712  0.00  0.00     0.006 A 
ATOM      3  C4  UNL d   1      -4.952  -0.298   0.165  0.00  0.00     0.002 A 
ATOM      4  C5  UNL d   1      -3.807  -1.051   0.448  0.00  0.00    -0.080 A 
ATOM      5  C6  UNL d   1      -3.632  -2.432  -0.109  0.00  0.00     0.076 C 
ATOM      6  C7  UNL d   1      -2.816  -0.498   1.266  0.00  0.00     0.002 A 
ATOM      7  C8  UNL d   1      -2.978   0.777   1.813  0.00  0.00     0.006 A 
ENDROOT
BRANCH   1   8
ATOM      8  C1  UNL d   1      -4.334   2.871   2.189  0.00  0.00     0.054 C 
ATOM      9  C   UNL d   1      -5.541   2.865   3.116  0.00  0.00     0.018 C 
ENDBRANCH   1   8
TORSDOF 1
ENDMDL
