MODEL 1
REMARK minimizedAffinity 6.11544085
REMARK minimizedRMSD -1
REMARK  1 active torsions:
REMARK  status: ('A' for Active; 'I' for Inactive)
REMARK    1  A    between atoms: C1_2  and  C2_3 
ROOT
ATOM      1  C2  UNL d   1      -3.684  -1.611   0.568  0.00  0.00    -0.081 A 
ATOM      2  C3  UNL d   1      -2.458  -0.972   0.791  0.00  0.00     0.006 A 
ATOM      3  C4  UNL d   1      -2.394   0.183   1.575  0.00  0.00     0.002 A 
ATOM      4  C5  UNL d   1      -3.551   0.712   2.155  0.00  0.00    -0.080 A 
ATOM      5  C6  UNL d   1      -3.491   1.933   3.024  0.00  0.00     0.076 C 
ATOM      6  C7  UNL d   1      -4.778   0.083   1.919  0.00  0.00     0.002 A 
ATOM      7  C8  UNL d   1      -4.844  -1.070   1.134  0.00  0.00     0.006 A 
ENDROOT
BRANCH   1   8
ATOM      8  C1  UNL d   1      -3.747  -2.892  -0.223  0.00  0.00     0.054 C 
ATOM      9  C   UNL d   1      -2.740  -3.911   0.291  0.00  0.00     0.018 C 
ENDBRANCH   1   8
TORSDOF 1
ENDMDL
