MODEL 1
REMARK minimizedAffinity -2.83414888
REMARK minimizedRMSD -1
REMARK  0 active torsions:
REMARK  status: ('A' for Active; 'I' for Inactive)
ROOT
ATOM      1  C   UNL d   1      -1.730   1.473   1.807  0.00  0.00     0.172 C 
ATOM      2  N   UNL d   1      -0.859   0.569   1.094  0.00  0.00    -0.070 N 
ATOM      3  C1  UNL d   1      -0.275  -0.554   1.616  0.00  0.00    -0.004 A 
ATOM      4  C2  UNL d   1       0.477  -1.140   0.620  0.00  0.00    -0.047 A 
ATOM      5  C3  UNL d   1       0.342  -0.340  -0.539  0.00  0.00    -0.047 A 
ATOM      6  C4  UNL d   1      -0.491   0.711  -0.218  0.00  0.00    -0.004 A 
ENDROOT
TORSDOF 0
ENDMDL
