MODEL 1
REMARK minimizedAffinity -2.98567557
REMARK minimizedRMSD -1
REMARK  0 active torsions:
REMARK  status: ('A' for Active; 'I' for Inactive)
ROOT
ATOM      1  C   UNL d   1       1.535  -0.439  -0.753  0.00  0.00     0.172 C 
ATOM      2  N   UNL d   1       0.493   0.110   0.082  0.00  0.00    -0.070 N 
ATOM      3  C1  UNL d   1      -0.519   0.931  -0.339  0.00  0.00    -0.004 A 
ATOM      4  C2  UNL d   1      -1.301   1.233   0.754  0.00  0.00    -0.047 A 
ATOM      5  C3  UNL d   1      -0.739   0.571   1.872  0.00  0.00    -0.047 A 
ATOM      6  C4  UNL d   1       0.370  -0.116   1.428  0.00  0.00    -0.004 A 
ENDROOT
TORSDOF 0
ENDMDL
