MODEL 1
REMARK minimizedAffinity -3.26726913
REMARK minimizedRMSD -1
REMARK  0 active torsions:
REMARK  status: ('A' for Active; 'I' for Inactive)
ROOT
ATOM      1  C   UNL d   1      -1.995   2.077   1.606  0.00  0.00     0.172 C 
ATOM      2  N   UNL d   1      -1.017   1.362   0.820  0.00  0.00    -0.070 N 
ATOM      3  C1  UNL d   1      -0.533   0.111   1.096  0.00  0.00    -0.004 A 
ATOM      4  C2  UNL d   1       0.377  -0.216   0.113  0.00  0.00    -0.047 A 
ATOM      5  C3  UNL d   1       0.442   0.877  -0.783  0.00  0.00    -0.047 A 
ATOM      6  C4  UNL d   1      -0.431   1.840  -0.322  0.00  0.00    -0.004 A 
ENDROOT
TORSDOF 0
ENDMDL
