MODEL 1
REMARK minimizedAffinity -3.70060611
REMARK minimizedRMSD -1
REMARK  0 active torsions:
REMARK  status: ('A' for Active; 'I' for Inactive)
ROOT
ATOM      1  C   UNL d   1      -0.238  -0.621   1.976  0.00  0.00     0.172 C 
ATOM      2  N   UNL d   1      -0.410   0.493   1.074  0.00  0.00    -0.070 N 
ATOM      3  C1  UNL d   1      -1.333   1.495   1.210  0.00  0.00    -0.004 A 
ATOM      4  C2  UNL d   1      -1.176   2.361   0.149  0.00  0.00    -0.047 A 
ATOM      5  C3  UNL d   1      -0.122   1.861  -0.652  0.00  0.00    -0.047 A 
ATOM      6  C4  UNL d   1       0.334   0.704  -0.057  0.00  0.00    -0.004 A 
ENDROOT
TORSDOF 0
ENDMDL
