MODEL 1
REMARK minimizedAffinity -2.23306441
REMARK minimizedRMSD -1
REMARK  0 active torsions:
REMARK  status: ('A' for Active; 'I' for Inactive)
ROOT
ATOM      1  C   UNL d   1       0.740  -0.906  -0.817  0.00  0.00     0.172 C 
ATOM      2  N   UNL d   1      -0.104  -0.067   0.002  0.00  0.00    -0.070 N 
ATOM      3  C1  UNL d   1      -0.539   1.189  -0.325  0.00  0.00    -0.004 A 
ATOM      4  C2  UNL d   1      -1.319   1.650   0.714  0.00  0.00    -0.047 A 
ATOM      5  C3  UNL d   1      -1.353   0.635   1.699  0.00  0.00    -0.047 A 
ATOM      6  C4  UNL d   1      -0.593  -0.417   1.233  0.00  0.00    -0.004 A 
ENDROOT
TORSDOF 0
ENDMDL
