MODEL 1
REMARK minimizedAffinity -2.85526562
REMARK minimizedRMSD -1
REMARK  0 active torsions:
REMARK  status: ('A' for Active; 'I' for Inactive)
ROOT
ATOM      1  C   UNL d   1       0.640  -0.833  -0.809  0.00  0.00     0.172 C 
ATOM      2  N   UNL d   1      -0.104  -0.082   0.174  0.00  0.00    -0.070 N 
ATOM      3  C1  UNL d   1      -0.063  -0.280   1.528  0.00  0.00    -0.004 A 
ATOM      4  C2  UNL d   1      -0.910   0.636   2.115  0.00  0.00    -0.047 A 
ATOM      5  C3  UNL d   1      -1.480   1.411   1.077  0.00  0.00    -0.047 A 
ATOM      6  C4  UNL d   1      -0.964   0.945  -0.114  0.00  0.00    -0.004 A 
ENDROOT
TORSDOF 0
ENDMDL
