MODEL 1
REMARK minimizedAffinity -1.88069463
REMARK minimizedRMSD -1
REMARK  0 active torsions:
REMARK  status: ('A' for Active; 'I' for Inactive)
ROOT
ATOM      1  C   UNL d   1       0.626  -0.653   0.446  0.00  0.00     0.172 C 
ATOM      2  N   UNL d   1      -0.102   0.429  -0.173  0.00  0.00    -0.070 N 
ATOM      3  C1  UNL d   1       0.421   1.347  -1.045  0.00  0.00    -0.004 A 
ATOM      4  C2  UNL d   1      -0.592   2.209  -1.408  0.00  0.00    -0.047 A 
ATOM      5  C3  UNL d   1      -1.763   1.795  -0.730  0.00  0.00    -0.047 A 
ATOM      6  C4  UNL d   1      -1.431   0.691   0.027  0.00  0.00    -0.004 A 
ENDROOT
TORSDOF 0
ENDMDL
