MODEL 1
REMARK minimizedAffinity -3.98309731
REMARK minimizedRMSD -1
REMARK  0 active torsions:
REMARK  status: ('A' for Active; 'I' for Inactive)
ROOT
ATOM      1  C   UNL d   1       0.945  -0.069  -0.705  0.00  0.00     0.172 C 
ATOM      2  N   UNL d   1       0.005   0.885  -0.165  0.00  0.00    -0.070 N 
ATOM      3  C1  UNL d   1      -0.145   2.181  -0.582  0.00  0.00    -0.004 A 
ATOM      4  C2  UNL d   1      -1.139   2.757   0.179  0.00  0.00    -0.047 A 
ATOM      5  C3  UNL d   1      -1.601   1.774   1.086  0.00  0.00    -0.047 A 
ATOM      6  C4  UNL d   1      -0.876   0.625   0.851  0.00  0.00    -0.004 A 
ENDROOT
TORSDOF 0
ENDMDL
