MODEL 1
REMARK minimizedAffinity -3.12877202
REMARK minimizedRMSD -1
REMARK  0 active torsions:
REMARK  status: ('A' for Active; 'I' for Inactive)
ROOT
ATOM      1  C   UNL d   1      -1.392   1.846   0.025  0.00  0.00     0.172 C 
ATOM      2  N   UNL d   1      -0.388   0.818   0.167  0.00  0.00    -0.070 N 
ATOM      3  C1  UNL d   1      -0.249  -0.019   1.242  0.00  0.00    -0.004 A 
ATOM      4  C2  UNL d   1       0.821  -0.852   0.993  0.00  0.00    -0.047 A 
ATOM      5  C3  UNL d   1       1.342  -0.503  -0.276  0.00  0.00    -0.047 A 
ATOM      6  C4  UNL d   1       0.576   0.533  -0.764  0.00  0.00    -0.004 A 
ENDROOT
TORSDOF 0
ENDMDL
