MODEL 1
REMARK minimizedAffinity -3.98488402
REMARK minimizedRMSD -1
REMARK  0 active torsions:
REMARK  status: ('A' for Active; 'I' for Inactive)
ROOT
ATOM      1  C   UNL d   1      -0.168  -0.342  -0.035  0.00  0.00     0.172 C 
ATOM      2  N   UNL d   1      -0.705   0.950   0.323  0.00  0.00    -0.070 N 
ATOM      3  C1  UNL d   1      -0.636   2.083  -0.441  0.00  0.00    -0.004 A 
ATOM      4  C2  UNL d   1      -1.263   3.098   0.250  0.00  0.00    -0.047 A 
ATOM      5  C3  UNL d   1      -1.725   2.555   1.472  0.00  0.00    -0.047 A 
ATOM      6  C4  UNL d   1      -1.366   1.223   1.492  0.00  0.00    -0.004 A 
ENDROOT
TORSDOF 0
ENDMDL
