MODEL 1
REMARK minimizedAffinity -3.32059479
REMARK minimizedRMSD -1
REMARK  0 active torsions:
REMARK  status: ('A' for Active; 'I' for Inactive)
ROOT
ATOM      1  C   UNL d   1      -1.194   1.254   1.905  0.00  0.00     0.172 C 
ATOM      2  N   UNL d   1      -0.320   0.514   1.025  0.00  0.00    -0.070 N 
ATOM      3  C1  UNL d   1       0.446  -0.563   1.382  0.00  0.00    -0.004 A 
ATOM      4  C2  UNL d   1       1.132  -0.982   0.262  0.00  0.00    -0.047 A 
ATOM      5  C3  UNL d   1       0.766  -0.127  -0.804  0.00  0.00    -0.047 A 
ATOM      6  C4  UNL d   1      -0.134   0.790  -0.304  0.00  0.00    -0.004 A 
ENDROOT
TORSDOF 0
ENDMDL
