MODEL 1
REMARK minimizedAffinity -3.53116536
REMARK minimizedRMSD -1
REMARK  0 active torsions:
REMARK  status: ('A' for Active; 'I' for Inactive)
ROOT
ATOM      1  C   UNL d   1       0.360  -0.869  -0.416  0.00  0.00     0.172 C 
ATOM      2  N   UNL d   1      -0.179   0.025   0.581  0.00  0.00    -0.070 N 
ATOM      3  C1  UNL d   1      -0.887   1.170   0.328  0.00  0.00    -0.004 A 
ATOM      4  C2  UNL d   1      -1.222   1.736   1.539  0.00  0.00    -0.047 A 
ATOM      5  C3  UNL d   1      -0.696   0.904   2.555  0.00  0.00    -0.047 A 
ATOM      6  C4  UNL d   1      -0.055  -0.148   1.935  0.00  0.00    -0.004 A 
ENDROOT
TORSDOF 0
ENDMDL
