MODEL 1
REMARK minimizedAffinity -2.70446229
REMARK minimizedRMSD -1
REMARK  0 active torsions:
REMARK  status: ('A' for Active; 'I' for Inactive)
ROOT
ATOM      1  C   UNL d   1       0.957  -0.882  -0.834  0.00  0.00     0.172 C 
ATOM      2  N   UNL d   1       0.152  -0.020  -0.002  0.00  0.00    -0.070 N 
ATOM      3  C1  UNL d   1      -0.828   0.828  -0.443  0.00  0.00    -0.004 A 
ATOM      4  C2  UNL d   1      -1.357   1.470   0.655  0.00  0.00    -0.047 A 
ATOM      5  C3  UNL d   1      -0.670   0.993   1.797  0.00  0.00    -0.047 A 
ATOM      6  C4  UNL d   1       0.258   0.071   1.361  0.00  0.00    -0.004 A 
ENDROOT
TORSDOF 0
ENDMDL
