MODEL 1
REMARK minimizedAffinity -3.70988202
REMARK minimizedRMSD -1
REMARK  0 active torsions:
REMARK  status: ('A' for Active; 'I' for Inactive)
ROOT
ATOM      1  C   UNL d   1      -1.969   2.040   0.764  0.00  0.00     0.172 C 
ATOM      2  N   UNL d   1      -0.805   1.389   0.210  0.00  0.00    -0.070 N 
ATOM      3  C1  UNL d   1      -0.395   0.113   0.490  0.00  0.00    -0.004 A 
ATOM      4  C2  UNL d   1       0.750  -0.131  -0.237  0.00  0.00    -0.047 A 
ATOM      5  C3  UNL d   1       1.038   1.039  -0.979  0.00  0.00    -0.047 A 
ATOM      6  C4  UNL d   1       0.059   1.964  -0.684  0.00  0.00    -0.004 A 
ENDROOT
TORSDOF 0
ENDMDL
