MODEL 1
REMARK minimizedAffinity -3.13253593
REMARK minimizedRMSD -1
REMARK  0 active torsions:
REMARK  status: ('A' for Active; 'I' for Inactive)
ROOT
ATOM      1  C   UNL d   1       0.531  -1.890  -1.596  0.00  0.00     0.172 C 
ATOM      2  N   UNL d   1       0.049  -0.694  -0.946  0.00  0.00    -0.070 N 
ATOM      3  C1  UNL d   1       0.827   0.346  -0.510  0.00  0.00    -0.004 A 
ATOM      4  C2  UNL d   1      -0.006   1.289   0.051  0.00  0.00    -0.047 A 
ATOM      5  C3  UNL d   1      -1.330   0.799  -0.050  0.00  0.00    -0.047 A 
ATOM      6  C4  UNL d   1      -1.267  -0.430  -0.671  0.00  0.00    -0.004 A 
ENDROOT
TORSDOF 0
ENDMDL
