MODEL 1
REMARK minimizedAffinity -2.22009635
REMARK minimizedRMSD -1
REMARK  0 active torsions:
REMARK  status: ('A' for Active; 'I' for Inactive)
ROOT
ATOM      1  C   UNL d   1       0.718  -1.520  -1.116  0.00  0.00     0.172 C 
ATOM      2  N   UNL d   1       0.029  -0.570  -0.274  0.00  0.00    -0.070 N 
ATOM      3  C1  UNL d   1       0.033  -0.569   1.096  0.00  0.00    -0.004 A 
ATOM      4  C2  UNL d   1      -0.738   0.493   1.519  0.00  0.00    -0.047 A 
ATOM      5  C3  UNL d   1      -1.222   1.151   0.363  0.00  0.00    -0.047 A 
ATOM      6  C4  UNL d   1      -0.732   0.473  -0.732  0.00  0.00    -0.004 A 
ENDROOT
TORSDOF 0
ENDMDL
