MODEL 1
REMARK minimizedAffinity -3.99702501
REMARK minimizedRMSD -1
REMARK  0 active torsions:
REMARK  status: ('A' for Active; 'I' for Inactive)
ROOT
ATOM      1  C   UNL d   1       0.694  -0.330  -0.320  0.00  0.00     0.172 C 
ATOM      2  N   UNL d   1      -0.395   0.417   0.265  0.00  0.00    -0.070 N 
ATOM      3  C1  UNL d   1      -1.228  -0.029   1.256  0.00  0.00    -0.004 A 
ATOM      4  C2  UNL d   1      -2.128   0.976   1.535  0.00  0.00    -0.047 A 
ATOM      5  C3  UNL d   1      -1.826   2.064   0.682  0.00  0.00    -0.047 A 
ATOM      6  C4  UNL d   1      -0.749   1.691  -0.093  0.00  0.00    -0.004 A 
ENDROOT
TORSDOF 0
ENDMDL
