MODEL 1
REMARK minimizedAffinity -2.95594144
REMARK minimizedRMSD -1
REMARK  0 active torsions:
REMARK  status: ('A' for Active; 'I' for Inactive)
ROOT
ATOM      1  C   UNL d   1       5.450   4.284   6.000  0.00  0.00     0.077 C 
ATOM      2  C1  UNL d   1       4.290   4.873   5.254  0.00  0.00    -0.074 A 
ATOM      3  C2  UNL d   1       4.375   5.133   3.882  0.00  0.00    -0.005 A 
ATOM      4  C3  UNL d   1       3.285   5.673   3.200  0.00  0.00     0.006 A 
ATOM      5  C4  UNL d   1       2.101   5.958   3.881  0.00  0.00    -0.005 A 
ATOM      6  C5  UNL d   1       1.997   5.705   5.252  0.00  0.00    -0.074 A 
ATOM      7  C6  UNL d   1       0.729   5.997   5.997  0.00  0.00     0.077 C 
ATOM      8  C7  UNL d   1       3.095   5.156   5.929  0.00  0.00    -0.001 A 
ENDROOT
TORSDOF 0
ENDMDL
