MODEL 1
REMARK minimizedAffinity -0.89668709
REMARK minimizedRMSD -1
REMARK  0 active torsions:
REMARK  status: ('A' for Active; 'I' for Inactive)
ROOT
ATOM      1  C   UNL d   1       3.666   1.476   5.999  0.00  0.00     0.077 C 
ATOM      2  C1  UNL d   1       3.454   2.961   6.000  0.00  0.00    -0.074 A 
ATOM      3  C2  UNL d   1       4.540   3.842   5.984  0.00  0.00    -0.005 A 
ATOM      4  C3  UNL d   1       4.327   5.221   5.975  0.00  0.00     0.006 A 
ATOM      5  C4  UNL d   1       3.028   5.731   5.983  0.00  0.00    -0.005 A 
ATOM      6  C5  UNL d   1       1.930   4.865   5.998  0.00  0.00    -0.074 A 
ATOM      7  C6  UNL d   1       0.528   5.397   5.996  0.00  0.00     0.077 C 
ATOM      8  C7  UNL d   1       2.152   3.481   5.999  0.00  0.00    -0.001 A 
ENDROOT
TORSDOF 0
ENDMDL
