MODEL 1
REMARK minimizedAffinity 4.30463982
REMARK minimizedRMSD -1
REMARK  0 active torsions:
REMARK  status: ('A' for Active; 'I' for Inactive)
ROOT
ATOM      1  C   UNL d   1       0.026   1.977  -1.078  0.00  0.00     0.077 C 
ATOM      2  C1  UNL d   1      -1.316   1.314  -0.982  0.00  0.00    -0.074 A 
ATOM      3  C2  UNL d   1      -1.690   0.313  -1.884  0.00  0.00    -0.005 A 
ATOM      4  C3  UNL d   1      -2.938  -0.301  -1.776  0.00  0.00     0.006 A 
ATOM      5  C4  UNL d   1      -3.823   0.080  -0.766  0.00  0.00    -0.005 A 
ATOM      6  C5  UNL d   1      -3.466   1.078   0.146  0.00  0.00    -0.074 A 
ATOM      7  C6  UNL d   1      -4.402   1.492   1.243  0.00  0.00     0.077 C 
ATOM      8  C7  UNL d   1      -2.208   1.685   0.035  0.00  0.00    -0.001 A 
ENDROOT
TORSDOF 0
ENDMDL
