MODEL 1
REMARK minimizedAffinity 3.04523683
REMARK minimizedRMSD -1
REMARK  0 active torsions:
REMARK  status: ('A' for Active; 'I' for Inactive)
ROOT
ATOM      1  C   UNL d   1       1.964   6.000   5.252  0.00  0.00     0.077 C 
ATOM      2  C1  UNL d   1       0.649   5.313   5.035  0.00  0.00    -0.074 A 
ATOM      3  C2  UNL d   1      -0.373   5.399   5.986  0.00  0.00    -0.005 A 
ATOM      4  C3  UNL d   1      -1.595   4.763   5.765  0.00  0.00     0.006 A 
ATOM      5  C4  UNL d   1      -1.807   4.036   4.593  0.00  0.00    -0.005 A 
ATOM      6  C5  UNL d   1      -0.797   3.940   3.630  0.00  0.00    -0.074 A 
ATOM      7  C6  UNL d   1      -1.012   3.170   2.361  0.00  0.00     0.077 C 
ATOM      8  C7  UNL d   1       0.425   4.587   3.856  0.00  0.00    -0.001 A 
ENDROOT
TORSDOF 0
ENDMDL
