MODEL 1
REMARK minimizedAffinity -4.06673431
REMARK minimizedRMSD -1
REMARK  1 active torsions:
REMARK  status: ('A' for Active; 'I' for Inactive)
REMARK    1  A    between atoms: C1_2  and  C2_3 
ROOT
ATOM      1  C2  UNL d   1      -1.596  -0.234   1.862  0.00  0.00    -0.081 A 
ATOM      2  C3  UNL d   1      -1.664   0.611   0.747  0.00  0.00     0.006 A 
ATOM      3  C4  UNL d   1      -0.648   0.601  -0.211  0.00  0.00     0.002 A 
ATOM      4  C5  UNL d   1       0.447  -0.259  -0.076  0.00  0.00    -0.080 A 
ATOM      5  C6  UNL d   1       1.529  -0.302  -1.114  0.00  0.00     0.076 C 
ATOM      6  C7  UNL d   1       0.523  -1.091   1.047  0.00  0.00     0.002 A 
ATOM      7  C8  UNL d   1      -0.492  -1.080   2.006  0.00  0.00     0.006 A 
ENDROOT
BRANCH   1   8
ATOM      8  C1  UNL d   1      -2.722  -0.272   2.864  0.00  0.00     0.054 C 
ATOM      9  C   UNL d   1      -4.070  -0.429   2.177  0.00  0.00     0.018 C 
ENDBRANCH   1   8
TORSDOF 1
ENDMDL
