MODEL 1
REMARK minimizedAffinity -1.83062649
REMARK minimizedRMSD -1
REMARK  1 active torsions:
REMARK  status: ('A' for Active; 'I' for Inactive)
REMARK    1  A    between atoms: C1_2  and  C2_3 
ROOT
ATOM      1  C2  UNL d   1      -1.042   0.208   1.375  0.00  0.00    -0.081 A 
ATOM      2  C3  UNL d   1      -0.883   1.236   0.438  0.00  0.00     0.006 A 
ATOM      3  C4  UNL d   1       0.100   1.147  -0.551  0.00  0.00     0.002 A 
ATOM      4  C5  UNL d   1       0.935   0.027  -0.623  0.00  0.00    -0.080 A 
ATOM      5  C6  UNL d   1       1.974  -0.094  -1.698  0.00  0.00     0.076 C 
ATOM      6  C7  UNL d   1       0.788  -0.992   0.324  0.00  0.00     0.002 A 
ATOM      7  C8  UNL d   1      -0.195  -0.904   1.312  0.00  0.00     0.006 A 
ENDROOT
BRANCH   1   8
ATOM      8  C1  UNL d   1      -2.144   0.270   2.402  0.00  0.00     0.054 C 
ATOM      9  C   UNL d   1      -3.408  -0.411   1.899  0.00  0.00     0.018 C 
ENDBRANCH   1   8
TORSDOF 1
ENDMDL
