MODEL 1
REMARK minimizedAffinity -2.48337388
REMARK minimizedRMSD -1
REMARK  1 active torsions:
REMARK  status: ('A' for Active; 'I' for Inactive)
REMARK    1  A    between atoms: C1_2  and  C2_3 
ROOT
ATOM      1  C2  UNL d   1      -0.938   0.588   1.234  0.00  0.00    -0.081 A 
ATOM      2  C3  UNL d   1      -0.286   1.793   0.940  0.00  0.00     0.006 A 
ATOM      3  C4  UNL d   1       0.628   1.865  -0.113  0.00  0.00     0.002 A 
ATOM      4  C5  UNL d   1       0.901   0.737  -0.895  0.00  0.00    -0.080 A 
ATOM      5  C6  UNL d   1       1.858   0.808  -2.047  0.00  0.00     0.076 C 
ATOM      6  C7  UNL d   1       0.263  -0.471  -0.591  0.00  0.00     0.002 A 
ATOM      7  C8  UNL d   1      -0.651  -0.543   0.462  0.00  0.00     0.006 A 
ENDROOT
BRANCH   1   8
ATOM      8  C1  UNL d   1      -1.973   0.524   2.327  0.00  0.00     0.054 C 
ATOM      9  C   UNL d   1      -2.983   1.655   2.201  0.00  0.00     0.018 C 
ENDBRANCH   1   8
TORSDOF 1
ENDMDL
