MODEL 1
REMARK minimizedAffinity -4.3276
REMARK minimizedRMSD -1
REMARK  1 active torsions:
REMARK  status: ('A' for Active; 'I' for Inactive)
REMARK    1  A    between atoms: C1_2  and  C2_3 
ROOT
ATOM      1  C2  UNL d   1       0.442  -0.354   0.142  0.00  0.00    -0.081 A 
ATOM      2  C3  UNL d   1       0.901   0.875  -0.349  0.00  0.00     0.006 A 
ATOM      3  C4  UNL d   1       1.490   0.956  -1.613  0.00  0.00     0.002 A 
ATOM      4  C5  UNL d   1       1.623  -0.186  -2.410  0.00  0.00    -0.080 A 
ATOM      5  C6  UNL d   1       2.226  -0.107  -3.781  0.00  0.00     0.076 C 
ATOM      6  C7  UNL d   1       1.181  -1.417  -1.912  0.00  0.00     0.002 A 
ATOM      7  C8  UNL d   1       0.592  -1.499  -0.648  0.00  0.00     0.006 A 
ENDROOT
BRANCH   1   8
ATOM      8  C1  UNL d   1      -0.252  -0.434   1.478  0.00  0.00     0.054 C 
ATOM      9  C   UNL d   1      -1.733  -0.106   1.352  0.00  0.00     0.018 C 
ENDBRANCH   1   8
TORSDOF 1
ENDMDL
