MODEL 1
REMARK minimizedAffinity -2.93054295
REMARK minimizedRMSD -1
REMARK  1 active torsions:
REMARK  status: ('A' for Active; 'I' for Inactive)
REMARK    1  A    between atoms: C1_2  and  C2_3 
ROOT
ATOM      1  C2  UNL d   1      -1.309   0.432   1.203  0.00  0.00    -0.081 A 
ATOM      2  C3  UNL d   1      -0.039   0.037   1.642  0.00  0.00     0.006 A 
ATOM      3  C4  UNL d   1       1.076   0.196   0.816  0.00  0.00     0.002 A 
ATOM      4  C5  UNL d   1       0.941   0.758  -0.458  0.00  0.00    -0.080 A 
ATOM      5  C6  UNL d   1       2.135   0.962  -1.343  0.00  0.00     0.076 C 
ATOM      6  C7  UNL d   1      -0.330   1.137  -0.903  0.00  0.00     0.002 A 
ATOM      7  C8  UNL d   1      -1.445   0.977  -0.078  0.00  0.00     0.006 A 
ENDROOT
BRANCH   1   8
ATOM      8  C1  UNL d   1      -2.504   0.321   2.116  0.00  0.00     0.054 C 
ATOM      9  C   UNL d   1      -3.719  -0.216   1.375  0.00  0.00     0.018 C 
ENDBRANCH   1   8
TORSDOF 1
ENDMDL
