MODEL 1
REMARK minimizedAffinity -3.13230681
REMARK minimizedRMSD -1
REMARK  1 active torsions:
REMARK  status: ('A' for Active; 'I' for Inactive)
REMARK    1  A    between atoms: C1_2  and  C2_3 
ROOT
ATOM      1  C2  UNL d   1      -0.276   0.508   0.060  0.00  0.00    -0.081 A 
ATOM      2  C3  UNL d   1      -1.429   0.808  -0.676  0.00  0.00     0.006 A 
ATOM      3  C4  UNL d   1      -2.671   0.894  -0.042  0.00  0.00     0.002 A 
ATOM      4  C5  UNL d   1      -2.779   0.691   1.338  0.00  0.00    -0.080 A 
ATOM      5  C6  UNL d   1      -4.101   0.811   2.036  0.00  0.00     0.076 C 
ATOM      6  C7  UNL d   1      -1.629   0.375   2.070  0.00  0.00     0.002 A 
ATOM      7  C8  UNL d   1      -0.388   0.287   1.437  0.00  0.00     0.006 A 
ENDROOT
BRANCH   1   8
ATOM      8  C1  UNL d   1       1.074   0.478  -0.610  0.00  0.00     0.054 C 
ATOM      9  C   UNL d   1       1.245   1.652  -1.564  0.00  0.00     0.018 C 
ENDBRANCH   1   8
TORSDOF 1
ENDMDL
