MODEL 1
REMARK minimizedAffinity -1.91116929
REMARK minimizedRMSD -1
REMARK  1 active torsions:
REMARK  status: ('A' for Active; 'I' for Inactive)
REMARK    1  A    between atoms: C1_2  and  C2_3 
ROOT
ATOM      1  C2  UNL d   1       1.649  -0.344  -1.312  0.00  0.00    -0.081 A 
ATOM      2  C3  UNL d   1       1.457   1.000  -0.969  0.00  0.00     0.006 A 
ATOM      3  C4  UNL d   1       0.543   1.353   0.026  0.00  0.00     0.002 A 
ATOM      4  C5  UNL d   1      -0.189   0.369   0.700  0.00  0.00    -0.080 A 
ATOM      5  C6  UNL d   1      -1.151   0.732   1.791  0.00  0.00     0.076 C 
ATOM      6  C7  UNL d   1      -0.010  -0.973   0.345  0.00  0.00     0.002 A 
ATOM      7  C8  UNL d   1       0.904  -1.326  -0.650  0.00  0.00     0.006 A 
ENDROOT
BRANCH   1   8
ATOM      8  C1  UNL d   1       2.682  -0.733  -2.339  0.00  0.00     0.054 C 
ATOM      9  C   UNL d   1       3.120  -2.180  -2.163  0.00  0.00     0.018 C 
ENDBRANCH   1   8
TORSDOF 1
ENDMDL
