MODEL 1
REMARK minimizedAffinity -1.0544759
REMARK minimizedRMSD -1
REMARK  1 active torsions:
REMARK  status: ('A' for Active; 'I' for Inactive)
REMARK    1  A    between atoms: C1_2  and  C2_3 
ROOT
ATOM      1  C2  UNL d   1      -1.207   0.182   0.983  0.00  0.00    -0.081 A 
ATOM      2  C3  UNL d   1      -0.387  -0.951   0.924  0.00  0.00     0.006 A 
ATOM      3  C4  UNL d   1       0.732  -0.973   0.088  0.00  0.00     0.002 A 
ATOM      4  C5  UNL d   1       1.054   0.140  -0.696  0.00  0.00    -0.080 A 
ATOM      5  C6  UNL d   1       2.270   0.140  -1.574  0.00  0.00     0.076 C 
ATOM      6  C7  UNL d   1       0.226   1.266  -0.649  0.00  0.00     0.002 A 
ATOM      7  C8  UNL d   1      -0.894   1.288   0.186  0.00  0.00     0.006 A 
ENDROOT
BRANCH   1   8
ATOM      8  C1  UNL d   1      -2.377   0.233   1.932  0.00  0.00     0.054 C 
ATOM      9  C   UNL d   1      -3.460  -0.758   1.528  0.00  0.00     0.018 C 
ENDBRANCH   1   8
TORSDOF 1
ENDMDL
