MODEL 1
REMARK minimizedAffinity -3.60377622
REMARK minimizedRMSD -1
REMARK  1 active torsions:
REMARK  status: ('A' for Active; 'I' for Inactive)
REMARK    1  A    between atoms: C1_2  and  C2_3 
ROOT
ATOM      1  C2  UNL d   1      -1.835   0.200   0.747  0.00  0.00    -0.081 A 
ATOM      2  C3  UNL d   1      -0.633  -0.319   1.244  0.00  0.00     0.006 A 
ATOM      3  C4  UNL d   1       0.541  -0.228   0.493  0.00  0.00     0.002 A 
ATOM      4  C5  UNL d   1       0.535   0.391  -0.762  0.00  0.00    -0.080 A 
ATOM      5  C6  UNL d   1       1.795   0.522  -1.565  0.00  0.00     0.076 C 
ATOM      6  C7  UNL d   1      -0.669   0.894  -1.266  0.00  0.00     0.002 A 
ATOM      7  C8  UNL d   1      -1.844   0.802  -0.516  0.00  0.00     0.006 A 
ENDROOT
BRANCH   1   8
ATOM      8  C1  UNL d   1      -3.090   0.161   1.582  0.00  0.00     0.054 C 
ATOM      9  C   UNL d   1      -3.815   1.499   1.553  0.00  0.00     0.018 C 
ENDBRANCH   1   8
TORSDOF 1
ENDMDL
