MODEL 1
REMARK minimizedAffinity -5.20394993
REMARK minimizedRMSD -1
REMARK  1 active torsions:
REMARK  status: ('A' for Active; 'I' for Inactive)
REMARK    1  A    between atoms: C1_2  and  C2_3 
ROOT
ATOM      1  C2  UNL d   1      -1.424   0.343   0.982  0.00  0.00    -0.081 A 
ATOM      2  C3  UNL d   1      -0.119  -0.028   1.326  0.00  0.00     0.006 A 
ATOM      3  C4  UNL d   1       0.920   0.098   0.401  0.00  0.00     0.002 A 
ATOM      4  C5  UNL d   1       0.673   0.605  -0.879  0.00  0.00    -0.080 A 
ATOM      5  C6  UNL d   1       1.785   0.774  -1.872  0.00  0.00     0.076 C 
ATOM      6  C7  UNL d   1      -0.634   0.959  -1.229  0.00  0.00     0.002 A 
ATOM      7  C8  UNL d   1      -1.674   0.832  -0.305  0.00  0.00     0.006 A 
ENDROOT
BRANCH   1   8
ATOM      8  C1  UNL d   1      -2.535   0.269   1.998  0.00  0.00     0.054 C 
ATOM      9  C   UNL d   1      -3.865  -0.071   1.340  0.00  0.00     0.018 C 
ENDBRANCH   1   8
TORSDOF 1
ENDMDL
