MODEL 1
REMARK minimizedAffinity -1.16906941
REMARK minimizedRMSD -1
REMARK  1 active torsions:
REMARK  status: ('A' for Active; 'I' for Inactive)
REMARK    1  A    between atoms: C1_2  and  C2_3 
ROOT
ATOM      1  C2  UNL d   1      -1.273   0.390   1.032  0.00  0.00    -0.081 A 
ATOM      2  C3  UNL d   1      -0.078  -0.338   1.103  0.00  0.00     0.006 A 
ATOM      3  C4  UNL d   1       1.016   0.018   0.311  0.00  0.00     0.002 A 
ATOM      4  C5  UNL d   1       0.937   1.110  -0.559  0.00  0.00    -0.080 A 
ATOM      5  C6  UNL d   1       2.115   1.521  -1.392  0.00  0.00     0.076 C 
ATOM      6  C7  UNL d   1      -0.261   1.827  -0.643  0.00  0.00     0.002 A 
ATOM      7  C8  UNL d   1      -1.356   1.472   0.148  0.00  0.00     0.006 A 
ENDROOT
BRANCH   1   8
ATOM      8  C1  UNL d   1      -2.433   0.049   1.932  0.00  0.00     0.054 C 
ATOM      9  C   UNL d   1      -3.437   1.191   1.997  0.00  0.00     0.018 C 
ENDBRANCH   1   8
TORSDOF 1
ENDMDL
