MODEL 1
REMARK minimizedAffinity -4.27355671
REMARK minimizedRMSD -1
REMARK  1 active torsions:
REMARK  status: ('A' for Active; 'I' for Inactive)
REMARK    1  A    between atoms: C1_2  and  C2_3 
ROOT
ATOM      1  C2  UNL d   1       0.265   1.268  -0.367  0.00  0.00    -0.081 A 
ATOM      2  C3  UNL d   1       0.337   0.333   0.673  0.00  0.00     0.006 A 
ATOM      3  C4  UNL d   1      -0.813  -0.032   1.377  0.00  0.00     0.002 A 
ATOM      4  C5  UNL d   1      -2.053   0.526   1.049  0.00  0.00    -0.080 A 
ATOM      5  C6  UNL d   1      -3.300   0.120   1.777  0.00  0.00     0.076 C 
ATOM      6  C7  UNL d   1      -2.122   1.473   0.021  0.00  0.00     0.002 A 
ATOM      7  C8  UNL d   1      -0.973   1.838  -0.683  0.00  0.00     0.006 A 
ENDROOT
BRANCH   1   8
ATOM      8  C1  UNL d   1       1.492   1.615  -1.171  0.00  0.00     0.054 C 
ATOM      9  C   UNL d   1       2.276   0.367  -1.551  0.00  0.00     0.018 C 
ENDBRANCH   1   8
TORSDOF 1
ENDMDL
