MODEL 1
REMARK minimizedAffinity 11.1724901
REMARK minimizedRMSD -1
REMARK  1 active torsions:
REMARK  status: ('A' for Active; 'I' for Inactive)
REMARK    1  A    between atoms: C1_2  and  C2_3 
ROOT
ATOM      1  C2  UNL d   1       0.897  -2.819   4.367  0.00  0.00    -0.073 A 
ATOM      2  C3  UNL d   1      -0.425  -2.972   4.800  0.00  0.00    -0.002 A 
ATOM      3  C4  UNL d   1      -0.782  -4.051   5.609  0.00  0.00     0.004 A 
ATOM      4  C5  UNL d   1       0.180  -4.983   5.999  0.00  0.00    -0.004 A 
ATOM      5  C6  UNL d   1       1.509  -4.841   5.587  0.00  0.00    -0.075 A 
ATOM      6  C7  UNL d   1       2.554  -5.836   5.996  0.00  0.00     0.076 C 
ATOM      7  C8  UNL d   1       1.858  -3.756   4.772  0.00  0.00     0.001 A 
ENDROOT
BRANCH   1   8
ATOM      8  C1  UNL d   1       1.288  -1.651   3.498  0.00  0.00     0.053 C 
ATOM      9  C   UNL d   1       0.172  -0.624   3.388  0.00  0.00     0.018 C 
ENDBRANCH   1   8
TORSDOF 1
ENDMDL
