MODEL 1
REMARK minimizedAffinity 11.5391474
REMARK minimizedRMSD -1
REMARK  1 active torsions:
REMARK  status: ('A' for Active; 'I' for Inactive)
REMARK    1  A    between atoms: C1_2  and  C2_3 
ROOT
ATOM      1  C2  UNL d   1      -4.051   5.213   4.404  0.00  0.00    -0.073 A 
ATOM      2  C3  UNL d   1      -5.016   5.970   5.077  0.00  0.00    -0.002 A 
ATOM      3  C4  UNL d   1      -5.982   5.342   5.865  0.00  0.00     0.004 A 
ATOM      4  C5  UNL d   1      -5.989   3.953   5.993  0.00  0.00    -0.004 A 
ATOM      5  C6  UNL d   1      -5.026   3.180   5.337  0.00  0.00    -0.075 A 
ATOM      6  C7  UNL d   1      -5.021   1.685   5.463  0.00  0.00     0.076 C 
ATOM      7  C8  UNL d   1      -4.061   3.818   4.546  0.00  0.00     0.001 A 
ENDROOT
BRANCH   1   8
ATOM      8  C1  UNL d   1      -3.003   5.887   3.557  0.00  0.00     0.053 C 
ATOM      9  C   UNL d   1      -1.596   5.603   4.060  0.00  0.00     0.018 C 
ENDBRANCH   1   8
TORSDOF 1
ENDMDL
