MODEL 1
REMARK minimizedAffinity 2.36481714
REMARK minimizedRMSD -1
REMARK  1 active torsions:
REMARK  status: ('A' for Active; 'I' for Inactive)
REMARK    1  A    between atoms: C1_2  and  C2_3 
ROOT
ATOM      1  C2  UNL d   1       2.006  -0.122  -0.523  0.00  0.00    -0.073 A 
ATOM      2  C3  UNL d   1       2.635  -1.351  -0.295  0.00  0.00    -0.002 A 
ATOM      3  C4  UNL d   1       1.914  -2.542  -0.399  0.00  0.00     0.004 A 
ATOM      4  C5  UNL d   1       0.562  -2.516  -0.738  0.00  0.00    -0.004 A 
ATOM      5  C6  UNL d   1      -0.082  -1.298  -0.981  0.00  0.00    -0.075 A 
ATOM      6  C7  UNL d   1      -1.537  -1.254  -1.344  0.00  0.00     0.076 C 
ATOM      7  C8  UNL d   1       0.648  -0.107  -0.872  0.00  0.00     0.001 A 
ENDROOT
BRANCH   1   8
ATOM      8  C1  UNL d   1       2.782   1.166  -0.418  0.00  0.00     0.053 C 
ATOM      9  C   UNL d   1       4.161   1.053  -1.048  0.00  0.00     0.018 C 
ENDBRANCH   1   8
TORSDOF 1
ENDMDL
