MODEL 1
REMARK minimizedAffinity 12.9340935
REMARK minimizedRMSD -1
REMARK  1 active torsions:
REMARK  status: ('A' for Active; 'I' for Inactive)
REMARK    1  A    between atoms: C1_2  and  C2_3 
ROOT
ATOM      1  C2  UNL d   1       4.722   3.574  -0.152  0.00  0.00    -0.073 A 
ATOM      2  C3  UNL d   1       4.881   3.266   1.204  0.00  0.00    -0.002 A 
ATOM      3  C4  UNL d   1       4.411   2.054   1.712  0.00  0.00     0.004 A 
ATOM      4  C5  UNL d   1       3.784   1.136   0.869  0.00  0.00    -0.004 A 
ATOM      5  C6  UNL d   1       3.626   1.421  -0.491  0.00  0.00    -0.075 A 
ATOM      6  C7  UNL d   1       2.952   0.445  -1.410  0.00  0.00     0.076 C 
ATOM      7  C8  UNL d   1       4.099   2.641  -0.993  0.00  0.00     0.001 A 
ENDROOT
BRANCH   1   8
ATOM      8  C1  UNL d   1       5.233   4.879  -0.705  0.00  0.00     0.053 C 
ATOM      9  C   UNL d   1       5.999   5.679   0.336  0.00  0.00     0.018 C 
ENDBRANCH   1   8
TORSDOF 1
ENDMDL
