MODEL 1
REMARK minimizedAffinity -3.80609059
REMARK minimizedRMSD -1
REMARK  0 active torsions:
REMARK  status: ('A' for Active; 'I' for Inactive)
ROOT
ATOM      1  C   UNL d   1      -0.907   2.880   0.950  0.00  0.00     0.124 A 
ATOM      2  C1  UNL d   1      -1.082   2.621  -0.403  0.00  0.00     0.062 A 
ATOM      3  C2  UNL d   1      -0.678   1.402  -0.940  0.00  0.00     0.162 A 
ATOM      4  C3  UNL d   1      -0.095   0.432  -0.124  0.00  0.00    -0.034 A 
ATOM      5  C4  UNL d   1       0.079   0.701   1.235  0.00  0.00     0.162 A 
ATOM      6  C5  UNL d   1      -0.327   1.920   1.767  0.00  0.00     0.062 A 
ATOM      7  F   UNL d   1      -0.157   2.169   3.073  0.00  0.00    -0.097 F 
ATOM      8  F1  UNL d   1       0.636  -0.210   2.047  0.00  0.00    -0.096 F 
ATOM      9  I   UNL d   1       0.511  -1.391  -0.924  0.00  0.00    -0.060 I 
ATOM     10  F2  UNL d   1      -0.859   1.179  -2.250  0.00  0.00    -0.096 F 
ATOM     11  F3  UNL d   1      -1.642   3.547  -1.195  0.00  0.00    -0.097 F 
ATOM     12  F4  UNL d   1      -1.296   4.054   1.464  0.00  0.00    -0.092 F 
ENDROOT
TORSDOF 0
ENDMDL
