MODEL 1
REMARK minimizedAffinity -0.254160792
REMARK minimizedRMSD -1
REMARK  0 active torsions:
REMARK  status: ('A' for Active; 'I' for Inactive)
ROOT
ATOM      1  C   UNL d   1      -0.429   2.352   1.195  0.00  0.00     0.124 A 
ATOM      2  C1  UNL d   1      -0.701   2.186  -0.156  0.00  0.00     0.062 A 
ATOM      3  C2  UNL d   1      -0.542   0.939  -0.754  0.00  0.00     0.162 A 
ATOM      4  C3  UNL d   1      -0.110  -0.153  -0.002  0.00  0.00    -0.034 A 
ATOM      5  C4  UNL d   1       0.162   0.022   1.356  0.00  0.00     0.162 A 
ATOM      6  C5  UNL d   1       0.003   1.270   1.950  0.00  0.00     0.062 A 
ATOM      7  F   UNL d   1       0.266   1.428   3.255  0.00  0.00    -0.097 F 
ATOM      8  F1  UNL d   1       0.579  -1.007   2.109  0.00  0.00    -0.096 F 
ATOM      9  I   UNL d   1       0.128  -2.018  -0.892  0.00  0.00    -0.060 I 
ATOM     10  F2  UNL d   1      -0.813   0.808  -2.061  0.00  0.00    -0.096 F 
ATOM     11  F3  UNL d   1      -1.117   3.230  -0.887  0.00  0.00    -0.097 F 
ATOM     12  F4  UNL d   1      -0.581   3.553   1.768  0.00  0.00    -0.092 F 
ENDROOT
TORSDOF 0
ENDMDL
