MODEL 1
REMARK minimizedAffinity -6.27936029
REMARK minimizedRMSD -1
REMARK  0 active torsions:
REMARK  status: ('A' for Active; 'I' for Inactive)
ROOT
ATOM      1  C   UNL d   1      -0.931   2.935   0.374  0.00  0.00     0.124 A 
ATOM      2  C1  UNL d   1      -0.850   1.896   1.290  0.00  0.00     0.062 A 
ATOM      3  C2  UNL d   1      -0.475   0.622   0.873  0.00  0.00     0.162 A 
ATOM      4  C3  UNL d   1      -0.176   0.380  -0.468  0.00  0.00    -0.034 A 
ATOM      5  C4  UNL d   1      -0.261   1.430  -1.384  0.00  0.00     0.162 A 
ATOM      6  C5  UNL d   1      -0.637   2.701  -0.962  0.00  0.00     0.062 A 
ATOM      7  F   UNL d   1      -0.714   3.704  -1.849  0.00  0.00    -0.097 F 
ATOM      8  F1  UNL d   1       0.019   1.233  -2.681  0.00  0.00    -0.096 F 
ATOM      9  I   UNL d   1       0.385  -1.523  -1.096  0.00  0.00    -0.060 I 
ATOM     10  F2  UNL d   1      -0.405  -0.363   1.781  0.00  0.00    -0.096 F 
ATOM     11  F3  UNL d   1      -1.135   2.119   2.581  0.00  0.00    -0.097 F 
ATOM     12  F4  UNL d   1      -1.294   4.159   0.777  0.00  0.00    -0.092 F 
ENDROOT
TORSDOF 0
ENDMDL
