MODEL 1
REMARK minimizedAffinity -4.25482893
REMARK minimizedRMSD -1
REMARK  0 active torsions:
REMARK  status: ('A' for Active; 'I' for Inactive)
ROOT
ATOM      1  C   UNL d   1      -0.647   1.669  -1.026  0.00  0.00     0.124 A 
ATOM      2  C1  UNL d   1       0.091   0.523  -1.288  0.00  0.00     0.062 A 
ATOM      3  C2  UNL d   1       0.637  -0.212  -0.240  0.00  0.00     0.162 A 
ATOM      4  C3  UNL d   1       0.447   0.196   1.080  0.00  0.00    -0.034 A 
ATOM      5  C4  UNL d   1      -0.295   1.351   1.336  0.00  0.00     0.162 A 
ATOM      6  C5  UNL d   1      -0.840   2.082   0.285  0.00  0.00     0.062 A 
ATOM      7  F   UNL d   1      -1.552   3.189   0.540  0.00  0.00    -0.097 F 
ATOM      8  F1  UNL d   1      -0.497   1.771   2.593  0.00  0.00    -0.096 F 
ATOM      9  I   UNL d   1       1.263  -0.900   2.650  0.00  0.00    -0.060 I 
ATOM     10  F2  UNL d   1       1.346  -1.315  -0.522  0.00  0.00    -0.096 F 
ATOM     11  F3  UNL d   1       0.278   0.123  -2.554  0.00  0.00    -0.097 F 
ATOM     12  F4  UNL d   1      -1.171   2.375  -2.036  0.00  0.00    -0.092 F 
ENDROOT
TORSDOF 0
ENDMDL
