MODEL 1
REMARK minimizedAffinity -4.45066786
REMARK minimizedRMSD -1
REMARK  0 active torsions:
REMARK  status: ('A' for Active; 'I' for Inactive)
ROOT
ATOM      1  C   UNL d   1      -1.011   2.530   0.364  0.00  0.00     0.124 A 
ATOM      2  C1  UNL d   1      -0.672   2.188  -0.938  0.00  0.00     0.062 A 
ATOM      3  C2  UNL d   1      -0.172   0.921  -1.221  0.00  0.00     0.162 A 
ATOM      4  C3  UNL d   1      -0.007  -0.015  -0.200  0.00  0.00    -0.034 A 
ATOM      5  C4  UNL d   1      -0.348   0.337   1.108  0.00  0.00     0.162 A 
ATOM      6  C5  UNL d   1      -0.848   1.605   1.385  0.00  0.00     0.062 A 
ATOM      7  F   UNL d   1      -1.175   1.933   2.644  0.00  0.00    -0.097 F 
ATOM      8  F1  UNL d   1      -0.203  -0.539   2.113  0.00  0.00    -0.096 F 
ATOM      9  I   UNL d   1       0.742  -1.911  -0.619  0.00  0.00    -0.060 I 
ATOM     10  F2  UNL d   1       0.147   0.617  -2.488  0.00  0.00    -0.096 F 
ATOM     11  F3  UNL d   1      -0.827   3.081  -1.926  0.00  0.00    -0.097 F 
ATOM     12  F4  UNL d   1      -1.491   3.751   0.634  0.00  0.00    -0.092 F 
ENDROOT
TORSDOF 0
ENDMDL
