MODEL 1
REMARK minimizedAffinity 1.80310202
REMARK minimizedRMSD -1
REMARK  0 active torsions:
REMARK  status: ('A' for Active; 'I' for Inactive)
ROOT
ATOM      1  C   UNL d   1       0.928   4.433   0.578  0.00  0.00     0.124 A 
ATOM      2  C1  UNL d   1       1.303   3.864   1.787  0.00  0.00     0.062 A 
ATOM      3  C2  UNL d   1       1.103   2.506   2.014  0.00  0.00     0.162 A 
ATOM      4  C3  UNL d   1       0.524   1.705   1.029  0.00  0.00    -0.034 A 
ATOM      5  C4  UNL d   1       0.148   2.285  -0.184  0.00  0.00     0.162 A 
ATOM      6  C5  UNL d   1       0.351   3.643  -0.406  0.00  0.00     0.062 A 
ATOM      7  F   UNL d   1      -0.013   4.190  -1.575  0.00  0.00    -0.097 F 
ATOM      8  F1  UNL d   1      -0.411   1.544  -1.153  0.00  0.00    -0.096 F 
ATOM      9  I   UNL d   1       0.222  -0.326   1.365  0.00  0.00    -0.060 I 
ATOM     10  F2  UNL d   1       1.475   1.983   3.192  0.00  0.00    -0.096 F 
ATOM     11  F3  UNL d   1       1.860   4.625   2.740  0.00  0.00    -0.097 F 
ATOM     12  F4  UNL d   1       1.121   5.740   0.362  0.00  0.00    -0.092 F 
ENDROOT
TORSDOF 0
ENDMDL
