MODEL 1
REMARK minimizedAffinity 9.94742012
REMARK minimizedRMSD -1
REMARK  0 active torsions:
REMARK  status: ('A' for Active; 'I' for Inactive)
ROOT
ATOM      1  C   UNL d   1       0.032   2.586   1.484  0.00  0.00     0.124 A 
ATOM      2  C1  UNL d   1       0.113   2.229   0.145  0.00  0.00     0.062 A 
ATOM      3  C2  UNL d   1       0.356   0.907  -0.214  0.00  0.00     0.162 A 
ATOM      4  C3  UNL d   1       0.518  -0.071   0.768  0.00  0.00    -0.034 A 
ATOM      5  C4  UNL d   1       0.436   0.296   2.113  0.00  0.00     0.162 A 
ATOM      6  C5  UNL d   1       0.193   1.619   2.466  0.00  0.00     0.062 A 
ATOM      7  F   UNL d   1       0.115   1.961   3.760  0.00  0.00    -0.097 F 
ATOM      8  F1  UNL d   1       0.587  -0.618   3.082  0.00  0.00    -0.096 F 
ATOM      9  I   UNL d   1       0.881  -2.050   0.236  0.00  0.00    -0.060 I 
ATOM     10  F2  UNL d   1       0.430   0.591  -1.516  0.00  0.00    -0.096 F 
ATOM     11  F3  UNL d   1      -0.041   3.162  -0.807  0.00  0.00    -0.097 F 
ATOM     12  F4  UNL d   1      -0.201   3.859   1.826  0.00  0.00    -0.092 F 
ENDROOT
TORSDOF 0
ENDMDL
