MODEL 1
REMARK minimizedAffinity 11.634594
REMARK minimizedRMSD -1
REMARK  0 active torsions:
REMARK  status: ('A' for Active; 'I' for Inactive)
ROOT
ATOM      1  C   UNL d   1      -2.745   0.557   3.148  0.00  0.00     0.172 C 
ATOM      2  N   UNL d   1      -2.807  -0.137   1.884  0.00  0.00    -0.070 N 
ATOM      3  C1  UNL d   1      -1.772  -0.278   0.999  0.00  0.00    -0.004 A 
ATOM      4  C2  UNL d   1      -2.234  -1.001  -0.080  0.00  0.00    -0.047 A 
ATOM      5  C3  UNL d   1      -3.594  -1.305   0.165  0.00  0.00    -0.047 A 
ATOM      6  C4  UNL d   1      -3.923  -0.758   1.388  0.00  0.00    -0.004 A 
ENDROOT
TORSDOF 0
ENDMDL
