MODEL 1
REMARK minimizedAffinity 11.8657131
REMARK minimizedRMSD -1
REMARK  0 active torsions:
REMARK  status: ('A' for Active; 'I' for Inactive)
ROOT
ATOM      1  C   UNL d   1       5.998  -1.553   5.996  0.00  0.00     0.172 C 
ATOM      2  N   UNL d   1       5.417  -1.176   4.729  0.00  0.00    -0.070 N 
ATOM      3  C1  UNL d   1       5.999  -0.363   3.793  0.00  0.00    -0.004 A 
ATOM      4  C2  UNL d   1       5.129  -0.251   2.731  0.00  0.00    -0.047 A 
ATOM      5  C3  UNL d   1       3.983  -1.022   3.039  0.00  0.00    -0.047 A 
ATOM      6  C4  UNL d   1       4.188  -1.584   4.282  0.00  0.00    -0.004 A 
ENDROOT
TORSDOF 0
ENDMDL
