MODEL 1
REMARK minimizedAffinity 8.09614944
REMARK minimizedRMSD -1
REMARK  0 active torsions:
REMARK  status: ('A' for Active; 'I' for Inactive)
ROOT
ATOM      1  C   UNL d   1       1.137   1.616  -1.762  0.00  0.00     0.172 C 
ATOM      2  N   UNL d   1       1.469   0.212  -1.832  0.00  0.00    -0.070 N 
ATOM      3  C1  UNL d   1       2.524  -0.390  -1.200  0.00  0.00    -0.004 A 
ATOM      4  C2  UNL d   1       2.495  -1.731  -1.516  0.00  0.00    -0.047 A 
ATOM      5  C3  UNL d   1       1.385  -1.942  -2.368  0.00  0.00    -0.047 A 
ATOM      6  C4  UNL d   1       0.768  -0.722  -2.547  0.00  0.00    -0.004 A 
ENDROOT
TORSDOF 0
ENDMDL
