MODEL 1
REMARK minimizedAffinity 6.69375563
REMARK minimizedRMSD -1
REMARK  0 active torsions:
REMARK  status: ('A' for Active; 'I' for Inactive)
ROOT
ATOM      1  C   UNL d   1       2.101   4.526  -0.641  0.00  0.00     0.172 C 
ATOM      2  N   UNL d   1       0.721   4.891  -0.426  0.00  0.00    -0.070 N 
ATOM      3  C1  UNL d   1      -0.369   4.211  -0.901  0.00  0.00    -0.004 A 
ATOM      4  C2  UNL d   1      -1.499   4.877  -0.480  0.00  0.00    -0.047 A 
ATOM      5  C3  UNL d   1      -1.074   5.997   0.274  0.00  0.00    -0.047 A 
ATOM      6  C4  UNL d   1       0.304   5.982   0.291  0.00  0.00    -0.004 A 
ENDROOT
TORSDOF 0
ENDMDL
