MODEL 1
REMARK minimizedAffinity 8.99860954
REMARK minimizedRMSD -1
REMARK  0 active torsions:
REMARK  status: ('A' for Active; 'I' for Inactive)
ROOT
ATOM      1  C   UNL d   1       5.998  -2.299   6.000  0.00  0.00     0.172 C 
ATOM      2  N   UNL d   1       5.361  -1.771   4.816  0.00  0.00    -0.070 N 
ATOM      3  C1  UNL d   1       6.000  -1.153   3.775  0.00  0.00    -0.004 A 
ATOM      4  C2  UNL d   1       5.046  -0.798   2.846  0.00  0.00    -0.047 A 
ATOM      5  C3  UNL d   1       3.790  -1.217   3.346  0.00  0.00    -0.047 A 
ATOM      6  C4  UNL d   1       4.015  -1.816   4.568  0.00  0.00    -0.004 A 
ENDROOT
TORSDOF 0
ENDMDL
