MODEL 1
REMARK minimizedAffinity -2.17006278
REMARK minimizedRMSD -1
REMARK  0 active torsions:
REMARK  status: ('A' for Active; 'I' for Inactive)
ROOT
ATOM      1  C   UNL d   1       4.874   5.248   1.625  0.00  0.00     0.172 C 
ATOM      2  N   UNL d   1       4.389   5.478   0.284  0.00  0.00    -0.070 N 
ATOM      3  C1  UNL d   1       5.143   5.902  -0.776  0.00  0.00    -0.004 A 
ATOM      4  C2  UNL d   1       4.315   5.998  -1.873  0.00  0.00    -0.047 A 
ATOM      5  C3  UNL d   1       3.016   5.619  -1.457  0.00  0.00    -0.047 A 
ATOM      6  C4  UNL d   1       3.091   5.302  -0.117  0.00  0.00    -0.004 A 
ENDROOT
TORSDOF 0
ENDMDL
