MODEL 1
REMARK minimizedAffinity 5.00593472
REMARK minimizedRMSD -1
REMARK  0 active torsions:
REMARK  status: ('A' for Active; 'I' for Inactive)
ROOT
ATOM      1  C   UNL d   1      -4.503  -0.414   5.999  0.00  0.00     0.172 C 
ATOM      2  N   UNL d   1      -4.774  -0.025   4.635  0.00  0.00    -0.070 N 
ATOM      3  C1  UNL d   1      -3.858   0.481   3.752  0.00  0.00    -0.004 A 
ATOM      4  C2  UNL d   1      -4.509   0.724   2.562  0.00  0.00    -0.047 A 
ATOM      5  C3  UNL d   1      -5.863   0.352   2.736  0.00  0.00    -0.047 A 
ATOM      6  C4  UNL d   1      -6.000  -0.109   4.029  0.00  0.00    -0.004 A 
ENDROOT
TORSDOF 0
ENDMDL
