MODEL 1
REMARK minimizedAffinity 8.20777035
REMARK minimizedRMSD -1
REMARK  0 active torsions:
REMARK  status: ('A' for Active; 'I' for Inactive)
ROOT
ATOM      1  C   UNL d   1      -5.453   5.949   5.743  0.00  0.00     0.172 C 
ATOM      2  N   UNL d   1      -4.135   5.376   5.606  0.00  0.00    -0.070 N 
ATOM      3  C1  UNL d   1      -3.850   4.145   5.078  0.00  0.00    -0.004 A 
ATOM      4  C2  UNL d   1      -2.484   3.972   5.124  0.00  0.00    -0.047 A 
ATOM      5  C3  UNL d   1      -1.928   5.139   5.700  0.00  0.00    -0.047 A 
ATOM      6  C4  UNL d   1      -2.972   5.992   5.988  0.00  0.00    -0.004 A 
ENDROOT
TORSDOF 0
ENDMDL
