MODEL 1
REMARK minimizedAffinity 14.5808754
REMARK minimizedRMSD -1
REMARK  0 active torsions:
REMARK  status: ('A' for Active; 'I' for Inactive)
ROOT
ATOM      1  C   UNL d   1       0.077  -2.128  -2.769  0.00  0.00     0.172 C 
ATOM      2  N   UNL d   1       0.838  -1.019  -2.243  0.00  0.00    -0.070 N 
ATOM      3  C1  UNL d   1       0.569   0.306  -2.456  0.00  0.00    -0.004 A 
ATOM      4  C2  UNL d   1       1.523   1.043  -1.787  0.00  0.00    -0.047 A 
ATOM      5  C3  UNL d   1       2.395   0.129  -1.151  0.00  0.00    -0.047 A 
ATOM      6  C4  UNL d   1       1.949  -1.141  -1.450  0.00  0.00    -0.004 A 
ENDROOT
TORSDOF 0
ENDMDL
