MODEL 1
REMARK minimizedAffinity 8.75312901
REMARK minimizedRMSD -1
REMARK  0 active torsions:
REMARK  status: ('A' for Active; 'I' for Inactive)
ROOT
ATOM      1  C   UNL d   1       3.667  -0.379   3.338  0.00  0.00     0.172 C 
ATOM      2  N   UNL d   1       4.470  -0.938   4.400  0.00  0.00    -0.070 N 
ATOM      3  C1  UNL d   1       5.486  -0.295   5.056  0.00  0.00    -0.004 A 
ATOM      4  C2  UNL d   1       5.999  -1.164   5.995  0.00  0.00    -0.047 A 
ATOM      5  C3  UNL d   1       5.266  -2.371   5.899  0.00  0.00    -0.047 A 
ATOM      6  C4  UNL d   1       4.326  -2.204   4.904  0.00  0.00    -0.004 A 
ENDROOT
TORSDOF 0
ENDMDL
