MODEL 1
REMARK minimizedAffinity -0.685390651
REMARK minimizedRMSD -1
REMARK  0 active torsions:
REMARK  status: ('A' for Active; 'I' for Inactive)
ROOT
ATOM      1  C   UNL d   1       6.000  -4.488   5.672  0.00  0.00     0.172 C 
ATOM      2  N   UNL d   1       5.368  -3.263   5.240  0.00  0.00    -0.070 N 
ATOM      3  C1  UNL d   1       5.845  -1.998   5.460  0.00  0.00    -0.004 A 
ATOM      4  C2  UNL d   1       4.959  -1.108   4.893  0.00  0.00    -0.047 A 
ATOM      5  C3  UNL d   1       3.913  -1.864   4.313  0.00  0.00    -0.047 A 
ATOM      6  C4  UNL d   1       4.191  -3.195   4.542  0.00  0.00    -0.004 A 
ENDROOT
TORSDOF 0
ENDMDL
