MODEL 1
REMARK minimizedAffinity 0.745352149
REMARK minimizedRMSD -1
REMARK  0 active torsions:
REMARK  status: ('A' for Active; 'I' for Inactive)
ROOT
ATOM      1  C   UNL d   1      -5.165   5.990   2.895  0.00  0.00     0.172 C 
ATOM      2  N   UNL d   1      -4.199   5.987   3.969  0.00  0.00    -0.070 N 
ATOM      3  C1  UNL d   1      -4.492   5.972   5.307  0.00  0.00    -0.004 A 
ATOM      4  C2  UNL d   1      -3.301   5.974   6.000  0.00  0.00    -0.047 A 
ATOM      5  C3  UNL d   1      -2.256   5.992   5.046  0.00  0.00    -0.047 A 
ATOM      6  C4  UNL d   1      -2.840   6.000   3.797  0.00  0.00    -0.004 A 
ENDROOT
TORSDOF 0
ENDMDL
