MODEL 1
REMARK minimizedAffinity -1.55210495
REMARK minimizedRMSD -1
REMARK  0 active torsions:
REMARK  status: ('A' for Active; 'I' for Inactive)
ROOT
ATOM      1  C   UNL d   1      -4.485   5.983   6.000  0.00  0.00     0.172 C 
ATOM      2  N   UNL d   1      -4.004   5.987   4.638  0.00  0.00    -0.070 N 
ATOM      3  C1  UNL d   1      -4.787   6.000   3.515  0.00  0.00    -0.004 A 
ATOM      4  C2  UNL d   1      -3.952   6.000   2.418  0.00  0.00    -0.047 A 
ATOM      5  C3  UNL d   1      -2.621   5.986   2.899  0.00  0.00    -0.047 A 
ATOM      6  C4  UNL d   1      -2.682   5.978   4.277  0.00  0.00    -0.004 A 
ENDROOT
TORSDOF 0
ENDMDL
