MODEL 1
REMARK minimizedAffinity -0.785378337
REMARK minimizedRMSD -1
REMARK  0 active torsions:
REMARK  status: ('A' for Active; 'I' for Inactive)
ROOT
ATOM      1  C   UNL d   1      -2.427   0.144  -0.681  0.00  0.00     0.172 C 
ATOM      2  N   UNL d   1      -3.870   0.113  -0.649  0.00  0.00    -0.070 N 
ATOM      3  C1  UNL d   1      -4.695   0.185  -1.740  0.00  0.00    -0.004 A 
ATOM      4  C2  UNL d   1      -5.996   0.122  -1.290  0.00  0.00    -0.047 A 
ATOM      5  C3  UNL d   1      -5.952   0.009   0.120  0.00  0.00    -0.047 A 
ATOM      6  C4  UNL d   1      -4.624   0.006   0.490  0.00  0.00    -0.004 A 
ENDROOT
TORSDOF 0
ENDMDL
