MODEL 1
REMARK minimizedAffinity -0.33651948
REMARK minimizedRMSD -1
REMARK  0 active torsions:
REMARK  status: ('A' for Active; 'I' for Inactive)
ROOT
ATOM      1  C   UNL d   1      -2.097   0.921   2.247  0.00  0.00     0.020 A 
ATOM      2  C1  UNL d   1      -1.343   1.121   3.402  0.00  0.00     0.020 A 
ATOM      3  C2  UNL d   1       0.007   0.763   3.425  0.00  0.00     0.034 A 
ATOM      4  C3  UNL d   1       0.606   0.204   2.291  0.00  0.00     0.017 A 
ATOM      5  C4  UNL d   1      -0.152   0.004   1.131  0.00  0.00     0.017 A 
ATOM      6  C5  UNL d   1      -1.503   0.364   1.114  0.00  0.00     0.034 A 
ATOM      7 Cl   UNL d   1       0.518  -0.681  -0.308  0.00  0.00    -0.070 Cl
ATOM      8 Cl1  UNL d   1       2.279  -0.215   2.390  0.00  0.00    -0.070 Cl
ENDROOT
TORSDOF 0
ENDMDL
