MODEL 1
REMARK minimizedAffinity -2.43749762
REMARK minimizedRMSD -1
REMARK  0 active torsions:
REMARK  status: ('A' for Active; 'I' for Inactive)
ROOT
ATOM      1  C   UNL d   1      -4.938   6.000  -1.152  0.00  0.00     0.020 A 
ATOM      2  C1  UNL d   1      -5.997   5.094  -1.196  0.00  0.00     0.020 A 
ATOM      3  C2  UNL d   1      -5.751   3.726  -1.070  0.00  0.00     0.034 A 
ATOM      4  C3  UNL d   1      -4.443   3.258  -0.899  0.00  0.00     0.017 A 
ATOM      5  C4  UNL d   1      -3.381   4.168  -0.855  0.00  0.00     0.017 A 
ATOM      6  C5  UNL d   1      -3.633   5.538  -0.982  0.00  0.00     0.034 A 
ATOM      7 Cl   UNL d   1      -1.739   3.667  -0.648  0.00  0.00    -0.070 Cl
ATOM      8 Cl1  UNL d   1      -4.212   1.553  -0.749  0.00  0.00    -0.070 Cl
ENDROOT
TORSDOF 0
ENDMDL
