MODEL 1
REMARK minimizedAffinity 4.43625784
REMARK minimizedRMSD -1
REMARK  0 active torsions:
REMARK  status: ('A' for Active; 'I' for Inactive)
ROOT
ATOM      1  C   UNL d   1      -1.873  -0.750  -4.546  0.00  0.00     0.020 A 
ATOM      2  C1  UNL d   1      -0.756  -0.075  -5.037  0.00  0.00     0.020 A 
ATOM      3  C2  UNL d   1       0.358  -0.793  -5.476  0.00  0.00     0.034 A 
ATOM      4  C3  UNL d   1       0.358  -2.192  -5.424  0.00  0.00     0.017 A 
ATOM      5  C4  UNL d   1      -0.763  -2.869  -4.930  0.00  0.00     0.017 A 
ATOM      6  C5  UNL d   1      -1.876  -2.145  -4.493  0.00  0.00     0.034 A 
ATOM      7 Cl   UNL d   1      -0.836  -4.593  -4.835  0.00  0.00    -0.070 Cl
ATOM      8 Cl1  UNL d   1       1.770  -3.016  -5.983  0.00  0.00    -0.070 Cl
ENDROOT
TORSDOF 0
ENDMDL
