MODEL 1
REMARK minimizedAffinity 6.58767176
REMARK minimizedRMSD -1
REMARK  0 active torsions:
REMARK  status: ('A' for Active; 'I' for Inactive)
ROOT
ATOM      1  C   UNL d   1      -2.958   1.537   1.724  0.00  0.00     0.020 A 
ATOM      2  C1  UNL d   1      -2.507   0.754   0.662  0.00  0.00     0.020 A 
ATOM      3  C2  UNL d   1      -1.240   0.169   0.714  0.00  0.00     0.034 A 
ATOM      4  C3  UNL d   1      -0.419   0.366   1.831  0.00  0.00     0.017 A 
ATOM      5  C4  UNL d   1      -0.873   1.151   2.897  0.00  0.00     0.017 A 
ATOM      6  C5  UNL d   1      -2.142   1.735   2.839  0.00  0.00     0.034 A 
ATOM      7 Cl   UNL d   1       0.082   1.439   4.308  0.00  0.00    -0.070 Cl
ATOM      8 Cl1  UNL d   1       1.135  -0.388   1.828  0.00  0.00    -0.070 Cl
ENDROOT
TORSDOF 0
ENDMDL
