MODEL 1
REMARK minimizedAffinity -1.63608623
REMARK minimizedRMSD -1
REMARK  0 active torsions:
REMARK  status: ('A' for Active; 'I' for Inactive)
ROOT
ATOM      1  C   UNL d   1       1.833   2.389   3.024  0.00  0.00     0.020 A 
ATOM      2  C1  UNL d   1       0.573   2.552   3.598  0.00  0.00     0.020 A 
ATOM      3  C2  UNL d   1      -0.509   1.803   3.131  0.00  0.00     0.034 A 
ATOM      4  C3  UNL d   1      -0.333   0.887   2.087  0.00  0.00     0.017 A 
ATOM      5  C4  UNL d   1       0.933   0.724   1.512  0.00  0.00     0.017 A 
ATOM      6  C5  UNL d   1       2.013   1.477   1.983  0.00  0.00     0.034 A 
ATOM      7 Cl   UNL d   1       1.228  -0.387   0.221  0.00  0.00    -0.070 Cl
ATOM      8 Cl1  UNL d   1      -1.715  -0.006   1.560  0.00  0.00    -0.070 Cl
ENDROOT
TORSDOF 0
ENDMDL
