MODEL 1
REMARK minimizedAffinity 7.43350363
REMARK minimizedRMSD -1
REMARK  0 active torsions:
REMARK  status: ('A' for Active; 'I' for Inactive)
ROOT
ATOM      1  C   UNL d   1      -0.947   0.222   3.165  0.00  0.00     0.020 A 
ATOM      2  C1  UNL d   1      -1.869   1.248   2.966  0.00  0.00     0.020 A 
ATOM      3  C2  UNL d   1      -2.509   1.382   1.732  0.00  0.00     0.034 A 
ATOM      4  C3  UNL d   1      -2.227   0.487   0.692  0.00  0.00     0.017 A 
ATOM      5  C4  UNL d   1      -1.302  -0.543   0.894  0.00  0.00     0.017 A 
ATOM      6  C5  UNL d   1      -0.664  -0.672   2.132  0.00  0.00     0.034 A 
ATOM      7 Cl   UNL d   1      -0.903  -1.685  -0.340  0.00  0.00    -0.070 Cl
ATOM      8 Cl1  UNL d   1      -3.056   0.711  -0.807  0.00  0.00    -0.070 Cl
ENDROOT
TORSDOF 0
ENDMDL
