MODEL 1
REMARK minimizedAffinity 4.98717165
REMARK minimizedRMSD -1
REMARK  0 active torsions:
REMARK  status: ('A' for Active; 'I' for Inactive)
ROOT
ATOM      1  C   UNL d   1       0.921  -0.319   3.152  0.00  0.00     0.020 A 
ATOM      2  C1  UNL d   1       1.106   0.212   1.876  0.00  0.00     0.020 A 
ATOM      3  C2  UNL d   1       0.000   0.543   1.090  0.00  0.00     0.034 A 
ATOM      4  C3  UNL d   1      -1.296   0.342   1.579  0.00  0.00     0.017 A 
ATOM      5  C4  UNL d   1      -1.481  -0.191   2.859  0.00  0.00     0.017 A 
ATOM      6  C5  UNL d   1      -0.370  -0.520   3.642  0.00  0.00     0.034 A 
ATOM      7 Cl   UNL d   1      -3.050  -0.467   3.530  0.00  0.00    -0.070 Cl
ATOM      8 Cl1  UNL d   1      -2.617   0.774   0.552  0.00  0.00    -0.070 Cl
ENDROOT
TORSDOF 0
ENDMDL
