MODEL 1
REMARK minimizedAffinity 3.02513337
REMARK minimizedRMSD -1
REMARK  0 active torsions:
REMARK  status: ('A' for Active; 'I' for Inactive)
ROOT
ATOM      1  C   UNL d   1      -2.997   2.389   0.574  0.00  0.00     0.020 A 
ATOM      2  C1  UNL d   1      -3.731   1.414  -0.100  0.00  0.00     0.020 A 
ATOM      3  C2  UNL d   1      -3.439   0.062   0.093  0.00  0.00     0.034 A 
ATOM      4  C3  UNL d   1      -2.410  -0.319   0.961  0.00  0.00     0.017 A 
ATOM      5  C4  UNL d   1      -1.673   0.661   1.637  0.00  0.00     0.017 A 
ATOM      6  C5  UNL d   1      -1.970   2.013   1.440  0.00  0.00     0.034 A 
ATOM      7 Cl   UNL d   1      -0.388   0.268   2.724  0.00  0.00    -0.070 Cl
ATOM      8 Cl1  UNL d   1      -2.103  -2.008   1.151  0.00  0.00    -0.070 Cl
ENDROOT
TORSDOF 0
ENDMDL
