MODEL 1
REMARK minimizedAffinity 5.33239508
REMARK minimizedRMSD -1
REMARK  0 active torsions:
REMARK  status: ('A' for Active; 'I' for Inactive)
ROOT
ATOM      1  C   UNL d   1      -0.151   2.153   3.347  0.00  0.00     0.020 A 
ATOM      2  C1  UNL d   1      -1.528   1.937   3.301  0.00  0.00     0.020 A 
ATOM      3  C2  UNL d   1      -2.042   0.860   2.575  0.00  0.00     0.034 A 
ATOM      4  C3  UNL d   1      -1.179  -0.005   1.893  0.00  0.00     0.017 A 
ATOM      5  C4  UNL d   1       0.203   0.213   1.940  0.00  0.00     0.017 A 
ATOM      6  C5  UNL d   1       0.712   1.292   2.668  0.00  0.00     0.034 A 
ATOM      7 Cl   UNL d   1       1.331  -0.812   1.123  0.00  0.00    -0.070 Cl
ATOM      8 Cl1  UNL d   1      -1.884  -1.316   1.016  0.00  0.00    -0.070 Cl
ENDROOT
TORSDOF 0
ENDMDL
