MODEL 1
REMARK minimizedAffinity 2.08907795
REMARK minimizedRMSD -1
REMARK  0 active torsions:
REMARK  status: ('A' for Active; 'I' for Inactive)
ROOT
ATOM      1  C   UNL d   1      -1.675   0.112   1.007  0.00  0.00     0.020 A 
ATOM      2  C1  UNL d   1      -1.709   0.499   2.346  0.00  0.00     0.020 A 
ATOM      3  C2  UNL d   1      -0.563   0.382   3.136  0.00  0.00     0.034 A 
ATOM      4  C3  UNL d   1       0.621  -0.125   2.587  0.00  0.00     0.017 A 
ATOM      5  C4  UNL d   1       0.654  -0.514   1.243  0.00  0.00     0.017 A 
ATOM      6  C5  UNL d   1      -0.497  -0.394   0.457  0.00  0.00     0.034 A 
ATOM      7 Cl   UNL d   1       2.077  -1.148   0.496  0.00  0.00    -0.070 Cl
ATOM      8 Cl1  UNL d   1       2.000  -0.242   3.622  0.00  0.00    -0.070 Cl
ENDROOT
TORSDOF 0
ENDMDL
