MODEL 1
REMARK minimizedAffinity 6.80230188
REMARK minimizedRMSD -1
REMARK  0 active torsions:
REMARK  status: ('A' for Active; 'I' for Inactive)
ROOT
ATOM      1  C   UNL d   1      -1.094   0.243   3.040  0.00  0.00     0.020 A 
ATOM      2  C1  UNL d   1      -1.690  -0.026   1.809  0.00  0.00     0.020 A 
ATOM      3  C2  UNL d   1      -0.901  -0.381   0.713  0.00  0.00     0.034 A 
ATOM      4  C3  UNL d   1       0.490  -0.467   0.846  0.00  0.00     0.017 A 
ATOM      5  C4  UNL d   1       1.088  -0.196   2.082  0.00  0.00     0.017 A 
ATOM      6  C5  UNL d   1       0.292   0.158   3.176  0.00  0.00     0.034 A 
ATOM      7 Cl   UNL d   1       2.797  -0.281   2.323  0.00  0.00    -0.070 Cl
ATOM      8 Cl1  UNL d   1       1.404  -0.911  -0.551  0.00  0.00    -0.070 Cl
ENDROOT
TORSDOF 0
ENDMDL
