MODEL 1
REMARK minimizedAffinity 10.1774912
REMARK minimizedRMSD -1
REMARK  1 active torsions:
REMARK  status: ('A' for Active; 'I' for Inactive)
REMARK    1  A    between atoms: C1_2  and  C2_3 
ROOT
ATOM      1  C2  UNL d   1       2.826  -0.008  -1.140  0.00  0.00    -0.076 A 
ATOM      2  C3  UNL d   1       3.553   0.442  -2.256  0.00  0.00     0.004 A 
ATOM      3  C4  UNL d   1       4.759   1.124  -2.099  0.00  0.00    -0.003 A 
ATOM      4  C5  UNL d   1       5.258   1.365  -0.824  0.00  0.00     0.000 A 
ATOM      5  C6  UNL d   1       4.558   0.910   0.294  0.00  0.00     0.000 A 
ATOM      6  C7  UNL d   1       3.349   0.207   0.153  0.00  0.00    -0.073 A 
ATOM      7  C8  UNL d   1       2.634  -0.255   1.392  0.00  0.00     0.078 C 
ENDROOT
BRANCH   1   8
ATOM      8  C1  UNL d   1       1.510  -0.717  -1.371  0.00  0.00     0.053 C 
ATOM      9  C   UNL d   1       0.326   0.237  -1.368  0.00  0.00     0.018 C 
ENDBRANCH   1   8
TORSDOF 1
ENDMDL
