MODEL 1
REMARK minimizedAffinity 8.98009682
REMARK minimizedRMSD -1
REMARK  1 active torsions:
REMARK  status: ('A' for Active; 'I' for Inactive)
REMARK    1  A    between atoms: C1_2  and  C2_3 
ROOT
ATOM      1  C2  UNL d   1       2.747   3.259   4.836  0.00  0.00    -0.076 A 
ATOM      2  C3  UNL d   1       3.276   3.844   6.000  0.00  0.00     0.004 A 
ATOM      3  C4  UNL d   1       4.518   4.475   5.985  0.00  0.00    -0.003 A 
ATOM      4  C5  UNL d   1       5.253   4.532   4.806  0.00  0.00     0.000 A 
ATOM      5  C6  UNL d   1       4.736   3.972   3.638  0.00  0.00     0.000 A 
ATOM      6  C7  UNL d   1       3.478   3.347   3.632  0.00  0.00    -0.073 A 
ATOM      7  C8  UNL d   1       2.972   2.755   2.345  0.00  0.00     0.078 C 
ENDROOT
BRANCH   1   8
ATOM      8  C1  UNL d   1       1.407   2.565   4.919  0.00  0.00     0.053 C 
ATOM      9  C   UNL d   1       0.315   3.315   4.173  0.00  0.00     0.018 C 
ENDBRANCH   1   8
TORSDOF 1
ENDMDL
