MODEL 1
REMARK minimizedAffinity -3.70480752
REMARK minimizedRMSD -1
REMARK  1 active torsions:
REMARK  status: ('A' for Active; 'I' for Inactive)
REMARK    1  A    between atoms: C1_2  and  C2_3 
ROOT
ATOM      1  C2  UNL d   1       2.364   4.120   4.921  0.00  0.00    -0.076 A 
ATOM      2  C3  UNL d   1       3.179   4.514   5.996  0.00  0.00     0.004 A 
ATOM      3  C4  UNL d   1       4.501   4.905   5.789  0.00  0.00    -0.003 A 
ATOM      4  C5  UNL d   1       5.030   4.908   4.503  0.00  0.00     0.000 A 
ATOM      5  C6  UNL d   1       4.230   4.537   3.422  0.00  0.00     0.000 A 
ATOM      6  C7  UNL d   1       2.891   4.156   3.612  0.00  0.00    -0.073 A 
ATOM      7  C8  UNL d   1       2.076   3.760   2.411  0.00  0.00     0.078 C 
ENDROOT
BRANCH   1   8
ATOM      8  C1  UNL d   1       0.947   3.681   5.209  0.00  0.00     0.053 C 
ATOM      9  C   UNL d   1       0.799   2.167   5.233  0.00  0.00     0.018 C 
ENDBRANCH   1   8
TORSDOF 1
ENDMDL
