MODEL 1
REMARK minimizedAffinity 10.2842731
REMARK minimizedRMSD -1
REMARK  1 active torsions:
REMARK  status: ('A' for Active; 'I' for Inactive)
REMARK    1  A    between atoms: C1_2  and  C2_3 
ROOT
ATOM      1  C2  UNL d   1       1.778   3.072   4.796  0.00  0.00    -0.076 A 
ATOM      2  C3  UNL d   1       2.445   3.360   5.999  0.00  0.00     0.004 A 
ATOM      3  C4  UNL d   1       3.749   3.852   5.997  0.00  0.00    -0.003 A 
ATOM      4  C5  UNL d   1       4.407   4.065   4.791  0.00  0.00     0.000 A 
ATOM      5  C6  UNL d   1       3.755   3.801   3.587  0.00  0.00     0.000 A 
ATOM      6  C7  UNL d   1       2.435   3.320   3.571  0.00  0.00    -0.073 A 
ATOM      7  C8  UNL d   1       1.781   3.047   2.244  0.00  0.00     0.078 C 
ENDROOT
BRANCH   1   8
ATOM      8  C1  UNL d   1       0.374   2.515   4.861  0.00  0.00     0.053 C 
ATOM      9  C   UNL d   1       0.350   1.036   5.215  0.00  0.00     0.018 C 
ENDBRANCH   1   8
TORSDOF 1
ENDMDL
