MODEL 1
REMARK minimizedAffinity 4.57703543
REMARK minimizedRMSD -1
REMARK  1 active torsions:
REMARK  status: ('A' for Active; 'I' for Inactive)
REMARK    1  A    between atoms: C1_2  and  C2_3 
ROOT
ATOM      1  C2  UNL d   1       4.858   1.355  -1.903  0.00  0.00    -0.076 A 
ATOM      2  C3  UNL d   1       3.910   0.785  -2.770  0.00  0.00     0.004 A 
ATOM      3  C4  UNL d   1       2.854   0.021  -2.277  0.00  0.00    -0.003 A 
ATOM      4  C5  UNL d   1       2.729  -0.186  -0.907  0.00  0.00     0.000 A 
ATOM      5  C6  UNL d   1       3.650   0.387  -0.031  0.00  0.00     0.000 A 
ATOM      6  C7  UNL d   1       4.711   1.174  -0.511  0.00  0.00    -0.073 A 
ATOM      7  C8  UNL d   1       5.679   1.762   0.479  0.00  0.00     0.078 C 
ENDROOT
BRANCH   1   8
ATOM      8  C1  UNL d   1       5.997   2.152  -2.498  0.00  0.00     0.053 C 
ATOM      9  C   UNL d   1       5.528   3.449  -3.139  0.00  0.00     0.018 C 
ENDBRANCH   1   8
TORSDOF 1
ENDMDL
