MODEL 1
REMARK minimizedAffinity 7.0767765
REMARK minimizedRMSD -1
REMARK  1 active torsions:
REMARK  status: ('A' for Active; 'I' for Inactive)
REMARK    1  A    between atoms: C1_2  and  C2_3 
ROOT
ATOM      1  C2  UNL d   1       4.872   1.716  -1.452  0.00  0.00    -0.076 A 
ATOM      2  C3  UNL d   1       4.956   2.033  -0.085  0.00  0.00     0.004 A 
ATOM      3  C4  UNL d   1       3.999   1.572   0.818  0.00  0.00    -0.003 A 
ATOM      4  C5  UNL d   1       2.943   0.787   0.369  0.00  0.00     0.000 A 
ATOM      5  C6  UNL d   1       2.854   0.448  -0.981  0.00  0.00     0.000 A 
ATOM      6  C7  UNL d   1       3.819   0.891  -1.902  0.00  0.00    -0.073 A 
ATOM      7  C8  UNL d   1       3.671   0.501  -3.347  0.00  0.00     0.078 C 
ENDROOT
BRANCH   1   8
ATOM      8  C1  UNL d   1       5.924   2.267  -2.388  0.00  0.00     0.053 C 
ATOM      9  C   UNL d   1       5.726   3.746  -2.681  0.00  0.00     0.018 C 
ENDBRANCH   1   8
TORSDOF 1
ENDMDL
