MODEL 1
REMARK minimizedAffinity 3.0976522
REMARK minimizedRMSD -1
REMARK  1 active torsions:
REMARK  status: ('A' for Active; 'I' for Inactive)
REMARK    1  A    between atoms: C1_2  and  C2_3 
ROOT
ATOM      1  C2  UNL d   1      -1.069   0.690  -1.347  0.00  0.00    -0.076 A 
ATOM      2  C3  UNL d   1      -2.108   1.470  -0.810  0.00  0.00     0.004 A 
ATOM      3  C4  UNL d   1      -1.835   2.540   0.040  0.00  0.00    -0.003 A 
ATOM      4  C5  UNL d   1      -0.519   2.848   0.367  0.00  0.00     0.000 A 
ATOM      5  C6  UNL d   1       0.525   2.096  -0.171  0.00  0.00     0.000 A 
ATOM      6  C7  UNL d   1       0.268   1.024  -1.043  0.00  0.00    -0.073 A 
ATOM      7  C8  UNL d   1       1.432   0.242  -1.589  0.00  0.00     0.078 C 
ENDROOT
BRANCH   1   8
ATOM      8  C1  UNL d   1      -1.427  -0.475  -2.242  0.00  0.00     0.053 C 
ATOM      9  C   UNL d   1      -1.859  -1.703  -1.456  0.00  0.00     0.018 C 
ENDBRANCH   1   8
TORSDOF 1
ENDMDL
