MODEL 1
REMARK minimizedAffinity 2.51081014
REMARK minimizedRMSD -1
REMARK  1 active torsions:
REMARK  status: ('A' for Active; 'I' for Inactive)
REMARK    1  A    between atoms: C1_2  and  C2_3 
ROOT
ATOM      1  C2  UNL d   1       4.849   1.573  -1.968  0.00  0.00    -0.076 A 
ATOM      2  C3  UNL d   1       3.884   0.947  -2.776  0.00  0.00     0.004 A 
ATOM      3  C4  UNL d   1       2.816   0.252  -2.211  0.00  0.00    -0.003 A 
ATOM      4  C5  UNL d   1       2.696   0.171  -0.828  0.00  0.00     0.000 A 
ATOM      5  C6  UNL d   1       3.634   0.801  -0.011  0.00  0.00     0.000 A 
ATOM      6  C7  UNL d   1       4.707   1.519  -0.564  0.00  0.00    -0.073 A 
ATOM      7  C8  UNL d   1       5.693   2.174   0.364  0.00  0.00     0.078 C 
ENDROOT
BRANCH   1   8
ATOM      8  C1  UNL d   1       6.000   2.289  -2.637  0.00  0.00     0.053 C 
ATOM      9  C   UNL d   1       5.652   3.720  -3.019  0.00  0.00     0.018 C 
ENDBRANCH   1   8
TORSDOF 1
ENDMDL
