MODEL 1
REMARK minimizedAffinity 5.53957367
REMARK minimizedRMSD -1
REMARK  1 active torsions:
REMARK  status: ('A' for Active; 'I' for Inactive)
REMARK    1  A    between atoms: C1_2  and  C2_3 
ROOT
ATOM      1  C2  UNL d   1       1.062   2.598   0.652  0.00  0.00    -0.076 A 
ATOM      2  C3  UNL d   1       0.644   1.987  -0.543  0.00  0.00     0.004 A 
ATOM      3  C4  UNL d   1       1.446   1.045  -1.186  0.00  0.00    -0.003 A 
ATOM      4  C5  UNL d   1       2.678   0.698  -0.643  0.00  0.00     0.000 A 
ATOM      5  C6  UNL d   1       3.101   1.281   0.551  0.00  0.00     0.000 A 
ATOM      6  C7  UNL d   1       2.297   2.221   1.220  0.00  0.00    -0.073 A 
ATOM      7  C8  UNL d   1       2.805   2.823   2.501  0.00  0.00     0.078 C 
ENDROOT
BRANCH   1   8
ATOM      8  C1  UNL d   1       0.162   3.633   1.289  0.00  0.00     0.053 C 
ATOM      9  C   UNL d   1      -1.150   3.805   0.539  0.00  0.00     0.018 C 
ENDBRANCH   1   8
TORSDOF 1
ENDMDL
