MODEL 1
REMARK minimizedAffinity 2.10459161
REMARK minimizedRMSD -1
REMARK  1 active torsions:
REMARK  status: ('A' for Active; 'I' for Inactive)
REMARK    1  A    between atoms: C1_2  and  C2_3 
ROOT
ATOM      1  C2  UNL d   1       4.612   3.810   3.097  0.00  0.00    -0.076 A 
ATOM      2  C3  UNL d   1       3.631   3.296   2.230  0.00  0.00     0.004 A 
ATOM      3  C4  UNL d   1       2.973   4.122   1.321  0.00  0.00    -0.003 A 
ATOM      4  C5  UNL d   1       3.284   5.476   1.263  0.00  0.00     0.000 A 
ATOM      5  C6  UNL d   1       4.267   6.000   2.103  0.00  0.00     0.000 A 
ATOM      6  C7  UNL d   1       4.952   5.177   3.014  0.00  0.00    -0.073 A 
ATOM      7  C8  UNL d   1       5.999   5.796   3.899  0.00  0.00     0.078 C 
ENDROOT
BRANCH   1   8
ATOM      8  C1  UNL d   1       5.273   2.871   4.080  0.00  0.00     0.053 C 
ATOM      9  C   UNL d   1       4.501   1.573   4.256  0.00  0.00     0.018 C 
ENDBRANCH   1   8
TORSDOF 1
ENDMDL
