MODEL 1
REMARK minimizedAffinity 6.90238094
REMARK minimizedRMSD -1
REMARK  1 active torsions:
REMARK  status: ('A' for Active; 'I' for Inactive)
REMARK    1  A    between atoms: C1_2  and  C2_3 
ROOT
ATOM      1  C2  UNL d   1      -0.223  -1.677  -3.747  0.00  0.00    -0.076 A 
ATOM      2  C3  UNL d   1      -0.083  -0.473  -3.036  0.00  0.00     0.004 A 
ATOM      3  C4  UNL d   1       0.804   0.513  -3.462  0.00  0.00    -0.003 A 
ATOM      4  C5  UNL d   1       1.566   0.312  -4.608  0.00  0.00     0.000 A 
ATOM      5  C6  UNL d   1       1.428  -0.870  -5.336  0.00  0.00     0.000 A 
ATOM      6  C7  UNL d   1       0.525  -1.867  -4.929  0.00  0.00    -0.073 A 
ATOM      7  C8  UNL d   1       0.421  -3.124  -5.748  0.00  0.00     0.078 C 
ENDROOT
BRANCH   1   8
ATOM      8  C1  UNL d   1      -1.181  -2.722  -3.222  0.00  0.00     0.053 C 
ATOM      9  C   UNL d   1      -1.498  -2.533  -1.746  0.00  0.00     0.018 C 
ENDBRANCH   1   8
TORSDOF 1
ENDMDL
