MODEL 1
REMARK minimizedAffinity 8.04997253
REMARK minimizedRMSD -1
REMARK  1 active torsions:
REMARK  status: ('A' for Active; 'I' for Inactive)
REMARK    1  A    between atoms: C1_2  and  C2_3 
ROOT
ATOM      1  C2  UNL d   1       1.201  -1.193   3.783  0.00  0.00    -0.076 A 
ATOM      2  C3  UNL d   1       0.856  -1.996   2.682  0.00  0.00     0.004 A 
ATOM      3  C4  UNL d   1       0.059  -1.498   1.652  0.00  0.00    -0.003 A 
ATOM      4  C5  UNL d   1      -0.405  -0.188   1.707  0.00  0.00     0.000 A 
ATOM      5  C6  UNL d   1      -0.058   0.628   2.783  0.00  0.00     0.000 A 
ATOM      6  C7  UNL d   1       0.758   0.146   3.821  0.00  0.00    -0.073 A 
ATOM      7  C8  UNL d   1       1.097   1.068   4.961  0.00  0.00     0.078 C 
ENDROOT
BRANCH   1   8
ATOM      8  C1  UNL d   1       2.046  -1.796   4.882  0.00  0.00     0.053 C 
ATOM      9  C   UNL d   1       1.867  -3.302   4.995  0.00  0.00     0.018 C 
ENDBRANCH   1   8
TORSDOF 1
ENDMDL
