MODEL 1
REMARK minimizedAffinity 14.1384134
REMARK minimizedRMSD -1
REMARK  1 active torsions:
REMARK  status: ('A' for Active; 'I' for Inactive)
REMARK    1  A    between atoms: C1_2  and  C2_3 
ROOT
ATOM      1  C2  UNL d   1       4.243  -1.458   4.172  0.00  0.00    -0.076 A 
ATOM      2  C3  UNL d   1       5.088  -0.359   4.408  0.00  0.00     0.004 A 
ATOM      3  C4  UNL d   1       4.799   0.895   3.874  0.00  0.00    -0.003 A 
ATOM      4  C5  UNL d   1       3.661   1.072   3.095  0.00  0.00     0.000 A 
ATOM      5  C6  UNL d   1       2.803  -0.002   2.865  0.00  0.00     0.000 A 
ATOM      6  C7  UNL d   1       3.070  -1.270   3.409  0.00  0.00    -0.073 A 
ATOM      7  C8  UNL d   1       2.113  -2.394   3.123  0.00  0.00     0.078 C 
ENDROOT
BRANCH   1   8
ATOM      8  C1  UNL d   1       4.621  -2.801   4.754  0.00  0.00     0.053 C 
ATOM      9  C   UNL d   1       5.996  -2.788   5.404  0.00  0.00     0.018 C 
ENDBRANCH   1   8
TORSDOF 1
ENDMDL
