MODEL 1
REMARK minimizedAffinity -3.90227532
REMARK minimizedRMSD -1
REMARK  0 active torsions:
REMARK  status: ('A' for Active; 'I' for Inactive)
ROOT
ATOM      1  N1  IND d   1       1.856   2.891   0.852  0.00  0.00    -0.196 N 
ATOM      2  C2  IND d   1       2.121   2.352   2.079  0.00  0.00     0.054 A 
ATOM      3  C3  IND d   1       1.393   1.228   2.267  0.00  0.00    -0.031 A 
ATOM      4  C4  IND d   1      -0.221   0.037   0.654  0.00  0.00     0.051 A 
ATOM      5  C5  IND d   1      -0.814   0.170  -0.570  0.00  0.00    -0.031 A 
ATOM      6  C6  IND d   1      -0.539   1.237  -1.401  0.00  0.00     0.015 A 
ATOM      7  C7  IND d   1       0.351   2.209  -1.042  0.00  0.00    -0.016 A 
ATOM      8  C8  IND d   1       0.950   2.081   0.204  0.00  0.00    -0.047 A 
ATOM      9  C9  IND d   1       0.643   1.023   1.069  0.00  0.00    -0.096 A 
ATOM     10  HN1 IND d   1       2.198   3.614   0.537  0.00  0.00     0.298 HD
ENDROOT
TORSDOF 0
ENDMDL
