MODEL 1
REMARK minimizedAffinity -2.6884594
REMARK minimizedRMSD -1
REMARK  0 active torsions:
REMARK  status: ('A' for Active; 'I' for Inactive)
ROOT
ATOM      1  N1  IND d   1       0.551  -0.291  -1.222  0.00  0.00    -0.196 N 
ATOM      2  C2  IND d   1      -0.444  -1.228  -1.225  0.00  0.00     0.054 A 
ATOM      3  C3  IND d   1      -1.223  -1.090  -0.129  0.00  0.00    -0.031 A 
ATOM      4  C4  IND d   1      -1.109   0.669   1.747  0.00  0.00     0.051 A 
ATOM      5  C5  IND d   1      -0.350   1.709   2.204  0.00  0.00    -0.031 A 
ATOM      6  C6  IND d   1       0.770   2.146   1.527  0.00  0.00     0.015 A 
ATOM      7  C7  IND d   1       1.167   1.564   0.356  0.00  0.00    -0.016 A 
ATOM      8  C8  IND d   1       0.402   0.503  -0.107  0.00  0.00    -0.047 A 
ATOM      9  C9  IND d   1      -0.711   0.027   0.599  0.00  0.00    -0.096 A 
ATOM     10  HN1 IND d   1       1.167  -0.212  -1.817  0.00  0.00     0.298 HD
ENDROOT
TORSDOF 0
ENDMDL
