MODEL 1
REMARK minimizedAffinity -0.799027741
REMARK minimizedRMSD -1
REMARK  0 active torsions:
REMARK  status: ('A' for Active; 'I' for Inactive)
ROOT
ATOM      1  N1  IND d   1       0.505   1.608   2.326  0.00  0.00    -0.196 N 
ATOM      2  C2  IND d   1       1.158   2.642   1.715  0.00  0.00     0.054 A 
ATOM      3  C3  IND d   1       1.205   2.445   0.378  0.00  0.00    -0.031 A 
ATOM      4  C4  IND d   1       0.187   0.547  -1.032  0.00  0.00     0.051 A 
ATOM      5  C5  IND d   1      -0.471  -0.645  -0.918  0.00  0.00    -0.031 A 
ATOM      6  C6  IND d   1      -0.848  -1.156   0.307  0.00  0.00     0.015 A 
ATOM      7  C7  IND d   1      -0.589  -0.485   1.469  0.00  0.00    -0.016 A 
ATOM      8  C8  IND d   1       0.086   0.722   1.358  0.00  0.00    -0.047 A 
ATOM      9  C9  IND d   1       0.508   1.225   0.121  0.00  0.00    -0.096 A 
ATOM     10  HN1 IND d   1       0.377   1.526   3.172  0.00  0.00     0.298 HD
ENDROOT
TORSDOF 0
ENDMDL
