MODEL 1
REMARK minimizedAffinity -4.80944252
REMARK minimizedRMSD -1
REMARK  0 active torsions:
REMARK  status: ('A' for Active; 'I' for Inactive)
ROOT
ATOM      1  N1  IND d   1      -0.602   1.173   1.507  0.00  0.00    -0.196 N 
ATOM      2  C2  IND d   1       0.246   2.222   1.726  0.00  0.00     0.054 A 
ATOM      3  C3  IND d   1       1.413   2.028   1.070  0.00  0.00    -0.031 A 
ATOM      4  C4  IND d   1       2.107   0.110  -0.501  0.00  0.00     0.051 A 
ATOM      5  C5  IND d   1       1.681  -1.097  -0.981  0.00  0.00    -0.031 A 
ATOM      6  C6  IND d   1       0.447  -1.618  -0.651  0.00  0.00     0.015 A 
ATOM      7  C7  IND d   1      -0.417  -0.943   0.165  0.00  0.00    -0.016 A 
ATOM      8  C8  IND d   1       0.015   0.279   0.660  0.00  0.00    -0.047 A 
ATOM      9  C9  IND d   1       1.284   0.794   0.363  0.00  0.00    -0.096 A 
ATOM     10  HN1 IND d   1      -1.389   1.086   1.843  0.00  0.00     0.298 HD
ENDROOT
TORSDOF 0
ENDMDL
