MODEL 1
REMARK minimizedAffinity -1.8895427
REMARK minimizedRMSD -1
REMARK  0 active torsions:
REMARK  status: ('A' for Active; 'I' for Inactive)
ROOT
ATOM      1  N1  IND d   1      -1.022  -0.552  -0.520  0.00  0.00    -0.196 N 
ATOM      2  C2  IND d   1      -0.799  -0.228  -1.829  0.00  0.00     0.054 A 
ATOM      3  C3  IND d   1      -0.043   0.890  -1.914  0.00  0.00    -0.031 A 
ATOM      4  C4  IND d   1       1.021   2.292  -0.036  0.00  0.00     0.051 A 
ATOM      5  C5  IND d   1       1.069   2.410   1.325  0.00  0.00    -0.031 A 
ATOM      6  C6  IND d   1       0.412   1.528   2.157  0.00  0.00     0.015 A 
ATOM      7  C7  IND d   1      -0.312   0.483   1.658  0.00  0.00    -0.016 A 
ATOM      8  C8  IND d   1      -0.369   0.364   0.276  0.00  0.00    -0.047 A 
ATOM      9  C9  IND d   1       0.261   1.281  -0.574  0.00  0.00    -0.096 A 
ATOM     10  HN1 IND d   1      -1.492  -1.216  -0.240  0.00  0.00     0.298 HD
ENDROOT
TORSDOF 0
ENDMDL
