MODEL 1
REMARK minimizedAffinity -5.76158142
REMARK minimizedRMSD -1
REMARK  0 active torsions:
REMARK  status: ('A' for Active; 'I' for Inactive)
ROOT
ATOM      1  N1  IND d   1      -0.363   1.419   1.190  0.00  0.00    -0.196 N 
ATOM      2  C2  IND d   1       0.469   2.480   1.413  0.00  0.00     0.054 A 
ATOM      3  C3  IND d   1       1.651   2.292   0.784  0.00  0.00    -0.031 A 
ATOM      4  C4  IND d   1       2.398   0.365  -0.751  0.00  0.00     0.051 A 
ATOM      5  C5  IND d   1       1.996  -0.852  -1.225  0.00  0.00    -0.031 A 
ATOM      6  C6  IND d   1       0.761  -1.384  -0.915  0.00  0.00     0.015 A 
ATOM      7  C7  IND d   1      -0.126  -0.710  -0.124  0.00  0.00    -0.016 A 
ATOM      8  C8  IND d   1       0.282   0.523   0.365  0.00  0.00    -0.047 A 
ATOM      9  C9  IND d   1       1.550   1.049   0.088  0.00  0.00    -0.096 A 
ATOM     10  HN1 IND d   1      -1.155   1.326   1.510  0.00  0.00     0.298 HD
ENDROOT
TORSDOF 0
ENDMDL
