MODEL 1
REMARK minimizedAffinity -2.86172104
REMARK minimizedRMSD -1
REMARK  0 active torsions:
REMARK  status: ('A' for Active; 'I' for Inactive)
ROOT
ATOM      1  N1  IND d   1      -1.912   5.969  -5.622  0.00  0.00    -0.196 N 
ATOM      2  C2  IND d   1      -1.131   5.951  -4.499  0.00  0.00     0.054 A 
ATOM      3  C3  IND d   1      -1.903   5.959  -3.389  0.00  0.00    -0.031 A 
ATOM      4  C4  IND d   1      -4.469   5.898  -3.181  0.00  0.00     0.051 A 
ATOM      5  C5  IND d   1      -5.611   5.943  -3.929  0.00  0.00    -0.031 A 
ATOM      6  C6  IND d   1      -5.579   5.997  -5.308  0.00  0.00     0.015 A 
ATOM      7  C7  IND d   1      -4.397   5.996  -5.993  0.00  0.00    -0.016 A 
ATOM      8  C8  IND d   1      -3.234   5.959  -5.236  0.00  0.00    -0.047 A 
ATOM      9  C9  IND d   1      -3.260   5.947  -3.836  0.00  0.00    -0.096 A 
ATOM     10  HN1 IND d   1      -1.625   5.984  -6.432  0.00  0.00     0.298 HD
ENDROOT
TORSDOF 0
ENDMDL
