MODEL 1
REMARK minimizedAffinity -4.82814789
REMARK minimizedRMSD -1
REMARK  0 active torsions:
REMARK  status: ('A' for Active; 'I' for Inactive)
ROOT
ATOM      1  N1  IND d   1       0.545  -0.749  -0.248  0.00  0.00    -0.196 N 
ATOM      2  C2  IND d   1      -0.298  -1.329   0.659  0.00  0.00     0.054 A 
ATOM      3  C3  IND d   1      -0.610  -0.450   1.638  0.00  0.00    -0.031 A 
ATOM      4  C4  IND d   1       0.065   2.020   1.896  0.00  0.00     0.051 A 
ATOM      5  C5  IND d   1       0.854   2.985   1.335  0.00  0.00    -0.031 A 
ATOM      6  C6  IND d   1       1.594   2.751   0.194  0.00  0.00     0.015 A 
ATOM      7  C7  IND d   1       1.562   1.541  -0.439  0.00  0.00    -0.016 A 
ATOM      8  C8  IND d   1       0.767   0.556   0.131  0.00  0.00    -0.047 A 
ATOM      9  C9  IND d   1       0.048   0.775   1.313  0.00  0.00    -0.096 A 
ATOM     10  HN1 IND d   1       0.880  -1.135  -0.940  0.00  0.00     0.298 HD
ENDROOT
TORSDOF 0
ENDMDL
