MODEL 1
REMARK minimizedAffinity -3.42672133
REMARK minimizedRMSD -1
REMARK  0 active torsions:
REMARK  status: ('A' for Active; 'I' for Inactive)
ROOT
ATOM      1  N1  IND d   1       0.298  -0.091  -0.986  0.00  0.00    -0.196 N 
ATOM      2  C2  IND d   1      -0.845  -0.841  -0.950  0.00  0.00     0.054 A 
ATOM      3  C3  IND d   1      -1.426  -0.753   0.268  0.00  0.00    -0.031 A 
ATOM      4  C4  IND d   1      -0.731   0.643   2.315  0.00  0.00     0.051 A 
ATOM      5  C5  IND d   1       0.264   1.461   2.774  0.00  0.00    -0.031 A 
ATOM      6  C6  IND d   1       1.341   1.812   1.987  0.00  0.00     0.015 A 
ATOM      7  C7  IND d   1       1.458   1.366   0.701  0.00  0.00    -0.016 A 
ATOM      8  C8  IND d   1       0.454   0.530   0.233  0.00  0.00    -0.047 A 
ATOM      9  C9  IND d   1      -0.620   0.136   1.042  0.00  0.00    -0.096 A 
ATOM     10  HN1 IND d   1       0.830  -0.019  -1.658  0.00  0.00     0.298 HD
ENDROOT
TORSDOF 0
ENDMDL
