MODEL 1
REMARK minimizedAffinity -2.22756577
REMARK minimizedRMSD -1
REMARK  0 active torsions:
REMARK  status: ('A' for Active; 'I' for Inactive)
ROOT
ATOM      1  N1  IND d   1      -5.923  -2.346  -1.298  0.00  0.00    -0.196 N 
ATOM      2  C2  IND d   1      -5.968  -3.260  -0.283  0.00  0.00     0.054 A 
ATOM      3  C3  IND d   1      -4.725  -3.706   0.004  0.00  0.00    -0.031 A 
ATOM      4  C4  IND d   1      -2.461  -2.998  -0.997  0.00  0.00     0.051 A 
ATOM      5  C5  IND d   1      -1.913  -2.219  -1.978  0.00  0.00    -0.031 A 
ATOM      6  C6  IND d   1      -2.689  -1.425  -2.797  0.00  0.00     0.015 A 
ATOM      7  C7  IND d   1      -4.047  -1.371  -2.658  0.00  0.00    -0.016 A 
ATOM      8  C8  IND d   1      -4.608  -2.166  -1.668  0.00  0.00    -0.047 A 
ATOM      9  C9  IND d   1      -3.829  -3.006  -0.861  0.00  0.00    -0.096 A 
ATOM     10  HN1 IND d   1      -6.601  -1.950  -1.648  0.00  0.00     0.298 HD
ENDROOT
TORSDOF 0
ENDMDL
