MODEL 1
REMARK minimizedAffinity -2.64005637
REMARK minimizedRMSD -1
REMARK  0 active torsions:
REMARK  status: ('A' for Active; 'I' for Inactive)
ROOT
ATOM      1  N1  IND d   1       3.112  -0.206  -0.324  0.00  0.00    -0.196 N 
ATOM      2  C2  IND d   1       3.844   0.758   0.312  0.00  0.00     0.054 A 
ATOM      3  C3  IND d   1       3.065   1.446   1.176  0.00  0.00    -0.031 A 
ATOM      4  C4  IND d   1       0.588   1.094   1.783  0.00  0.00     0.051 A 
ATOM      5  C5  IND d   1      -0.511   0.359   1.439  0.00  0.00    -0.031 A 
ATOM      6  C6  IND d   1      -0.457  -0.624   0.471  0.00  0.00     0.015 A 
ATOM      7  C7  IND d   1       0.706  -0.917  -0.183  0.00  0.00    -0.016 A 
ATOM      8  C8  IND d   1       1.823  -0.168   0.160  0.00  0.00    -0.047 A 
ATOM      9  C9  IND d   1       1.764   0.859   1.111  0.00  0.00    -0.096 A 
ATOM     10  HN1 IND d   1       3.407  -0.745  -0.926  0.00  0.00     0.298 HD
ENDROOT
TORSDOF 0
ENDMDL
