MODEL 1
REMARK minimizedAffinity -4.76481199
REMARK minimizedRMSD -1
REMARK  0 active torsions:
REMARK  status: ('A' for Active; 'I' for Inactive)
ROOT
ATOM      1  N1  IND d   1      -0.389   0.786   1.942  0.00  0.00    -0.196 N 
ATOM      2  C2  IND d   1       0.165   1.843   2.610  0.00  0.00     0.054 A 
ATOM      3  C3  IND d   1       1.414   2.085   2.153  0.00  0.00    -0.031 A 
ATOM      4  C4  IND d   1       2.710   0.938   0.246  0.00  0.00     0.051 A 
ATOM      5  C5  IND d   1       2.631  -0.104  -0.635  0.00  0.00    -0.031 A 
ATOM      6  C6  IND d   1       1.519  -0.917  -0.705  0.00  0.00     0.015 A 
ATOM      7  C7  IND d   1       0.434  -0.711   0.099  0.00  0.00    -0.016 A 
ATOM      8  C8  IND d   1       0.512   0.342   0.999  0.00  0.00    -0.047 A 
ATOM      9  C9  IND d   1       1.656   1.145   1.105  0.00  0.00    -0.096 A 
ATOM     10  HN1 IND d   1      -1.169   0.455   2.087  0.00  0.00     0.298 HD
ENDROOT
TORSDOF 0
ENDMDL
