MODEL 1
REMARK minimizedAffinity -5.12309408
REMARK minimizedRMSD -1
REMARK  0 active torsions:
REMARK  status: ('A' for Active; 'I' for Inactive)
ROOT
ATOM      1  N1  IND d   1       3.169  -0.331  -0.243  0.00  0.00    -0.196 N 
ATOM      2  C2  IND d   1       4.068   0.492   0.374  0.00  0.00     0.054 A 
ATOM      3  C3  IND d   1       3.423   1.460   1.063  0.00  0.00    -0.031 A 
ATOM      4  C4  IND d   1       0.896   1.822   1.400  0.00  0.00     0.051 A 
ATOM      5  C5  IND d   1      -0.322   1.347   1.002  0.00  0.00    -0.031 A 
ATOM      6  C6  IND d   1      -0.442   0.265   0.154  0.00  0.00     0.015 A 
ATOM      7  C7  IND d   1       0.658  -0.392  -0.321  0.00  0.00    -0.016 A 
ATOM      8  C8  IND d   1       1.897   0.091   0.075  0.00  0.00    -0.047 A 
ATOM      9  C9  IND d   1       2.025   1.215   0.901  0.00  0.00    -0.096 A 
ATOM     10  HN1 IND d   1       3.364  -1.001  -0.746  0.00  0.00     0.298 HD
ENDROOT
TORSDOF 0
ENDMDL
