MODEL 1
REMARK minimizedAffinity -4.34390306
REMARK minimizedRMSD -1
REMARK  0 active torsions:
REMARK  status: ('A' for Active; 'I' for Inactive)
ROOT
ATOM      1  N1  IND d   1      -5.440  -2.425  -1.557  0.00  0.00    -0.196 N 
ATOM      2  C2  IND d   1      -5.322  -3.067  -0.356  0.00  0.00     0.054 A 
ATOM      3  C3  IND d   1      -4.024  -3.133   0.016  0.00  0.00    -0.031 A 
ATOM      4  C4  IND d   1      -1.939  -2.165  -1.143  0.00  0.00     0.051 A 
ATOM      5  C5  IND d   1      -1.539  -1.528  -2.284  0.00  0.00    -0.031 A 
ATOM      6  C6  IND d   1      -2.438  -1.147  -3.259  0.00  0.00     0.015 A 
ATOM      7  C7  IND d   1      -3.777  -1.380  -3.124  0.00  0.00    -0.016 A 
ATOM      8  C8  IND d   1      -4.186  -2.033  -1.970  0.00  0.00    -0.047 A 
ATOM      9  C9  IND d   1      -3.274  -2.461  -0.997  0.00  0.00    -0.096 A 
ATOM     10  HN1 IND d   1      -6.175  -2.289  -1.983  0.00  0.00     0.298 HD
ENDROOT
TORSDOF 0
ENDMDL
