MODEL 1
REMARK minimizedAffinity -3.6069231
REMARK minimizedRMSD -1
REMARK  0 active torsions:
REMARK  status: ('A' for Active; 'I' for Inactive)
ROOT
ATOM      1  N1  IND d   1       0.025   0.506  -1.301  0.00  0.00    -0.196 N 
ATOM      2  C2  IND d   1       0.227   0.311   0.037  0.00  0.00     0.054 A 
ATOM      3  C3  IND d   1      -0.631  -0.620   0.512  0.00  0.00    -0.031 A 
ATOM      4  C4  IND d   1      -2.381  -2.025  -0.750  0.00  0.00     0.051 A 
ATOM      5  C5  IND d   1      -2.957  -2.178  -1.980  0.00  0.00    -0.031 A 
ATOM      6  C6  IND d   1      -2.558  -1.430  -3.069  0.00  0.00     0.015 A 
ATOM      7  C7  IND d   1      -1.556  -0.506  -2.971  0.00  0.00    -0.016 A 
ATOM      8  C8  IND d   1      -0.974  -0.344  -1.722  0.00  0.00    -0.047 A 
ATOM      9  C9  IND d   1      -1.404  -1.069  -0.603  0.00  0.00    -0.096 A 
ATOM     10  HN1 IND d   1       0.451   1.065  -1.796  0.00  0.00     0.298 HD
ENDROOT
TORSDOF 0
ENDMDL
