MODEL 1
REMARK minimizedAffinity -4.58802271
REMARK minimizedRMSD -1
REMARK  0 active torsions:
REMARK  status: ('A' for Active; 'I' for Inactive)
ROOT
ATOM      1  N1  IND d   1       0.566  -0.644  -0.705  0.00  0.00    -0.196 N 
ATOM      2  C2  IND d   1      -0.411  -1.378  -0.090  0.00  0.00     0.054 A 
ATOM      3  C3  IND d   1      -0.835  -0.751   1.030  0.00  0.00    -0.031 A 
ATOM      4  C4  IND d   1      -0.138   1.534   1.989  0.00  0.00     0.051 A 
ATOM      5  C5  IND d   1       0.746   2.559   1.798  0.00  0.00    -0.031 A 
ATOM      6  C6  IND d   1       1.632   2.569   0.740  0.00  0.00     0.015 A 
ATOM      7  C7  IND d   1       1.658   1.557  -0.177  0.00  0.00    -0.016 A 
ATOM      8  C8  IND d   1       0.766   0.512   0.018  0.00  0.00    -0.047 A 
ATOM      9  C9  IND d   1      -0.106   0.475   1.114  0.00  0.00    -0.096 A 
ATOM     10  HN1 IND d   1       0.984  -0.867  -1.422  0.00  0.00     0.298 HD
ENDROOT
TORSDOF 0
ENDMDL
