MODEL 1
REMARK minimizedAffinity -2.98146796
REMARK minimizedRMSD -1
REMARK  0 active torsions:
REMARK  status: ('A' for Active; 'I' for Inactive)
ROOT
ATOM      1  N1  IND d   1       1.301  -1.414   0.062  0.00  0.00    -0.196 N 
ATOM      2  C2  IND d   1       2.342  -0.851  -0.621  0.00  0.00     0.054 A 
ATOM      3  C3  IND d   1       2.321   0.494  -0.485  0.00  0.00    -0.031 A 
ATOM      4  C4  IND d   1       0.730   1.974   0.896  0.00  0.00     0.051 A 
ATOM      5  C5  IND d   1      -0.401   1.918   1.662  0.00  0.00    -0.031 A 
ATOM      6  C6  IND d   1      -1.034   0.724   1.941  0.00  0.00     0.015 A 
ATOM      7  C7  IND d   1      -0.550  -0.465   1.472  0.00  0.00    -0.016 A 
ATOM      8  C8  IND d   1       0.594  -0.412   0.689  0.00  0.00    -0.047 A 
ATOM      9  C9  IND d   1       1.216   0.801   0.367  0.00  0.00    -0.096 A 
ATOM     10  HN1 IND d   1       1.118  -2.254   0.095  0.00  0.00     0.298 HD
ENDROOT
TORSDOF 0
ENDMDL
