MODEL 1
REMARK minimizedAffinity -3.98140955
REMARK minimizedRMSD -1
REMARK  0 active torsions:
REMARK  status: ('A' for Active; 'I' for Inactive)
ROOT
ATOM      1  N1  IND d   1       0.347   1.915   2.128  0.00  0.00    -0.196 N 
ATOM      2  C2  IND d   1       1.429   2.673   1.774  0.00  0.00     0.054 A 
ATOM      3  C3  IND d   1       2.064   2.121   0.716  0.00  0.00    -0.031 A 
ATOM      4  C4  IND d   1       1.444   0.032  -0.656  0.00  0.00     0.051 A 
ATOM      5  C5  IND d   1       0.560  -1.010  -0.691  0.00  0.00    -0.031 A 
ATOM      6  C6  IND d   1      -0.462  -1.131   0.228  0.00  0.00     0.015 A 
ATOM      7  C7  IND d   1      -0.646  -0.204   1.214  0.00  0.00    -0.016 A 
ATOM      8  C8  IND d   1       0.254   0.851   1.258  0.00  0.00    -0.047 A 
ATOM      9  C9  IND d   1       1.319   0.957   0.354  0.00  0.00    -0.096 A 
ATOM     10  HN1 IND d   1      -0.185   2.076   2.784  0.00  0.00     0.298 HD
ENDROOT
TORSDOF 0
ENDMDL
