MODEL 1
REMARK minimizedAffinity -3.26513433
REMARK minimizedRMSD -1
REMARK  0 active torsions:
REMARK  status: ('A' for Active; 'I' for Inactive)
ROOT
ATOM      1  C   UNL d   1      -2.209  -0.042  -1.983  0.00  0.00    -0.002 A 
ATOM      2  C1  UNL d   1      -2.921  -0.834  -1.093  0.00  0.00     0.010 A 
ATOM      3  C2  UNL d   1      -2.306  -1.345   0.052  0.00  0.00     0.041 A 
ATOM      4  C3  UNL d   1      -0.951  -1.041   0.291  0.00  0.00    -0.075 A 
ATOM      5  S   UNL d   1       0.009  -1.556   1.627  0.00  0.00     0.015 SA
ATOM      6  C4  UNL d   1       1.386  -0.734   1.049  0.00  0.00     0.022 A 
ATOM      7  C5  UNL d   1       1.137  -0.079  -0.133  0.00  0.00     0.026 A 
ATOM      8  C6  UNL d   1      -0.214  -0.245  -0.590  0.00  0.00    -0.082 A 
ATOM      9  C7  UNL d   1      -0.865   0.257  -1.742  0.00  0.00     0.045 A 
ENDROOT
TORSDOF 0
ENDMDL
