MODEL 1
REMARK minimizedAffinity -3.24311924
REMARK minimizedRMSD -1
REMARK  0 active torsions:
REMARK  status: ('A' for Active; 'I' for Inactive)
ROOT
ATOM      1  C   UNL d   1      -2.105  -0.585  -1.962  0.00  0.00    -0.002 A 
ATOM      2  C1  UNL d   1      -2.679  -0.878  -0.733  0.00  0.00     0.010 A 
ATOM      3  C2  UNL d   1      -1.992  -0.613   0.453  0.00  0.00     0.041 A 
ATOM      4  C3  UNL d   1      -0.707  -0.041   0.383  0.00  0.00    -0.075 A 
ATOM      5  S   UNL d   1       0.321   0.372   1.704  0.00  0.00     0.015 SA
ATOM      6  C4  UNL d   1       1.546   0.948   0.668  0.00  0.00     0.022 A 
ATOM      7  C5  UNL d   1       1.196   0.835  -0.657  0.00  0.00     0.026 A 
ATOM      8  C6  UNL d   1      -0.108   0.264  -0.843  0.00  0.00    -0.082 A 
ATOM      9  C7  UNL d   1      -0.830  -0.018  -2.028  0.00  0.00     0.045 A 
ENDROOT
TORSDOF 0
ENDMDL
