MODEL 1
REMARK minimizedAffinity -4.07266569
REMARK minimizedRMSD -1
REMARK  0 active torsions:
REMARK  status: ('A' for Active; 'I' for Inactive)
ROOT
ATOM      1  C   UNL d   1      -2.708   0.343  -1.532  0.00  0.00    -0.002 A 
ATOM      2  C1  UNL d   1      -3.017  -0.751  -0.735  0.00  0.00     0.010 A 
ATOM      3  C2  UNL d   1      -2.044  -1.337   0.076  0.00  0.00     0.041 A 
ATOM      4  C3  UNL d   1      -0.741  -0.800   0.074  0.00  0.00    -0.075 A 
ATOM      5  S   UNL d   1       0.613  -1.353   0.987  0.00  0.00     0.015 SA
ATOM      6  C4  UNL d   1       1.634  -0.151   0.341  0.00  0.00     0.022 A 
ATOM      7  C5  UNL d   1       0.974   0.661  -0.550  0.00  0.00     0.026 A 
ATOM      8  C6  UNL d   1      -0.405   0.301  -0.719  0.00  0.00    -0.082 A 
ATOM      9  C7  UNL d   1      -1.415   0.873  -1.531  0.00  0.00     0.045 A 
ENDROOT
TORSDOF 0
ENDMDL
