MODEL 1
REMARK minimizedAffinity -3.2847259
REMARK minimizedRMSD -1
REMARK  0 active torsions:
REMARK  status: ('A' for Active; 'I' for Inactive)
ROOT
ATOM      1  C   UNL d   1      -2.268   0.029  -1.511  0.00  0.00    -0.002 A 
ATOM      2  C1  UNL d   1      -2.624  -0.794  -0.451  0.00  0.00     0.010 A 
ATOM      3  C2  UNL d   1      -1.662  -1.233   0.460  0.00  0.00     0.041 A 
ATOM      4  C3  UNL d   1      -0.324  -0.826   0.289  0.00  0.00    -0.075 A 
ATOM      5  S   UNL d   1       1.024  -1.239   1.282  0.00  0.00     0.015 SA
ATOM      6  C4  UNL d   1       2.103  -0.332   0.323  0.00  0.00     0.022 A 
ATOM      7  C5  UNL d   1       1.467   0.278  -0.733  0.00  0.00     0.026 A 
ATOM      8  C6  UNL d   1       0.058   0.003  -0.770  0.00  0.00    -0.082 A 
ATOM      9  C7  UNL d   1      -0.941   0.431  -1.678  0.00  0.00     0.045 A 
ENDROOT
TORSDOF 0
ENDMDL
