MODEL 1
REMARK minimizedAffinity -3.28606248
REMARK minimizedRMSD -1
REMARK  0 active torsions:
REMARK  status: ('A' for Active; 'I' for Inactive)
ROOT
ATOM      1  C   UNL d   1      -2.602  -0.329  -1.494  0.00  0.00    -0.002 A 
ATOM      2  C1  UNL d   1      -1.965   0.768  -2.057  0.00  0.00     0.010 A 
ATOM      3  C2  UNL d   1      -0.666   1.108  -1.674  0.00  0.00     0.041 A 
ATOM      4  C3  UNL d   1      -0.011   0.319  -0.709  0.00  0.00    -0.075 A 
ATOM      5  S   UNL d   1       1.582   0.545  -0.088  0.00  0.00     0.015 SA
ATOM      6  C4  UNL d   1       1.454  -0.810   0.938  0.00  0.00     0.022 A 
ATOM      7  C5  UNL d   1       0.234  -1.431   0.823  0.00  0.00     0.026 A 
ATOM      8  C6  UNL d   1      -0.631  -0.791  -0.129  0.00  0.00    -0.082 A 
ATOM      9  C7  UNL d   1      -1.948  -1.110  -0.537  0.00  0.00     0.045 A 
ENDROOT
TORSDOF 0
ENDMDL
