MODEL 1
REMARK minimizedAffinity -1.88181126
REMARK minimizedRMSD -1
REMARK  0 active torsions:
REMARK  status: ('A' for Active; 'I' for Inactive)
ROOT
ATOM      1  C   UNL d   1      -2.807   0.307  -1.698  0.00  0.00    -0.002 A 
ATOM      2  C1  UNL d   1      -3.145  -0.628  -0.730  0.00  0.00     0.010 A 
ATOM      3  C2  UNL d   1      -2.201  -1.056   0.205  0.00  0.00     0.041 A 
ATOM      4  C3  UNL d   1      -0.898  -0.522   0.151  0.00  0.00    -0.075 A 
ATOM      5  S   UNL d   1       0.423  -0.898   1.194  0.00  0.00     0.015 SA
ATOM      6  C4  UNL d   1       1.467   0.175   0.380  0.00  0.00     0.022 A 
ATOM      7  C5  UNL d   1       0.840   0.812  -0.665  0.00  0.00     0.026 A 
ATOM      8  C6  UNL d   1      -0.534   0.421  -0.813  0.00  0.00    -0.082 A 
ATOM      9  C7  UNL d   1      -1.514   0.834  -1.748  0.00  0.00     0.045 A 
ENDROOT
TORSDOF 0
ENDMDL
