MODEL 1
REMARK minimizedAffinity -1.22601569
REMARK minimizedRMSD -1
REMARK  0 active torsions:
REMARK  status: ('A' for Active; 'I' for Inactive)
ROOT
ATOM      1  C   UNL d   1      -3.282  -0.777  -0.513  0.00  0.00    -0.002 A 
ATOM      2  C1  UNL d   1      -3.036  -1.109   0.812  0.00  0.00     0.010 A 
ATOM      3  C2  UNL d   1      -1.764  -0.941   1.362  0.00  0.00     0.041 A 
ATOM      4  C3  UNL d   1      -0.734  -0.426   0.552  0.00  0.00    -0.075 A 
ATOM      5  S   UNL d   1       0.902  -0.133   1.011  0.00  0.00     0.015 SA
ATOM      6  C4  UNL d   1       1.313   0.441  -0.541  0.00  0.00     0.022 A 
ATOM      7  C5  UNL d   1       0.241   0.417  -1.400  0.00  0.00     0.026 A 
ATOM      8  C6  UNL d   1      -0.957  -0.083  -0.785  0.00  0.00    -0.082 A 
ATOM      9  C7  UNL d   1      -2.257  -0.266  -1.314  0.00  0.00     0.045 A 
ENDROOT
TORSDOF 0
ENDMDL
