MODEL 1
REMARK minimizedAffinity -1.4104079
REMARK minimizedRMSD -1
REMARK  0 active torsions:
REMARK  status: ('A' for Active; 'I' for Inactive)
ROOT
ATOM      1  C   UNL d   1      -1.240  -2.284   1.523  0.00  0.00    -0.002 A 
ATOM      2  C1  UNL d   1       0.036  -2.220   2.067  0.00  0.00     0.010 A 
ATOM      3  C2  UNL d   1       0.996  -1.363   1.527  0.00  0.00     0.041 A 
ATOM      4  C3  UNL d   1       0.649  -0.560   0.422  0.00  0.00    -0.075 A 
ATOM      5  S   UNL d   1       1.660   0.565  -0.405  0.00  0.00     0.015 SA
ATOM      6  C4  UNL d   1       0.423   0.989  -1.497  0.00  0.00     0.022 A 
ATOM      7  C5  UNL d   1      -0.740   0.298  -1.253  0.00  0.00     0.026 A 
ATOM      8  C6  UNL d   1      -0.630  -0.606  -0.142  0.00  0.00    -0.082 A 
ATOM      9  C7  UNL d   1      -1.580  -1.487   0.428  0.00  0.00     0.045 A 
ENDROOT
TORSDOF 0
ENDMDL
