MODEL 1
REMARK minimizedAffinity -2.81613755
REMARK minimizedRMSD -1
REMARK  0 active torsions:
REMARK  status: ('A' for Active; 'I' for Inactive)
ROOT
ATOM      1  C   UNL d   1      -2.978  -0.690  -0.387  0.00  0.00    -0.002 A 
ATOM      2  C1  UNL d   1      -2.316  -0.044  -1.422  0.00  0.00     0.010 A 
ATOM      3  C2  UNL d   1      -0.944   0.200  -1.344  0.00  0.00     0.041 A 
ATOM      4  C3  UNL d   1      -0.240  -0.221  -0.199  0.00  0.00    -0.075 A 
ATOM      5  S   UNL d   1       1.444  -0.030   0.115  0.00  0.00     0.015 SA
ATOM      6  C4  UNL d   1       1.326  -0.801   1.630  0.00  0.00     0.022 A 
ATOM      7  C5  UNL d   1       0.040  -1.201   1.906  0.00  0.00     0.026 A 
ATOM      8  C6  UNL d   1      -0.884  -0.874   0.856  0.00  0.00    -0.082 A 
ATOM      9  C7  UNL d   1      -2.276  -1.106   0.748  0.00  0.00     0.045 A 
ENDROOT
TORSDOF 0
ENDMDL
