MODEL 1
REMARK minimizedAffinity -4.97285414
REMARK minimizedRMSD -1
REMARK  0 active torsions:
REMARK  status: ('A' for Active; 'I' for Inactive)
ROOT
ATOM      1  C   UNL d   1      -2.873  -1.108  -0.276  0.00  0.00    -0.002 A 
ATOM      2  C1  UNL d   1      -2.572  -1.422   1.042  0.00  0.00     0.010 A 
ATOM      3  C2  UNL d   1      -1.348  -1.045   1.599  0.00  0.00     0.041 A 
ATOM      4  C3  UNL d   1      -0.425  -0.339   0.802  0.00  0.00    -0.075 A 
ATOM      5  S   UNL d   1       1.135   0.225   1.272  0.00  0.00     0.015 SA
ATOM      6  C4  UNL d   1       1.437   0.896  -0.265  0.00  0.00     0.022 A 
ATOM      7  C5  UNL d   1       0.384   0.703  -1.128  0.00  0.00     0.026 A 
ATOM      8  C6  UNL d   1      -0.706  -0.012  -0.527  0.00  0.00    -0.082 A 
ATOM      9  C7  UNL d   1      -1.955  -0.409  -1.063  0.00  0.00     0.045 A 
ENDROOT
TORSDOF 0
ENDMDL
