MODEL 1
REMARK minimizedAffinity 1.34739923
REMARK minimizedRMSD -1
REMARK  0 active torsions:
REMARK  status: ('A' for Active; 'I' for Inactive)
ROOT
ATOM      1  C   UNL d   1      -0.443   0.009  -0.888  0.00  0.00    -0.002 A 
ATOM      2  C1  UNL d   1      -0.727  -0.558   0.346  0.00  0.00     0.010 A 
ATOM      3  C2  UNL d   1       0.027  -0.222   1.473  0.00  0.00     0.041 A 
ATOM      4  C3  UNL d   1       1.080   0.704   1.337  0.00  0.00    -0.075 A 
ATOM      5  S   UNL d   1       2.136   1.266   2.578  0.00  0.00     0.015 SA
ATOM      6  C4  UNL d   1       2.989   2.273   1.499  0.00  0.00     0.022 A 
ATOM      7  C5  UNL d   1       2.493   2.195   0.220  0.00  0.00     0.026 A 
ATOM      8  C6  UNL d   1       1.384   1.289   0.105  0.00  0.00    -0.082 A 
ATOM      9  C7  UNL d   1       0.602   0.928  -1.019  0.00  0.00     0.045 A 
ENDROOT
TORSDOF 0
ENDMDL
