MODEL 1
REMARK minimizedAffinity -0.273108661
REMARK minimizedRMSD -1
REMARK  0 active torsions:
REMARK  status: ('A' for Active; 'I' for Inactive)
ROOT
ATOM      1  C   UNL d   1       0.315  -0.363  -0.365  0.00  0.00    -0.002 A 
ATOM      2  C1  UNL d   1      -0.599   0.442   0.301  0.00  0.00     0.010 A 
ATOM      3  C2  UNL d   1      -0.189   1.628   0.911  0.00  0.00     0.041 A 
ATOM      4  C3  UNL d   1       1.169   1.997   0.839  0.00  0.00    -0.075 A 
ATOM      5  S   UNL d   1       1.900   3.407   1.511  0.00  0.00     0.015 SA
ATOM      6  C4  UNL d   1       3.443   2.974   0.930  0.00  0.00     0.022 A 
ATOM      7  C5  UNL d   1       3.419   1.786   0.238  0.00  0.00     0.026 A 
ATOM      8  C6  UNL d   1       2.108   1.204   0.174  0.00  0.00    -0.082 A 
ATOM      9  C7  UNL d   1       1.661   0.006  -0.434  0.00  0.00     0.045 A 
ENDROOT
TORSDOF 0
ENDMDL
