MODEL 1
REMARK minimizedAffinity 14.6648388
REMARK minimizedRMSD -1
REMARK  0 active torsions:
REMARK  status: ('A' for Active; 'I' for Inactive)
ROOT
ATOM      1  C   UNL d   1       2.167   0.778  -1.411  0.00  0.00     0.124 A 
ATOM      2  C1  UNL d   1       3.024   1.603  -0.696  0.00  0.00     0.062 A 
ATOM      3  C2  UNL d   1       4.035   1.053   0.086  0.00  0.00     0.162 A 
ATOM      4  C3  UNL d   1       4.195  -0.331   0.158  0.00  0.00    -0.034 A 
ATOM      5  C4  UNL d   1       3.328  -1.155  -0.562  0.00  0.00     0.162 A 
ATOM      6  C5  UNL d   1       2.320  -0.600  -1.343  0.00  0.00     0.062 A 
ATOM      7  F   UNL d   1       1.492  -1.399  -2.033  0.00  0.00    -0.097 F 
ATOM      8  F1  UNL d   1       3.454  -2.489  -0.516  0.00  0.00    -0.096 F 
ATOM      9  I   UNL d   1       5.705  -1.157   1.328  0.00  0.00    -0.060 I 
ATOM     10  F2  UNL d   1       4.848   1.875   0.766  0.00  0.00    -0.096 F 
ATOM     11  F3  UNL d   1       2.878   2.935  -0.759  0.00  0.00    -0.097 F 
ATOM     12  F4  UNL d   1       1.194   1.310  -2.163  0.00  0.00    -0.092 F 
ENDROOT
TORSDOF 0
ENDMDL
