MODEL 1
REMARK minimizedAffinity 16.0739117
REMARK minimizedRMSD -1
REMARK  0 active torsions:
REMARK  status: ('A' for Active; 'I' for Inactive)
ROOT
ATOM      1  C   UNL d   1      -3.163   0.548   2.137  0.00  0.00     0.124 A 
ATOM      2  C1  UNL d   1      -2.213   0.359   3.130  0.00  0.00     0.062 A 
ATOM      3  C2  UNL d   1      -0.998  -0.250   2.829  0.00  0.00     0.162 A 
ATOM      4  C3  UNL d   1      -0.726  -0.674   1.529  0.00  0.00    -0.034 A 
ATOM      5  C4  UNL d   1      -1.687  -0.481   0.535  0.00  0.00     0.162 A 
ATOM      6  C5  UNL d   1      -2.900   0.128   0.841  0.00  0.00     0.062 A 
ATOM      7  F   UNL d   1      -3.817   0.310  -0.120  0.00  0.00    -0.097 F 
ATOM      8  F1  UNL d   1      -1.459  -0.876  -0.726  0.00  0.00    -0.096 F 
ATOM      9  I   UNL d   1       1.090  -1.585   1.075  0.00  0.00    -0.060 I 
ATOM     10  F2  UNL d   1      -0.098  -0.420   3.809  0.00  0.00    -0.096 F 
ATOM     11  F3  UNL d   1      -2.465   0.763   4.384  0.00  0.00    -0.097 F 
ATOM     12  F4  UNL d   1      -4.332   1.133   2.429  0.00  0.00    -0.092 F 
ENDROOT
TORSDOF 0
ENDMDL
