MODEL 1
REMARK minimizedAffinity 18.6264973
REMARK minimizedRMSD -1
REMARK  0 active torsions:
REMARK  status: ('A' for Active; 'I' for Inactive)
ROOT
ATOM      1  C   UNL d   1      -4.015   3.506  -3.974  0.00  0.00     0.124 A 
ATOM      2  C1  UNL d   1      -4.963   2.928  -4.807  0.00  0.00     0.062 A 
ATOM      3  C2  UNL d   1      -5.066   1.543  -4.896  0.00  0.00     0.162 A 
ATOM      4  C3  UNL d   1      -4.219   0.725  -4.148  0.00  0.00    -0.034 A 
ATOM      5  C4  UNL d   1      -3.267   1.313  -3.313  0.00  0.00     0.162 A 
ATOM      6  C5  UNL d   1      -3.168   2.698  -3.228  0.00  0.00     0.062 A 
ATOM      7  F   UNL d   1      -2.252   3.255  -2.423  0.00  0.00    -0.097 F 
ATOM      8  F1  UNL d   1      -2.436   0.557  -2.581  0.00  0.00    -0.096 F 
ATOM      9  I   UNL d   1      -4.369  -1.347  -4.278  0.00  0.00    -0.060 I 
ATOM     10  F2  UNL d   1      -5.991   1.012  -5.709  0.00  0.00    -0.096 F 
ATOM     11  F3  UNL d   1      -5.782   3.706  -5.529  0.00  0.00    -0.097 F 
ATOM     12  F4  UNL d   1      -3.918   4.839  -3.891  0.00  0.00    -0.092 F 
ENDROOT
TORSDOF 0
ENDMDL
