MODEL 1
REMARK minimizedAffinity 6.95061064
REMARK minimizedRMSD -1
REMARK  0 active torsions:
REMARK  status: ('A' for Active; 'I' for Inactive)
ROOT
ATOM      1  C   UNL d   1       0.734  -1.733   1.685  0.00  0.00     0.124 A 
ATOM      2  C1  UNL d   1       1.135  -1.612   0.362  0.00  0.00     0.062 A 
ATOM      3  C2  UNL d   1       0.187  -1.586  -0.657  0.00  0.00     0.162 A 
ATOM      4  C3  UNL d   1      -1.172  -1.680  -0.357  0.00  0.00    -0.034 A 
ATOM      5  C4  UNL d   1      -1.568  -1.803   0.976  0.00  0.00     0.162 A 
ATOM      6  C5  UNL d   1      -0.617  -1.829   1.991  0.00  0.00     0.062 A 
ATOM      7  F   UNL d   1      -1.006  -1.946   3.269  0.00  0.00    -0.097 F 
ATOM      8  F1  UNL d   1      -2.866  -1.896   1.299  0.00  0.00    -0.096 F 
ATOM      9  I   UNL d   1      -2.592  -1.642  -1.878  0.00  0.00    -0.060 I 
ATOM     10  F2  UNL d   1       0.604  -1.467  -1.927  0.00  0.00    -0.096 F 
ATOM     11  F3  UNL d   1       2.439  -1.520   0.064  0.00  0.00    -0.097 F 
ATOM     12  F4  UNL d   1       1.647  -1.759   2.664  0.00  0.00    -0.092 F 
ENDROOT
TORSDOF 0
ENDMDL
