MODEL 1
REMARK minimizedAffinity 16.4977093
REMARK minimizedRMSD -1
REMARK  0 active torsions:
REMARK  status: ('A' for Active; 'I' for Inactive)
ROOT
ATOM      1  C   UNL d   1      -4.239  -1.307  -3.755  0.00  0.00     0.124 A 
ATOM      2  C1  UNL d   1      -4.438  -0.464  -4.840  0.00  0.00     0.062 A 
ATOM      3  C2  UNL d   1      -4.171   0.897  -4.727  0.00  0.00     0.162 A 
ATOM      4  C3  UNL d   1      -3.701   1.424  -3.524  0.00  0.00    -0.034 A 
ATOM      5  C4  UNL d   1      -3.504   0.571  -2.437  0.00  0.00     0.162 A 
ATOM      6  C5  UNL d   1      -3.773  -0.789  -2.555  0.00  0.00     0.062 A 
ATOM      7  F   UNL d   1      -3.580  -1.602  -1.506  0.00  0.00    -0.097 F 
ATOM      8  F1  UNL d   1      -3.053   1.045  -1.266  0.00  0.00    -0.096 F 
ATOM      9  I   UNL d   1      -3.300   3.459  -3.351  0.00  0.00    -0.060 I 
ATOM     10  F2  UNL d   1      -4.372   1.688  -5.791  0.00  0.00    -0.096 F 
ATOM     11  F3  UNL d   1      -4.890  -0.962  -6.000  0.00  0.00    -0.097 F 
ATOM     12  F4  UNL d   1      -4.498  -2.616  -3.866  0.00  0.00    -0.092 F 
ENDROOT
TORSDOF 0
ENDMDL
