MODEL 1
REMARK minimizedAffinity 9.0065546
REMARK minimizedRMSD -1
REMARK  0 active torsions:
REMARK  status: ('A' for Active; 'I' for Inactive)
ROOT
ATOM      1  C   UNL d   1       0.191  -1.750   1.835  0.00  0.00     0.124 A 
ATOM      2  C1  UNL d   1      -0.632  -1.667   0.721  0.00  0.00     0.062 A 
ATOM      3  C2  UNL d   1      -0.091  -1.377  -0.529  0.00  0.00     0.162 A 
ATOM      4  C3  UNL d   1       1.281  -1.169  -0.670  0.00  0.00    -0.034 A 
ATOM      5  C4  UNL d   1       2.102  -1.254   0.456  0.00  0.00     0.162 A 
ATOM      6  C5  UNL d   1       1.556  -1.543   1.702  0.00  0.00     0.062 A 
ATOM      7  F   UNL d   1       2.353  -1.623   2.778  0.00  0.00    -0.097 F 
ATOM      8  F1  UNL d   1       3.425  -1.060   0.355  0.00  0.00    -0.096 F 
ATOM      9  I   UNL d   1       2.094  -0.737  -2.537  0.00  0.00    -0.060 I 
ATOM     10  F2  UNL d   1      -0.910  -1.303  -1.589  0.00  0.00    -0.096 F 
ATOM     11  F3  UNL d   1      -1.952  -1.865   0.847  0.00  0.00    -0.097 F 
ATOM     12  F4  UNL d   1      -0.333  -2.027   3.036  0.00  0.00    -0.092 F 
ENDROOT
TORSDOF 0
ENDMDL
