MODEL 1
REMARK minimizedAffinity 18.3770924
REMARK minimizedRMSD -1
REMARK  0 active torsions:
REMARK  status: ('A' for Active; 'I' for Inactive)
ROOT
ATOM      1  C   UNL d   1      -1.655   0.594   3.124  0.00  0.00     0.124 A 
ATOM      2  C1  UNL d   1      -0.519   0.048   3.705  0.00  0.00     0.062 A 
ATOM      3  C2  UNL d   1       0.009  -1.147   3.224  0.00  0.00     0.162 A 
ATOM      4  C3  UNL d   1      -0.599  -1.804   2.155  0.00  0.00    -0.034 A 
ATOM      5  C4  UNL d   1      -1.742  -1.250   1.576  0.00  0.00     0.162 A 
ATOM      6  C5  UNL d   1      -2.265  -0.055   2.060  0.00  0.00     0.062 A 
ATOM      7  F   UNL d   1      -3.363   0.470   1.497  0.00  0.00    -0.097 F 
ATOM      8  F1  UNL d   1      -2.352  -1.856   0.546  0.00  0.00    -0.096 F 
ATOM      9  I   UNL d   1       0.186  -3.591   1.433  0.00  0.00    -0.060 I 
ATOM     10  F2  UNL d   1       1.108  -1.651   3.805  0.00  0.00    -0.096 F 
ATOM     11  F3  UNL d   1       0.072   0.673   4.733  0.00  0.00    -0.097 F 
ATOM     12  F4  UNL d   1      -2.161   1.743   3.589  0.00  0.00    -0.092 F 
ENDROOT
TORSDOF 0
ENDMDL
