MODEL 1
REMARK minimizedAffinity 12.6641006
REMARK minimizedRMSD -1
REMARK  0 active torsions:
REMARK  status: ('A' for Active; 'I' for Inactive)
ROOT
ATOM      1  C   UNL d   1       3.386  -1.091  -2.121  0.00  0.00     0.124 A 
ATOM      2  C1  UNL d   1       3.835  -1.278  -0.821  0.00  0.00     0.062 A 
ATOM      3  C2  UNL d   1       2.924  -1.401   0.224  0.00  0.00     0.162 A 
ATOM      4  C3  UNL d   1       1.553  -1.339  -0.026  0.00  0.00    -0.034 A 
ATOM      5  C4  UNL d   1       1.109  -1.151  -1.336  0.00  0.00     0.162 A 
ATOM      6  C5  UNL d   1       2.024  -1.028  -2.377  0.00  0.00     0.062 A 
ATOM      7  F   UNL d   1       1.587  -0.848  -3.632  0.00  0.00    -0.097 F 
ATOM      8  F1  UNL d   1      -0.202  -1.087  -1.613  0.00  0.00    -0.096 F 
ATOM      9  I   UNL d   1       0.188  -1.523   1.533  0.00  0.00    -0.060 I 
ATOM     10  F2  UNL d   1       3.387  -1.580   1.470  0.00  0.00    -0.096 F 
ATOM     11  F3  UNL d   1       5.151  -1.338  -0.570  0.00  0.00    -0.097 F 
ATOM     12  F4  UNL d   1       4.265  -0.972  -3.124  0.00  0.00    -0.092 F 
ENDROOT
TORSDOF 0
ENDMDL
