MODEL 1
REMARK minimizedAffinity 22.0121574
REMARK minimizedRMSD -1
REMARK  0 active torsions:
REMARK  status: ('A' for Active; 'I' for Inactive)
ROOT
ATOM      1  C   UNL d   1       2.897   1.514  -1.857  0.00  0.00     0.124 A 
ATOM      2  C1  UNL d   1       3.027   1.820  -0.509  0.00  0.00     0.062 A 
ATOM      3  C2  UNL d   1       2.526   0.952   0.457  0.00  0.00     0.162 A 
ATOM      4  C3  UNL d   1       1.892  -0.231   0.079  0.00  0.00    -0.034 A 
ATOM      5  C4  UNL d   1       1.765  -0.532  -1.278  0.00  0.00     0.162 A 
ATOM      6  C5  UNL d   1       2.267   0.338  -2.240  0.00  0.00     0.062 A 
ATOM      7  F   UNL d   1       2.141   0.040  -3.541  0.00  0.00    -0.097 F 
ATOM      8  F1  UNL d   1       1.161  -1.662  -1.676  0.00  0.00    -0.096 F 
ATOM      9  I   UNL d   1       1.143  -1.532   1.521  0.00  0.00    -0.060 I 
ATOM     10  F2  UNL d   1       2.665   1.274   1.752  0.00  0.00    -0.096 F 
ATOM     11  F3  UNL d   1       3.635   2.956  -0.137  0.00  0.00    -0.097 F 
ATOM     12  F4  UNL d   1       3.379   2.351  -2.785  0.00  0.00    -0.092 F 
ENDROOT
TORSDOF 0
ENDMDL
