MODEL 1
REMARK minimizedAffinity 17.425024
REMARK minimizedRMSD -1
REMARK  0 active torsions:
REMARK  status: ('A' for Active; 'I' for Inactive)
ROOT
ATOM      1  C   UNL d   1      -3.938   0.176   1.187  0.00  0.00     0.124 A 
ATOM      2  C1  UNL d   1      -3.002  -0.407   2.030  0.00  0.00     0.062 A 
ATOM      3  C2  UNL d   1      -3.069  -0.195   3.404  0.00  0.00     0.162 A 
ATOM      4  C3  UNL d   1      -4.077   0.603   3.944  0.00  0.00    -0.034 A 
ATOM      5  C4  UNL d   1      -5.014   1.188   3.090  0.00  0.00     0.162 A 
ATOM      6  C5  UNL d   1      -4.943   0.973   1.718  0.00  0.00     0.062 A 
ATOM      7  F   UNL d   1      -5.848   1.538   0.905  0.00  0.00    -0.097 F 
ATOM      8  F1  UNL d   1      -5.996   1.961   3.577  0.00  0.00    -0.096 F 
ATOM      9  I   UNL d   1      -4.180   0.923   5.998  0.00  0.00    -0.060 I 
ATOM     10  F2  UNL d   1      -2.152  -0.772   4.194  0.00  0.00    -0.096 F 
ATOM     11  F3  UNL d   1      -2.030  -1.177   1.519  0.00  0.00    -0.097 F 
ATOM     12  F4  UNL d   1      -3.871  -0.028  -0.135  0.00  0.00    -0.092 F 
ENDROOT
TORSDOF 0
ENDMDL
