MODEL 1
REMARK minimizedAffinity 1.16337347
REMARK minimizedRMSD -1
REMARK  0 active torsions:
REMARK  status: ('A' for Active; 'I' for Inactive)
ROOT
ATOM      1  C   UNL d   1      -2.263   0.039   1.030  0.00  0.00     0.124 A 
ATOM      2  C1  UNL d   1      -1.301  -0.686   1.719  0.00  0.00     0.062 A 
ATOM      3  C2  UNL d   1      -0.007  -0.786   1.217  0.00  0.00     0.162 A 
ATOM      4  C3  UNL d   1       0.334  -0.159   0.019  0.00  0.00    -0.034 A 
ATOM      5  C4  UNL d   1      -0.639   0.568  -0.669  0.00  0.00     0.162 A 
ATOM      6  C5  UNL d   1      -1.932   0.665  -0.164  0.00  0.00     0.062 A 
ATOM      7  F   UNL d   1      -2.859   1.367  -0.831  0.00  0.00    -0.097 F 
ATOM      8  F1  UNL d   1      -0.346   1.184  -1.824  0.00  0.00    -0.096 F 
ATOM      9  I   UNL d   1       2.268  -0.307  -0.735  0.00  0.00    -0.060 I 
ATOM     10  F2  UNL d   1       0.902  -1.493   1.905  0.00  0.00    -0.096 F 
ATOM     11  F3  UNL d   1      -1.620  -1.292   2.872  0.00  0.00    -0.097 F 
ATOM     12  F4  UNL d   1      -3.508   0.134   1.515  0.00  0.00    -0.092 F 
ENDROOT
TORSDOF 0
ENDMDL
