MODEL 1
REMARK minimizedAffinity 15.1253901
REMARK minimizedRMSD -1
REMARK  0 active torsions:
REMARK  status: ('A' for Active; 'I' for Inactive)
ROOT
ATOM      1  C   UNL d   1       1.092   0.541  -2.837  0.00  0.00     0.078 C 
ATOM      2  C1  UNL d   1       0.054   1.428  -3.457  0.00  0.00    -0.077 A 
ATOM      3  C2  UNL d   1       0.415   2.451  -4.343  0.00  0.00    -0.001 A 
ATOM      4  C3  UNL d   1      -0.562   3.275  -4.905  0.00  0.00     0.003 A 
ATOM      5  C4  UNL d   1      -1.905   3.086  -4.586  0.00  0.00    -0.005 A 
ATOM      6  C5  UNL d   1      -2.273   2.072  -3.704  0.00  0.00     0.003 A 
ATOM      7  C6  UNL d   1      -1.298   1.247  -3.141  0.00  0.00    -0.001 A 
ENDROOT
TORSDOF 0
ENDMDL
