MODEL 1
REMARK minimizedAffinity 8.84132862
REMARK minimizedRMSD -1
REMARK  0 active torsions:
REMARK  status: ('A' for Active; 'I' for Inactive)
ROOT
ATOM      1  C   UNL d   1      -0.750  -3.888   0.344  0.00  0.00     0.078 C 
ATOM      2  C1  UNL d   1      -1.344  -2.731  -0.403  0.00  0.00    -0.077 A 
ATOM      3  C2  UNL d   1      -2.290  -1.893   0.200  0.00  0.00    -0.001 A 
ATOM      4  C3  UNL d   1      -2.842  -0.826  -0.511  0.00  0.00     0.003 A 
ATOM      5  C4  UNL d   1      -2.456  -0.588  -1.829  0.00  0.00    -0.005 A 
ATOM      6  C5  UNL d   1      -1.517  -1.419  -2.438  0.00  0.00     0.003 A 
ATOM      7  C6  UNL d   1      -0.964  -2.486  -1.729  0.00  0.00    -0.001 A 
ENDROOT
TORSDOF 0
ENDMDL
