MODEL 1
REMARK minimizedAffinity 12.2660141
REMARK minimizedRMSD -1
REMARK  0 active torsions:
REMARK  status: ('A' for Active; 'I' for Inactive)
ROOT
ATOM      1  C   UNL d   1       1.137  -0.179  -3.345  0.00  0.00     0.078 C 
ATOM      2  C1  UNL d   1       0.295   0.998  -3.736  0.00  0.00    -0.077 A 
ATOM      3  C2  UNL d   1      -1.103   0.935  -3.679  0.00  0.00    -0.001 A 
ATOM      4  C3  UNL d   1      -1.875   2.035  -4.055  0.00  0.00     0.003 A 
ATOM      5  C4  UNL d   1      -1.259   3.206  -4.492  0.00  0.00    -0.005 A 
ATOM      6  C5  UNL d   1       0.132   3.277  -4.554  0.00  0.00     0.003 A 
ATOM      7  C6  UNL d   1       0.905   2.178  -4.178  0.00  0.00    -0.001 A 
ENDROOT
TORSDOF 0
ENDMDL
