MODEL 1
REMARK minimizedAffinity 14.9120302
REMARK minimizedRMSD -1
REMARK  0 active torsions:
REMARK  status: ('A' for Active; 'I' for Inactive)
ROOT
ATOM      1  C   UNL d   1       0.200   3.552  -5.433  0.00  0.00     0.078 C 
ATOM      2  C1  UNL d   1      -0.693   2.683  -4.600  0.00  0.00    -0.077 A 
ATOM      3  C2  UNL d   1      -0.210   1.508  -4.010  0.00  0.00    -0.001 A 
ATOM      4  C3  UNL d   1      -1.055   0.703  -3.245  0.00  0.00     0.003 A 
ATOM      5  C4  UNL d   1      -2.389   1.064  -3.062  0.00  0.00    -0.005 A 
ATOM      6  C5  UNL d   1      -2.879   2.230  -3.647  0.00  0.00     0.003 A 
ATOM      7  C6  UNL d   1      -2.035   3.036  -4.413  0.00  0.00    -0.001 A 
ENDROOT
TORSDOF 0
ENDMDL
