MODEL 1
REMARK minimizedAffinity 16.793766
REMARK minimizedRMSD -1
REMARK  0 active torsions:
REMARK  status: ('A' for Active; 'I' for Inactive)
ROOT
ATOM      1  C   UNL d   1      -2.422   2.963  -4.476  0.00  0.00     0.078 C 
ATOM      2  C1  UNL d   1      -3.543   3.928  -4.720  0.00  0.00    -0.077 A 
ATOM      3  C2  UNL d   1      -3.651   5.111  -3.978  0.00  0.00    -0.001 A 
ATOM      4  C3  UNL d   1      -4.705   5.996  -4.209  0.00  0.00     0.003 A 
ATOM      5  C4  UNL d   1      -5.660   5.708  -5.182  0.00  0.00    -0.005 A 
ATOM      6  C5  UNL d   1      -5.562   4.533  -5.925  0.00  0.00     0.003 A 
ATOM      7  C6  UNL d   1      -4.509   3.646  -5.695  0.00  0.00    -0.001 A 
ENDROOT
TORSDOF 0
ENDMDL
