MODEL 1
REMARK minimizedAffinity 14.1923847
REMARK minimizedRMSD -1
REMARK  0 active torsions:
REMARK  status: ('A' for Active; 'I' for Inactive)
ROOT
ATOM      1  C   UNL d   1       0.535   3.551  -5.633  0.00  0.00     0.078 C 
ATOM      2  C1  UNL d   1      -0.503   2.722  -4.939  0.00  0.00    -0.077 A 
ATOM      3  C2  UNL d   1      -0.171   1.496  -4.348  0.00  0.00    -0.001 A 
ATOM      4  C3  UNL d   1      -1.149   0.730  -3.714  0.00  0.00     0.003 A 
ATOM      5  C4  UNL d   1      -2.467   1.180  -3.664  0.00  0.00    -0.005 A 
ATOM      6  C5  UNL d   1      -2.808   2.397  -4.250  0.00  0.00     0.003 A 
ATOM      7  C6  UNL d   1      -1.831   3.165  -4.885  0.00  0.00    -0.001 A 
ENDROOT
TORSDOF 0
ENDMDL
