MODEL 1
REMARK minimizedAffinity 5.94922018
REMARK minimizedRMSD -1
REMARK  0 active torsions:
REMARK  status: ('A' for Active; 'I' for Inactive)
ROOT
ATOM      1  C   UNL d   1       5.134   5.320   0.373  0.00  0.00     0.078 C 
ATOM      2  C1  UNL d   1       4.576   4.055   0.952  0.00  0.00    -0.077 A 
ATOM      3  C2  UNL d   1       4.667   3.788   2.324  0.00  0.00    -0.001 A 
ATOM      4  C3  UNL d   1       4.152   2.601   2.847  0.00  0.00     0.003 A 
ATOM      5  C4  UNL d   1       3.543   1.671   2.007  0.00  0.00    -0.005 A 
ATOM      6  C5  UNL d   1       3.450   1.927   0.640  0.00  0.00     0.003 A 
ATOM      7  C6  UNL d   1       3.964   3.113   0.115  0.00  0.00    -0.001 A 
ENDROOT
TORSDOF 0
ENDMDL
