MODEL 1
REMARK minimizedAffinity -0.471797675
REMARK minimizedRMSD -1
REMARK  0 active torsions:
REMARK  status: ('A' for Active; 'I' for Inactive)
ROOT
ATOM      1  C   UNL d   1      -2.498   1.277  -3.150  0.00  0.00     0.078 C 
ATOM      2  C1  UNL d   1      -1.876   2.211  -4.144  0.00  0.00    -0.077 A 
ATOM      3  C2  UNL d   1      -0.487   2.384  -4.200  0.00  0.00    -0.001 A 
ATOM      4  C3  UNL d   1       0.078   3.264  -5.124  0.00  0.00     0.003 A 
ATOM      5  C4  UNL d   1      -0.738   3.978  -5.999  0.00  0.00    -0.005 A 
ATOM      6  C5  UNL d   1      -2.121   3.814  -5.950  0.00  0.00     0.003 A 
ATOM      7  C6  UNL d   1      -2.688   2.934  -5.027  0.00  0.00    -0.001 A 
ENDROOT
TORSDOF 0
ENDMDL
