MODEL 1
REMARK minimizedAffinity 5.60980654
REMARK minimizedRMSD -1
REMARK  0 active torsions:
REMARK  status: ('A' for Active; 'I' for Inactive)
ROOT
ATOM      1  C   UNL d   1      -5.983   5.999  -4.457  0.00  0.00     0.078 C 
ATOM      2  C1  UNL d   1      -4.890   5.021  -4.765  0.00  0.00    -0.077 A 
ATOM      3  C2  UNL d   1      -5.069   4.018  -5.726  0.00  0.00    -0.001 A 
ATOM      4  C3  UNL d   1      -4.046   3.108  -5.996  0.00  0.00     0.003 A 
ATOM      5  C4  UNL d   1      -2.837   3.190  -5.308  0.00  0.00    -0.005 A 
ATOM      6  C5  UNL d   1      -2.650   4.183  -4.348  0.00  0.00     0.003 A 
ATOM      7  C6  UNL d   1      -3.672   5.094  -4.077  0.00  0.00    -0.001 A 
ENDROOT
TORSDOF 0
ENDMDL
