MODEL 1
REMARK minimizedAffinity 16.0540009
REMARK minimizedRMSD -1
REMARK  0 active torsions:
REMARK  status: ('A' for Active; 'I' for Inactive)
ROOT
ATOM      1  C   UNL d   1       3.359   2.312   0.379  0.00  0.00     0.078 C 
ATOM      2  C1  UNL d   1       4.151   3.540   0.040  0.00  0.00    -0.077 A 
ATOM      3  C2  UNL d   1       5.267   3.469  -0.803  0.00  0.00    -0.001 A 
ATOM      4  C3  UNL d   1       6.000   4.618  -1.102  0.00  0.00     0.003 A 
ATOM      5  C4  UNL d   1       5.626   5.847  -0.562  0.00  0.00    -0.005 A 
ATOM      6  C5  UNL d   1       4.519   5.927   0.279  0.00  0.00     0.003 A 
ATOM      7  C6  UNL d   1       3.784   4.779   0.580  0.00  0.00    -0.001 A 
ENDROOT
TORSDOF 0
ENDMDL
