MODEL 1
REMARK minimizedAffinity 11.0824203
REMARK minimizedRMSD -1
REMARK  0 active torsions:
REMARK  status: ('A' for Active; 'I' for Inactive)
ROOT
ATOM      1  C   UNL d   1      -2.611   1.071  -2.993  0.00  0.00     0.078 C 
ATOM      2  C1  UNL d   1      -2.129   2.029  -4.041  0.00  0.00    -0.077 A 
ATOM      3  C2  UNL d   1      -0.804   2.482  -4.049  0.00  0.00    -0.001 A 
ATOM      4  C3  UNL d   1      -0.371   3.381  -5.025  0.00  0.00     0.003 A 
ATOM      5  C4  UNL d   1      -1.257   3.835  -6.000  0.00  0.00    -0.005 A 
ATOM      6  C5  UNL d   1      -2.578   3.392  -5.999  0.00  0.00     0.003 A 
ATOM      7  C6  UNL d   1      -3.013   2.493  -5.024  0.00  0.00    -0.001 A 
ENDROOT
TORSDOF 0
ENDMDL
