MODEL 1
REMARK minimizedAffinity 1.82741332
REMARK minimizedRMSD -1
REMARK  0 active torsions:
REMARK  status: ('A' for Active; 'I' for Inactive)
ROOT
ATOM      1  C   UNL d   1      -0.367  -4.242   0.358  0.00  0.00     0.078 C 
ATOM      2  C1  UNL d   1      -0.003  -4.859   1.676  0.00  0.00    -0.077 A 
ATOM      3  C2  UNL d   1      -0.910  -4.868   2.742  0.00  0.00    -0.001 A 
ATOM      4  C3  UNL d   1      -0.555  -5.437   3.966  0.00  0.00     0.003 A 
ATOM      5  C4  UNL d   1       0.708  -6.000   4.135  0.00  0.00    -0.005 A 
ATOM      6  C5  UNL d   1       1.618  -5.994   3.081  0.00  0.00     0.003 A 
ATOM      7  C6  UNL d   1       1.265  -5.425   1.856  0.00  0.00    -0.001 A 
ENDROOT
TORSDOF 0
ENDMDL
