MODEL 1
REMARK minimizedAffinity 5.16359425
REMARK minimizedRMSD -1
REMARK  0 active torsions:
REMARK  status: ('A' for Active; 'I' for Inactive)
ROOT
ATOM      1  C   UNL d   1      -2.925  -2.834   3.443  0.00  0.00     0.078 C 
ATOM      2  C1  UNL d   1      -2.282  -2.912   2.090  0.00  0.00    -0.077 A 
ATOM      3  C2  UNL d   1      -1.433  -3.974   1.755  0.00  0.00    -0.001 A 
ATOM      4  C3  UNL d   1      -0.833  -4.028   0.496  0.00  0.00     0.003 A 
ATOM      5  C4  UNL d   1      -1.076  -3.022  -0.438  0.00  0.00    -0.005 A 
ATOM      6  C5  UNL d   1      -1.917  -1.960  -0.113  0.00  0.00     0.003 A 
ATOM      7  C6  UNL d   1      -2.518  -1.905   1.146  0.00  0.00    -0.001 A 
ENDROOT
TORSDOF 0
ENDMDL
