MODEL 1
REMARK minimizedAffinity 8.14778709
REMARK minimizedRMSD -1
REMARK  0 active torsions:
REMARK  status: ('A' for Active; 'I' for Inactive)
ROOT
ATOM      1  C   UNL d   1      -0.261  -5.995   1.780  0.00  0.00     0.078 C 
ATOM      2  C1  UNL d   1      -0.980  -4.708   1.505  0.00  0.00    -0.077 A 
ATOM      3  C2  UNL d   1      -1.920  -4.200   2.410  0.00  0.00    -0.001 A 
ATOM      4  C3  UNL d   1      -2.590  -3.006   2.136  0.00  0.00     0.003 A 
ATOM      5  C4  UNL d   1      -2.328  -2.311   0.957  0.00  0.00    -0.005 A 
ATOM      6  C5  UNL d   1      -1.396  -2.810   0.049  0.00  0.00     0.003 A 
ATOM      7  C6  UNL d   1      -0.725  -4.004   0.321  0.00  0.00    -0.001 A 
ENDROOT
TORSDOF 0
ENDMDL
