MODEL 1
REMARK minimizedAffinity 6.4292407
REMARK minimizedRMSD -1
REMARK  0 active torsions:
REMARK  status: ('A' for Active; 'I' for Inactive)
ROOT
ATOM      1  C   UNL d   1      -2.613  -2.923   3.454  0.00  0.00     0.078 C 
ATOM      2  C1  UNL d   1      -2.072  -2.994   2.057  0.00  0.00    -0.077 A 
ATOM      3  C2  UNL d   1      -2.505  -2.099   1.070  0.00  0.00    -0.001 A 
ATOM      4  C3  UNL d   1      -2.000  -2.182  -0.228  0.00  0.00     0.003 A 
ATOM      5  C4  UNL d   1      -1.061  -3.160  -0.553  0.00  0.00    -0.005 A 
ATOM      6  C5  UNL d   1      -0.627  -4.056   0.422  0.00  0.00     0.003 A 
ATOM      7  C6  UNL d   1      -1.130  -3.974   1.721  0.00  0.00    -0.001 A 
ENDROOT
TORSDOF 0
ENDMDL
