MODEL 1
REMARK minimizedAffinity -3.54273319
REMARK minimizedRMSD -1
REMARK  0 active torsions:
REMARK  status: ('A' for Active; 'I' for Inactive)
ROOT
ATOM      1  C4' PXY d   1      -0.737   1.407  -0.060  0.00  0.00     0.077 C 
ATOM      2  C1' PXY d   1       2.943  -2.712  -1.764  0.00  0.00     0.077 C 
ATOM      3  C1  PXY d   1       1.969  -1.641  -1.316  0.00  0.00    -0.082 A 
ATOM      4  C2  PXY d   1       2.174  -0.382  -1.666  0.00  0.00     0.003 A 
ATOM      5  C3  PXY d   1       1.321   0.604  -1.243  0.00  0.00     0.003 A 
ATOM      6  C4  PXY d   1       0.216   0.291  -0.498  0.00  0.00    -0.082 A 
ATOM      7  C5  PXY d   1      -0.007  -0.993  -0.145  0.00  0.00     0.003 A 
ATOM      8  C6  PXY d   1       0.894  -1.974  -0.550  0.00  0.00     0.003 A 
ENDROOT
TORSDOF 0
ENDMDL
