MODEL 1
REMARK minimizedAffinity -3.4983325
REMARK minimizedRMSD -1
REMARK  0 active torsions:
REMARK  status: ('A' for Active; 'I' for Inactive)
ROOT
ATOM      1  C4' PXY d   1       1.562   1.330  -0.902  0.00  0.00     0.077 C 
ATOM      2  C1' PXY d   1      -3.453   0.233   1.756  0.00  0.00     0.077 C 
ATOM      3  C1  PXY d   1      -2.132   0.522   1.070  0.00  0.00    -0.082 A 
ATOM      4  C2  PXY d   1      -2.126   1.017  -0.157  0.00  0.00     0.003 A 
ATOM      5  C3  PXY d   1      -0.941   1.254  -0.803  0.00  0.00     0.003 A 
ATOM      6  C4  PXY d   1       0.251   1.032  -0.168  0.00  0.00    -0.082 A 
ATOM      7  C5  PXY d   1       0.254   0.538   1.088  0.00  0.00     0.003 A 
ATOM      8  C6  PXY d   1      -0.960   0.265   1.712  0.00  0.00     0.003 A 
ENDROOT
TORSDOF 0
ENDMDL
