MODEL 1
REMARK minimizedAffinity 1.51799834
REMARK minimizedRMSD -1
REMARK  0 active torsions:
REMARK  status: ('A' for Active; 'I' for Inactive)
ROOT
ATOM      1  C4' PXY d   1       4.897   1.740  -0.722  0.00  0.00     0.077 C 
ATOM      2  C1' PXY d   1      -0.656   0.811   0.588  0.00  0.00     0.077 C 
ATOM      3  C1  PXY d   1       0.799   1.047   0.235  0.00  0.00    -0.082 A 
ATOM      4  C2  PXY d   1       1.642   1.451   1.170  0.00  0.00     0.003 A 
ATOM      5  C3  PXY d   1       2.955   1.700   0.861  0.00  0.00     0.003 A 
ATOM      6  C4  PXY d   1       3.421   1.481  -0.408  0.00  0.00    -0.082 A 
ATOM      7  C5  PXY d   1       2.569   1.058  -1.366  0.00  0.00     0.003 A 
ATOM      8  C6  PXY d   1       1.231   0.851  -1.041  0.00  0.00     0.003 A 
ENDROOT
TORSDOF 0
ENDMDL
