MODEL 1
REMARK minimizedAffinity -1.70595372
REMARK minimizedRMSD -1
REMARK  0 active torsions:
REMARK  status: ('A' for Active; 'I' for Inactive)
ROOT
ATOM      1  C4' PXY d   1      -2.169   0.427   2.349  0.00  0.00     0.077 C 
ATOM      2  C1' PXY d   1       2.121   0.800  -1.508  0.00  0.00     0.077 C 
ATOM      3  C1  PXY d   1       0.990   0.693  -0.504  0.00  0.00    -0.082 A 
ATOM      4  C2  PXY d   1       0.711   1.723   0.279  0.00  0.00     0.003 A 
ATOM      5  C3  PXY d   1      -0.287   1.632   1.215  0.00  0.00     0.003 A 
ATOM      6  C4  PXY d   1      -1.042   0.494   1.314  0.00  0.00    -0.082 A 
ATOM      7  C5  PXY d   1      -0.770  -0.557   0.512  0.00  0.00     0.003 A 
ATOM      8  C6  PXY d   1       0.274  -0.459  -0.403  0.00  0.00     0.003 A 
ENDROOT
TORSDOF 0
ENDMDL
