MODEL 1
REMARK minimizedAffinity -2.24957132
REMARK minimizedRMSD -1
REMARK  0 active torsions:
REMARK  status: ('A' for Active; 'I' for Inactive)
ROOT
ATOM      1  C4' PXY d   1      -2.351   0.297   1.193  0.00  0.00     0.077 C 
ATOM      2  C1' PXY d   1       2.559  -0.180  -1.820  0.00  0.00     0.077 C 
ATOM      3  C1  PXY d   1       1.267  -0.067  -1.034  0.00  0.00    -0.082 A 
ATOM      4  C2  PXY d   1       0.814   1.128  -0.689  0.00  0.00     0.003 A 
ATOM      5  C3  PXY d   1      -0.335   1.247   0.049  0.00  0.00     0.003 A 
ATOM      6  C4  PXY d   1      -1.057   0.135   0.392  0.00  0.00    -0.082 A 
ATOM      7  C5  PXY d   1      -0.607  -1.087   0.035  0.00  0.00     0.003 A 
ATOM      8  C6  PXY d   1       0.584  -1.188  -0.679  0.00  0.00     0.003 A 
ENDROOT
TORSDOF 0
ENDMDL
