MODEL 1
REMARK minimizedAffinity -2.66407394
REMARK minimizedRMSD -1
REMARK  0 active torsions:
REMARK  status: ('A' for Active; 'I' for Inactive)
ROOT
ATOM      1  C4' PXY d   1      -2.897   0.255   2.341  0.00  0.00     0.077 C 
ATOM      2  C1' PXY d   1       1.732   0.784  -1.080  0.00  0.00     0.077 C 
ATOM      3  C1  PXY d   1       0.520   0.632  -0.182  0.00  0.00    -0.082 A 
ATOM      4  C2  PXY d   1      -0.444   1.537  -0.227  0.00  0.00     0.003 A 
ATOM      5  C3  PXY d   1      -1.532   1.433   0.601  0.00  0.00     0.003 A 
ATOM      6  C4  PXY d   1      -1.660   0.363   1.446  0.00  0.00    -0.082 A 
ATOM      7  C5  PXY d   1      -0.685  -0.570   1.490  0.00  0.00     0.003 A 
ATOM      8  C6  PXY d   1       0.431  -0.424   0.671  0.00  0.00     0.003 A 
ENDROOT
TORSDOF 0
ENDMDL
