MODEL 1
REMARK minimizedAffinity -4.97985458
REMARK minimizedRMSD -1
REMARK  0 active torsions:
REMARK  status: ('A' for Active; 'I' for Inactive)
ROOT
ATOM      1  C4' PXY d   1      -0.344   0.389   1.543  0.00  0.00     0.077 C 
ATOM      2  C1' PXY d   1       2.433  -0.882  -3.365  0.00  0.00     0.077 C 
ATOM      3  C1  PXY d   1       1.697  -0.560  -2.079  0.00  0.00    -0.082 A 
ATOM      4  C2  PXY d   1       1.670   0.687  -1.636  0.00  0.00     0.003 A 
ATOM      5  C3  PXY d   1       1.036   0.991  -0.459  0.00  0.00     0.003 A 
ATOM      6  C4  PXY d   1       0.379   0.019   0.245  0.00  0.00    -0.082 A 
ATOM      7  C5  PXY d   1       0.394  -1.254  -0.205  0.00  0.00     0.003 A 
ATOM      8  C6  PXY d   1       1.077  -1.549  -1.381  0.00  0.00     0.003 A 
ENDROOT
TORSDOF 0
ENDMDL
