MODEL 1
REMARK minimizedAffinity -2.64234257
REMARK minimizedRMSD -1
REMARK  0 active torsions:
REMARK  status: ('A' for Active; 'I' for Inactive)
ROOT
ATOM      1  C4' PXY d   1      -2.465   0.759   2.534  0.00  0.00     0.077 C 
ATOM      2  C1' PXY d   1       1.798   0.369  -1.350  0.00  0.00     0.077 C 
ATOM      3  C1  PXY d   1       0.676   0.459  -0.335  0.00  0.00    -0.082 A 
ATOM      4  C2  PXY d   1       0.241   1.646   0.055  0.00  0.00     0.003 A 
ATOM      5  C3  PXY d   1      -0.751   1.747   0.996  0.00  0.00     0.003 A 
ATOM      6  C4  PXY d   1      -1.341   0.620   1.504  0.00  0.00    -0.082 A 
ATOM      7  C5  PXY d   1      -0.910  -0.595   1.103  0.00  0.00     0.003 A 
ATOM      8  C6  PXY d   1       0.127  -0.675   0.178  0.00  0.00     0.003 A 
ENDROOT
TORSDOF 0
ENDMDL
