MODEL 1
REMARK minimizedAffinity -1.88562536
REMARK minimizedRMSD -1
REMARK  0 active torsions:
REMARK  status: ('A' for Active; 'I' for Inactive)
ROOT
ATOM      1  C4' PXY d   1       0.391   2.223  -0.449  0.00  0.00     0.077 C 
ATOM      2  C1' PXY d   1       2.853  -2.895  -1.522  0.00  0.00     0.077 C 
ATOM      3  C1  PXY d   1       2.196  -1.559  -1.238  0.00  0.00    -0.082 A 
ATOM      4  C2  PXY d   1       2.697  -0.457  -1.772  0.00  0.00     0.003 A 
ATOM      5  C3  PXY d   1       2.135   0.763  -1.500  0.00  0.00     0.003 A 
ATOM      6  C4  PXY d   1       1.016   0.851  -0.716  0.00  0.00    -0.082 A 
ATOM      7  C5  PXY d   1       0.492  -0.270  -0.176  0.00  0.00     0.003 A 
ATOM      8  C6  PXY d   1       1.103  -1.494  -0.431  0.00  0.00     0.003 A 
ENDROOT
TORSDOF 0
ENDMDL
