MODEL 1
REMARK minimizedAffinity -3.56463695
REMARK minimizedRMSD -1
REMARK  0 active torsions:
REMARK  status: ('A' for Active; 'I' for Inactive)
ROOT
ATOM      1  C4' PXY d   1      -2.563   0.514   1.846  0.00  0.00     0.077 C 
ATOM      2  C1' PXY d   1       1.891   0.122  -1.818  0.00  0.00     0.077 C 
ATOM      3  C1  PXY d   1       0.728   0.217  -0.849  0.00  0.00    -0.082 A 
ATOM      4  C2  PXY d   1      -0.466   0.573  -1.293  0.00  0.00     0.003 A 
ATOM      5  C3  PXY d   1      -1.521   0.694  -0.425  0.00  0.00     0.003 A 
ATOM      6  C4  PXY d   1      -1.364   0.396   0.902  0.00  0.00    -0.082 A 
ATOM      7  C5  PXY d   1      -0.150   0.022   1.360  0.00  0.00     0.003 A 
ATOM      8  C6  PXY d   1       0.917  -0.055   0.470  0.00  0.00     0.003 A 
ENDROOT
TORSDOF 0
ENDMDL
