MODEL 1
REMARK minimizedAffinity -1.48160017
REMARK minimizedRMSD -1
REMARK  0 active torsions:
REMARK  status: ('A' for Active; 'I' for Inactive)
ROOT
ATOM      1  C4' PXY d   1       1.148   2.540   0.865  0.00  0.00     0.077 C 
ATOM      2  C1' PXY d   1       0.806  -2.948  -0.917  0.00  0.00     0.077 C 
ATOM      3  C1  PXY d   1       0.907  -1.508  -0.456  0.00  0.00    -0.082 A 
ATOM      4  C2  PXY d   1       0.247  -1.119   0.623  0.00  0.00     0.003 A 
ATOM      5  C3  PXY d   1       0.302   0.188   1.036  0.00  0.00     0.003 A 
ATOM      6  C4  PXY d   1       1.083   1.093   0.368  0.00  0.00    -0.082 A 
ATOM      7  C5  PXY d   1       1.768   0.701  -0.727  0.00  0.00     0.003 A 
ATOM      8  C6  PXY d   1       1.666  -0.620  -1.154  0.00  0.00     0.003 A 
ENDROOT
TORSDOF 0
ENDMDL
