MODEL 1
REMARK minimizedAffinity -3.90300298
REMARK minimizedRMSD -1
REMARK  0 active torsions:
REMARK  status: ('A' for Active; 'I' for Inactive)
ROOT
ATOM      1  C4' PXY d   1      -5.384   5.419  -5.991  0.00  0.00     0.077 C 
ATOM      2  C1' PXY d   1      -3.948  -0.170  -5.659  0.00  0.00     0.077 C 
ATOM      3  C1  PXY d   1      -4.336   1.292  -5.752  0.00  0.00    -0.082 A 
ATOM      4  C2  PXY d   1      -3.398   2.223  -5.679  0.00  0.00     0.003 A 
ATOM      5  C3  PXY d   1      -3.735   3.552  -5.729  0.00  0.00     0.003 A 
ATOM      6  C4  PXY d   1      -5.038   3.930  -5.910  0.00  0.00    -0.082 A 
ATOM      7  C5  PXY d   1      -5.999   2.986  -5.997  0.00  0.00     0.003 A 
ATOM      8  C6  PXY d   1      -5.642   1.644  -5.902  0.00  0.00     0.003 A 
ENDROOT
TORSDOF 0
ENDMDL
