MODEL 1
REMARK minimizedAffinity -4.09359598
REMARK minimizedRMSD -1
REMARK  0 active torsions:
REMARK  status: ('A' for Active; 'I' for Inactive)
ROOT
ATOM      1  C4' PXY d   1      -1.523  -0.164   1.995  0.00  0.00     0.077 C 
ATOM      2  C1' PXY d   1       1.926   0.579  -2.585  0.00  0.00     0.077 C 
ATOM      3  C1  PXY d   1       1.012   0.379  -1.392  0.00  0.00    -0.082 A 
ATOM      4  C2  PXY d   1       1.182   1.118  -0.307  0.00  0.00     0.003 A 
ATOM      5  C3  PXY d   1       0.385   0.928   0.793  0.00  0.00     0.003 A 
ATOM      6  C4  PXY d   1      -0.630   0.009   0.763  0.00  0.00    -0.082 A 
ATOM      7  C5  PXY d   1      -0.816  -0.741  -0.344  0.00  0.00     0.003 A 
ATOM      8  C6  PXY d   1       0.030  -0.561  -1.435  0.00  0.00     0.003 A 
ENDROOT
TORSDOF 0
ENDMDL
