MODEL 1
REMARK minimizedAffinity 0.174006566
REMARK minimizedRMSD -1
REMARK  0 active torsions:
REMARK  status: ('A' for Active; 'I' for Inactive)
ROOT
ATOM      1  C4' PXY d   1      -2.489   0.519   2.139  0.00  0.00     0.077 C 
ATOM      2  C1' PXY d   1       2.255   0.539  -1.164  0.00  0.00     0.077 C 
ATOM      3  C1  PXY d   1       1.007   0.522  -0.303  0.00  0.00    -0.082 A 
ATOM      4  C2  PXY d   1       0.561   1.651   0.225  0.00  0.00     0.003 A 
ATOM      5  C3  PXY d   1      -0.548   1.650   1.031  0.00  0.00     0.003 A 
ATOM      6  C4  PXY d   1      -1.239   0.489   1.257  0.00  0.00    -0.082 A 
ATOM      7  C5  PXY d   1      -0.797  -0.665   0.713  0.00  0.00     0.003 A 
ATOM      8  C6  PXY d   1       0.354  -0.649  -0.069  0.00  0.00     0.003 A 
ENDROOT
TORSDOF 0
ENDMDL
