MODEL 1
REMARK minimizedAffinity -3.16896987
REMARK minimizedRMSD -1
REMARK  0 active torsions:
REMARK  status: ('A' for Active; 'I' for Inactive)
ROOT
ATOM      1  C4' PXY d   1      -2.064   0.060   1.991  0.00  0.00     0.077 C 
ATOM      2  C1' PXY d   1       2.388   0.253  -1.692  0.00  0.00     0.077 C 
ATOM      3  C1  PXY d   1       1.218   0.190  -0.730  0.00  0.00    -0.082 A 
ATOM      4  C2  PXY d   1       0.633   1.310  -0.336  0.00  0.00     0.003 A 
ATOM      5  C3  PXY d   1      -0.405   1.274   0.558  0.00  0.00     0.003 A 
ATOM      6  C4  PXY d   1      -0.885   0.075   1.014  0.00  0.00    -0.082 A 
ATOM      7  C5  PXY d   1      -0.301  -1.072   0.609  0.00  0.00     0.003 A 
ATOM      8  C6  PXY d   1       0.778  -1.012  -0.267  0.00  0.00     0.003 A 
ENDROOT
TORSDOF 0
ENDMDL
