MODEL 1
REMARK minimizedAffinity -2.39650106
REMARK minimizedRMSD -1
REMARK  0 active torsions:
REMARK  status: ('A' for Active; 'I' for Inactive)
ROOT
ATOM      1  C4' PXY d   1       1.099   0.842  -0.923  0.00  0.00     0.077 C 
ATOM      2  C1' PXY d   1      -3.400  -0.326   2.513  0.00  0.00     0.077 C 
ATOM      3  C1  PXY d   1      -2.228  -0.019   1.602  0.00  0.00    -0.082 A 
ATOM      4  C2  PXY d   1      -1.018  -0.444   1.926  0.00  0.00     0.003 A 
ATOM      5  C3  PXY d   1       0.058  -0.147   1.130  0.00  0.00     0.003 A 
ATOM      6  C4  PXY d   1      -0.115   0.547  -0.038  0.00  0.00    -0.082 A 
ATOM      7  C5  PXY d   1      -1.348   0.974  -0.382  0.00  0.00     0.003 A 
ATOM      8  C6  PXY d   1      -2.421   0.698   0.461  0.00  0.00     0.003 A 
ENDROOT
TORSDOF 0
ENDMDL
