MODEL 1
REMARK minimizedAffinity -2.97129154
REMARK minimizedRMSD -1
REMARK  0 active torsions:
REMARK  status: ('A' for Active; 'I' for Inactive)
ROOT
ATOM      1  C4' PXY d   1      -1.770  -0.301   2.017  0.00  0.00     0.077 C 
ATOM      2  C1' PXY d   1       1.969   0.258  -2.356  0.00  0.00     0.077 C 
ATOM      3  C1  PXY d   1       0.983   0.101  -1.215  0.00  0.00    -0.082 A 
ATOM      4  C2  PXY d   1       0.638   1.158  -0.498  0.00  0.00     0.003 A 
ATOM      5  C3  PXY d   1      -0.227   1.028   0.557  0.00  0.00     0.003 A 
ATOM      6  C4  PXY d   1      -0.786  -0.187   0.850  0.00  0.00    -0.082 A 
ATOM      7  C5  PXY d   1      -0.446  -1.269   0.117  0.00  0.00     0.003 A 
ATOM      8  C6  PXY d   1       0.465  -1.124  -0.924  0.00  0.00     0.003 A 
ENDROOT
TORSDOF 0
ENDMDL
