MODEL 1
REMARK minimizedAffinity -3.4704597
REMARK minimizedRMSD -1
REMARK  0 active torsions:
REMARK  status: ('A' for Active; 'I' for Inactive)
ROOT
ATOM      1  C4' PXY d   1      -1.918   0.041   1.700  0.00  0.00     0.077 C 
ATOM      2  C1' PXY d   1       2.965   0.017  -1.395  0.00  0.00     0.077 C 
ATOM      3  C1  PXY d   1       1.682   0.011  -0.587  0.00  0.00    -0.082 A 
ATOM      4  C2  PXY d   1       1.054   1.151  -0.348  0.00  0.00     0.003 A 
ATOM      5  C3  PXY d   1      -0.089   1.167   0.409  0.00  0.00     0.003 A 
ATOM      6  C4  PXY d   1      -0.625  -0.001   0.880  0.00  0.00    -0.082 A 
ATOM      7  C5  PXY d   1       0.004  -1.169   0.632  0.00  0.00     0.003 A 
ATOM      8  C6  PXY d   1       1.186  -1.160  -0.103  0.00  0.00     0.003 A 
ENDROOT
TORSDOF 0
ENDMDL
