MODEL 1
REMARK minimizedAffinity -3.03841257
REMARK minimizedRMSD -1
REMARK  0 active torsions:
REMARK  status: ('A' for Active; 'I' for Inactive)
ROOT
ATOM      1  C4' PXY d   1       1.428   2.836   0.121  0.00  0.00     0.077 C 
ATOM      2  C1' PXY d   1       0.901  -2.883  -0.529  0.00  0.00     0.077 C 
ATOM      3  C1  PXY d   1       1.051  -1.384  -0.364  0.00  0.00    -0.082 A 
ATOM      4  C2  PXY d   1       0.371  -0.758   0.583  0.00  0.00     0.003 A 
ATOM      5  C3  PXY d   1       0.470   0.602   0.726  0.00  0.00     0.003 A 
ATOM      6  C4  PXY d   1       1.315   1.322  -0.076  0.00  0.00    -0.082 A 
ATOM      7  C5  PXY d   1       2.020   0.690  -1.037  0.00  0.00     0.003 A 
ATOM      8  C6  PXY d   1       1.874  -0.685  -1.192  0.00  0.00     0.003 A 
ENDROOT
TORSDOF 0
ENDMDL
