MODEL 1
REMARK minimizedAffinity 2.72344112
REMARK minimizedRMSD -1
REMARK  1 active torsions:
REMARK  status: ('A' for Active; 'I' for Inactive)
REMARK    1  A    between atoms: C1_2  and  C2_3 
ROOT
ATOM      1  C2  UNL d   1       4.775   1.767  -3.679  0.00  0.00    -0.076 A 
ATOM      2  C3  UNL d   1       5.200   0.428  -3.696  0.00  0.00     0.004 A 
ATOM      3  C4  UNL d   1       5.751  -0.135  -4.845  0.00  0.00    -0.003 A 
ATOM      4  C5  UNL d   1       5.888   0.632  -5.997  0.00  0.00     0.000 A 
ATOM      5  C6  UNL d   1       5.487   1.968  -5.992  0.00  0.00     0.000 A 
ATOM      6  C7  UNL d   1       4.944   2.556  -4.837  0.00  0.00    -0.073 A 
ATOM      7  C8  UNL d   1       4.524   3.999  -4.891  0.00  0.00     0.078 C 
ENDROOT
BRANCH   1   8
ATOM      8  C1  UNL d   1       4.159   2.316  -2.412  0.00  0.00     0.053 C 
ATOM      9  C   UNL d   1       4.558   1.521  -1.178  0.00  0.00     0.018 C 
ENDBRANCH   1   8
TORSDOF 1
ENDMDL
