MODEL 1
REMARK minimizedAffinity 7.08507442
REMARK minimizedRMSD -1
REMARK  1 active torsions:
REMARK  status: ('A' for Active; 'I' for Inactive)
REMARK    1  A    between atoms: C1_2  and  C2_3 
ROOT
ATOM      1  C2  UNL d   1       3.698   2.632  -5.706  0.00  0.00    -0.076 A 
ATOM      2  C3  UNL d   1       3.708   1.258  -5.999  0.00  0.00     0.004 A 
ATOM      3  C4  UNL d   1       4.846   0.485  -5.776  0.00  0.00    -0.003 A 
ATOM      4  C5  UNL d   1       5.993   1.074  -5.255  0.00  0.00     0.000 A 
ATOM      5  C6  UNL d   1       5.995   2.433  -4.942  0.00  0.00     0.000 A 
ATOM      6  C7  UNL d   1       4.850   3.223  -5.146  0.00  0.00    -0.073 A 
ATOM      7  C8  UNL d   1       4.910   4.685  -4.796  0.00  0.00     0.078 C 
ENDROOT
BRANCH   1   8
ATOM      8  C1  UNL d   1       2.443   3.425  -5.994  0.00  0.00     0.053 C 
ATOM      9  C   UNL d   1       1.222   2.864  -5.281  0.00  0.00     0.018 C 
ENDBRANCH   1   8
TORSDOF 1
ENDMDL
