MODEL 1
REMARK minimizedAffinity 7.3823185
REMARK minimizedRMSD -1
REMARK  1 active torsions:
REMARK  status: ('A' for Active; 'I' for Inactive)
REMARK    1  A    between atoms: C1_2  and  C2_3 
ROOT
ATOM      1  C2  UNL d   1       3.768   2.578   2.717  0.00  0.00    -0.076 A 
ATOM      2  C3  UNL d   1       4.627   3.650   2.418  0.00  0.00     0.004 A 
ATOM      3  C4  UNL d   1       4.547   4.314   1.196  0.00  0.00    -0.003 A 
ATOM      4  C5  UNL d   1       3.606   3.919   0.252  0.00  0.00     0.000 A 
ATOM      5  C6  UNL d   1       2.733   2.869   0.538  0.00  0.00     0.000 A 
ATOM      6  C7  UNL d   1       2.790   2.199   1.773  0.00  0.00    -0.073 A 
ATOM      7  C8  UNL d   1       1.828   1.070   2.026  0.00  0.00     0.078 C 
ENDROOT
BRANCH   1   8
ATOM      8  C1  UNL d   1       3.919   1.878   4.048  0.00  0.00     0.053 C 
ATOM      9  C   UNL d   1       5.018   2.486   4.905  0.00  0.00     0.018 C 
ENDBRANCH   1   8
TORSDOF 1
ENDMDL
