MODEL 1
REMARK minimizedAffinity 6.5602951
REMARK minimizedRMSD -1
REMARK  1 active torsions:
REMARK  status: ('A' for Active; 'I' for Inactive)
REMARK    1  A    between atoms: C1_2  and  C2_3 
ROOT
ATOM      1  C2  UNL d   1      -1.463  -3.292   1.215  0.00  0.00    -0.076 A 
ATOM      2  C3  UNL d   1      -2.011  -4.390   0.529  0.00  0.00     0.004 A 
ATOM      3  C4  UNL d   1      -1.825  -4.544  -0.844  0.00  0.00    -0.003 A 
ATOM      4  C5  UNL d   1      -1.086  -3.603  -1.553  0.00  0.00     0.000 A 
ATOM      5  C6  UNL d   1      -0.521  -2.517  -0.886  0.00  0.00     0.000 A 
ATOM      6  C7  UNL d   1      -0.686  -2.355   0.501  0.00  0.00    -0.073 A 
ATOM      7  C8  UNL d   1      -0.059  -1.162   1.168  0.00  0.00     0.078 C 
ENDROOT
BRANCH   1   8
ATOM      8  C1  UNL d   1      -1.722  -3.163   2.699  0.00  0.00     0.053 C 
ATOM      9  C   UNL d   1      -2.100  -4.488   3.342  0.00  0.00     0.018 C 
ENDBRANCH   1   8
TORSDOF 1
ENDMDL
