MODEL 1
REMARK minimizedAffinity 0.607513607
REMARK minimizedRMSD -1
REMARK  1 active torsions:
REMARK  status: ('A' for Active; 'I' for Inactive)
REMARK    1  A    between atoms: C1_2  and  C2_3 
ROOT
ATOM      1  C2  UNL d   1      -1.348  -3.988   1.082  0.00  0.00    -0.076 A 
ATOM      2  C3  UNL d   1      -1.121  -5.371   1.187  0.00  0.00     0.004 A 
ATOM      3  C4  UNL d   1      -1.069  -5.997   2.431  0.00  0.00    -0.003 A 
ATOM      4  C5  UNL d   1      -1.245  -5.250   3.591  0.00  0.00     0.000 A 
ATOM      5  C6  UNL d   1      -1.490  -3.880   3.504  0.00  0.00     0.000 A 
ATOM      6  C7  UNL d   1      -1.561  -3.236   2.257  0.00  0.00    -0.073 A 
ATOM      7  C8  UNL d   1      -1.821  -1.755   2.222  0.00  0.00     0.078 C 
ENDROOT
BRANCH   1   8
ATOM      8  C1  UNL d   1      -1.366  -3.360  -0.294  0.00  0.00     0.053 C 
ATOM      9  C   UNL d   1      -2.202  -4.154  -1.286  0.00  0.00     0.018 C 
ENDBRANCH   1   8
TORSDOF 1
ENDMDL
