MODEL 1
REMARK minimizedAffinity 4.90018034
REMARK minimizedRMSD -1
REMARK  1 active torsions:
REMARK  status: ('A' for Active; 'I' for Inactive)
REMARK    1  A    between atoms: C1_2  and  C2_3 
ROOT
ATOM      1  C2  UNL d   1      -1.412  -2.530   0.843  0.00  0.00    -0.076 A 
ATOM      2  C3  UNL d   1      -1.954  -3.617   0.135  0.00  0.00     0.004 A 
ATOM      3  C4  UNL d   1      -1.513  -3.927  -1.151  0.00  0.00    -0.003 A 
ATOM      4  C5  UNL d   1      -0.522  -3.156  -1.749  0.00  0.00     0.000 A 
ATOM      5  C6  UNL d   1       0.039  -2.085  -1.054  0.00  0.00     0.000 A 
ATOM      6  C7  UNL d   1      -0.383  -1.768   0.249  0.00  0.00    -0.073 A 
ATOM      7  C8  UNL d   1       0.252  -0.599   0.949  0.00  0.00     0.078 C 
ENDROOT
BRANCH   1   8
ATOM      8  C1  UNL d   1      -1.950  -2.225   2.223  0.00  0.00     0.053 C 
ATOM      9  C   UNL d   1      -1.963  -3.448   3.126  0.00  0.00     0.018 C 
ENDBRANCH   1   8
TORSDOF 1
ENDMDL
