MODEL 1
REMARK minimizedAffinity 5.35028791
REMARK minimizedRMSD -1
REMARK  1 active torsions:
REMARK  status: ('A' for Active; 'I' for Inactive)
REMARK    1  A    between atoms: C1_2  and  C2_3 
ROOT
ATOM      1  C2  UNL d   1       3.177   2.683   1.149  0.00  0.00    -0.076 A 
ATOM      2  C3  UNL d   1       3.150   1.433   1.790  0.00  0.00     0.004 A 
ATOM      3  C4  UNL d   1       2.038   0.599   1.692  0.00  0.00    -0.003 A 
ATOM      4  C5  UNL d   1       0.933   1.003   0.950  0.00  0.00     0.000 A 
ATOM      5  C6  UNL d   1       0.949   2.233   0.293  0.00  0.00     0.000 A 
ATOM      6  C7  UNL d   1       2.069   3.078   0.369  0.00  0.00    -0.073 A 
ATOM      7  C8  UNL d   1       2.029   4.396  -0.355  0.00  0.00     0.078 C 
ENDROOT
BRANCH   1   8
ATOM      8  C1  UNL d   1       4.400   3.556   1.314  0.00  0.00     0.053 C 
ATOM      9  C   UNL d   1       4.732   3.824   2.774  0.00  0.00     0.018 C 
ENDBRANCH   1   8
TORSDOF 1
ENDMDL
