MODEL 1
REMARK minimizedAffinity 4.69323063
REMARK minimizedRMSD -1
REMARK  1 active torsions:
REMARK  status: ('A' for Active; 'I' for Inactive)
REMARK    1  A    between atoms: C1_2  and  C2_3 
ROOT
ATOM      1  C2  UNL d   1       3.390   2.581   1.813  0.00  0.00    -0.076 A 
ATOM      2  C3  UNL d   1       3.292   3.262   0.587  0.00  0.00     0.004 A 
ATOM      3  C4  UNL d   1       4.097   4.366   0.314  0.00  0.00    -0.003 A 
ATOM      4  C5  UNL d   1       5.015   4.807   1.261  0.00  0.00     0.000 A 
ATOM      5  C6  UNL d   1       5.138   4.132   2.475  0.00  0.00     0.000 A 
ATOM      6  C7  UNL d   1       4.345   3.008   2.761  0.00  0.00    -0.073 A 
ATOM      7  C8  UNL d   1       4.515   2.322   4.089  0.00  0.00     0.078 C 
ENDROOT
BRANCH   1   8
ATOM      8  C1  UNL d   1       2.471   1.407   2.065  0.00  0.00     0.053 C 
ATOM      9  C   UNL d   1       1.067   1.641   1.529  0.00  0.00     0.018 C 
ENDBRANCH   1   8
TORSDOF 1
ENDMDL
