MODEL 1
REMARK minimizedAffinity -0.492263794
REMARK minimizedRMSD -1
REMARK  1 active torsions:
REMARK  status: ('A' for Active; 'I' for Inactive)
REMARK    1  A    between atoms: C1_2  and  C2_3 
ROOT
ATOM      1  C2  UNL d   1      -0.575   3.102   2.994  0.00  0.00    -0.076 A 
ATOM      2  C3  UNL d   1      -1.727   2.488   2.475  0.00  0.00     0.004 A 
ATOM      3  C4  UNL d   1      -1.655   1.646   1.366  0.00  0.00    -0.003 A 
ATOM      4  C5  UNL d   1      -0.427   1.404   0.759  0.00  0.00     0.000 A 
ATOM      5  C6  UNL d   1       0.729   1.991   1.272  0.00  0.00     0.000 A 
ATOM      6  C7  UNL d   1       0.676   2.830   2.399  0.00  0.00    -0.073 A 
ATOM      7  C8  UNL d   1       1.953   3.441   2.905  0.00  0.00     0.078 C 
ENDROOT
BRANCH   1   8
ATOM      8  C1  UNL d   1      -0.719   4.027   4.182  0.00  0.00     0.053 C 
ATOM      9  C   UNL d   1      -2.085   3.919   4.842  0.00  0.00     0.018 C 
ENDBRANCH   1   8
TORSDOF 1
ENDMDL
