MODEL 1
REMARK minimizedAffinity -4.04662323
REMARK minimizedRMSD -1
REMARK  1 active torsions:
REMARK  status: ('A' for Active; 'I' for Inactive)
REMARK    1  A    between atoms: C1_2  and  C2_3 
ROOT
ATOM      1  C2  UNL d   1       0.728  -0.492  -0.929  0.00  0.00    -0.076 A 
ATOM      2  C3  UNL d   1       1.204  -1.171  -2.064  0.00  0.00     0.004 A 
ATOM      3  C4  UNL d   1       0.475  -2.214  -2.634  0.00  0.00    -0.003 A 
ATOM      4  C5  UNL d   1      -0.742  -2.593  -2.078  0.00  0.00     0.000 A 
ATOM      5  C6  UNL d   1      -1.238  -1.919  -0.963  0.00  0.00     0.000 A 
ATOM      6  C7  UNL d   1      -0.523  -0.855  -0.386  0.00  0.00    -0.073 A 
ATOM      7  C8  UNL d   1      -1.102  -0.167   0.820  0.00  0.00     0.078 C 
ENDROOT
BRANCH   1   8
ATOM      8  C1  UNL d   1       1.575   0.613  -0.338  0.00  0.00     0.053 C 
ATOM      9  C   UNL d   1       2.984   0.150  -0.001  0.00  0.00     0.018 C 
ENDBRANCH   1   8
TORSDOF 1
ENDMDL
