MODEL 1
REMARK minimizedAffinity -2.86347556
REMARK minimizedRMSD -1
REMARK  0 active torsions:
REMARK  status: ('A' for Active; 'I' for Inactive)
ROOT
ATOM      1  C4' PXY d   1      -1.131   0.749  -5.997  0.00  0.00     0.077 C 
ATOM      2  C1' PXY d   1      -0.241  -3.216  -1.886  0.00  0.00     0.077 C 
ATOM      3  C1  PXY d   1      -0.466  -2.182  -2.972  0.00  0.00    -0.082 A 
ATOM      4  C2  PXY d   1      -0.864  -0.964  -2.643  0.00  0.00     0.003 A 
ATOM      5  C3  PXY d   1      -1.104  -0.027  -3.615  0.00  0.00     0.003 A 
ATOM      6  C4  PXY d   1      -0.882  -0.323  -4.933  0.00  0.00    -0.082 A 
ATOM      7  C5  PXY d   1      -0.466  -1.561  -5.276  0.00  0.00     0.003 A 
ATOM      8  C6  PXY d   1      -0.268  -2.510  -4.278  0.00  0.00     0.003 A 
ENDROOT
TORSDOF 0
ENDMDL
