MODEL 1
REMARK minimizedAffinity 1.79512656
REMARK minimizedRMSD -1
REMARK  0 active torsions:
REMARK  status: ('A' for Active; 'I' for Inactive)
ROOT
ATOM      1  C4' PXY d   1      -0.575  -2.329  -1.186  0.00  0.00     0.077 C 
ATOM      2  C1' PXY d   1      -0.622   0.883  -5.992  0.00  0.00     0.077 C 
ATOM      3  C1  PXY d   1      -0.612   0.030  -4.738  0.00  0.00    -0.082 A 
ATOM      4  C2  PXY d   1      -0.853   0.590  -3.564  0.00  0.00     0.003 A 
ATOM      5  C3  PXY d   1      -0.817  -0.160  -2.417  0.00  0.00     0.003 A 
ATOM      6  C4  PXY d   1      -0.584  -1.508  -2.478  0.00  0.00    -0.082 A 
ATOM      7  C5  PXY d   1      -0.348  -2.089  -3.674  0.00  0.00     0.003 A 
ATOM      8  C6  PXY d   1      -0.348  -1.302  -4.822  0.00  0.00     0.003 A 
ENDROOT
TORSDOF 0
ENDMDL
