MODEL 1
REMARK minimizedAffinity -0.513066173
REMARK minimizedRMSD -1
REMARK  0 active torsions:
REMARK  status: ('A' for Active; 'I' for Inactive)
ROOT
ATOM      1  C4' PXY d   1      -5.820   0.760   0.044  0.00  0.00     0.077 C 
ATOM      2  C1' PXY d   1      -0.732  -0.654   2.395  0.00  0.00     0.077 C 
ATOM      3  C1  PXY d   1      -2.062  -0.287   1.767  0.00  0.00    -0.082 A 
ATOM      4  C2  PXY d   1      -2.810   0.653   2.321  0.00  0.00     0.003 A 
ATOM      5  C3  PXY d   1      -4.030   0.974   1.785  0.00  0.00     0.003 A 
ATOM      6  C4  PXY d   1      -4.465   0.364   0.639  0.00  0.00    -0.082 A 
ATOM      7  C5  PXY d   1      -3.703  -0.588   0.061  0.00  0.00     0.003 A 
ATOM      8  C6  PXY d   1      -2.486  -0.929   0.645  0.00  0.00     0.003 A 
ENDROOT
TORSDOF 0
ENDMDL
