MODEL 1
REMARK minimizedAffinity 2.55815077
REMARK minimizedRMSD -1
REMARK  0 active torsions:
REMARK  status: ('A' for Active; 'I' for Inactive)
ROOT
ATOM      1  C4' PXY d   1      -0.600  -0.434   2.751  0.00  0.00     0.077 C 
ATOM      2  C1' PXY d   1      -5.732   1.013   0.518  0.00  0.00     0.077 C 
ATOM      3  C1  PXY d   1      -4.388   0.621   1.100  0.00  0.00    -0.082 A 
ATOM      4  C2  PXY d   1      -3.885   1.314   2.109  0.00  0.00     0.003 A 
ATOM      5  C3  PXY d   1      -2.656   0.993   2.625  0.00  0.00     0.003 A 
ATOM      6  C4  PXY d   1      -1.958  -0.080   2.139  0.00  0.00    -0.082 A 
ATOM      7  C5  PXY d   1      -2.470  -0.798   1.116  0.00  0.00     0.003 A 
ATOM      8  C6  PXY d   1      -3.700  -0.431   0.579  0.00  0.00     0.003 A 
ENDROOT
TORSDOF 0
ENDMDL
