MODEL 1
REMARK minimizedAffinity 1.73236489
REMARK minimizedRMSD -1
REMARK  0 active torsions:
REMARK  status: ('A' for Active; 'I' for Inactive)
ROOT
ATOM      1  C4' PXY d   1      -5.553   1.153   0.461  0.00  0.00     0.077 C 
ATOM      2  C1' PXY d   1      -0.414  -0.177   2.747  0.00  0.00     0.077 C 
ATOM      3  C1  PXY d   1      -1.758   0.166   2.136  0.00  0.00    -0.082 A 
ATOM      4  C2  PXY d   1      -2.468   1.165   2.636  0.00  0.00     0.003 A 
ATOM      5  C3  PXY d   1      -3.700   1.468   2.116  0.00  0.00     0.003 A 
ATOM      6  C4  PXY d   1      -4.187   0.777   1.039  0.00  0.00    -0.082 A 
ATOM      7  C5  PXY d   1      -3.464  -0.236   0.517  0.00  0.00     0.003 A 
ATOM      8  C6  PXY d   1      -2.234  -0.555   1.085  0.00  0.00     0.003 A 
ENDROOT
TORSDOF 0
ENDMDL
