MODEL 1
REMARK minimizedAffinity -3.1197629
REMARK minimizedRMSD -1
REMARK  0 active torsions:
REMARK  status: ('A' for Active; 'I' for Inactive)
ROOT
ATOM      1  C4' PXY d   1       3.081   0.354  -5.348  0.00  0.00     0.077 C 
ATOM      2  C1' PXY d   1      -2.638   0.269  -4.511  0.00  0.00     0.077 C 
ATOM      3  C1  PXY d   1      -1.138   0.302  -4.722  0.00  0.00    -0.082 A 
ATOM      4  C2  PXY d   1      -0.618  -0.249  -5.808  0.00  0.00     0.003 A 
ATOM      5  C3  PXY d   1       0.740  -0.256  -6.000  0.00  0.00     0.003 A 
ATOM      6  C4  PXY d   1       1.570   0.353  -5.097  0.00  0.00    -0.082 A 
ATOM      7  C5  PXY d   1       1.047   0.926  -3.993  0.00  0.00     0.003 A 
ATOM      8  C6  PXY d   1      -0.330   0.886  -3.796  0.00  0.00     0.003 A 
ENDROOT
TORSDOF 0
ENDMDL
