MODEL 1
REMARK minimizedAffinity 0.735881865
REMARK minimizedRMSD -1
REMARK  0 active torsions:
REMARK  status: ('A' for Active; 'I' for Inactive)
ROOT
ATOM      1  C4' PXY d   1      -0.205  -2.757  -1.629  0.00  0.00     0.077 C 
ATOM      2  C1' PXY d   1      -0.498   1.014  -5.999  0.00  0.00     0.077 C 
ATOM      3  C1  PXY d   1      -0.422   0.015  -4.862  0.00  0.00    -0.082 A 
ATOM      4  C2  PXY d   1      -0.802   0.377  -3.647  0.00  0.00     0.003 A 
ATOM      5  C3  PXY d   1      -0.709  -0.504  -2.600  0.00  0.00     0.003 A 
ATOM      6  C4  PXY d   1      -0.274  -1.785  -2.809  0.00  0.00    -0.082 A 
ATOM      7  C5  PXY d   1       0.106  -2.165  -4.048  0.00  0.00     0.003 A 
ATOM      8  C6  PXY d   1       0.043  -1.243  -5.089  0.00  0.00     0.003 A 
ENDROOT
TORSDOF 0
ENDMDL
