MODEL 1
REMARK minimizedAffinity 5.95794392
REMARK minimizedRMSD -1
REMARK  0 active torsions:
REMARK  status: ('A' for Active; 'I' for Inactive)
ROOT
ATOM      1  C4' PXY d   1      -2.990   1.111   2.402  0.00  0.00     0.077 C 
ATOM      2  C1' PXY d   1       1.843  -1.899   3.401  0.00  0.00     0.077 C 
ATOM      3  C1  PXY d   1       0.574  -1.116   3.128  0.00  0.00    -0.082 A 
ATOM      4  C2  PXY d   1       0.407   0.073   3.682  0.00  0.00     0.003 A 
ATOM      5  C3  PXY d   1      -0.748   0.781   3.472  0.00  0.00     0.003 A 
ATOM      6  C4  PXY d   1      -1.720   0.289   2.642  0.00  0.00    -0.082 A 
ATOM      7  C5  PXY d   1      -1.553  -0.919   2.064  0.00  0.00     0.003 A 
ATOM      8  C6  PXY d   1      -0.391  -1.640   2.324  0.00  0.00     0.003 A 
ENDROOT
TORSDOF 0
ENDMDL
