MODEL 1
REMARK minimizedAffinity -2.153754
REMARK minimizedRMSD -1
REMARK  0 active torsions:
REMARK  status: ('A' for Active; 'I' for Inactive)
ROOT
ATOM      1  C4' PXY d   1      -0.578  -1.505  -1.489  0.00  0.00     0.077 C 
ATOM      2  C1' PXY d   1      -3.722   0.626   2.869  0.00  0.00     0.077 C 
ATOM      3  C1  PXY d   1      -2.887   0.069   1.733  0.00  0.00    -0.082 A 
ATOM      4  C2  PXY d   1      -3.362   0.092   0.498  0.00  0.00     0.003 A 
ATOM      5  C3  PXY d   1      -2.633  -0.436  -0.536  0.00  0.00     0.003 A 
ATOM      6  C4  PXY d   1      -1.382  -0.945  -0.312  0.00  0.00    -0.082 A 
ATOM      7  C5  PXY d   1      -0.886  -0.963   0.943  0.00  0.00     0.003 A 
ATOM      8  C6  PXY d   1      -1.658  -0.460   1.985  0.00  0.00     0.003 A 
ENDROOT
TORSDOF 0
ENDMDL
