MODEL 1
REMARK minimizedAffinity -1.50392771
REMARK minimizedRMSD -1
REMARK  0 active torsions:
REMARK  status: ('A' for Active; 'I' for Inactive)
ROOT
ATOM      1  C4' PXY d   1      -5.973   0.839  -0.042  0.00  0.00     0.077 C 
ATOM      2  C1' PXY d   1      -0.691  -0.366   1.973  0.00  0.00     0.077 C 
ATOM      3  C1  PXY d   1      -2.072  -0.054   1.433  0.00  0.00    -0.082 A 
ATOM      4  C2  PXY d   1      -2.834   0.831   2.056  0.00  0.00     0.003 A 
ATOM      5  C3  PXY d   1      -4.098   1.101   1.599  0.00  0.00     0.003 A 
ATOM      6  C4  PXY d   1      -4.568   0.500   0.463  0.00  0.00    -0.082 A 
ATOM      7  C5  PXY d   1      -3.793  -0.396  -0.185  0.00  0.00     0.003 A 
ATOM      8  C6  PXY d   1      -2.528  -0.687   0.318  0.00  0.00     0.003 A 
ENDROOT
TORSDOF 0
ENDMDL
