MODEL 1
REMARK minimizedAffinity -2.49297571
REMARK minimizedRMSD -1
REMARK  0 active torsions:
REMARK  status: ('A' for Active; 'I' for Inactive)
ROOT
ATOM      1  C4' PXY d   1      -0.892  -0.383   2.157  0.00  0.00     0.077 C 
ATOM      2  C1' PXY d   1      -5.999   0.887  -0.236  0.00  0.00     0.077 C 
ATOM      3  C1  PXY d   1      -4.660   0.542   0.386  0.00  0.00    -0.082 A 
ATOM      4  C2  PXY d   1      -4.282   1.146   1.501  0.00  0.00     0.003 A 
ATOM      5  C3  PXY d   1      -3.060   0.869   2.059  0.00  0.00     0.003 A 
ATOM      6  C4  PXY d   1      -2.240  -0.073   1.499  0.00  0.00    -0.082 A 
ATOM      7  C5  PXY d   1      -2.623  -0.701   0.367  0.00  0.00     0.003 A 
ATOM      8  C6  PXY d   1      -3.849  -0.376  -0.206  0.00  0.00     0.003 A 
ENDROOT
TORSDOF 0
ENDMDL
