MODEL 1
REMARK minimizedAffinity -4.43382597
REMARK minimizedRMSD -1
REMARK  0 active torsions:
REMARK  status: ('A' for Active; 'I' for Inactive)
ROOT
ATOM      1  C4' PXY d   1      -0.295  -2.232  -1.655  0.00  0.00     0.077 C 
ATOM      2  C1' PXY d   1      -3.463   0.891   2.037  0.00  0.00     0.077 C 
ATOM      3  C1  PXY d   1      -2.621   0.076   1.075  0.00  0.00    -0.082 A 
ATOM      4  C2  PXY d   1      -3.102  -0.226  -0.121  0.00  0.00     0.003 A 
ATOM      5  C3  PXY d   1      -2.367  -0.990  -0.991  0.00  0.00     0.003 A 
ATOM      6  C4  PXY d   1      -1.105  -1.403  -0.655  0.00  0.00    -0.082 A 
ATOM      7  C5  PXY d   1      -0.604  -1.090   0.559  0.00  0.00     0.003 A 
ATOM      8  C6  PXY d   1      -1.382  -0.349   1.443  0.00  0.00     0.003 A 
ENDROOT
TORSDOF 0
ENDMDL
