MODEL 1
REMARK minimizedAffinity -3.2832191
REMARK minimizedRMSD -1
REMARK  1 active torsions:
REMARK  status: ('A' for Active; 'I' for Inactive)
REMARK    1  A    between atoms: C1_2  and  C2_3 
ROOT
ATOM      1  C2  UNL d   1      -1.368   0.104   1.133  0.00  0.00    -0.081 A 
ATOM      2  C3  UNL d   1      -0.019   0.306   1.451  0.00  0.00     0.006 A 
ATOM      3  C4  UNL d   1       0.987  -0.184   0.615  0.00  0.00     0.002 A 
ATOM      4  C5  UNL d   1       0.661  -0.877  -0.556  0.00  0.00    -0.080 A 
ATOM      5  C6  UNL d   1       1.731  -1.382  -1.478  0.00  0.00     0.076 C 
ATOM      6  C7  UNL d   1      -0.686  -1.095  -0.865  0.00  0.00     0.002 A 
ATOM      7  C8  UNL d   1      -1.692  -0.606  -0.029  0.00  0.00     0.006 A 
ENDROOT
BRANCH   1   8
ATOM      8  C1  UNL d   1      -2.455   0.687   1.999  0.00  0.00     0.054 C 
ATOM      9  C   UNL d   1      -1.878   1.351   3.241  0.00  0.00     0.018 C 
ENDBRANCH   1   8
TORSDOF 1
ENDMDL
