MODEL 1
REMARK minimizedAffinity -4.56973076
REMARK minimizedRMSD -1
REMARK  1 active torsions:
REMARK  status: ('A' for Active; 'I' for Inactive)
REMARK    1  A    between atoms: C1_2  and  C2_3 
ROOT
ATOM      1  C2  UNL d   1       1.304  -0.116  -1.132  0.00  0.00    -0.081 A 
ATOM      2  C3  UNL d   1       1.225  -1.093  -0.132  0.00  0.00     0.006 A 
ATOM      3  C4  UNL d   1       0.149  -1.109   0.759  0.00  0.00     0.002 A 
ATOM      4  C5  UNL d   1      -0.869  -0.154   0.659  0.00  0.00    -0.080 A 
ATOM      5  C6  UNL d   1      -2.045  -0.178   1.589  0.00  0.00     0.076 C 
ATOM      6  C7  UNL d   1      -0.781   0.832  -0.330  0.00  0.00     0.002 A 
ATOM      7  C8  UNL d   1       0.295   0.849  -1.220  0.00  0.00     0.006 A 
ENDROOT
BRANCH   1   8
ATOM      8  C1  UNL d   1       2.430  -0.136  -2.134  0.00  0.00     0.054 C 
ATOM      9  C   UNL d   1       2.216   0.901  -3.228  0.00  0.00     0.018 C 
ENDBRANCH   1   8
TORSDOF 1
ENDMDL
