MODEL 1
REMARK minimizedAffinity -3.56567168
REMARK minimizedRMSD -1
REMARK  1 active torsions:
REMARK  status: ('A' for Active; 'I' for Inactive)
REMARK    1  A    between atoms: C1_2  and  C2_3 
ROOT
ATOM      1  C2  UNL d   1      -1.170   0.037   1.057  0.00  0.00    -0.081 A 
ATOM      2  C3  UNL d   1      -0.375  -1.039   1.471  0.00  0.00     0.006 A 
ATOM      3  C4  UNL d   1       0.721  -1.445   0.707  0.00  0.00     0.002 A 
ATOM      4  C5  UNL d   1       1.046  -0.777  -0.478  0.00  0.00    -0.080 A 
ATOM      5  C6  UNL d   1       2.239  -1.183  -1.292  0.00  0.00     0.076 C 
ATOM      6  C7  UNL d   1       0.242   0.287  -0.901  0.00  0.00     0.002 A 
ATOM      7  C8  UNL d   1      -0.855   0.692  -0.138  0.00  0.00     0.006 A 
ENDROOT
BRANCH   1   8
ATOM      8  C1  UNL d   1      -2.315   0.518   1.912  0.00  0.00     0.054 C 
ATOM      9  C   UNL d   1      -2.012   1.875   2.530  0.00  0.00     0.018 C 
ENDBRANCH   1   8
TORSDOF 1
ENDMDL
