MODEL 1
REMARK minimizedAffinity -1.74924648
REMARK minimizedRMSD -1
REMARK  1 active torsions:
REMARK  status: ('A' for Active; 'I' for Inactive)
REMARK    1  A    between atoms: C1_2  and  C2_3 
ROOT
ATOM      1  C2  UNL d   1      -0.726   0.754   1.767  0.00  0.00    -0.081 A 
ATOM      2  C3  UNL d   1      -1.140   0.770   0.429  0.00  0.00     0.006 A 
ATOM      3  C4  UNL d   1      -0.473   0.002  -0.528  0.00  0.00     0.002 A 
ATOM      4  C5  UNL d   1       0.613  -0.801  -0.163  0.00  0.00    -0.080 A 
ATOM      5  C6  UNL d   1       1.318  -1.655  -1.175  0.00  0.00     0.076 C 
ATOM      6  C7  UNL d   1       1.038  -0.804   1.170  0.00  0.00     0.002 A 
ATOM      7  C8  UNL d   1       0.372  -0.035   2.128  0.00  0.00     0.006 A 
ENDROOT
BRANCH   1   8
ATOM      8  C1  UNL d   1      -1.483   1.531   2.813  0.00  0.00     0.054 C 
ATOM      9  C   UNL d   1      -2.552   0.674   3.474  0.00  0.00     0.018 C 
ENDBRANCH   1   8
TORSDOF 1
ENDMDL
