MODEL 1
REMARK minimizedAffinity -1.14015174
REMARK minimizedRMSD -1
REMARK  1 active torsions:
REMARK  status: ('A' for Active; 'I' for Inactive)
REMARK    1  A    between atoms: C1_2  and  C2_3 
ROOT
ATOM      1  C2  UNL d   1      -1.087   0.132   0.469  0.00  0.00    -0.081 A 
ATOM      2  C3  UNL d   1      -0.141   0.957  -0.152  0.00  0.00     0.006 A 
ATOM      3  C4  UNL d   1       0.980   0.403  -0.776  0.00  0.00     0.002 A 
ATOM      4  C5  UNL d   1       1.169  -0.983  -0.796  0.00  0.00    -0.080 A 
ATOM      5  C6  UNL d   1       2.352  -1.591  -1.489  0.00  0.00     0.076 C 
ATOM      6  C7  UNL d   1       0.233  -1.805  -0.161  0.00  0.00     0.002 A 
ATOM      7  C8  UNL d   1      -0.888  -1.253   0.464  0.00  0.00     0.006 A 
ENDROOT
BRANCH   1   8
ATOM      8  C1  UNL d   1      -2.329   0.721   1.087  0.00  0.00     0.054 C 
ATOM      9  C   UNL d   1      -2.213   0.793   2.603  0.00  0.00     0.018 C 
ENDBRANCH   1   8
TORSDOF 1
ENDMDL
