MODEL 1
REMARK minimizedAffinity -4.13175964
REMARK minimizedRMSD -1
REMARK  1 active torsions:
REMARK  status: ('A' for Active; 'I' for Inactive)
REMARK    1  A    between atoms: C1_2  and  C2_3 
ROOT
ATOM      1  C2  UNL d   1       0.687  -0.677  -0.122  0.00  0.00    -0.081 A 
ATOM      2  C3  UNL d   1       1.180  -0.130   1.069  0.00  0.00     0.006 A 
ATOM      3  C4  UNL d   1       0.312   0.463   1.989  0.00  0.00     0.002 A 
ATOM      4  C5  UNL d   1      -1.063   0.513   1.737  0.00  0.00    -0.080 A 
ATOM      5  C6  UNL d   1      -2.009   1.120   2.730  0.00  0.00     0.076 C 
ATOM      6  C7  UNL d   1      -1.554  -0.018   0.540  0.00  0.00     0.002 A 
ATOM      7  C8  UNL d   1      -0.687  -0.610  -0.381  0.00  0.00     0.006 A 
ENDROOT
BRANCH   1   8
ATOM      8  C1  UNL d   1       1.612  -1.375  -1.086  0.00  0.00     0.054 C 
ATOM      9  C   UNL d   1       2.218  -0.394  -2.080  0.00  0.00     0.018 C 
ENDBRANCH   1   8
TORSDOF 1
ENDMDL
