MODEL 1
REMARK minimizedAffinity -4.98032045
REMARK minimizedRMSD -1
REMARK  1 active torsions:
REMARK  status: ('A' for Active; 'I' for Inactive)
REMARK    1  A    between atoms: C1_2  and  C2_3 
ROOT
ATOM      1  C2  UNL d   1      -1.354  -0.109   1.453  0.00  0.00    -0.081 A 
ATOM      2  C3  UNL d   1      -0.378   0.816   1.060  0.00  0.00     0.006 A 
ATOM      3  C4  UNL d   1       0.556   0.484   0.075  0.00  0.00     0.002 A 
ATOM      4  C5  UNL d   1       0.524  -0.772  -0.539  0.00  0.00    -0.080 A 
ATOM      5  C6  UNL d   1       1.502  -1.130  -1.619  0.00  0.00     0.076 C 
ATOM      6  C7  UNL d   1      -0.439  -1.702  -0.134  0.00  0.00     0.002 A 
ATOM      7  C8  UNL d   1      -1.373  -1.372   0.851  0.00  0.00     0.006 A 
ENDROOT
BRANCH   1   8
ATOM      8  C1  UNL d   1      -2.402   0.268   2.468  0.00  0.00     0.054 C 
ATOM      9  C   UNL d   1      -1.788   1.009   3.648  0.00  0.00     0.018 C 
ENDBRANCH   1   8
TORSDOF 1
ENDMDL
