MODEL 1
REMARK minimizedAffinity -3.33193398
REMARK minimizedRMSD -1
REMARK  1 active torsions:
REMARK  status: ('A' for Active; 'I' for Inactive)
REMARK    1  A    between atoms: C1_2  and  C2_3 
ROOT
ATOM      1  C2  UNL d   1      -1.814   0.372   1.581  0.00  0.00    -0.081 A 
ATOM      2  C3  UNL d   1      -0.470   0.059   1.821  0.00  0.00     0.006 A 
ATOM      3  C4  UNL d   1       0.442  -0.006   0.764  0.00  0.00     0.002 A 
ATOM      4  C5  UNL d   1       0.027   0.249  -0.547  0.00  0.00    -0.080 A 
ATOM      5  C6  UNL d   1       1.002   0.212  -1.687  0.00  0.00     0.076 C 
ATOM      6  C7  UNL d   1      -1.319   0.544  -0.789  0.00  0.00     0.002 A 
ATOM      7  C8  UNL d   1      -2.231   0.609   0.266  0.00  0.00     0.006 A 
ENDROOT
BRANCH   1   8
ATOM      8  C1  UNL d   1      -2.785   0.506   2.725  0.00  0.00     0.054 C 
ATOM      9  C   UNL d   1      -2.386   1.638   3.661  0.00  0.00     0.018 C 
ENDBRANCH   1   8
TORSDOF 1
ENDMDL
