MODEL 1
REMARK minimizedAffinity -2.18837976
REMARK minimizedRMSD -1
REMARK  1 active torsions:
REMARK  status: ('A' for Active; 'I' for Inactive)
REMARK    1  A    between atoms: C1_2  and  C2_3 
ROOT
ATOM      1  C2  UNL d   1       1.534   0.167  -1.872  0.00  0.00    -0.081 A 
ATOM      2  C3  UNL d   1       0.466   0.534  -1.043  0.00  0.00     0.006 A 
ATOM      3  C4  UNL d   1       0.227  -0.154   0.149  0.00  0.00     0.002 A 
ATOM      4  C5  UNL d   1       1.055  -1.214   0.536  0.00  0.00    -0.080 A 
ATOM      5  C6  UNL d   1       0.827  -1.940   1.828  0.00  0.00     0.076 C 
ATOM      6  C7  UNL d   1       2.110  -1.591  -0.301  0.00  0.00     0.002 A 
ATOM      7  C8  UNL d   1       2.350  -0.904  -1.493  0.00  0.00     0.006 A 
ENDROOT
BRANCH   1   8
ATOM      8  C1  UNL d   1       1.833   0.948  -3.126  0.00  0.00     0.054 C 
ATOM      9  C   UNL d   1       1.195   2.329  -3.084  0.00  0.00     0.018 C 
ENDBRANCH   1   8
TORSDOF 1
ENDMDL
