MODEL 1
REMARK minimizedAffinity -2.92727351
REMARK minimizedRMSD -1
REMARK  1 active torsions:
REMARK  status: ('A' for Active; 'I' for Inactive)
REMARK    1  A    between atoms: C1_2  and  C2_3 
ROOT
ATOM      1  C2  UNL d   1      -0.860   0.282   1.092  0.00  0.00    -0.081 A 
ATOM      2  C3  UNL d   1      -0.125  -0.842   1.486  0.00  0.00     0.006 A 
ATOM      3  C4  UNL d   1       0.644  -1.547   0.557  0.00  0.00     0.002 A 
ATOM      4  C5  UNL d   1       0.697  -1.135  -0.779  0.00  0.00    -0.080 A 
ATOM      5  C6  UNL d   1       1.543  -1.864  -1.780  0.00  0.00     0.076 C 
ATOM      6  C7  UNL d   1      -0.051  -0.021  -1.177  0.00  0.00     0.002 A 
ATOM      7  C8  UNL d   1      -0.821   0.683  -0.248  0.00  0.00     0.006 A 
ENDROOT
BRANCH   1   8
ATOM      8  C1  UNL d   1      -1.639   1.082   2.104  0.00  0.00     0.054 C 
ATOM      9  C   UNL d   1      -2.384   0.174   3.073  0.00  0.00     0.018 C 
ENDBRANCH   1   8
TORSDOF 1
ENDMDL
