MODEL 1
REMARK minimizedAffinity -4.95526361
REMARK minimizedRMSD -1
REMARK  1 active torsions:
REMARK  status: ('A' for Active; 'I' for Inactive)
REMARK    1  A    between atoms: N_2  and  C1_3 
ROOT
ATOM      1  C1  UNL d   1      -0.024  -0.490  -3.760  0.00  0.00     0.143 A 
ATOM      2  C2  UNL d   1      -0.666  -1.723  -3.910  0.00  0.00    -0.057 A 
ATOM      3  C3  UNL d   1      -1.631  -1.924  -4.904  0.00  0.00     0.033 A 
ATOM      4  C4  UNL d   1      -1.993  -0.881  -5.750  0.00  0.00    -0.042 A 
ATOM      5  C5  UNL d   1      -1.386   0.361  -5.604  0.00  0.00     0.033 A 
ATOM      6  C6  UNL d   1      -0.418   0.553  -4.613  0.00  0.00    -0.057 A 
ENDROOT
BRANCH   1   7
ATOM      7  N   UNL d   1       0.873  -0.199  -2.729  0.00  0.00    -0.732 N 
ATOM      8  C   UNL d   1       0.562  -0.554  -1.361  0.00  0.00     0.284 C 
ATOM      9  H3  UNL d   1       1.840  -0.372  -2.994  0.00  0.00     0.395 HD
ENDBRANCH   1   7
TORSDOF 1
ENDMDL
