MODEL 1
REMARK minimizedAffinity -2.74821472
REMARK minimizedRMSD -1
REMARK  1 active torsions:
REMARK  status: ('A' for Active; 'I' for Inactive)
REMARK    1  A    between atoms: N_2  and  C1_3 
ROOT
ATOM      1  C1  UNL d   1       0.858  -0.370  -2.285  0.00  0.00     0.143 A 
ATOM      2  C2  UNL d   1      -0.201  -0.024  -3.131  0.00  0.00    -0.057 A 
ATOM      3  C3  UNL d   1       0.007   0.773  -4.264  0.00  0.00     0.033 A 
ATOM      4  C4  UNL d   1       1.276   1.263  -4.554  0.00  0.00    -0.042 A 
ATOM      5  C5  UNL d   1       2.338   0.952  -3.713  0.00  0.00     0.033 A 
ATOM      6  C6  UNL d   1       2.126   0.150  -2.587  0.00  0.00    -0.057 A 
ENDROOT
BRANCH   1   7
ATOM      7  N   UNL d   1       0.699  -1.077  -1.090  0.00  0.00    -0.732 N 
ATOM      8  C   UNL d   1       0.181  -0.421   0.092  0.00  0.00     0.284 C 
ATOM      9  H3  UNL d   1       0.332  -2.015  -1.239  0.00  0.00     0.395 HD
ENDBRANCH   1   7
TORSDOF 1
ENDMDL
