MODEL 1
REMARK minimizedAffinity -3.92002153
REMARK minimizedRMSD -1
REMARK  1 active torsions:
REMARK  status: ('A' for Active; 'I' for Inactive)
REMARK    1  A    between atoms: N_2  and  C1_3 
ROOT
ATOM      1  C1  UNL d   1       0.312  -0.258   0.749  0.00  0.00     0.143 A 
ATOM      2  C2  UNL d   1       1.357  -0.219   1.679  0.00  0.00    -0.057 A 
ATOM      3  C3  UNL d   1       1.279   0.582   2.825  0.00  0.00     0.033 A 
ATOM      4  C4  UNL d   1       0.164   1.383   3.047  0.00  0.00    -0.042 A 
ATOM      5  C5  UNL d   1      -0.875   1.379   2.124  0.00  0.00     0.033 A 
ATOM      6  C6  UNL d   1      -0.795   0.572   0.985  0.00  0.00    -0.057 A 
ENDROOT
BRANCH   1   7
ATOM      7  N   UNL d   1       0.371  -0.957  -0.459  0.00  0.00    -0.732 N 
ATOM      8  C   UNL d   1       0.550  -0.253  -1.711  0.00  0.00     0.284 C 
ATOM      9  H3  UNL d   1       0.912  -1.816  -0.384  0.00  0.00     0.395 HD
ENDBRANCH   1   7
TORSDOF 1
ENDMDL
