MODEL 1
REMARK minimizedAffinity -1.44284391
REMARK minimizedRMSD -1
REMARK  1 active torsions:
REMARK  status: ('A' for Active; 'I' for Inactive)
REMARK    1  A    between atoms: N_2  and  C1_3 
ROOT
ATOM      1  C1  UNL d   1      -0.117   0.251   0.558  0.00  0.00     0.143 A 
ATOM      2  C2  UNL d   1      -1.082  -0.216   1.457  0.00  0.00    -0.057 A 
ATOM      3  C3  UNL d   1      -1.374   0.480   2.636  0.00  0.00     0.033 A 
ATOM      4  C4  UNL d   1      -0.683   1.645   2.952  0.00  0.00    -0.042 A 
ATOM      5  C5  UNL d   1       0.298   2.115   2.086  0.00  0.00     0.033 A 
ATOM      6  C6  UNL d   1       0.581   1.419   0.907  0.00  0.00    -0.057 A 
ENDROOT
BRANCH   1   7
ATOM      7  N   UNL d   1       0.289  -0.448  -0.581  0.00  0.00    -0.732 N 
ATOM      8  C   UNL d   1       0.715   0.261  -1.768  0.00  0.00     0.284 C 
ATOM      9  H3  UNL d   1       0.857  -1.261  -0.356  0.00  0.00     0.395 HD
ENDBRANCH   1   7
TORSDOF 1
ENDMDL
