MODEL 1
REMARK minimizedAffinity 11.7385569
REMARK minimizedRMSD -1
REMARK  0 active torsions:
REMARK  status: ('A' for Active; 'I' for Inactive)
ROOT
ATOM      1  N1  IND d   1       4.120   1.063  -2.966  0.00  0.00    -0.196 N 
ATOM      2  C2  IND d   1       5.084   1.918  -2.509  0.00  0.00     0.054 A 
ATOM      3  C3  IND d   1       5.114   1.913  -1.157  0.00  0.00    -0.031 A 
ATOM      4  C4  IND d   1       3.742   0.505   0.505  0.00  0.00     0.051 A 
ATOM      5  C5  IND d   1       2.712  -0.391   0.563  0.00  0.00    -0.031 A 
ATOM      6  C6  IND d   1       2.087  -0.860  -0.575  0.00  0.00     0.015 A 
ATOM      7  C7  IND d   1       2.479  -0.457  -1.820  0.00  0.00    -0.016 A 
ATOM      8  C8  IND d   1       3.520   0.459  -1.883  0.00  0.00    -0.047 A 
ATOM      9  C9  IND d   1       4.130   0.970  -0.730  0.00  0.00    -0.096 A 
ATOM     10  HN1 IND d   1       3.921   0.927  -3.791  0.00  0.00     0.298 HD
ENDROOT
TORSDOF 0
ENDMDL
