MODEL 1
REMARK minimizedAffinity 17.2873554
REMARK minimizedRMSD -1
REMARK  0 active torsions:
REMARK  status: ('A' for Active; 'I' for Inactive)
ROOT
ATOM      1  N1  IND d   1       5.245   1.998  -0.864  0.00  0.00    -0.196 N 
ATOM      2  C2  IND d   1       6.000   2.281  -1.968  0.00  0.00     0.054 A 
ATOM      3  C3  IND d   1       5.632   1.494  -3.004  0.00  0.00    -0.031 A 
ATOM      4  C4  IND d   1       3.747  -0.254  -3.140  0.00  0.00     0.051 A 
ATOM      5  C5  IND d   1       2.808  -0.888  -2.375  0.00  0.00    -0.031 A 
ATOM      6  C6  IND d   1       2.628  -0.584  -1.042  0.00  0.00     0.015 A 
ATOM      7  C7  IND d   1       3.376   0.378  -0.423  0.00  0.00    -0.016 A 
ATOM      8  C8  IND d   1       4.335   1.018  -1.195  0.00  0.00    -0.047 A 
ATOM      9  C9  IND d   1       4.551   0.684  -2.538  0.00  0.00    -0.096 A 
ATOM     10  HN1 IND d   1       5.324   2.370  -0.093  0.00  0.00     0.298 HD
ENDROOT
TORSDOF 0
ENDMDL
