MODEL 1
REMARK minimizedAffinity 5.24436617
REMARK minimizedRMSD -1
REMARK  0 active torsions:
REMARK  status: ('A' for Active; 'I' for Inactive)
ROOT
ATOM      1  N1  IND d   1       3.270   0.050  -2.717  0.00  0.00    -0.196 N 
ATOM      2  C2  IND d   1       2.365  -0.525  -1.869  0.00  0.00     0.054 A 
ATOM      3  C3  IND d   1       2.663  -0.220  -0.586  0.00  0.00    -0.031 A 
ATOM      4  C4  IND d   1       4.528   1.291   0.345  0.00  0.00     0.051 A 
ATOM      5  C5  IND d   1       5.626   2.009  -0.040  0.00  0.00    -0.031 A 
ATOM      6  C6  IND d   1       6.000   2.115  -1.364  0.00  0.00     0.015 A 
ATOM      7  C7  IND d   1       5.280   1.514  -2.358  0.00  0.00    -0.016 A 
ATOM      8  C8  IND d   1       4.170   0.778  -1.970  0.00  0.00    -0.047 A 
ATOM      9  C9  IND d   1       3.810   0.631  -0.624  0.00  0.00    -0.096 A 
ATOM     10  HN1 IND d   1       3.276  -0.030  -3.573  0.00  0.00     0.298 HD
ENDROOT
TORSDOF 0
ENDMDL
