MODEL 1
REMARK minimizedAffinity 9.56209087
REMARK minimizedRMSD -1
REMARK  0 active torsions:
REMARK  status: ('A' for Active; 'I' for Inactive)
ROOT
ATOM      1  N1  IND d   1       5.306   5.288   4.503  0.00  0.00    -0.196 N 
ATOM      2  C2  IND d   1       4.959   5.267   5.825  0.00  0.00     0.054 A 
ATOM      3  C3  IND d   1       3.804   4.586   5.997  0.00  0.00    -0.031 A 
ATOM      4  C4  IND d   1       2.369   3.335   4.264  0.00  0.00     0.051 A 
ATOM      5  C5  IND d   1       2.262   3.101   2.922  0.00  0.00    -0.031 A 
ATOM      6  C6  IND d   1       3.184   3.591   2.020  0.00  0.00     0.015 A 
ATOM      7  C7  IND d   1       4.259   4.328   2.430  0.00  0.00    -0.016 A 
ATOM      8  C8  IND d   1       4.367   4.574   3.792  0.00  0.00    -0.047 A 
ATOM      9  C9  IND d   1       3.411   4.115   4.707  0.00  0.00    -0.096 A 
ATOM     10  HN1 IND d   1       5.995   5.681   4.172  0.00  0.00     0.298 HD
ENDROOT
TORSDOF 0
ENDMDL
