MODEL 1
REMARK minimizedAffinity 10.1308184
REMARK minimizedRMSD -1
REMARK  0 active torsions:
REMARK  status: ('A' for Active; 'I' for Inactive)
ROOT
ATOM      1  N1  IND d   1       5.068   1.132  -3.389  0.00  0.00    -0.196 N 
ATOM      2  C2  IND d   1       5.999   1.907  -2.757  0.00  0.00     0.054 A 
ATOM      3  C3  IND d   1       5.780   1.912  -1.423  0.00  0.00    -0.031 A 
ATOM      4  C4  IND d   1       4.012   0.639  -0.051  0.00  0.00     0.051 A 
ATOM      5  C5  IND d   1       2.918  -0.168  -0.189  0.00  0.00    -0.031 A 
ATOM      6  C6  IND d   1       2.476  -0.593  -1.425  0.00  0.00     0.015 A 
ATOM      7  C7  IND d   1       3.123  -0.236  -2.574  0.00  0.00    -0.016 A 
ATOM      8  C8  IND d   1       4.231   0.589  -2.439  0.00  0.00    -0.047 A 
ATOM      9  C9  IND d   1       4.658   1.059  -1.190  0.00  0.00    -0.096 A 
ATOM     10  HN1 IND d   1       5.013   1.005  -4.238  0.00  0.00     0.298 HD
ENDROOT
TORSDOF 0
ENDMDL
