MODEL 1
REMARK minimizedAffinity -2.2642312
REMARK minimizedRMSD -1
REMARK  0 active torsions:
REMARK  status: ('A' for Active; 'I' for Inactive)
ROOT
ATOM      1  C   UNL d   1      -0.514  -1.537   0.694  0.00  0.00     0.172 C 
ATOM      2  N   UNL d   1       0.802  -2.074   0.436  0.00  0.00    -0.070 N 
ATOM      3  C1  UNL d   1       1.975  -1.368   0.480  0.00  0.00    -0.004 A 
ATOM      4  C2  UNL d   1       3.001  -2.236   0.175  0.00  0.00    -0.047 A 
ATOM      5  C3  UNL d   1       2.424  -3.507  -0.061  0.00  0.00    -0.047 A 
ATOM      6  C4  UNL d   1       1.062  -3.378   0.107  0.00  0.00    -0.004 A 
ENDROOT
TORSDOF 0
ENDMDL
