MODEL 1
REMARK minimizedAffinity -3.10255599
REMARK minimizedRMSD -1
REMARK  0 active torsions:
REMARK  status: ('A' for Active; 'I' for Inactive)
ROOT
ATOM      1  C   UNL d   1       4.576  -5.205   0.138  0.00  0.00     0.172 C 
ATOM      2  N   UNL d   1       3.717  -4.047   0.218  0.00  0.00    -0.070 N 
ATOM      3  C1  UNL d   1       2.424  -4.042   0.669  0.00  0.00    -0.004 A 
ATOM      4  C2  UNL d   1       1.954  -2.749   0.588  0.00  0.00    -0.047 A 
ATOM      5  C3  UNL d   1       3.001  -1.949   0.070  0.00  0.00    -0.047 A 
ATOM      6  C4  UNL d   1       4.080  -2.779  -0.150  0.00  0.00    -0.004 A 
ENDROOT
TORSDOF 0
ENDMDL
