MODEL 1
REMARK minimizedAffinity -3.42877746
REMARK minimizedRMSD -1
REMARK  0 active torsions:
REMARK  status: ('A' for Active; 'I' for Inactive)
ROOT
ATOM      1  C   UNL d   1       2.362   0.017   0.332  0.00  0.00     0.172 C 
ATOM      2  N   UNL d   1       1.330  -0.988   0.439  0.00  0.00    -0.070 N 
ATOM      3  C1  UNL d   1       1.467  -2.311   0.113  0.00  0.00    -0.004 A 
ATOM      4  C2  UNL d   1       0.262  -2.933   0.357  0.00  0.00    -0.047 A 
ATOM      5  C3  UNL d   1      -0.631  -1.950   0.846  0.00  0.00    -0.047 A 
ATOM      6  C4  UNL d   1       0.056  -0.755   0.887  0.00  0.00    -0.004 A 
ENDROOT
TORSDOF 0
ENDMDL
