MODEL 1
REMARK minimizedAffinity -0.941886306
REMARK minimizedRMSD -1
REMARK  0 active torsions:
REMARK  status: ('A' for Active; 'I' for Inactive)
ROOT
ATOM      1  C   UNL d   1      -2.143   0.181   1.531  0.00  0.00     0.172 C 
ATOM      2  N   UNL d   1      -0.973  -0.600   1.205  0.00  0.00    -0.070 N 
ATOM      3  C1  UNL d   1       0.252  -0.491   1.807  0.00  0.00    -0.004 A 
ATOM      4  C2  UNL d   1       1.096  -1.406   1.215  0.00  0.00    -0.047 A 
ATOM      5  C3  UNL d   1       0.352  -2.087   0.222  0.00  0.00    -0.047 A 
ATOM      6  C4  UNL d   1      -0.926  -1.568   0.237  0.00  0.00    -0.004 A 
ENDROOT
TORSDOF 0
ENDMDL
