MODEL 1
REMARK minimizedAffinity -2.98763084
REMARK minimizedRMSD -1
REMARK  0 active torsions:
REMARK  status: ('A' for Active; 'I' for Inactive)
ROOT
ATOM      1  C   UNL d   1       2.336  -3.378  -0.624  0.00  0.00     0.172 C 
ATOM      2  N   UNL d   1       1.777  -2.155  -0.100  0.00  0.00    -0.070 N 
ATOM      3  C1  UNL d   1       2.321  -0.906  -0.235  0.00  0.00    -0.004 A 
ATOM      4  C2  UNL d   1       1.489  -0.011   0.402  0.00  0.00    -0.047 A 
ATOM      5  C3  UNL d   1       0.407  -0.748   0.939  0.00  0.00    -0.047 A 
ATOM      6  C4  UNL d   1       0.610  -2.072   0.614  0.00  0.00    -0.004 A 
ENDROOT
TORSDOF 0
ENDMDL
