MODEL 1
REMARK minimizedAffinity 3.58120537
REMARK minimizedRMSD -1
REMARK  0 active torsions:
REMARK  status: ('A' for Active; 'I' for Inactive)
ROOT
ATOM      1  C   UNL d   1       0.031  -1.097   2.309  0.00  0.00     0.172 C 
ATOM      2  N   UNL d   1       0.236  -1.978   1.183  0.00  0.00    -0.070 N 
ATOM      3  C1  UNL d   1      -0.616  -2.972   0.781  0.00  0.00    -0.004 A 
ATOM      4  C2  UNL d   1      -0.064  -3.580  -0.326  0.00  0.00    -0.047 A 
ATOM      5  C3  UNL d   1       1.164  -2.930  -0.597  0.00  0.00    -0.047 A 
ATOM      6  C4  UNL d   1       1.325  -1.943   0.352  0.00  0.00    -0.004 A 
ENDROOT
TORSDOF 0
ENDMDL
