MODEL 1
REMARK minimizedAffinity -0.37171191
REMARK minimizedRMSD -1
REMARK  0 active torsions:
REMARK  status: ('A' for Active; 'I' for Inactive)
ROOT
ATOM      1  C   UNL d   1       0.983  -2.996  -1.414  0.00  0.00     0.172 C 
ATOM      2  N   UNL d   1       0.700  -2.086  -0.328  0.00  0.00    -0.070 N 
ATOM      3  C1  UNL d   1      -0.501  -1.964   0.318  0.00  0.00    -0.004 A 
ATOM      4  C2  UNL d   1      -0.361  -0.994   1.287  0.00  0.00    -0.047 A 
ATOM      5  C3  UNL d   1       0.969  -0.516   1.220  0.00  0.00    -0.047 A 
ATOM      6  C4  UNL d   1       1.604  -1.210   0.211  0.00  0.00    -0.004 A 
ENDROOT
TORSDOF 0
ENDMDL
