MODEL 1
REMARK minimizedAffinity 2.19226146
REMARK minimizedRMSD -1
REMARK  0 active torsions:
REMARK  status: ('A' for Active; 'I' for Inactive)
ROOT
ATOM      1  C   UNL d   1       2.387  -0.480   1.583  0.00  0.00     0.172 C 
ATOM      2  N   UNL d   1       1.068  -1.018   1.343  0.00  0.00    -0.070 N 
ATOM      3  C1  UNL d   1      -0.077  -0.644   1.995  0.00  0.00    -0.004 A 
ATOM      4  C2  UNL d   1      -1.117  -1.386   1.479  0.00  0.00    -0.047 A 
ATOM      5  C3  UNL d   1      -0.579  -2.236   0.484  0.00  0.00    -0.047 A 
ATOM      6  C4  UNL d   1       0.776  -1.987   0.420  0.00  0.00    -0.004 A 
ENDROOT
TORSDOF 0
ENDMDL
