MODEL 1
REMARK minimizedAffinity 5.61888456
REMARK minimizedRMSD -1
REMARK  0 active torsions:
REMARK  status: ('A' for Active; 'I' for Inactive)
ROOT
ATOM      1  C   UNL d   1       5.639  -0.424  -2.593  0.00  0.00     0.172 C 
ATOM      2  N   UNL d   1       4.330   0.091  -2.917  0.00  0.00    -0.070 N 
ATOM      3  C1  UNL d   1       3.718   0.006  -4.140  0.00  0.00    -0.004 A 
ATOM      4  C2  UNL d   1       2.485   0.613  -4.038  0.00  0.00    -0.047 A 
ATOM      5  C3  UNL d   1       2.351   1.079  -2.709  0.00  0.00    -0.047 A 
ATOM      6  C4  UNL d   1       3.507   0.743  -2.037  0.00  0.00    -0.004 A 
ENDROOT
TORSDOF 0
ENDMDL
