MODEL 1
REMARK minimizedAffinity -1.35040748
REMARK minimizedRMSD -1
REMARK  0 active torsions:
REMARK  status: ('A' for Active; 'I' for Inactive)
ROOT
ATOM      1  C   UNL d   1       2.712  -2.998  -0.130  0.00  0.00     0.172 C 
ATOM      2  N   UNL d   1       1.503  -2.296   0.233  0.00  0.00    -0.070 N 
ATOM      3  C1  UNL d   1       1.423  -0.978   0.596  0.00  0.00    -0.004 A 
ATOM      4  C2  UNL d   1       0.101  -0.694   0.863  0.00  0.00    -0.047 A 
ATOM      5  C3  UNL d   1      -0.639  -1.882   0.654  0.00  0.00    -0.047 A 
ATOM      6  C4  UNL d   1       0.254  -2.858   0.264  0.00  0.00    -0.004 A 
ENDROOT
TORSDOF 0
ENDMDL
