MODEL 1
REMARK minimizedAffinity 1.47601461
REMARK minimizedRMSD -1
REMARK  0 active torsions:
REMARK  status: ('A' for Active; 'I' for Inactive)
ROOT
ATOM      1  C   UNL d   1       3.034  -4.057  -0.150  0.00  0.00     0.172 C 
ATOM      2  N   UNL d   1       1.846  -3.260   0.045  0.00  0.00    -0.070 N 
ATOM      3  C1  UNL d   1       0.572  -3.630  -0.294  0.00  0.00    -0.004 A 
ATOM      4  C2  UNL d   1      -0.273  -2.598   0.053  0.00  0.00    -0.047 A 
ATOM      5  C3  UNL d   1       0.520  -1.573   0.620  0.00  0.00    -0.047 A 
ATOM      6  C4  UNL d   1       1.828  -2.009   0.603  0.00  0.00    -0.004 A 
ENDROOT
TORSDOF 0
ENDMDL
