MODEL 1
REMARK minimizedAffinity -1.35675859
REMARK minimizedRMSD -1
REMARK  0 active torsions:
REMARK  status: ('A' for Active; 'I' for Inactive)
ROOT
ATOM      1  C   UNL d   1       0.944  -3.485   0.103  0.00  0.00     0.172 C 
ATOM      2  N   UNL d   1       0.316  -2.379   0.786  0.00  0.00    -0.070 N 
ATOM      3  C1  UNL d   1       0.417  -2.106   2.124  0.00  0.00    -0.004 A 
ATOM      4  C2  UNL d   1      -0.323  -0.972   2.382  0.00  0.00    -0.047 A 
ATOM      5  C3  UNL d   1      -0.890  -0.550   1.156  0.00  0.00    -0.047 A 
ATOM      6  C4  UNL d   1      -0.479  -1.438   0.185  0.00  0.00    -0.004 A 
ENDROOT
TORSDOF 0
ENDMDL
