MODEL 1
REMARK minimizedAffinity -2.99639702
REMARK minimizedRMSD -1
REMARK  0 active torsions:
REMARK  status: ('A' for Active; 'I' for Inactive)
ROOT
ATOM      1  C   UNL d   1       3.546  -4.181  -0.112  0.00  0.00     0.172 C 
ATOM      2  N   UNL d   1       2.487  -3.214   0.056  0.00  0.00    -0.070 N 
ATOM      3  C1  UNL d   1       2.648  -1.856   0.114  0.00  0.00    -0.004 A 
ATOM      4  C2  UNL d   1       1.402  -1.290   0.279  0.00  0.00    -0.047 A 
ATOM      5  C3  UNL d   1       0.460  -2.345   0.322  0.00  0.00    -0.047 A 
ATOM      6  C4  UNL d   1       1.158  -3.525   0.181  0.00  0.00    -0.004 A 
ENDROOT
TORSDOF 0
ENDMDL
