MODEL 1
REMARK minimizedAffinity -1.28964663
REMARK minimizedRMSD -1
REMARK  0 active torsions:
REMARK  status: ('A' for Active; 'I' for Inactive)
ROOT
ATOM      1  C   UNL d   1      -0.552  -1.323   1.026  0.00  0.00     0.172 C 
ATOM      2  N   UNL d   1       0.845  -1.537   0.729  0.00  0.00    -0.070 N 
ATOM      3  C1  UNL d   1       1.361  -2.601   0.040  0.00  0.00    -0.004 A 
ATOM      4  C2  UNL d   1       2.727  -2.436  -0.031  0.00  0.00    -0.047 A 
ATOM      5  C3  UNL d   1       3.044  -1.231   0.639  0.00  0.00    -0.047 A 
ATOM      6  C4  UNL d   1       1.860  -0.694   1.100  0.00  0.00    -0.004 A 
ENDROOT
TORSDOF 0
ENDMDL
