MODEL 1
REMARK minimizedAffinity 0.123352341
REMARK minimizedRMSD -1
REMARK  0 active torsions:
REMARK  status: ('A' for Active; 'I' for Inactive)
ROOT
ATOM      1  C   UNL d   1       4.085  -5.302   0.225  0.00  0.00     0.172 C 
ATOM      2  N   UNL d   1       3.045  -4.300   0.239  0.00  0.00    -0.070 N 
ATOM      3  C1  UNL d   1       1.699  -4.545   0.188  0.00  0.00    -0.004 A 
ATOM      4  C2  UNL d   1       1.048  -3.331   0.223  0.00  0.00    -0.047 A 
ATOM      5  C3  UNL d   1       2.036  -2.321   0.296  0.00  0.00    -0.047 A 
ATOM      6  C4  UNL d   1       3.264  -2.949   0.304  0.00  0.00    -0.004 A 
ENDROOT
TORSDOF 0
ENDMDL
