MODEL 1
REMARK minimizedAffinity -4.13555241
REMARK minimizedRMSD -1
REMARK  0 active torsions:
REMARK  status: ('A' for Active; 'I' for Inactive)
ROOT
ATOM      1  C1  DEN d   1      -0.992   1.588   3.720  0.00  0.00     0.130 A 
ATOM      2  C2  DEN d   1       0.428   1.252   3.643  0.00  0.00    -0.031 A 
ATOM      3  C3  DEN d   1       0.606   0.267   2.557  0.00  0.00     0.027 A 
ATOM      4  C4  DEN d   1      -1.168  -0.760   0.991  0.00  0.00     0.027 A 
ATOM      5  C5  DEN d   1      -2.510  -0.791   0.683  0.00  0.00    -0.003 A 
ATOM      6  C6  DEN d   1      -3.437  -0.063   1.381  0.00  0.00     0.001 A 
ATOM      7  C7  DEN d   1      -3.028   0.762   2.395  0.00  0.00     0.017 A 
ATOM      8  C8  DEN d   1      -1.677   0.793   2.717  0.00  0.00    -0.094 A 
ATOM      9  C9  DEN d   1      -0.754   0.059   1.991  0.00  0.00    -0.072 A 
ENDROOT
TORSDOF 0
ENDMDL
