MODEL 1
REMARK minimizedAffinity 7.82218122
REMARK minimizedRMSD -1
REMARK  0 active torsions:
REMARK  status: ('A' for Active; 'I' for Inactive)
ROOT
ATOM      1  C1  DEN d   1      -2.582  -0.150  -6.000  0.00  0.00     0.130 A 
ATOM      2  C2  DEN d   1      -1.134  -0.338  -5.967  0.00  0.00    -0.031 A 
ATOM      3  C3  DEN d   1      -0.862  -1.789  -5.952  0.00  0.00     0.027 A 
ATOM      4  C4  DEN d   1      -2.534  -3.754  -5.982  0.00  0.00     0.027 A 
ATOM      5  C5  DEN d   1      -3.869  -4.091  -5.999  0.00  0.00    -0.003 A 
ATOM      6  C6  DEN d   1      -4.861  -3.147  -5.983  0.00  0.00     0.001 A 
ATOM      7  C7  DEN d   1      -4.533  -1.817  -5.995  0.00  0.00     0.017 A 
ATOM      8  C8  DEN d   1      -3.189  -1.469  -5.971  0.00  0.00    -0.094 A 
ATOM      9  C9  DEN d   1      -2.200  -2.438  -5.999  0.00  0.00    -0.072 A 
ENDROOT
TORSDOF 0
ENDMDL
