MODEL 1
REMARK minimizedAffinity 3.5229609
REMARK minimizedRMSD -1
REMARK  0 active torsions:
REMARK  status: ('A' for Active; 'I' for Inactive)
ROOT
ATOM      1  C1  DEN d   1      -2.120  -0.117   1.173  0.00  0.00     0.130 A 
ATOM      2  C2  DEN d   1      -1.392  -0.368   2.414  0.00  0.00    -0.031 A 
ATOM      3  C3  DEN d   1      -2.270  -0.000   3.542  0.00  0.00     0.027 A 
ATOM      4  C4  DEN d   1      -4.677   0.925   3.489  0.00  0.00     0.027 A 
ATOM      5  C5  DEN d   1      -5.712   1.316   2.668  0.00  0.00    -0.003 A 
ATOM      6  C6  DEN d   1      -5.610   1.290   1.303  0.00  0.00     0.001 A 
ATOM      7  C7  DEN d   1      -4.465   0.820   0.716  0.00  0.00     0.017 A 
ATOM      8  C8  DEN d   1      -3.415   0.430   1.537  0.00  0.00    -0.094 A 
ATOM      9  C9  DEN d   1      -3.541   0.453   2.916  0.00  0.00    -0.072 A 
ENDROOT
TORSDOF 0
ENDMDL
