MODEL 1
REMARK minimizedAffinity 8.79118919
REMARK minimizedRMSD -1
REMARK  0 active torsions:
REMARK  status: ('A' for Active; 'I' for Inactive)
ROOT
ATOM      1  C1  DEN d   1      -2.344  -4.555  -5.963  0.00  0.00     0.130 A 
ATOM      2  C2  DEN d   1      -1.160  -3.700  -5.989  0.00  0.00    -0.031 A 
ATOM      3  C3  DEN d   1      -1.613  -2.294  -5.994  0.00  0.00     0.027 A 
ATOM      4  C4  DEN d   1      -4.019  -1.364  -5.958  0.00  0.00     0.027 A 
ATOM      5  C5  DEN d   1      -5.353  -1.704  -5.945  0.00  0.00    -0.003 A 
ATOM      6  C6  DEN d   1      -5.776  -3.007  -5.971  0.00  0.00     0.001 A 
ATOM      7  C7  DEN d   1      -4.853  -4.020  -5.966  0.00  0.00     0.017 A 
ATOM      8  C8  DEN d   1      -3.505  -3.685  -5.987  0.00  0.00    -0.094 A 
ATOM      9  C9  DEN d   1      -3.099  -2.362  -5.948  0.00  0.00    -0.072 A 
ENDROOT
TORSDOF 0
ENDMDL
