MODEL 1
REMARK minimizedAffinity 8.38618279
REMARK minimizedRMSD -1
REMARK  0 active torsions:
REMARK  status: ('A' for Active; 'I' for Inactive)
ROOT
ATOM      1  C1  DEN d   1      -0.602   0.066   2.064  0.00  0.00     0.130 A 
ATOM      2  C2  DEN d   1      -0.015   1.367   2.370  0.00  0.00    -0.031 A 
ATOM      3  C3  DEN d   1      -0.993   2.409   1.995  0.00  0.00     0.027 A 
ATOM      4  C4  DEN d   1      -3.348   2.133   0.980  0.00  0.00     0.027 A 
ATOM      5  C5  DEN d   1      -4.278   1.220   0.532  0.00  0.00    -0.003 A 
ATOM      6  C6  DEN d   1      -4.036  -0.128   0.531  0.00  0.00     0.001 A 
ATOM      7  C7  DEN d   1      -2.853  -0.606   1.030  0.00  0.00     0.017 A 
ATOM      8  C8  DEN d   1      -1.908   0.309   1.477  0.00  0.00    -0.094 A 
ATOM      9  C9  DEN d   1      -2.176   1.667   1.481  0.00  0.00    -0.072 A 
ENDROOT
TORSDOF 0
ENDMDL
