MODEL 1
REMARK minimizedAffinity 5.34831047
REMARK minimizedRMSD -1
REMARK  0 active torsions:
REMARK  status: ('A' for Active; 'I' for Inactive)
ROOT
ATOM      1  C1  DEN d   1      -1.421  -0.381   1.699  0.00  0.00     0.130 A 
ATOM      2  C2  DEN d   1      -1.976   0.928   2.032  0.00  0.00    -0.031 A 
ATOM      3  C3  DEN d   1      -3.384   0.955   1.588  0.00  0.00     0.027 A 
ATOM      4  C4  DEN d   1      -4.754  -0.897   0.427  0.00  0.00     0.027 A 
ATOM      5  C5  DEN d   1      -4.710  -2.180  -0.072  0.00  0.00    -0.003 A 
ATOM      6  C6  DEN d   1      -3.567  -2.935  -0.047  0.00  0.00     0.001 A 
ATOM      7  C7  DEN d   1      -2.432  -2.429   0.530  0.00  0.00     0.017 A 
ATOM      8  C8  DEN d   1      -2.466  -1.134   1.029  0.00  0.00    -0.094 A 
ATOM      9  C9  DEN d   1      -3.635  -0.391   1.005  0.00  0.00    -0.072 A 
ENDROOT
TORSDOF 0
ENDMDL
