MODEL 1
REMARK minimizedAffinity 0.915364087
REMARK minimizedRMSD -1
REMARK  0 active torsions:
REMARK  status: ('A' for Active; 'I' for Inactive)
ROOT
ATOM      1  C1  DEN d   1      -1.924  -2.811  -6.000  0.00  0.00     0.130 A 
ATOM      2  C2  DEN d   1      -1.402  -1.457  -5.837  0.00  0.00    -0.031 A 
ATOM      3  C3  DEN d   1      -2.546  -0.550  -5.616  0.00  0.00     0.027 A 
ATOM      4  C4  DEN d   1      -5.062  -1.109  -5.506  0.00  0.00     0.027 A 
ATOM      5  C5  DEN d   1      -5.992  -2.121  -5.599  0.00  0.00    -0.003 A 
ATOM      6  C6  DEN d   1      -5.638  -3.417  -5.864  0.00  0.00     0.001 A 
ATOM      7  C7  DEN d   1      -4.314  -3.744  -6.000  0.00  0.00     0.017 A 
ATOM      8  C8  DEN d   1      -3.371  -2.729  -5.915  0.00  0.00    -0.094 A 
ATOM      9  C9  DEN d   1      -3.749  -1.426  -5.635  0.00  0.00    -0.072 A 
ENDROOT
TORSDOF 0
ENDMDL
