MODEL 1
REMARK minimizedAffinity 11.983799
REMARK minimizedRMSD -1
REMARK  0 active torsions:
REMARK  status: ('A' for Active; 'I' for Inactive)
ROOT
ATOM      1  C1  DEN d   1      -5.051  -1.289  -5.998  0.00  0.00     0.130 A 
ATOM      2  C2  DEN d   1      -4.442   0.038  -5.990  0.00  0.00    -0.031 A 
ATOM      3  C3  DEN d   1      -2.976  -0.132  -5.971  0.00  0.00     0.027 A 
ATOM      4  C4  DEN d   1      -1.596  -2.312  -5.959  0.00  0.00     0.027 A 
ATOM      5  C5  DEN d   1      -1.670  -3.687  -5.950  0.00  0.00    -0.003 A 
ATOM      6  C6  DEN d   1      -2.866  -4.354  -5.921  0.00  0.00     0.001 A 
ATOM      7  C7  DEN d   1      -4.039  -3.646  -5.947  0.00  0.00     0.017 A 
ATOM      8  C8  DEN d   1      -3.972  -2.259  -5.949  0.00  0.00    -0.094 A 
ATOM      9  C9  DEN d   1      -2.753  -1.603  -5.990  0.00  0.00    -0.072 A 
ENDROOT
TORSDOF 0
ENDMDL
