MODEL 1
REMARK minimizedAffinity 16.02491
REMARK minimizedRMSD -1
REMARK  0 active torsions:
REMARK  status: ('A' for Active; 'I' for Inactive)
ROOT
ATOM      1  C1  DEN d   1      -5.116   3.385   2.851  0.00  0.00     0.130 A 
ATOM      2  C2  DEN d   1      -3.795   3.307   2.234  0.00  0.00    -0.031 A 
ATOM      3  C3  DEN d   1      -2.878   4.168   3.008  0.00  0.00     0.027 A 
ATOM      4  C4  DEN d   1      -3.372   5.603   5.093  0.00  0.00     0.027 A 
ATOM      5  C5  DEN d   1      -4.351   6.000   5.976  0.00  0.00    -0.003 A 
ATOM      6  C6  DEN d   1      -5.651   5.583   5.861  0.00  0.00     0.001 A 
ATOM      7  C7  DEN d   1      -5.997   4.708   4.865  0.00  0.00     0.017 A 
ATOM      8  C8  DEN d   1      -5.017   4.309   3.966  0.00  0.00    -0.094 A 
ATOM      9  C9  DEN d   1      -3.706   4.732   4.107  0.00  0.00    -0.072 A 
ENDROOT
TORSDOF 0
ENDMDL
