MODEL 1
REMARK minimizedAffinity 10.2086725
REMARK minimizedRMSD -1
REMARK  0 active torsions:
REMARK  status: ('A' for Active; 'I' for Inactive)
ROOT
ATOM      1  C1  DEN d   1      -5.544   4.736   5.999  0.00  0.00     0.130 A 
ATOM      2  C2  DEN d   1      -4.831   6.000   5.838  0.00  0.00    -0.031 A 
ATOM      3  C3  DEN d   1      -4.108   5.956   4.551  0.00  0.00     0.027 A 
ATOM      4  C4  DEN d   1      -4.030   4.065   2.798  0.00  0.00     0.027 A 
ATOM      5  C5  DEN d   1      -4.467   2.794   2.498  0.00  0.00    -0.003 A 
ATOM      6  C6  DEN d   1      -5.259   2.074   3.352  0.00  0.00     0.001 A 
ATOM      7  C7  DEN d   1      -5.677   2.637   4.529  0.00  0.00     0.017 A 
ATOM      8  C8  DEN d   1      -5.234   3.916   4.842  0.00  0.00    -0.094 A 
ATOM      9  C9  DEN d   1      -4.443   4.633   3.960  0.00  0.00    -0.072 A 
ENDROOT
TORSDOF 0
ENDMDL
