MODEL 1
REMARK minimizedAffinity -1.50593293
REMARK minimizedRMSD -1
REMARK  0 active torsions:
REMARK  status: ('A' for Active; 'I' for Inactive)
ROOT
ATOM      1  C1  DEN d   1      -3.166  -0.854  -5.996  0.00  0.00     0.130 A 
ATOM      2  C2  DEN d   1      -1.783  -1.324  -5.996  0.00  0.00    -0.031 A 
ATOM      3  C3  DEN d   1      -1.802  -2.800  -5.985  0.00  0.00     0.027 A 
ATOM      4  C4  DEN d   1      -3.828  -4.396  -5.972  0.00  0.00     0.027 A 
ATOM      5  C5  DEN d   1      -5.204  -4.464  -5.957  0.00  0.00    -0.003 A 
ATOM      6  C6  DEN d   1      -5.990  -3.343  -5.920  0.00  0.00     0.001 A 
ATOM      7  C7  DEN d   1      -5.406  -2.104  -5.942  0.00  0.00     0.017 A 
ATOM      8  C8  DEN d   1      -4.019  -2.028  -5.950  0.00  0.00    -0.094 A 
ATOM      9  C9  DEN d   1      -3.243  -3.173  -6.000  0.00  0.00    -0.072 A 
ENDROOT
TORSDOF 0
ENDMDL
