MODEL 1
REMARK minimizedAffinity 0.8673473
REMARK minimizedRMSD -1
REMARK  0 active torsions:
REMARK  status: ('A' for Active; 'I' for Inactive)
ROOT
ATOM      1  C1  DEN d   1       3.344   1.107  -2.508  0.00  0.00     0.130 A 
ATOM      2  C2  DEN d   1       2.402   0.910  -1.409  0.00  0.00    -0.031 A 
ATOM      3  C3  DEN d   1       1.242   0.161  -1.932  0.00  0.00     0.027 A 
ATOM      4  C4  DEN d   1       0.817  -0.712  -4.321  0.00  0.00     0.027 A 
ATOM      5  C5  DEN d   1       1.325  -0.778  -5.599  0.00  0.00    -0.003 A 
ATOM      6  C6  DEN d   1       2.517  -0.195  -5.942  0.00  0.00     0.001 A 
ATOM      7  C7  DEN d   1       3.262   0.440  -4.984  0.00  0.00     0.017 A 
ATOM      8  C8  DEN d   1       2.752   0.517  -3.695  0.00  0.00    -0.094 A 
ATOM      9  C9  DEN d   1       1.551  -0.089  -3.365  0.00  0.00    -0.072 A 
ENDROOT
TORSDOF 0
ENDMDL
