MODEL 1
REMARK minimizedAffinity -1.68836999
REMARK minimizedRMSD -1
REMARK  0 active torsions:
REMARK  status: ('A' for Active; 'I' for Inactive)
ROOT
ATOM      1  C1  DEN d   1      -5.452  -2.264  -5.963  0.00  0.00     0.130 A 
ATOM      2  C2  DEN d   1      -5.431  -3.724  -5.995  0.00  0.00    -0.031 A 
ATOM      3  C3  DEN d   1      -4.020  -4.161  -6.000  0.00  0.00     0.027 A 
ATOM      4  C4  DEN d   1      -1.878  -2.725  -5.956  0.00  0.00     0.027 A 
ATOM      5  C5  DEN d   1      -1.389  -1.437  -5.937  0.00  0.00    -0.003 A 
ATOM      6  C6  DEN d   1      -2.214  -0.344  -5.960  0.00  0.00     0.001 A 
ATOM      7  C7  DEN d   1      -3.572  -0.518  -5.957  0.00  0.00     0.017 A 
ATOM      8  C8  DEN d   1      -4.072  -1.813  -5.984  0.00  0.00    -0.094 A 
ATOM      9  C9  DEN d   1      -3.223  -2.906  -5.948  0.00  0.00    -0.072 A 
ENDROOT
TORSDOF 0
ENDMDL
