MODEL 1
REMARK minimizedAffinity 16.1848354
REMARK minimizedRMSD -1
REMARK  0 active torsions:
REMARK  status: ('A' for Active; 'I' for Inactive)
ROOT
ATOM      1  C1  DEN d   1       2.109   1.599   0.053  0.00  0.00     0.130 A 
ATOM      2  C2  DEN d   1       2.023   1.006  -1.279  0.00  0.00    -0.031 A 
ATOM      3  C3  DEN d   1       0.947  -0.004  -1.260  0.00  0.00     0.027 A 
ATOM      4  C4  DEN d   1      -0.590  -0.701   0.691  0.00  0.00     0.027 A 
ATOM      5  C5  DEN d   1      -0.886  -0.487   2.019  0.00  0.00    -0.003 A 
ATOM      6  C6  DEN d   1      -0.188   0.407   2.787  0.00  0.00     0.001 A 
ATOM      7  C7  DEN d   1       0.813   1.152   2.221  0.00  0.00     0.017 A 
ATOM      8  C8  DEN d   1       1.122   0.936   0.885  0.00  0.00    -0.094 A 
ATOM      9  C9  DEN d   1       0.396   0.037   0.122  0.00  0.00    -0.072 A 
ENDROOT
TORSDOF 0
ENDMDL
