MODEL 1
REMARK minimizedAffinity 12.9420328
REMARK minimizedRMSD -1
REMARK  0 active torsions:
REMARK  status: ('A' for Active; 'I' for Inactive)
ROOT
ATOM      1  C1  DEN d   1      -0.996  -0.219   2.237  0.00  0.00     0.130 A 
ATOM      2  C2  DEN d   1       0.063   0.688   1.803  0.00  0.00    -0.031 A 
ATOM      3  C3  DEN d   1      -0.545   2.009   1.545  0.00  0.00     0.027 A 
ATOM      4  C4  DEN d   1      -3.009   2.735   1.779  0.00  0.00     0.027 A 
ATOM      5  C5  DEN d   1      -4.278   2.311   2.106  0.00  0.00    -0.003 A 
ATOM      6  C6  DEN d   1      -4.546   1.016   2.463  0.00  0.00     0.001 A 
ATOM      7  C7  DEN d   1      -3.522   0.109   2.546  0.00  0.00     0.017 A 
ATOM      8  C8  DEN d   1      -2.241   0.528   2.212  0.00  0.00    -0.094 A 
ATOM      9  C9  DEN d   1      -1.989   1.844   1.865  0.00  0.00    -0.072 A 
ENDROOT
TORSDOF 0
ENDMDL
