MODEL 1
REMARK minimizedAffinity 9.70404339
REMARK minimizedRMSD -1
REMARK  0 active torsions:
REMARK  status: ('A' for Active; 'I' for Inactive)
ROOT
ATOM      1  C   UNL d   1      -2.177   0.537   2.913  0.00  0.00     0.078 C 
ATOM      2  C1  UNL d   1      -3.479   1.208   3.233  0.00  0.00    -0.077 A 
ATOM      3  C2  UNL d   1      -3.687   1.826   4.472  0.00  0.00    -0.001 A 
ATOM      4  C3  UNL d   1      -4.908   2.438   4.759  0.00  0.00     0.003 A 
ATOM      5  C4  UNL d   1      -5.931   2.439   3.813  0.00  0.00    -0.005 A 
ATOM      6  C5  UNL d   1      -5.734   1.825   2.578  0.00  0.00     0.003 A 
ATOM      7  C6  UNL d   1      -4.514   1.211   2.289  0.00  0.00    -0.001 A 
ENDROOT
TORSDOF 0
ENDMDL
