MODEL 1
REMARK minimizedAffinity 14.8544331
REMARK minimizedRMSD -1
REMARK  0 active torsions:
REMARK  status: ('A' for Active; 'I' for Inactive)
ROOT
ATOM      1  C   UNL d   1      -2.583   2.017  -3.003  0.00  0.00     0.078 C 
ATOM      2  C1  UNL d   1      -3.553   2.621  -3.974  0.00  0.00    -0.077 A 
ATOM      3  C2  UNL d   1      -3.649   4.010  -4.127  0.00  0.00    -0.001 A 
ATOM      4  C3  UNL d   1      -4.563   4.559  -5.028  0.00  0.00     0.003 A 
ATOM      5  C4  UNL d   1      -5.389   3.728  -5.782  0.00  0.00    -0.005 A 
ATOM      6  C5  UNL d   1      -5.302   2.345  -5.635  0.00  0.00     0.003 A 
ATOM      7  C6  UNL d   1      -4.388   1.794  -4.735  0.00  0.00    -0.001 A 
ENDROOT
TORSDOF 0
ENDMDL
