MODEL 1
REMARK minimizedAffinity 4.66614342
REMARK minimizedRMSD -1
REMARK  0 active torsions:
REMARK  status: ('A' for Active; 'I' for Inactive)
ROOT
ATOM      1  C   UNL d   1       2.030   5.996   5.868  0.00  0.00     0.078 C 
ATOM      2  C1  UNL d   1       0.684   5.739   5.261  0.00  0.00    -0.077 A 
ATOM      3  C2  UNL d   1       0.563   5.251   3.954  0.00  0.00    -0.001 A 
ATOM      4  C3  UNL d   1      -0.698   5.025   3.399  0.00  0.00     0.003 A 
ATOM      5  C4  UNL d   1      -1.847   5.285   4.142  0.00  0.00    -0.005 A 
ATOM      6  C5  UNL d   1      -1.737   5.773   5.443  0.00  0.00     0.003 A 
ATOM      7  C6  UNL d   1      -0.477   6.000   6.000  0.00  0.00    -0.001 A 
ENDROOT
TORSDOF 0
ENDMDL
