MODEL 1
REMARK minimizedAffinity -0.701566994
REMARK minimizedRMSD -1
REMARK  0 active torsions:
REMARK  status: ('A' for Active; 'I' for Inactive)
ROOT
ATOM      1  C   UNL d   1       0.002  -1.944   1.152  0.00  0.00     0.078 C 
ATOM      2  C1  UNL d   1       1.205  -2.706   0.682  0.00  0.00    -0.077 A 
ATOM      3  C2  UNL d   1       2.490  -2.367   1.122  0.00  0.00    -0.001 A 
ATOM      4  C3  UNL d   1       3.602  -3.079   0.669  0.00  0.00     0.003 A 
ATOM      5  C4  UNL d   1       3.440  -4.134  -0.227  0.00  0.00    -0.005 A 
ATOM      6  C5  UNL d   1       2.165  -4.477  -0.672  0.00  0.00     0.003 A 
ATOM      7  C6  UNL d   1       1.052  -3.766  -0.220  0.00  0.00    -0.001 A 
ENDROOT
TORSDOF 0
ENDMDL
