MODEL 1
REMARK minimizedAffinity 14.1381083
REMARK minimizedRMSD -1
REMARK  0 active torsions:
REMARK  status: ('A' for Active; 'I' for Inactive)
ROOT
ATOM      1  C   UNL d   1      -4.634   1.293   2.508  0.00  0.00     0.078 C 
ATOM      2  C1  UNL d   1      -4.283   0.620   1.215  0.00  0.00    -0.077 A 
ATOM      3  C2  UNL d   1      -3.824  -0.703   1.193  0.00  0.00    -0.001 A 
ATOM      4  C3  UNL d   1      -3.492  -1.315  -0.017  0.00  0.00     0.003 A 
ATOM      5  C4  UNL d   1      -3.613  -0.610  -1.213  0.00  0.00    -0.005 A 
ATOM      6  C5  UNL d   1      -4.066   0.707  -1.201  0.00  0.00     0.003 A 
ATOM      7  C6  UNL d   1      -4.399   1.320   0.008  0.00  0.00    -0.001 A 
ENDROOT
TORSDOF 0
ENDMDL
