MODEL 1
REMARK minimizedAffinity 8.5623703
REMARK minimizedRMSD -1
REMARK  0 active torsions:
REMARK  status: ('A' for Active; 'I' for Inactive)
ROOT
ATOM      1  C   UNL d   1      -4.544   1.104   2.323  0.00  0.00     0.078 C 
ATOM      2  C1  UNL d   1      -3.412   0.132   2.467  0.00  0.00    -0.077 A 
ATOM      3  C2  UNL d   1      -3.322  -0.997   1.643  0.00  0.00    -0.001 A 
ATOM      4  C3  UNL d   1      -2.268  -1.899   1.795  0.00  0.00     0.003 A 
ATOM      5  C4  UNL d   1      -1.296  -1.682   2.769  0.00  0.00    -0.005 A 
ATOM      6  C5  UNL d   1      -1.378  -0.563   3.594  0.00  0.00     0.003 A 
ATOM      7  C6  UNL d   1      -2.431   0.341   3.444  0.00  0.00    -0.001 A 
ENDROOT
TORSDOF 0
ENDMDL
