MODEL 1
REMARK minimizedAffinity 5.19508457
REMARK minimizedRMSD -1
REMARK  0 active torsions:
REMARK  status: ('A' for Active; 'I' for Inactive)
ROOT
ATOM      1  C   UNL d   1      -0.860  -1.472   2.928  0.00  0.00     0.078 C 
ATOM      2  C1  UNL d   1       0.529  -1.421   2.364  0.00  0.00    -0.077 A 
ATOM      3  C2  UNL d   1       1.589  -0.885   3.106  0.00  0.00    -0.001 A 
ATOM      4  C3  UNL d   1       2.875  -0.835   2.565  0.00  0.00     0.003 A 
ATOM      5  C4  UNL d   1       3.112  -1.318   1.280  0.00  0.00    -0.005 A 
ATOM      6  C5  UNL d   1       2.063  -1.850   0.533  0.00  0.00     0.003 A 
ATOM      7  C6  UNL d   1       0.777  -1.901   1.073  0.00  0.00    -0.001 A 
ENDROOT
TORSDOF 0
ENDMDL
