MODEL 1
REMARK minimizedAffinity 7.88846684
REMARK minimizedRMSD -1
REMARK  0 active torsions:
REMARK  status: ('A' for Active; 'I' for Inactive)
ROOT
ATOM      1  C   UNL d   1       2.627  -3.989  -0.747  0.00  0.00     0.078 C 
ATOM      2  C1  UNL d   1       2.189  -2.986   0.278  0.00  0.00    -0.077 A 
ATOM      3  C2  UNL d   1       3.004  -2.668   1.371  0.00  0.00    -0.001 A 
ATOM      4  C3  UNL d   1       2.579  -1.740   2.323  0.00  0.00     0.003 A 
ATOM      5  C4  UNL d   1       1.337  -1.122   2.191  0.00  0.00    -0.005 A 
ATOM      6  C5  UNL d   1       0.518  -1.433   1.108  0.00  0.00     0.003 A 
ATOM      7  C6  UNL d   1       0.941  -2.361   0.155  0.00  0.00    -0.001 A 
ENDROOT
TORSDOF 0
ENDMDL
