MODEL 1
REMARK minimizedAffinity 8.09167767
REMARK minimizedRMSD -1
REMARK  0 active torsions:
REMARK  status: ('A' for Active; 'I' for Inactive)
ROOT
ATOM      1  C   UNL d   1       2.228  -2.830  -0.089  0.00  0.00     0.078 C 
ATOM      2  C1  UNL d   1       1.171  -2.190   0.762  0.00  0.00    -0.077 A 
ATOM      3  C2  UNL d   1       1.514  -1.322   1.806  0.00  0.00    -0.001 A 
ATOM      4  C3  UNL d   1       0.520  -0.742   2.596  0.00  0.00     0.003 A 
ATOM      5  C4  UNL d   1      -0.822  -1.024   2.351  0.00  0.00    -0.005 A 
ATOM      6  C5  UNL d   1      -1.173  -1.888   1.316  0.00  0.00     0.003 A 
ATOM      7  C6  UNL d   1      -0.181  -2.470   0.525  0.00  0.00    -0.001 A 
ENDROOT
TORSDOF 0
ENDMDL
