MODEL 1
REMARK minimizedAffinity 3.33687377
REMARK minimizedRMSD -1
REMARK  0 active torsions:
REMARK  status: ('A' for Active; 'I' for Inactive)
ROOT
ATOM      1  C2' OXE d   1       2.653   3.558  -3.414  0.00  0.00     0.078 C 
ATOM      2  C1' OXE d   1       2.602   5.943  -4.892  0.00  0.00     0.078 C 
ATOM      3  C1  OXE d   1       3.803   5.044  -5.049  0.00  0.00    -0.078 A 
ATOM      4  C2  OXE d   1       3.841   3.902  -4.286  0.00  0.00    -0.078 A 
ATOM      5  C3  OXE d   1       4.899   3.010  -4.433  0.00  0.00     0.003 A 
ATOM      6  C4  OXE d   1       5.999   3.341  -5.234  0.00  0.00    -0.002 A 
ATOM      7  C5  OXE d   1       5.999   4.518  -5.989  0.00  0.00    -0.002 A 
ATOM      8  C6  OXE d   1       4.892   5.359  -5.940  0.00  0.00     0.003 A 
ENDROOT
TORSDOF 0
ENDMDL
