MODEL 1
REMARK minimizedAffinity 8.27650928
REMARK minimizedRMSD -1
REMARK  0 active torsions:
REMARK  status: ('A' for Active; 'I' for Inactive)
ROOT
ATOM      1  C2' OXE d   1      -0.415   5.937  -3.976  0.00  0.00     0.078 C 
ATOM      2  C1' OXE d   1      -0.031   5.914  -1.195  0.00  0.00     0.078 C 
ATOM      3  C1  OXE d   1      -1.449   5.927  -1.710  0.00  0.00    -0.078 A 
ATOM      4  C2  OXE d   1      -1.627   5.985  -3.071  0.00  0.00    -0.078 A 
ATOM      5  C3  OXE d   1      -2.914   5.944  -3.600  0.00  0.00     0.003 A 
ATOM      6  C4  OXE d   1      -4.030   6.000  -2.756  0.00  0.00    -0.002 A 
ATOM      7  C5  OXE d   1      -3.870   5.981  -1.366  0.00  0.00    -0.002 A 
ATOM      8  C6  OXE d   1      -2.590   5.902  -0.828  0.00  0.00     0.003 A 
ENDROOT
TORSDOF 0
ENDMDL
