MODEL 1
REMARK minimizedAffinity 6.51513004
REMARK minimizedRMSD -1
REMARK  0 active torsions:
REMARK  status: ('A' for Active; 'I' for Inactive)
ROOT
ATOM      1  C2' OXE d   1      -0.114  -0.737   0.816  0.00  0.00     0.078 C 
ATOM      2  C1' OXE d   1      -0.169   0.888   3.104  0.00  0.00     0.078 C 
ATOM      3  C1  OXE d   1       0.441   1.460   1.849  0.00  0.00    -0.078 A 
ATOM      4  C2  OXE d   1       0.506   0.642   0.748  0.00  0.00    -0.078 A 
ATOM      5  C3  OXE d   1       1.009   1.138  -0.452  0.00  0.00     0.003 A 
ATOM      6  C4  OXE d   1       1.590   2.411  -0.504  0.00  0.00    -0.002 A 
ATOM      7  C5  OXE d   1       1.570   3.247   0.618  0.00  0.00    -0.002 A 
ATOM      8  C6  OXE d   1       0.962   2.804   1.787  0.00  0.00     0.003 A 
ENDROOT
TORSDOF 0
ENDMDL
