MODEL 1
REMARK minimizedAffinity 1.36009705
REMARK minimizedRMSD -1
REMARK  0 active torsions:
REMARK  status: ('A' for Active; 'I' for Inactive)
ROOT
ATOM      1  C2' OXE d   1       0.363  -0.252   1.270  0.00  0.00     0.078 C 
ATOM      2  C1' OXE d   1       1.246  -0.721  -1.353  0.00  0.00     0.078 C 
ATOM      3  C1  OXE d   1       1.350   0.684  -0.817  0.00  0.00    -0.078 A 
ATOM      4  C2  OXE d   1       0.872   0.914   0.451  0.00  0.00    -0.078 A 
ATOM      5  C3  OXE d   1       0.994   2.181   1.014  0.00  0.00     0.003 A 
ATOM      6  C4  OXE d   1       1.457   3.257   0.247  0.00  0.00    -0.002 A 
ATOM      7  C5  OXE d   1       1.911   3.052  -1.061  0.00  0.00    -0.002 A 
ATOM      8  C6  OXE d   1       1.904   1.767  -1.591  0.00  0.00     0.003 A 
ENDROOT
TORSDOF 0
ENDMDL
