MODEL 1
REMARK minimizedAffinity 8.60553741
REMARK minimizedRMSD -1
REMARK  0 active torsions:
REMARK  status: ('A' for Active; 'I' for Inactive)
ROOT
ATOM      1  C2' OXE d   1       2.335   2.149  -1.745  0.00  0.00     0.078 C 
ATOM      2  C1' OXE d   1       1.078   4.011  -0.063  0.00  0.00     0.078 C 
ATOM      3  C1  OXE d   1       0.924   2.548   0.268  0.00  0.00    -0.078 A 
ATOM      4  C2  OXE d   1       1.504   1.642  -0.587  0.00  0.00    -0.078 A 
ATOM      5  C3  OXE d   1       1.439   0.282  -0.298  0.00  0.00     0.003 A 
ATOM      6  C4  OXE d   1       0.660  -0.180   0.770  0.00  0.00    -0.002 A 
ATOM      7  C5  OXE d   1       0.028   0.725   1.631  0.00  0.00    -0.002 A 
ATOM      8  C6  OXE d   1       0.185   2.090   1.419  0.00  0.00     0.003 A 
ENDROOT
TORSDOF 0
ENDMDL
