MODEL 1
REMARK minimizedAffinity 1.86756599
REMARK minimizedRMSD -1
REMARK  0 active torsions:
REMARK  status: ('A' for Active; 'I' for Inactive)
ROOT
ATOM      1  C2' OXE d   1      -1.177   5.952  -1.144  0.00  0.00     0.078 C 
ATOM      2  C1' OXE d   1      -3.935   6.000  -1.669  0.00  0.00     0.078 C 
ATOM      3  C1  OXE d   1      -2.994   5.975  -2.848  0.00  0.00    -0.078 A 
ATOM      4  C2  OXE d   1      -1.646   5.999  -2.582  0.00  0.00    -0.078 A 
ATOM      5  C3  OXE d   1      -0.735   5.922  -3.632  0.00  0.00     0.003 A 
ATOM      6  C4  OXE d   1      -1.177   5.976  -4.959  0.00  0.00    -0.002 A 
ATOM      7  C5  OXE d   1      -2.545   5.991  -5.252  0.00  0.00    -0.002 A 
ATOM      8  C6  OXE d   1      -3.465   5.948  -4.211  0.00  0.00     0.003 A 
ENDROOT
TORSDOF 0
ENDMDL
