MODEL 1
REMARK minimizedAffinity 4.88894892
REMARK minimizedRMSD -1
REMARK  0 active torsions:
REMARK  status: ('A' for Active; 'I' for Inactive)
ROOT
ATOM      1  C2' OXE d   1      -3.750   5.993  -3.931  0.00  0.00     0.078 C 
ATOM      2  C1' OXE d   1      -3.997   5.998  -1.134  0.00  0.00     0.078 C 
ATOM      3  C1  OXE d   1      -2.610   5.891  -1.718  0.00  0.00    -0.078 A 
ATOM      4  C2  OXE d   1      -2.503   5.842  -3.087  0.00  0.00    -0.078 A 
ATOM      5  C3  OXE d   1      -1.244   5.799  -3.679  0.00  0.00     0.003 A 
ATOM      6  C4  OXE d   1      -0.095   5.650  -2.892  0.00  0.00    -0.002 A 
ATOM      7  C5  OXE d   1      -0.186   5.657  -1.496  0.00  0.00    -0.002 A 
ATOM      8  C6  OXE d   1      -1.429   5.819  -0.894  0.00  0.00     0.003 A 
ENDROOT
TORSDOF 0
ENDMDL
