MODEL 1
REMARK minimizedAffinity 2.83305073
REMARK minimizedRMSD -1
REMARK  0 active torsions:
REMARK  status: ('A' for Active; 'I' for Inactive)
ROOT
ATOM      1  C2' OXE d   1      -3.563   6.000  -4.589  0.00  0.00     0.078 C 
ATOM      2  C1' OXE d   1      -0.776   5.858  -4.279  0.00  0.00     0.078 C 
ATOM      3  C1  OXE d   1      -1.623   5.883  -3.031  0.00  0.00    -0.078 A 
ATOM      4  C2  OXE d   1      -2.983   6.000  -3.191  0.00  0.00    -0.078 A 
ATOM      5  C3  OXE d   1      -3.813   5.973  -2.075  0.00  0.00     0.003 A 
ATOM      6  C4  OXE d   1      -3.268   5.983  -0.785  0.00  0.00    -0.002 A 
ATOM      7  C5  OXE d   1      -1.884   5.904  -0.599  0.00  0.00    -0.002 A 
ATOM      8  C6  OXE d   1      -1.051   5.811  -1.708  0.00  0.00     0.003 A 
ENDROOT
TORSDOF 0
ENDMDL
