MODEL 1
REMARK minimizedAffinity 7.91090727
REMARK minimizedRMSD -1
REMARK  0 active torsions:
REMARK  status: ('A' for Active; 'I' for Inactive)
ROOT
ATOM      1  C2' OXE d   1       2.268   2.627  -3.334  0.00  0.00     0.078 C 
ATOM      2  C1' OXE d   1       4.935   3.312  -3.880  0.00  0.00     0.078 C 
ATOM      3  C1  OXE d   1       3.851   4.158  -4.499  0.00  0.00    -0.078 A 
ATOM      4  C2  OXE d   1       2.548   3.787  -4.264  0.00  0.00    -0.078 A 
ATOM      5  C3  OXE d   1       1.509   4.565  -4.767  0.00  0.00     0.003 A 
ATOM      6  C4  OXE d   1       1.776   5.630  -5.635  0.00  0.00    -0.002 A 
ATOM      7  C5  OXE d   1       3.095   6.000  -5.920  0.00  0.00    -0.002 A 
ATOM      8  C6  OXE d   1       4.142   5.302  -5.327  0.00  0.00     0.003 A 
ENDROOT
TORSDOF 0
ENDMDL
