MODEL 1
REMARK minimizedAffinity -1.38413644
REMARK minimizedRMSD -1
REMARK  0 active torsions:
REMARK  status: ('A' for Active; 'I' for Inactive)
ROOT
ATOM      1  C2' OXE d   1      -3.021   6.000  -4.233  0.00  0.00     0.078 C 
ATOM      2  C1' OXE d   1      -1.278   5.994  -2.033  0.00  0.00     0.078 C 
ATOM      3  C1  OXE d   1      -0.670   5.945  -3.413  0.00  0.00    -0.078 A 
ATOM      4  C2  OXE d   1      -1.532   5.901  -4.482  0.00  0.00    -0.078 A 
ATOM      5  C3  OXE d   1      -1.023   5.911  -5.778  0.00  0.00     0.003 A 
ATOM      6  C4  OXE d   1       0.356   5.810  -5.999  0.00  0.00    -0.002 A 
ATOM      7  C5  OXE d   1       1.249   5.813  -4.923  0.00  0.00    -0.002 A 
ATOM      8  C6  OXE d   1       0.756   5.923  -3.628  0.00  0.00     0.003 A 
ENDROOT
TORSDOF 0
ENDMDL
