MODEL 1
REMARK minimizedAffinity -2.50709748
REMARK minimizedRMSD -1
REMARK  0 active torsions:
REMARK  status: ('A' for Active; 'I' for Inactive)
ROOT
ATOM      1  C2' OXE d   1      -2.284   5.377  -4.097  0.00  0.00     0.078 C 
ATOM      2  C1' OXE d   1      -0.469   5.614  -1.969  0.00  0.00     0.078 C 
ATOM      3  C1  OXE d   1       0.073   5.725  -3.371  0.00  0.00    -0.078 A 
ATOM      4  C2  OXE d   1      -0.814   5.561  -4.408  0.00  0.00    -0.078 A 
ATOM      5  C3  OXE d   1      -0.376   5.708  -5.721  0.00  0.00     0.003 A 
ATOM      6  C4  OXE d   1       0.987   5.869  -5.999  0.00  0.00    -0.002 A 
ATOM      7  C5  OXE d   1       1.914   5.998  -4.959  0.00  0.00    -0.002 A 
ATOM      8  C6  OXE d   1       1.468   5.972  -3.642  0.00  0.00     0.003 A 
ENDROOT
TORSDOF 0
ENDMDL
