MODEL 1
REMARK minimizedAffinity 5.32653046
REMARK minimizedRMSD -1
REMARK  0 active torsions:
REMARK  status: ('A' for Active; 'I' for Inactive)
ROOT
ATOM      1  C2' OXE d   1      -3.846   5.948  -0.257  0.00  0.00     0.078 C 
ATOM      2  C1' OXE d   1      -4.006   5.987  -3.059  0.00  0.00     0.078 C 
ATOM      3  C1  OXE d   1      -2.634   5.971  -2.433  0.00  0.00    -0.078 A 
ATOM      4  C2  OXE d   1      -2.565   5.999  -1.061  0.00  0.00    -0.078 A 
ATOM      5  C3  OXE d   1      -1.325   5.930  -0.432  0.00  0.00     0.003 A 
ATOM      6  C4  OXE d   1      -0.145   5.987  -1.183  0.00  0.00    -0.002 A 
ATOM      7  C5  OXE d   1      -0.193   6.000  -2.581  0.00  0.00    -0.002 A 
ATOM      8  C6  OXE d   1      -1.426   5.949  -3.221  0.00  0.00     0.003 A 
ENDROOT
TORSDOF 0
ENDMDL
