MODEL 1
REMARK minimizedAffinity 8.72570133
REMARK minimizedRMSD -1
REMARK  0 active torsions:
REMARK  status: ('A' for Active; 'I' for Inactive)
ROOT
ATOM      1  C2' OXE d   1       0.017   5.856  -0.740  0.00  0.00     0.078 C 
ATOM      2  C1' OXE d   1      -0.244   5.970  -3.533  0.00  0.00     0.078 C 
ATOM      3  C1  OXE d   1      -1.507   5.942  -2.709  0.00  0.00    -0.078 A 
ATOM      4  C2  OXE d   1      -1.370   5.839  -1.346  0.00  0.00    -0.078 A 
ATOM      5  C3  OXE d   1      -2.502   5.864  -0.536  0.00  0.00     0.003 A 
ATOM      6  C4  OXE d   1      -3.781   5.838  -1.104  0.00  0.00    -0.002 A 
ATOM      7  C5  OXE d   1      -3.943   5.903  -2.492  0.00  0.00    -0.002 A 
ATOM      8  C6  OXE d   1      -2.819   5.998  -3.305  0.00  0.00     0.003 A 
ENDROOT
TORSDOF 0
ENDMDL
