MODEL 1
REMARK minimizedAffinity 9.24822521
REMARK minimizedRMSD -1
REMARK  0 active torsions:
REMARK  status: ('A' for Active; 'I' for Inactive)
ROOT
ATOM      1  C2' OXE d   1       0.460  -0.042   0.530  0.00  0.00     0.078 C 
ATOM      2  C1' OXE d   1      -2.204   0.464  -0.199  0.00  0.00     0.078 C 
ATOM      3  C1  OXE d   1      -1.825   0.641   1.250  0.00  0.00    -0.078 A 
ATOM      4  C2  OXE d   1      -0.531   0.346   1.606  0.00  0.00    -0.078 A 
ATOM      5  C3  OXE d   1      -0.115   0.545   2.920  0.00  0.00     0.003 A 
ATOM      6  C4  OXE d   1      -1.040   0.895   3.911  0.00  0.00    -0.002 A 
ATOM      7  C5  OXE d   1      -2.372   1.161   3.577  0.00  0.00    -0.002 A 
ATOM      8  C6  OXE d   1      -2.770   1.081   2.247  0.00  0.00     0.003 A 
ENDROOT
TORSDOF 0
ENDMDL
