MODEL 1
REMARK minimizedAffinity 4.11877966
REMARK minimizedRMSD -1
REMARK  0 active torsions:
REMARK  status: ('A' for Active; 'I' for Inactive)
ROOT
ATOM      1  C2' OXE d   1       0.453   5.928  -1.788  0.00  0.00     0.078 C 
ATOM      2  C1' OXE d   1      -1.612   5.997  -3.689  0.00  0.00     0.078 C 
ATOM      3  C1  OXE d   1      -0.191   5.973  -4.194  0.00  0.00    -0.078 A 
ATOM      4  C2  OXE d   1       0.814   5.986  -3.257  0.00  0.00    -0.078 A 
ATOM      5  C3  OXE d   1       2.141   5.909  -3.669  0.00  0.00     0.003 A 
ATOM      6  C4  OXE d   1       2.467   5.973  -5.029  0.00  0.00    -0.002 A 
ATOM      7  C5  OXE d   1       1.459   5.999  -5.999  0.00  0.00    -0.002 A 
ATOM      8  C6  OXE d   1       0.128   5.957  -5.601  0.00  0.00     0.003 A 
ENDROOT
TORSDOF 0
ENDMDL
