MODEL 1
REMARK minimizedAffinity -1.88134706
REMARK minimizedRMSD -1
REMARK  0 active torsions:
REMARK  status: ('A' for Active; 'I' for Inactive)
ROOT
ATOM      1  C2' OXE d   1       5.972   3.416  -4.606  0.00  0.00     0.078 C 
ATOM      2  C1' OXE d   1       6.000   5.916  -5.881  0.00  0.00     0.078 C 
ATOM      3  C1  OXE d   1       4.660   5.320  -5.531  0.00  0.00    -0.078 A 
ATOM      4  C2  OXE d   1       4.654   4.075  -4.949  0.00  0.00    -0.078 A 
ATOM      5  C3  OXE d   1       3.447   3.503  -4.556  0.00  0.00     0.003 A 
ATOM      6  C4  OXE d   1       2.232   4.115  -4.887  0.00  0.00    -0.002 A 
ATOM      7  C5  OXE d   1       2.214   5.365  -5.514  0.00  0.00    -0.002 A 
ATOM      8  C6  OXE d   1       3.417   5.999  -5.804  0.00  0.00     0.003 A 
ENDROOT
TORSDOF 0
ENDMDL
