MODEL 1
REMARK minimizedAffinity 0.662211299
REMARK minimizedRMSD -1
REMARK  0 active torsions:
REMARK  status: ('A' for Active; 'I' for Inactive)
ROOT
ATOM      1  C2' OXE d   1      -0.329   5.947  -4.246  0.00  0.00     0.078 C 
ATOM      2  C1' OXE d   1      -0.769   5.969  -1.474  0.00  0.00     0.078 C 
ATOM      3  C1  OXE d   1      -1.976   5.961  -2.377  0.00  0.00    -0.078 A 
ATOM      4  C2  OXE d   1      -1.751   5.997  -3.733  0.00  0.00    -0.078 A 
ATOM      5  C3  OXE d   1      -2.829   5.937  -4.612  0.00  0.00     0.003 A 
ATOM      6  C4  OXE d   1      -4.142   5.994  -4.129  0.00  0.00    -0.002 A 
ATOM      7  C5  OXE d   1      -4.393   5.998  -2.752  0.00  0.00    -0.002 A 
ATOM      8  C6  OXE d   1      -3.324   5.939  -1.865  0.00  0.00     0.003 A 
ENDROOT
TORSDOF 0
ENDMDL
