MODEL 1
REMARK minimizedAffinity 5.0662384
REMARK minimizedRMSD -1
REMARK  0 active torsions:
REMARK  status: ('A' for Active; 'I' for Inactive)
ROOT
ATOM      1  C2' OXE d   1       1.032   5.810  -5.999  0.00  0.00     0.078 C 
ATOM      2  C1' OXE d   1       1.225   3.131  -5.184  0.00  0.00     0.078 C 
ATOM      3  C1  OXE d   1       2.505   3.914  -5.334  0.00  0.00    -0.078 A 
ATOM      4  C2  OXE d   1       2.404   5.211  -5.778  0.00  0.00    -0.078 A 
ATOM      5  C3  OXE d   1       3.550   5.995  -5.881  0.00  0.00     0.003 A 
ATOM      6  C4  OXE d   1       4.816   5.430  -5.684  0.00  0.00    -0.002 A 
ATOM      7  C5  OXE d   1       4.943   4.100  -5.269  0.00  0.00    -0.002 A 
ATOM      8  C6  OXE d   1       3.798   3.342  -5.049  0.00  0.00     0.003 A 
ENDROOT
TORSDOF 0
ENDMDL
