MODEL 1
REMARK minimizedAffinity -0.867607474
REMARK minimizedRMSD -1
REMARK  0 active torsions:
REMARK  status: ('A' for Active; 'I' for Inactive)
ROOT
ATOM      1  C   UNL d   1      -1.239   0.954   0.902  0.00  0.00     0.023 A 
ATOM      2  C1  UNL d   1      -0.861   2.260   0.589  0.00  0.00     0.003 A 
ATOM      3  C2  UNL d   1      -0.328   2.551  -0.668  0.00  0.00     0.048 A 
ATOM      4  C3  UNL d   1      -0.175   1.532  -1.608  0.00  0.00     0.023 A 
ATOM      5  C4  UNL d   1      -0.553   0.224  -1.299  0.00  0.00     0.048 A 
ATOM      6  C5  UNL d   1      -1.085  -0.063  -0.040  0.00  0.00     0.003 A 
ATOM      7  I   UNL d   1       0.618   1.963  -3.479  0.00  0.00    -0.146 I 
ENDROOT
TORSDOF 0
ENDMDL
