MODEL 1
REMARK minimizedAffinity -3.84285736
REMARK minimizedRMSD -1
REMARK  0 active torsions:
REMARK  status: ('A' for Active; 'I' for Inactive)
ROOT
ATOM      1  C   UNL d   1      -1.899  -2.740   1.169  0.00  0.00     0.023 A 
ATOM      2  C1  UNL d   1      -2.521  -1.605   0.648  0.00  0.00     0.003 A 
ATOM      3  C2  UNL d   1      -1.763  -0.477   0.328  0.00  0.00     0.048 A 
ATOM      4  C3  UNL d   1      -0.383  -0.490   0.531  0.00  0.00     0.023 A 
ATOM      5  C4  UNL d   1       0.244  -1.624   1.051  0.00  0.00     0.048 A 
ATOM      6  C5  UNL d   1      -0.518  -2.750   1.370  0.00  0.00     0.003 A 
ATOM      7  I   UNL d   1       0.747   1.188   0.056  0.00  0.00    -0.146 I 
ENDROOT
TORSDOF 0
ENDMDL
