MODEL 1
REMARK minimizedAffinity -2.73532772
REMARK minimizedRMSD -1
REMARK  0 active torsions:
REMARK  status: ('A' for Active; 'I' for Inactive)
ROOT
ATOM      1  C   UNL d   1      -1.253  -1.831   0.257  0.00  0.00     0.023 A 
ATOM      2  C1  UNL d   1      -1.257  -0.455   0.484  0.00  0.00     0.003 A 
ATOM      3  C2  UNL d   1      -0.061   0.211   0.761  0.00  0.00     0.048 A 
ATOM      4  C3  UNL d   1       1.134  -0.505   0.810  0.00  0.00     0.023 A 
ATOM      5  C4  UNL d   1       1.142  -1.882   0.583  0.00  0.00     0.048 A 
ATOM      6  C5  UNL d   1      -0.055  -2.544   0.307  0.00  0.00     0.003 A 
ATOM      7  I   UNL d   1       2.915   0.484   1.222  0.00  0.00    -0.146 I 
ENDROOT
TORSDOF 0
ENDMDL
