MODEL 1
REMARK minimizedAffinity -2.54823351
REMARK minimizedRMSD -1
REMARK  0 active torsions:
REMARK  status: ('A' for Active; 'I' for Inactive)
ROOT
ATOM      1  C   UNL d   1      -0.897  -1.883   1.582  0.00  0.00     0.023 A 
ATOM      2  C1  UNL d   1       0.091  -2.255   0.671  0.00  0.00     0.003 A 
ATOM      3  C2  UNL d   1       0.579  -1.326  -0.250  0.00  0.00     0.048 A 
ATOM      4  C3  UNL d   1       0.075  -0.026  -0.254  0.00  0.00     0.023 A 
ATOM      5  C4  UNL d   1      -0.914   0.351   0.656  0.00  0.00     0.048 A 
ATOM      6  C5  UNL d   1      -1.399  -0.582   1.575  0.00  0.00     0.003 A 
ATOM      7  I   UNL d   1       0.800   1.359  -1.623  0.00  0.00    -0.146 I 
ENDROOT
TORSDOF 0
ENDMDL
