MODEL 1
REMARK minimizedAffinity -2.18590999
REMARK minimizedRMSD -1
REMARK  0 active torsions:
REMARK  status: ('A' for Active; 'I' for Inactive)
ROOT
ATOM      1  C   UNL d   1      -2.146  -2.417   4.153  0.00  0.00     0.023 A 
ATOM      2  C1  UNL d   1      -1.760  -1.077   4.169  0.00  0.00     0.003 A 
ATOM      3  C2  UNL d   1      -0.911  -0.581   3.178  0.00  0.00     0.048 A 
ATOM      4  C3  UNL d   1      -0.452  -1.432   2.172  0.00  0.00     0.023 A 
ATOM      5  C4  UNL d   1      -0.836  -2.773   2.151  0.00  0.00     0.048 A 
ATOM      6  C5  UNL d   1      -1.685  -3.264   3.145  0.00  0.00     0.003 A 
ATOM      7  I   UNL d   1       0.812  -0.697   0.695  0.00  0.00    -0.146 I 
ENDROOT
TORSDOF 0
ENDMDL
