MODEL 1
REMARK minimizedAffinity 4.74369192
REMARK minimizedRMSD -1
REMARK  0 active torsions:
REMARK  status: ('A' for Active; 'I' for Inactive)
ROOT
ATOM      1  C   UNL d   1      -2.532   4.650  -3.868  0.00  0.00     0.023 A 
ATOM      2  C1  UNL d   1      -1.149   4.787  -3.979  0.00  0.00     0.003 A 
ATOM      3  C2  UNL d   1      -0.305   3.798  -3.467  0.00  0.00     0.048 A 
ATOM      4  C3  UNL d   1      -0.852   2.676  -2.847  0.00  0.00     0.023 A 
ATOM      5  C4  UNL d   1      -2.237   2.535  -2.734  0.00  0.00     0.048 A 
ATOM      6  C5  UNL d   1      -3.076   3.526  -3.246  0.00  0.00     0.003 A 
ATOM      7  I   UNL d   1       0.401   1.203  -2.085  0.00  0.00    -0.146 I 
ENDROOT
TORSDOF 0
ENDMDL
