MODEL 1
REMARK minimizedAffinity 5.52377033
REMARK minimizedRMSD -1
REMARK  0 active torsions:
REMARK  status: ('A' for Active; 'I' for Inactive)
ROOT
ATOM      1  C   UNL d   1       0.131  -3.248   4.339  0.00  0.00     0.023 A 
ATOM      2  C1  UNL d   1       0.948  -3.421   3.221  0.00  0.00     0.003 A 
ATOM      3  C2  UNL d   1       0.805  -2.583   2.114  0.00  0.00     0.048 A 
ATOM      4  C3  UNL d   1      -0.156  -1.572   2.131  0.00  0.00     0.023 A 
ATOM      5  C4  UNL d   1      -0.974  -1.394   3.248  0.00  0.00     0.048 A 
ATOM      6  C5  UNL d   1      -0.828  -2.236   4.353  0.00  0.00     0.003 A 
ATOM      7  I   UNL d   1      -0.370  -0.323   0.484  0.00  0.00    -0.146 I 
ENDROOT
TORSDOF 0
ENDMDL
