MODEL 1
REMARK minimizedAffinity 4.18590689
REMARK minimizedRMSD -1
REMARK  0 active torsions:
REMARK  status: ('A' for Active; 'I' for Inactive)
ROOT
ATOM      1  C   UNL d   1       0.391  -3.730   4.866  0.00  0.00     0.023 A 
ATOM      2  C1  UNL d   1       1.539  -3.640   4.078  0.00  0.00     0.003 A 
ATOM      3  C2  UNL d   1       1.528  -2.871   2.913  0.00  0.00     0.048 A 
ATOM      4  C3  UNL d   1       0.366  -2.194   2.541  0.00  0.00     0.023 A 
ATOM      5  C4  UNL d   1      -0.784  -2.281   3.327  0.00  0.00     0.048 A 
ATOM      6  C5  UNL d   1      -0.769  -3.052   4.491  0.00  0.00     0.003 A 
ATOM      7  I   UNL d   1       0.348  -1.049   0.807  0.00  0.00    -0.146 I 
ENDROOT
TORSDOF 0
ENDMDL
