MODEL 1
REMARK minimizedAffinity -2.85863709
REMARK minimizedRMSD -1
REMARK  0 active torsions:
REMARK  status: ('A' for Active; 'I' for Inactive)
ROOT
ATOM      1  C   UNL d   1      -1.977  -2.786  -5.894  0.00  0.00     0.023 A 
ATOM      2  C1  UNL d   1      -1.702  -4.153  -5.890  0.00  0.00     0.003 A 
ATOM      3  C2  UNL d   1      -2.749  -5.077  -5.920  0.00  0.00     0.048 A 
ATOM      4  C3  UNL d   1      -4.068  -4.626  -5.955  0.00  0.00     0.023 A 
ATOM      5  C4  UNL d   1      -4.348  -3.259  -5.959  0.00  0.00     0.048 A 
ATOM      6  C5  UNL d   1      -3.298  -2.339  -5.928  0.00  0.00     0.003 A 
ATOM      7  I   UNL d   1      -5.628  -5.999  -6.000  0.00  0.00    -0.146 I 
ENDROOT
TORSDOF 0
ENDMDL
