MODEL 1
REMARK minimizedAffinity 2.81171393
REMARK minimizedRMSD -1
REMARK  0 active torsions:
REMARK  status: ('A' for Active; 'I' for Inactive)
ROOT
ATOM      1  C   UNL d   1       0.747  -3.227   4.295  0.00  0.00     0.023 A 
ATOM      2  C1  UNL d   1      -0.205  -2.209   4.240  0.00  0.00     0.003 A 
ATOM      3  C2  UNL d   1      -0.500  -1.592   3.023  0.00  0.00     0.048 A 
ATOM      4  C3  UNL d   1       0.161  -1.998   1.864  0.00  0.00     0.023 A 
ATOM      5  C4  UNL d   1       1.113  -3.017   1.914  0.00  0.00     0.048 A 
ATOM      6  C5  UNL d   1       1.406  -3.630   3.133  0.00  0.00     0.003 A 
ATOM      7  I   UNL d   1      -0.277  -1.081   0.050  0.00  0.00    -0.146 I 
ENDROOT
TORSDOF 0
ENDMDL
