MODEL 1
REMARK minimizedAffinity -2.44895315
REMARK minimizedRMSD -1
REMARK  3 active torsions:
REMARK  status: ('A' for Active; 'I' for Inactive)
REMARK    1  A    between atoms: C3'_2  and  C2'_3 
REMARK    2  A    between atoms: C2'_3  and  C1'_4 
REMARK    3  A    between atoms: C1'_4  and  C1_5 
ROOT
ATOM      1  C1  N4B d   1       0.636   0.054   0.809  0.00  0.00    -0.075 A 
ATOM      2  C2  N4B d   1      -0.719   0.098   0.414  0.00  0.00     0.002 A 
ATOM      3  C3  N4B d   1      -1.122  -0.550  -0.728  0.00  0.00     0.002 A 
ATOM      4  C4  N4B d   1      -0.190  -1.229  -1.497  0.00  0.00    -0.004 A 
ATOM      5  C5  N4B d   1       1.112  -1.288  -1.094  0.00  0.00     0.002 A 
ATOM      6  C6  N4B d   1       1.531  -0.645   0.053  0.00  0.00     0.002 A 
ENDROOT
BRANCH   1   7
ATOM      7  C1' N4B d   1       1.140   0.818   2.003  0.00  0.00     0.057 C 
BRANCH   7   8
ATOM      8  C2' N4B d   1       0.170   1.953   2.318  0.00  0.00     0.009 C 
BRANCH   8   9
ATOM      9  C3' N4B d   1      -0.612   1.694   3.594  0.00  0.00     0.004 C 
ATOM     10  C4' N4B d   1      -1.555   0.535   3.473  0.00  0.00     0.003 C 
ENDBRANCH   8   9
ENDBRANCH   7   8
ENDBRANCH   1   7
TORSDOF 3
ENDMDL
