MODEL 1
REMARK minimizedAffinity -1.31749952
REMARK minimizedRMSD -1
REMARK  3 active torsions:
REMARK  status: ('A' for Active; 'I' for Inactive)
REMARK    1  A    between atoms: C3'_2  and  C2'_3 
REMARK    2  A    between atoms: C2'_3  and  C1'_4 
REMARK    3  A    between atoms: C1'_4  and  C1_5 
ROOT
ATOM      1  C1  N4B d   1      -0.714   0.111   0.377  0.00  0.00    -0.075 A 
ATOM      2  C2  N4B d   1       0.555   0.698   0.175  0.00  0.00     0.002 A 
ATOM      3  C3  N4B d   1       1.020   1.645   1.054  0.00  0.00     0.002 A 
ATOM      4  C4  N4B d   1       0.231   2.033   2.126  0.00  0.00    -0.004 A 
ATOM      5  C5  N4B d   1      -0.982   1.442   2.328  0.00  0.00     0.002 A 
ATOM      6  C6  N4B d   1      -1.461   0.486   1.455  0.00  0.00     0.002 A 
ENDROOT
BRANCH   1   7
ATOM      7  C1' N4B d   1      -1.301  -0.866  -0.605  0.00  0.00     0.057 C 
BRANCH   7   8
ATOM      8  C2' N4B d   1      -2.820  -0.718  -0.611  0.00  0.00     0.009 C 
BRANCH   8   9
ATOM      9  C3' N4B d   1      -3.521  -2.039  -0.345  0.00  0.00     0.004 C 
ATOM     10  C4' N4B d   1      -4.770  -2.207  -1.158  0.00  0.00     0.003 C 
ENDBRANCH   8   9
ENDBRANCH   7   8
ENDBRANCH   1   7
TORSDOF 3
ENDMDL
