MODEL 1
REMARK minimizedAffinity -0.902489603
REMARK minimizedRMSD -1
REMARK  3 active torsions:
REMARK  status: ('A' for Active; 'I' for Inactive)
REMARK    1  A    between atoms: C3'_2  and  C2'_3 
REMARK    2  A    between atoms: C2'_3  and  C1'_4 
REMARK    3  A    between atoms: C1'_4  and  C1_5 
ROOT
ATOM      1  C1  N4B d   1      -0.576   0.860   0.446  0.00  0.00    -0.075 A 
ATOM      2  C2  N4B d   1       0.595   1.073   1.206  0.00  0.00     0.002 A 
ATOM      3  C3  N4B d   1       0.564   0.923   2.571  0.00  0.00     0.002 A 
ATOM      4  C4  N4B d   1      -0.625   0.580   3.197  0.00  0.00    -0.004 A 
ATOM      5  C5  N4B d   1      -1.745   0.351   2.453  0.00  0.00     0.002 A 
ATOM      6  C6  N4B d   1      -1.728   0.494   1.080  0.00  0.00     0.002 A 
ENDROOT
BRANCH   1   7
ATOM      7  C1' N4B d   1      -0.612   1.096  -1.039  0.00  0.00     0.057 C 
BRANCH   7   8
ATOM      8  C2' N4B d   1       0.680   1.784  -1.469  0.00  0.00     0.009 C 
BRANCH   8   9
ATOM      9  C3' N4B d   1       0.969   1.578  -2.946  0.00  0.00     0.004 C 
ATOM     10  C4' N4B d   1       2.387   1.903  -3.310  0.00  0.00     0.003 C 
ENDBRANCH   8   9
ENDBRANCH   7   8
ENDBRANCH   1   7
TORSDOF 3
ENDMDL
