MODEL 1
REMARK minimizedAffinity 3.81835699
REMARK minimizedRMSD -1
REMARK  3 active torsions:
REMARK  status: ('A' for Active; 'I' for Inactive)
REMARK    1  A    between atoms: C3'_2  and  C2'_3 
REMARK    2  A    between atoms: C2'_3  and  C1'_4 
REMARK    3  A    between atoms: C1'_4  and  C1_5 
ROOT
ATOM      1  C1  N4B d   1      -0.806  -0.173  -0.223  0.00  0.00    -0.075 A 
ATOM      2  C2  N4B d   1      -2.122   0.235   0.085  0.00  0.00     0.002 A 
ATOM      3  C3  N4B d   1      -2.480   0.473   1.390  0.00  0.00     0.002 A 
ATOM      4  C4  N4B d   1      -1.547   0.293   2.400  0.00  0.00    -0.004 A 
ATOM      5  C5  N4B d   1      -0.271  -0.077   2.091  0.00  0.00     0.002 A 
ATOM      6  C6  N4B d   1       0.103  -0.316   0.784  0.00  0.00     0.002 A 
ENDROOT
BRANCH   1   7
ATOM      7  C1' N4B d   1      -0.393  -0.528  -1.625  0.00  0.00     0.057 C 
BRANCH   7   8
ATOM      8  C2' N4B d   1      -0.400   0.733  -2.484  0.00  0.00     0.009 C 
BRANCH   8   9
ATOM      9  C3' N4B d   1      -0.143   0.424  -3.949  0.00  0.00     0.004 C 
ATOM     10  C4' N4B d   1      -0.600  -0.949  -4.342  0.00  0.00     0.003 C 
ENDBRANCH   8   9
ENDBRANCH   7   8
ENDBRANCH   1   7
TORSDOF 3
ENDMDL
