MODEL 1
REMARK minimizedAffinity -3.35874653
REMARK minimizedRMSD -1
REMARK  3 active torsions:
REMARK  status: ('A' for Active; 'I' for Inactive)
REMARK    1  A    between atoms: C3'_2  and  C2'_3 
REMARK    2  A    between atoms: C2'_3  and  C1'_4 
REMARK    3  A    between atoms: C1'_4  and  C1_5 
ROOT
ATOM      1  C1  N4B d   1      -0.255  -0.065   0.003  0.00  0.00    -0.075 A 
ATOM      2  C2  N4B d   1      -1.398  -0.492   0.713  0.00  0.00     0.002 A 
ATOM      3  C3  N4B d   1      -1.664   0.021   1.959  0.00  0.00     0.002 A 
ATOM      4  C4  N4B d   1      -0.793   0.942   2.521  0.00  0.00    -0.004 A 
ATOM      5  C5  N4B d   1       0.296   1.368   1.818  0.00  0.00     0.002 A 
ATOM      6  C6  N4B d   1       0.572   0.865   0.563  0.00  0.00     0.002 A 
ENDROOT
BRANCH   1   7
ATOM      7  C1' N4B d   1       0.123  -0.661  -1.326  0.00  0.00     0.057 C 
BRANCH   7   8
ATOM      8  C2' N4B d   1       0.841   0.395  -2.162  0.00  0.00     0.009 C 
BRANCH   8   9
ATOM      9  C3' N4B d   1       0.566   0.227  -3.646  0.00  0.00     0.004 C 
ATOM     10  C4' N4B d   1       1.449   1.087  -4.501  0.00  0.00     0.003 C 
ENDBRANCH   8   9
ENDBRANCH   7   8
ENDBRANCH   1   7
TORSDOF 3
ENDMDL
