MODEL 1
REMARK minimizedAffinity 7.20406055
REMARK minimizedRMSD -1
REMARK  3 active torsions:
REMARK  status: ('A' for Active; 'I' for Inactive)
REMARK    1  A    between atoms: C3'_2  and  C2'_3 
REMARK    2  A    between atoms: C2'_3  and  C1'_4 
REMARK    3  A    between atoms: C1'_4  and  C1_5 
ROOT
ATOM      1  C1  N4B d   1       2.124  -0.841  -1.984  0.00  0.00    -0.075 A 
ATOM      2  C2  N4B d   1       1.247  -0.131  -2.832  0.00  0.00     0.002 A 
ATOM      3  C3  N4B d   1       1.751   0.641  -3.851  0.00  0.00     0.002 A 
ATOM      4  C4  N4B d   1       3.123   0.732  -4.027  0.00  0.00    -0.004 A 
ATOM      5  C5  N4B d   1       3.963   0.023  -3.219  0.00  0.00     0.002 A 
ATOM      6  C6  N4B d   1       3.470  -0.760  -2.195  0.00  0.00     0.002 A 
ENDROOT
BRANCH   1   7
ATOM      7  C1' N4B d   1       1.624  -1.629  -0.805  0.00  0.00     0.057 C 
BRANCH   7   8
ATOM      8  C2' N4B d   1       2.382  -1.194   0.446  0.00  0.00     0.009 C 
BRANCH   8   9
ATOM      9  C3' N4B d   1       1.457  -0.589   1.488  0.00  0.00     0.004 C 
ATOM     10  C4' N4B d   1       2.123   0.477   2.307  0.00  0.00     0.003 C 
ENDBRANCH   8   9
ENDBRANCH   7   8
ENDBRANCH   1   7
TORSDOF 3
ENDMDL
