MODEL 1
REMARK minimizedAffinity 5.55223274
REMARK minimizedRMSD -1
REMARK  3 active torsions:
REMARK  status: ('A' for Active; 'I' for Inactive)
REMARK    1  A    between atoms: C3'_2  and  C2'_3 
REMARK    2  A    between atoms: C2'_3  and  C1'_4 
REMARK    3  A    between atoms: C1'_4  and  C1_5 
ROOT
ATOM      1  C1  N4B d   1      -2.361  -0.576   1.442  0.00  0.00    -0.075 A 
ATOM      2  C2  N4B d   1      -2.789  -1.288   2.584  0.00  0.00     0.002 A 
ATOM      3  C3  N4B d   1      -2.449  -0.842   3.838  0.00  0.00     0.002 A 
ATOM      4  C4  N4B d   1      -1.669   0.296   3.973  0.00  0.00    -0.004 A 
ATOM      5  C5  N4B d   1      -1.281   0.992   2.865  0.00  0.00     0.002 A 
ATOM      6  C6  N4B d   1      -1.619   0.558   1.599  0.00  0.00     0.002 A 
ENDROOT
BRANCH   1   7
ATOM      7  C1' N4B d   1      -2.636  -1.072   0.049  0.00  0.00     0.057 C 
BRANCH   7   8
ATOM      8  C2' N4B d   1      -3.611  -0.121  -0.638  0.00  0.00     0.009 C 
BRANCH   8   9
ATOM      9  C3' N4B d   1      -4.195  -0.722  -1.905  0.00  0.00     0.004 C 
ATOM     10  C4' N4B d   1      -5.692  -0.798  -1.876  0.00  0.00     0.003 C 
ENDBRANCH   8   9
ENDBRANCH   7   8
ENDBRANCH   1   7
TORSDOF 3
ENDMDL
