MODEL 1
REMARK minimizedAffinity -2.16418242
REMARK minimizedRMSD -1
REMARK  0 active torsions:
REMARK  status: ('A' for Active; 'I' for Inactive)
ROOT
ATOM      1  C1  BNZ d   1       0.776  -1.864  -0.839  0.00  0.00     0.000 A 
ATOM      2  C2  BNZ d   1      -0.090  -0.820  -1.027  0.00  0.00     0.000 A 
ATOM      3  C3  BNZ d   1      -0.337   0.075  -0.023  0.00  0.00     0.000 A 
ATOM      4  C4  BNZ d   1       0.250  -0.099   1.179  0.00  0.00     0.000 A 
ATOM      5  C5  BNZ d   1       1.119  -1.152   1.387  0.00  0.00     0.000 A 
ATOM      6  C6  BNZ d   1       1.395  -2.028   0.362  0.00  0.00     0.000 A 
ENDROOT
TORSDOF 0
ENDMDL
