MODEL 1
REMARK minimizedAffinity -3.39714313
REMARK minimizedRMSD -1
REMARK  0 active torsions:
REMARK  status: ('A' for Active; 'I' for Inactive)
ROOT
ATOM      1  C1  BNZ d   1       2.768  -1.365  -1.905  0.00  0.00     0.000 A 
ATOM      2  C2  BNZ d   1       2.832  -0.364  -0.972  0.00  0.00     0.000 A 
ATOM      3  C3  BNZ d   1       1.949  -0.321   0.070  0.00  0.00     0.000 A 
ATOM      4  C4  BNZ d   1       0.979  -1.254   0.157  0.00  0.00     0.000 A 
ATOM      5  C5  BNZ d   1       0.896  -2.265  -0.781  0.00  0.00     0.000 A 
ATOM      6  C6  BNZ d   1       1.811  -2.327  -1.807  0.00  0.00     0.000 A 
ENDROOT
TORSDOF 0
ENDMDL
