MODEL 1
REMARK minimizedAffinity -4.6029563
REMARK minimizedRMSD -1
REMARK  0 active torsions:
REMARK  status: ('A' for Active; 'I' for Inactive)
ROOT
ATOM      1  C1  BNZ d   1       2.915  -0.035  -2.245  0.00  0.00     0.000 A 
ATOM      2  C2  BNZ d   1       2.368   1.198  -2.480  0.00  0.00     0.000 A 
ATOM      3  C3  BNZ d   1       1.334   1.662  -1.716  0.00  0.00     0.000 A 
ATOM      4  C4  BNZ d   1       0.822   0.876  -0.746  0.00  0.00     0.000 A 
ATOM      5  C5  BNZ d   1       1.357  -0.373  -0.503  0.00  0.00     0.000 A 
ATOM      6  C6  BNZ d   1       2.423  -0.821  -1.249  0.00  0.00     0.000 A 
ENDROOT
TORSDOF 0
ENDMDL
