MODEL 1
REMARK minimizedAffinity -3.7798593
REMARK minimizedRMSD -1
REMARK  0 active torsions:
REMARK  status: ('A' for Active; 'I' for Inactive)
ROOT
ATOM      1  C1  BNZ d   1      -2.596  -1.076   0.082  0.00  0.00     0.000 A 
ATOM      2  C2  BNZ d   1      -2.622  -2.399  -0.272  0.00  0.00     0.000 A 
ATOM      3  C3  BNZ d   1      -1.470  -3.133  -0.325  0.00  0.00     0.000 A 
ATOM      4  C4  BNZ d   1      -0.291  -2.534  -0.063  0.00  0.00     0.000 A 
ATOM      5  C5  BNZ d   1      -0.246  -1.199   0.287  0.00  0.00     0.000 A 
ATOM      6  C6  BNZ d   1      -1.412  -0.473   0.377  0.00  0.00     0.000 A 
ENDROOT
TORSDOF 0
ENDMDL
