MODEL 1
REMARK minimizedAffinity -1.48660886
REMARK minimizedRMSD -1
REMARK  0 active torsions:
REMARK  status: ('A' for Active; 'I' for Inactive)
ROOT
ATOM      1  C1  BNZ d   1      -2.371  -0.034   1.838  0.00  0.00     0.000 A 
ATOM      2  C2  BNZ d   1      -1.165   0.559   1.574  0.00  0.00     0.000 A 
ATOM      3  C3  BNZ d   1      -0.570   1.375   2.496  0.00  0.00     0.000 A 
ATOM      4  C4  BNZ d   1      -1.199   1.628   3.662  0.00  0.00     0.000 A 
ATOM      5  C5  BNZ d   1      -2.420   1.045   3.938  0.00  0.00     0.000 A 
ATOM      6  C6  BNZ d   1      -2.997   0.194   3.024  0.00  0.00     0.000 A 
ENDROOT
TORSDOF 0
ENDMDL
