MODEL 1
REMARK minimizedAffinity -4.67342901
REMARK minimizedRMSD -1
REMARK  0 active torsions:
REMARK  status: ('A' for Active; 'I' for Inactive)
ROOT
ATOM      1  C1  BNZ d   1       1.667   1.101  -1.065  0.00  0.00     0.000 A 
ATOM      2  C2  BNZ d   1       0.480   0.864  -0.424  0.00  0.00     0.000 A 
ATOM      3  C3  BNZ d   1       0.090  -0.411  -0.123  0.00  0.00     0.000 A 
ATOM      4  C4  BNZ d   1       0.865  -1.448  -0.499  0.00  0.00     0.000 A 
ATOM      5  C5  BNZ d   1       2.060  -1.226  -1.155  0.00  0.00     0.000 A 
ATOM      6  C6  BNZ d   1       2.469   0.060  -1.421  0.00  0.00     0.000 A 
ENDROOT
TORSDOF 0
ENDMDL
