MODEL 1
REMARK minimizedAffinity -3.43790245
REMARK minimizedRMSD -1
REMARK  0 active torsions:
REMARK  status: ('A' for Active; 'I' for Inactive)
ROOT
ATOM      1  C1  BNZ d   1       0.651   1.443  -0.705  0.00  0.00     0.000 A 
ATOM      2  C2  BNZ d   1       1.885   0.974  -1.071  0.00  0.00     0.000 A 
ATOM      3  C3  BNZ d   1       2.242  -0.321  -0.823  0.00  0.00     0.000 A 
ATOM      4  C4  BNZ d   1       1.383  -1.134  -0.175  0.00  0.00     0.000 A 
ATOM      5  C5  BNZ d   1       0.139  -0.673   0.209  0.00  0.00     0.000 A 
ATOM      6  C6  BNZ d   1      -0.232   0.620  -0.077  0.00  0.00     0.000 A 
ENDROOT
TORSDOF 0
ENDMDL
