MODEL 1
REMARK minimizedAffinity -3.01464176
REMARK minimizedRMSD -1
REMARK  0 active torsions:
REMARK  status: ('A' for Active; 'I' for Inactive)
ROOT
ATOM      1  C1  BNZ d   1       2.050  -2.027  -0.822  0.00  0.00     0.000 A 
ATOM      2  C2  BNZ d   1       1.244  -1.921   0.281  0.00  0.00     0.000 A 
ATOM      3  C3  BNZ d   1       0.380  -0.871   0.417  0.00  0.00     0.000 A 
ATOM      4  C4  BNZ d   1       0.351   0.092  -0.527  0.00  0.00     0.000 A 
ATOM      5  C5  BNZ d   1       1.164   0.003  -1.640  0.00  0.00     0.000 A 
ATOM      6  C6  BNZ d   1       2.004  -1.075  -1.793  0.00  0.00     0.000 A 
ENDROOT
TORSDOF 0
ENDMDL
