MODEL 1
REMARK minimizedAffinity -3.85630608
REMARK minimizedRMSD -1
REMARK  0 active torsions:
REMARK  status: ('A' for Active; 'I' for Inactive)
ROOT
ATOM      1  C1  BNZ d   1       5.213   1.805   3.039  0.00  0.00     0.000 A 
ATOM      2  C2  BNZ d   1       5.172   3.122   2.666  0.00  0.00     0.000 A 
ATOM      3  C3  BNZ d   1       4.960   4.106   3.591  0.00  0.00     0.000 A 
ATOM      4  C4  BNZ d   1       4.749   3.770   4.880  0.00  0.00     0.000 A 
ATOM      5  C5  BNZ d   1       4.777   2.446   5.270  0.00  0.00     0.000 A 
ATOM      6  C6  BNZ d   1       5.030   1.461   4.343  0.00  0.00     0.000 A 
ENDROOT
TORSDOF 0
ENDMDL
