MODEL 1
REMARK minimizedAffinity -0.428657323
REMARK minimizedRMSD -1
REMARK  0 active torsions:
REMARK  status: ('A' for Active; 'I' for Inactive)
ROOT
ATOM      1  C1  BNZ d   1      -3.294  -2.047   3.513  0.00  0.00     0.000 A 
ATOM      2  C2  BNZ d   1      -2.680  -1.494   4.604  0.00  0.00     0.000 A 
ATOM      3  C3  BNZ d   1      -1.832  -0.431   4.466  0.00  0.00     0.000 A 
ATOM      4  C4  BNZ d   1      -1.567   0.050   3.234  0.00  0.00     0.000 A 
ATOM      5  C5  BNZ d   1      -2.171  -0.503   2.123  0.00  0.00     0.000 A 
ATOM      6  C6  BNZ d   1      -3.055  -1.548   2.270  0.00  0.00     0.000 A 
ENDROOT
TORSDOF 0
ENDMDL
