MODEL 1
REMARK minimizedAffinity 0.236538589
REMARK minimizedRMSD -1
REMARK  0 active torsions:
REMARK  status: ('A' for Active; 'I' for Inactive)
ROOT
ATOM      1  C1  BNZ d   1       3.906   5.981  -1.806  0.00  0.00     0.000 A 
ATOM      2  C2  BNZ d   1       2.598   5.989  -2.212  0.00  0.00     0.000 A 
ATOM      3  C3  BNZ d   1       2.278   5.975  -3.540  0.00  0.00     0.000 A 
ATOM      4  C4  BNZ d   1       3.263   5.994  -4.460  0.00  0.00     0.000 A 
ATOM      5  C5  BNZ d   1       4.587   5.996  -4.067  0.00  0.00     0.000 A 
ATOM      6  C6  BNZ d   1       4.906   5.970  -2.729  0.00  0.00     0.000 A 
ENDROOT
TORSDOF 0
ENDMDL
