MODEL 1
REMARK minimizedAffinity -1.78679538
REMARK minimizedRMSD -1
REMARK  0 active torsions:
REMARK  status: ('A' for Active; 'I' for Inactive)
ROOT
ATOM      1  C1  BNZ d   1       3.834   3.324   3.724  0.00  0.00     0.000 A 
ATOM      2  C2  BNZ d   1       3.854   4.414   2.894  0.00  0.00     0.000 A 
ATOM      3  C3  BNZ d   1       4.945   5.237   2.846  0.00  0.00     0.000 A 
ATOM      4  C4  BNZ d   1       5.996   4.993   3.656  0.00  0.00     0.000 A 
ATOM      5  C5  BNZ d   1       5.987   3.904   4.504  0.00  0.00     0.000 A 
ATOM      6  C6  BNZ d   1       4.903   3.056   4.522  0.00  0.00     0.000 A 
ENDROOT
TORSDOF 0
ENDMDL
