MODEL 1
REMARK minimizedAffinity -2.47989941
REMARK minimizedRMSD -1
REMARK  0 active torsions:
REMARK  status: ('A' for Active; 'I' for Inactive)
ROOT
ATOM      1  C1  BNZ d   1       5.451   1.940   4.902  0.00  0.00     0.000 A 
ATOM      2  C2  BNZ d   1       5.068   1.210   5.996  0.00  0.00     0.000 A 
ATOM      3  C3  BNZ d   1       5.172  -0.153   6.000  0.00  0.00     0.000 A 
ATOM      4  C4  BNZ d   1       5.619  -0.787   4.897  0.00  0.00     0.000 A 
ATOM      5  C5  BNZ d   1       6.000  -0.066   3.782  0.00  0.00     0.000 A 
ATOM      6  C6  BNZ d   1       5.931   1.308   3.796  0.00  0.00     0.000 A 
ENDROOT
TORSDOF 0
ENDMDL
