MODEL 1
REMARK minimizedAffinity -2.60506868
REMARK minimizedRMSD -1
REMARK  0 active torsions:
REMARK  status: ('A' for Active; 'I' for Inactive)
ROOT
ATOM      1  C1  BNZ d   1       5.713  -0.133   5.870  0.00  0.00     0.000 A 
ATOM      2  C2  BNZ d   1       5.998  -1.466   5.997  0.00  0.00     0.000 A 
ATOM      3  C3  BNZ d   1       5.975  -2.294   4.909  0.00  0.00     0.000 A 
ATOM      4  C4  BNZ d   1       5.629  -1.796   3.704  0.00  0.00     0.000 A 
ATOM      5  C5  BNZ d   1       5.330  -0.455   3.562  0.00  0.00     0.000 A 
ATOM      6  C6  BNZ d   1       5.392   0.382   4.651  0.00  0.00     0.000 A 
ENDROOT
TORSDOF 0
ENDMDL
