MODEL 1
REMARK minimizedAffinity -3.45925903
REMARK minimizedRMSD -1
REMARK  0 active torsions:
REMARK  status: ('A' for Active; 'I' for Inactive)
ROOT
ATOM      1  C1  BNZ d   1       5.351   0.853   2.589  0.00  0.00     0.000 A 
ATOM      2  C2  BNZ d   1       5.764   0.904   3.893  0.00  0.00     0.000 A 
ATOM      3  C3  BNZ d   1       5.836  -0.232   4.650  0.00  0.00     0.000 A 
ATOM      4  C4  BNZ d   1       5.457  -1.410   4.114  0.00  0.00     0.000 A 
ATOM      5  C5  BNZ d   1       5.029  -1.477   2.803  0.00  0.00     0.000 A 
ATOM      6  C6  BNZ d   1       4.995  -0.337   2.033  0.00  0.00     0.000 A 
ENDROOT
TORSDOF 0
ENDMDL
