MODEL 1
REMARK minimizedAffinity -2.47472477
REMARK minimizedRMSD -1
REMARK  0 active torsions:
REMARK  status: ('A' for Active; 'I' for Inactive)
ROOT
ATOM      1  C1  BNZ d   1       3.932   4.408   0.916  0.00  0.00     0.000 A 
ATOM      2  C2  BNZ d   1       4.054   5.558   1.650  0.00  0.00     0.000 A 
ATOM      3  C3  BNZ d   1       4.959   5.643   2.670  0.00  0.00     0.000 A 
ATOM      4  C4  BNZ d   1       5.711   4.568   2.982  0.00  0.00     0.000 A 
ATOM      5  C5  BNZ d   1       5.593   3.398   2.257  0.00  0.00     0.000 A 
ATOM      6  C6  BNZ d   1       4.708   3.328   1.205  0.00  0.00     0.000 A 
ENDROOT
TORSDOF 0
ENDMDL
