MODEL 1
REMARK minimizedAffinity 3.88861418
REMARK minimizedRMSD -1
REMARK  0 active torsions:
REMARK  status: ('A' for Active; 'I' for Inactive)
ROOT
ATOM      1  C   UNL d   1       0.015   1.288  -0.059  0.00  0.00    -0.002 A 
ATOM      2  C1  UNL d   1       1.248   0.651  -0.072  0.00  0.00     0.010 A 
ATOM      3  C2  UNL d   1       1.744   0.042   1.082  0.00  0.00     0.041 A 
ATOM      4  C3  UNL d   1       0.973   0.082   2.260  0.00  0.00    -0.075 A 
ATOM      5  S   UNL d   1       1.379  -0.597   3.792  0.00  0.00     0.015 SA
ATOM      6  C4  UNL d   1      -0.076  -0.058   4.499  0.00  0.00     0.022 A 
ATOM      7  C5  UNL d   1      -0.863   0.625   3.603  0.00  0.00     0.026 A 
ATOM      8  C6  UNL d   1      -0.272   0.716   2.298  0.00  0.00    -0.082 A 
ATOM      9  C7  UNL d   1      -0.748   1.326   1.112  0.00  0.00     0.045 A 
ENDROOT
TORSDOF 0
ENDMDL
