MODEL 1
REMARK minimizedAffinity 11.7305574
REMARK minimizedRMSD -1
REMARK  0 active torsions:
REMARK  status: ('A' for Active; 'I' for Inactive)
ROOT
ATOM      1  C   UNL d   1       3.539   1.626   0.425  0.00  0.00    -0.002 A 
ATOM      2  C1  UNL d   1       4.398   1.186  -0.573  0.00  0.00     0.010 A 
ATOM      3  C2  UNL d   1       4.246  -0.085  -1.131  0.00  0.00     0.041 A 
ATOM      4  C3  UNL d   1       3.206  -0.913  -0.667  0.00  0.00    -0.075 A 
ATOM      5  S   UNL d   1       2.828  -2.507  -1.204  0.00  0.00     0.015 SA
ATOM      6  C4  UNL d   1       1.517  -2.641  -0.123  0.00  0.00     0.022 A 
ATOM      7  C5  UNL d   1       1.358  -1.507   0.637  0.00  0.00     0.026 A 
ATOM      8  C6  UNL d   1       2.328  -0.492   0.336  0.00  0.00    -0.082 A 
ATOM      9  C7  UNL d   1       2.508   0.802   0.882  0.00  0.00     0.045 A 
ENDROOT
TORSDOF 0
ENDMDL
