MODEL 1
REMARK minimizedAffinity 14.8406696
REMARK minimizedRMSD -1
REMARK  0 active torsions:
REMARK  status: ('A' for Active; 'I' for Inactive)
ROOT
ATOM      1  C   UNL d   1       2.513   1.012   0.751  0.00  0.00    -0.002 A 
ATOM      2  C1  UNL d   1       3.334   1.116  -0.363  0.00  0.00     0.010 A 
ATOM      3  C2  UNL d   1       3.463   0.048  -1.253  0.00  0.00     0.041 A 
ATOM      4  C3  UNL d   1       2.745  -1.138  -1.003  0.00  0.00    -0.075 A 
ATOM      5  S   UNL d   1       2.748  -2.575  -1.956  0.00  0.00     0.015 SA
ATOM      6  C4  UNL d   1       1.659  -3.361  -0.907  0.00  0.00     0.022 A 
ATOM      7  C5  UNL d   1       1.292  -2.562   0.150  0.00  0.00     0.026 A 
ATOM      8  C6  UNL d   1       1.912  -1.267   0.111  0.00  0.00    -0.082 A 
ATOM      9  C7  UNL d   1       1.802  -0.167   0.995  0.00  0.00     0.045 A 
ENDROOT
TORSDOF 0
ENDMDL
