MODEL 1
REMARK minimizedAffinity 5.84746552
REMARK minimizedRMSD -1
REMARK  0 active torsions:
REMARK  status: ('A' for Active; 'I' for Inactive)
ROOT
ATOM      1  C   UNL d   1       1.356   1.371   3.255  0.00  0.00    -0.002 A 
ATOM      2  C1  UNL d   1       0.113   1.344   3.871  0.00  0.00     0.010 A 
ATOM      3  C2  UNL d   1      -1.057   1.336   3.110  0.00  0.00     0.041 A 
ATOM      4  C3  UNL d   1      -0.956   1.354   1.705  0.00  0.00    -0.075 A 
ATOM      5  S   UNL d   1      -2.253   1.349   0.569  0.00  0.00     0.015 SA
ATOM      6  C4  UNL d   1      -1.188   1.381  -0.761  0.00  0.00     0.022 A 
ATOM      7  C5  UNL d   1       0.129   1.396  -0.367  0.00  0.00     0.026 A 
ATOM      8  C6  UNL d   1       0.285   1.381   1.061  0.00  0.00    -0.082 A 
ATOM      9  C7  UNL d   1       1.452   1.389   1.861  0.00  0.00     0.045 A 
ENDROOT
TORSDOF 0
ENDMDL
