MODEL 1
REMARK minimizedAffinity 6.74272776
REMARK minimizedRMSD -1
REMARK  0 active torsions:
REMARK  status: ('A' for Active; 'I' for Inactive)
ROOT
ATOM      1  C   UNL d   1      -1.193   1.484   1.915  0.00  0.00    -0.002 A 
ATOM      2  C1  UNL d   1      -0.267   1.229   0.914  0.00  0.00     0.010 A 
ATOM      3  C2  UNL d   1       0.716   0.252   1.089  0.00  0.00     0.041 A 
ATOM      4  C3  UNL d   1       0.752  -0.471   2.297  0.00  0.00    -0.075 A 
ATOM      5  S   UNL d   1       1.864  -1.714   2.732  0.00  0.00     0.015 SA
ATOM      6  C4  UNL d   1       1.136  -1.935   4.257  0.00  0.00     0.022 A 
ATOM      7  C5  UNL d   1       0.068  -1.090   4.446  0.00  0.00     0.026 A 
ATOM      8  C6  UNL d   1      -0.171  -0.232   3.319  0.00  0.00    -0.082 A 
ATOM      9  C7  UNL d   1      -1.155   0.764   3.113  0.00  0.00     0.045 A 
ENDROOT
TORSDOF 0
ENDMDL
