MODEL 1
REMARK minimizedAffinity 9.46520615
REMARK minimizedRMSD -1
REMARK  0 active torsions:
REMARK  status: ('A' for Active; 'I' for Inactive)
ROOT
ATOM      1  C   UNL d   1      -1.792   1.678   0.103  0.00  0.00    -0.002 A 
ATOM      2  C1  UNL d   1      -1.851   1.624   1.488  0.00  0.00     0.010 A 
ATOM      3  C2  UNL d   1      -0.712   1.319   2.236  0.00  0.00     0.041 A 
ATOM      4  C3  UNL d   1       0.499   1.068   1.561  0.00  0.00    -0.075 A 
ATOM      5  S   UNL d   1       2.021   0.676   2.269  0.00  0.00     0.015 SA
ATOM      6  C4  UNL d   1       2.786   0.572   0.749  0.00  0.00     0.022 A 
ATOM      7  C5  UNL d   1       1.915   0.828  -0.284  0.00  0.00     0.026 A 
ATOM      8  C6  UNL d   1       0.583   1.118   0.167  0.00  0.00    -0.082 A 
ATOM      9  C7  UNL d   1      -0.589   1.430  -0.563  0.00  0.00     0.045 A 
ENDROOT
TORSDOF 0
ENDMDL
