MODEL 1
REMARK minimizedAffinity 0.188121945
REMARK minimizedRMSD -1
REMARK  0 active torsions:
REMARK  status: ('A' for Active; 'I' for Inactive)
ROOT
ATOM      1  C   UNL d   1       3.686  -1.389  -0.819  0.00  0.00    -0.002 A 
ATOM      2  C1  UNL d   1       3.748  -0.005  -0.901  0.00  0.00     0.010 A 
ATOM      3  C2  UNL d   1       2.996   0.792  -0.035  0.00  0.00     0.041 A 
ATOM      4  C3  UNL d   1       2.176   0.168   0.926  0.00  0.00    -0.075 A 
ATOM      5  S   UNL d   1       1.168   0.942   2.091  0.00  0.00     0.015 SA
ATOM      6  C4  UNL d   1       0.633  -0.546   2.726  0.00  0.00     0.022 A 
ATOM      7  C5  UNL d   1       1.199  -1.617   2.077  0.00  0.00     0.026 A 
ATOM      8  C6  UNL d   1       2.098  -1.223   1.028  0.00  0.00    -0.082 A 
ATOM      9  C7  UNL d   1       2.871  -2.004   0.136  0.00  0.00     0.045 A 
ENDROOT
TORSDOF 0
ENDMDL
