MODEL 1
REMARK minimizedAffinity 8.21106339
REMARK minimizedRMSD -1
REMARK  0 active torsions:
REMARK  status: ('A' for Active; 'I' for Inactive)
ROOT
ATOM      1  C   UNL d   1       3.414  -1.472   4.502  0.00  0.00     0.023 A 
ATOM      2  C1  UNL d   1       3.250  -2.704   3.868  0.00  0.00     0.003 A 
ATOM      3  C2  UNL d   1       3.982  -3.814   4.297  0.00  0.00     0.048 A 
ATOM      4  C3  UNL d   1       4.874  -3.685   5.360  0.00  0.00     0.023 A 
ATOM      5  C4  UNL d   1       5.040  -2.455   5.998  0.00  0.00     0.048 A 
ATOM      6  C5  UNL d   1       4.308  -1.348   5.566  0.00  0.00     0.003 A 
ATOM      7  I   UNL d   1       5.964  -5.336   6.000  0.00  0.00    -0.146 I 
ENDROOT
TORSDOF 0
ENDMDL
