MODEL 1
REMARK minimizedAffinity 8.48054981
REMARK minimizedRMSD -1
REMARK  0 active torsions:
REMARK  status: ('A' for Active; 'I' for Inactive)
ROOT
ATOM      1  C   UNL d   1       0.158   4.687  -2.713  0.00  0.00     0.023 A 
ATOM      2  C1  UNL d   1      -0.863   5.621  -2.885  0.00  0.00     0.003 A 
ATOM      3  C2  UNL d   1      -1.657   5.999  -1.800  0.00  0.00     0.048 A 
ATOM      4  C3  UNL d   1      -1.422   5.439  -0.544  0.00  0.00     0.023 A 
ATOM      5  C4  UNL d   1      -0.400   4.505  -0.367  0.00  0.00     0.048 A 
ATOM      6  C5  UNL d   1       0.389   4.130  -1.455  0.00  0.00     0.003 A 
ATOM      7  I   UNL d   1      -2.601   5.999   1.073  0.00  0.00    -0.146 I 
ENDROOT
TORSDOF 0
ENDMDL
