MODEL 1
REMARK minimizedAffinity 8.24060059
REMARK minimizedRMSD -1
REMARK  0 active torsions:
REMARK  status: ('A' for Active; 'I' for Inactive)
ROOT
ATOM      1  C   UNL d   1      -1.457   5.574  -2.198  0.00  0.00     0.023 A 
ATOM      2  C1  UNL d   1      -1.459   6.000  -0.870  0.00  0.00     0.003 A 
ATOM      3  C2  UNL d   1      -0.789   5.257   0.104  0.00  0.00     0.048 A 
ATOM      4  C3  UNL d   1      -0.118   4.090  -0.257  0.00  0.00     0.023 A 
ATOM      5  C4  UNL d   1      -0.112   3.660  -1.585  0.00  0.00     0.048 A 
ATOM      6  C5  UNL d   1      -0.784   4.405  -2.555  0.00  0.00     0.003 A 
ATOM      7  I   UNL d   1       0.881   2.983   1.191  0.00  0.00    -0.146 I 
ENDROOT
TORSDOF 0
ENDMDL
