MODEL 1
REMARK minimizedAffinity 6.57150984
REMARK minimizedRMSD -1
REMARK  0 active torsions:
REMARK  status: ('A' for Active; 'I' for Inactive)
ROOT
ATOM      1  C   UNL d   1       0.934   1.810   3.515  0.00  0.00     0.023 A 
ATOM      2  C1  UNL d   1       1.952   2.734   3.276  0.00  0.00     0.003 A 
ATOM      3  C2  UNL d   1       1.828   3.657   2.236  0.00  0.00     0.048 A 
ATOM      4  C3  UNL d   1       0.683   3.653   1.440  0.00  0.00     0.023 A 
ATOM      5  C4  UNL d   1      -0.338   2.731   1.676  0.00  0.00     0.048 A 
ATOM      6  C5  UNL d   1      -0.209   1.809   2.716  0.00  0.00     0.003 A 
ATOM      7  I   UNL d   1       0.496   5.027  -0.108  0.00  0.00    -0.146 I 
ENDROOT
TORSDOF 0
ENDMDL
