MODEL 1
REMARK minimizedAffinity 15.7790489
REMARK minimizedRMSD -1
REMARK  0 active torsions:
REMARK  status: ('A' for Active; 'I' for Inactive)
ROOT
ATOM      1  C   UNL d   1      -5.917   0.527  -5.506  0.00  0.00     0.023 A 
ATOM      2  C1  UNL d   1      -5.981   0.022  -4.207  0.00  0.00     0.003 A 
ATOM      3  C2  UNL d   1      -5.999   0.895  -3.117  0.00  0.00     0.048 A 
ATOM      4  C3  UNL d   1      -5.955   2.271  -3.333  0.00  0.00     0.023 A 
ATOM      5  C4  UNL d   1      -5.892   2.781  -4.631  0.00  0.00     0.048 A 
ATOM      6  C5  UNL d   1      -5.872   1.905  -5.717  0.00  0.00     0.003 A 
ATOM      7  I   UNL d   1      -5.982   3.573  -1.713  0.00  0.00    -0.146 I 
ENDROOT
TORSDOF 0
ENDMDL
