MODEL 1
REMARK minimizedAffinity 9.97319603
REMARK minimizedRMSD -1
REMARK  0 active torsions:
REMARK  status: ('A' for Active; 'I' for Inactive)
ROOT
ATOM      1  C   UNL d   1      -0.005   1.132   3.603  0.00  0.00     0.023 A 
ATOM      2  C1  UNL d   1       1.207   1.529   3.036  0.00  0.00     0.003 A 
ATOM      3  C2  UNL d   1       1.216   2.267   1.850  0.00  0.00     0.048 A 
ATOM      4  C3  UNL d   1       0.010   2.604   1.237  0.00  0.00     0.023 A 
ATOM      5  C4  UNL d   1      -1.205   2.210   1.800  0.00  0.00     0.048 A 
ATOM      6  C5  UNL d   1      -1.209   1.472   2.986  0.00  0.00     0.003 A 
ATOM      7  I   UNL d   1       0.021   3.702  -0.528  0.00  0.00    -0.146 I 
ENDROOT
TORSDOF 0
ENDMDL
