MODEL 1
REMARK minimizedAffinity 3.9076817
REMARK minimizedRMSD -1
REMARK  0 active torsions:
REMARK  status: ('A' for Active; 'I' for Inactive)
ROOT
ATOM      1  C   UNL d   1       5.580  -3.032  -0.820  0.00  0.00     0.023 A 
ATOM      2  C1  UNL d   1       5.211  -4.346  -1.106  0.00  0.00     0.003 A 
ATOM      3  C2  UNL d   1       3.867  -4.720  -1.065  0.00  0.00     0.048 A 
ATOM      4  C3  UNL d   1       2.896  -3.774  -0.738  0.00  0.00     0.023 A 
ATOM      5  C4  UNL d   1       3.260  -2.458  -0.452  0.00  0.00     0.048 A 
ATOM      6  C5  UNL d   1       4.605  -2.089  -0.493  0.00  0.00     0.003 A 
ATOM      7  I   UNL d   1       0.893  -4.329  -0.677  0.00  0.00    -0.146 I 
ENDROOT
TORSDOF 0
ENDMDL
