MODEL 1
REMARK minimizedAffinity -0.285556018
REMARK minimizedRMSD -1
REMARK  0 active torsions:
REMARK  status: ('A' for Active; 'I' for Inactive)
ROOT
ATOM      1  C   UNL d   1       1.640   2.943   3.695  0.00  0.00     0.023 A 
ATOM      2  C1  UNL d   1       0.268   2.920   3.445  0.00  0.00     0.003 A 
ATOM      3  C2  UNL d   1      -0.216   3.224   2.171  0.00  0.00     0.048 A 
ATOM      4  C3  UNL d   1       0.678   3.549   1.151  0.00  0.00     0.023 A 
ATOM      5  C4  UNL d   1       2.052   3.572   1.396  0.00  0.00     0.048 A 
ATOM      6  C5  UNL d   1       2.531   3.268   2.672  0.00  0.00     0.003 A 
ATOM      7  I   UNL d   1      -0.039   4.001  -0.746  0.00  0.00    -0.146 I 
ENDROOT
TORSDOF 0
ENDMDL
