MODEL 1
REMARK minimizedAffinity 5.8747654
REMARK minimizedRMSD -1
REMARK  0 active torsions:
REMARK  status: ('A' for Active; 'I' for Inactive)
ROOT
ATOM      1  C   UNL d   1      -5.999   3.408  -2.955  0.00  0.00     0.023 A 
ATOM      2  C1  UNL d   1      -5.172   3.694  -4.042  0.00  0.00     0.003 A 
ATOM      3  C2  UNL d   1      -3.852   4.096  -3.830  0.00  0.00     0.048 A 
ATOM      4  C3  UNL d   1      -3.364   4.209  -2.529  0.00  0.00     0.023 A 
ATOM      5  C4  UNL d   1      -4.187   3.923  -1.438  0.00  0.00     0.048 A 
ATOM      6  C5  UNL d   1      -5.507   3.522  -1.655  0.00  0.00     0.003 A 
ATOM      7  I   UNL d   1      -1.399   4.807  -2.211  0.00  0.00    -0.146 I 
ENDROOT
TORSDOF 0
ENDMDL
