MODEL 1
REMARK minimizedAffinity 2.07001543
REMARK minimizedRMSD -1
REMARK  2 active torsions:
REMARK  status: ('A' for Active; 'I' for Inactive)
REMARK    1  A    between atoms: C1_2  and  C2_3 
REMARK    2  A    between atoms: C2_3  and  C3_4 
ROOT
ATOM      1  C3  UNL d   1      -5.036   2.238  -2.633  0.00  0.00    -0.075 A 
ATOM      2  C4  UNL d   1      -5.750   3.443  -2.566  0.00  0.00     0.002 A 
ATOM      3  C5  UNL d   1      -5.637   4.390  -3.585  0.00  0.00     0.002 A 
ATOM      4  C6  UNL d   1      -4.803   4.150  -4.674  0.00  0.00    -0.004 A 
ATOM      5  C7  UNL d   1      -4.076   2.964  -4.742  0.00  0.00     0.002 A 
ATOM      6  C8  UNL d   1      -4.190   2.012  -3.727  0.00  0.00     0.002 A 
ENDROOT
BRANCH   1   7
ATOM      7  C2  UNL d   1      -5.176   1.196  -1.549  0.00  0.00     0.056 C 
BRANCH   7   8
ATOM      8  C1  UNL d   1      -3.866   0.869  -0.824  0.00  0.00     0.007 C 
ATOM      9  C   UNL d   1      -3.978   0.966   0.691  0.00  0.00     0.009 C 
ENDBRANCH   7   8
ENDBRANCH   1   7
TORSDOF 2
ENDMDL
