MODEL 1
REMARK minimizedAffinity 0.654793262
REMARK minimizedRMSD -1
REMARK  2 active torsions:
REMARK  status: ('A' for Active; 'I' for Inactive)
REMARK    1  A    between atoms: C1_2  and  C2_3 
REMARK    2  A    between atoms: C2_3  and  C3_4 
ROOT
ATOM      1  C3  UNL d   1      -2.343   1.242  -0.071  0.00  0.00    -0.075 A 
ATOM      2  C4  UNL d   1      -3.344   0.485  -0.698  0.00  0.00     0.002 A 
ATOM      3  C5  UNL d   1      -4.609   0.367  -0.122  0.00  0.00     0.002 A 
ATOM      4  C6  UNL d   1      -4.886   0.994   1.091  0.00  0.00    -0.004 A 
ATOM      5  C7  UNL d   1      -3.895   1.735   1.731  0.00  0.00     0.002 A 
ATOM      6  C8  UNL d   1      -2.629   1.859   1.154  0.00  0.00     0.002 A 
ENDROOT
BRANCH   1   7
ATOM      7  C2  UNL d   1      -0.981   1.398  -0.704  0.00  0.00     0.056 C 
BRANCH   7   8
ATOM      8  C1  UNL d   1      -0.204   2.626  -0.218  0.00  0.00     0.007 C 
ATOM      9  C   UNL d   1       1.202   2.295   0.263  0.00  0.00     0.009 C 
ENDBRANCH   7   8
ENDBRANCH   1   7
TORSDOF 2
ENDMDL
