MODEL 1
REMARK minimizedAffinity 1.67695034
REMARK minimizedRMSD -1
REMARK  2 active torsions:
REMARK  status: ('A' for Active; 'I' for Inactive)
REMARK    1  A    between atoms: C1_2  and  C2_3 
REMARK    2  A    between atoms: C2_3  and  C3_4 
ROOT
ATOM      1  C3  UNL d   1      -2.097   1.839   0.221  0.00  0.00    -0.075 A 
ATOM      2  C4  UNL d   1      -3.196   0.970   0.164  0.00  0.00     0.002 A 
ATOM      3  C5  UNL d   1      -4.296   1.162   1.000  0.00  0.00     0.002 A 
ATOM      4  C6  UNL d   1      -4.307   2.217   1.910  0.00  0.00    -0.004 A 
ATOM      5  C7  UNL d   1      -3.213   3.077   1.987  0.00  0.00     0.002 A 
ATOM      6  C8  UNL d   1      -2.113   2.889   1.149  0.00  0.00     0.002 A 
ENDROOT
BRANCH   1   7
ATOM      7  C2  UNL d   1      -0.916   1.654  -0.702  0.00  0.00     0.056 C 
BRANCH   7   8
ATOM      8  C1  UNL d   1       0.205   2.677  -0.493  0.00  0.00     0.007 C 
ATOM      9  C   UNL d   1       1.476   2.066   0.080  0.00  0.00     0.009 C 
ENDBRANCH   7   8
ENDBRANCH   1   7
TORSDOF 2
ENDMDL
