MODEL 1
REMARK minimizedAffinity 6.13896608
REMARK minimizedRMSD -1
REMARK  2 active torsions:
REMARK  status: ('A' for Active; 'I' for Inactive)
REMARK    1  A    between atoms: C1_2  and  C2_3 
REMARK    2  A    between atoms: C2_3  and  C3_4 
ROOT
ATOM      1  C3  UNL d   1       2.704   0.069   0.877  0.00  0.00    -0.075 A 
ATOM      2  C4  UNL d   1       2.850  -0.370  -0.447  0.00  0.00     0.002 A 
ATOM      3  C5  UNL d   1       2.872  -1.733  -0.743  0.00  0.00     0.002 A 
ATOM      4  C6  UNL d   1       2.758  -2.673   0.279  0.00  0.00    -0.004 A 
ATOM      5  C7  UNL d   1       2.628  -2.248   1.600  0.00  0.00     0.002 A 
ATOM      6  C8  UNL d   1       2.602  -0.885   1.898  0.00  0.00     0.002 A 
ENDROOT
BRANCH   1   7
ATOM      7  C2  UNL d   1       2.650   1.543   1.201  0.00  0.00     0.056 C 
BRANCH   7   8
ATOM      8  C1  UNL d   1       1.973   2.394   0.121  0.00  0.00     0.007 C 
ATOM      9  C   UNL d   1       0.545   1.959  -0.179  0.00  0.00     0.009 C 
ENDBRANCH   7   8
ENDBRANCH   1   7
TORSDOF 2
ENDMDL
