MODEL 1
REMARK minimizedAffinity 3.39024949
REMARK minimizedRMSD -1
REMARK  2 active torsions:
REMARK  status: ('A' for Active; 'I' for Inactive)
REMARK    1  A    between atoms: C1_2  and  C2_3 
REMARK    2  A    between atoms: C2_3  and  C3_4 
ROOT
ATOM      1  C3  UNL d   1       0.837   2.389   1.085  0.00  0.00    -0.075 A 
ATOM      2  C4  UNL d   1      -0.196   3.323   0.921  0.00  0.00     0.002 A 
ATOM      3  C5  UNL d   1      -1.295   3.323   1.781  0.00  0.00     0.002 A 
ATOM      4  C6  UNL d   1      -1.379   2.384   2.807  0.00  0.00    -0.004 A 
ATOM      5  C7  UNL d   1      -0.367   1.441   2.968  0.00  0.00     0.002 A 
ATOM      6  C8  UNL d   1       0.736   1.442   2.112  0.00  0.00     0.002 A 
ENDROOT
BRANCH   1   7
ATOM      7  C2  UNL d   1       2.043   2.404   0.176  0.00  0.00     0.056 C 
BRANCH   7   8
ATOM      8  C1  UNL d   1       2.700   1.032  -0.010  0.00  0.00     0.007 C 
ATOM      9  C   UNL d   1       4.145   1.119  -0.485  0.00  0.00     0.009 C 
ENDBRANCH   7   8
ENDBRANCH   1   7
TORSDOF 2
ENDMDL
