MODEL 1
REMARK minimizedAffinity -3.16037011
REMARK minimizedRMSD -1
REMARK  2 active torsions:
REMARK  status: ('A' for Active; 'I' for Inactive)
REMARK    1  A    between atoms: C1_2  and  C2_3 
REMARK    2  A    between atoms: C2_3  and  C3_4 
ROOT
ATOM      1  C3  UNL d   1      -1.609   1.779   1.363  0.00  0.00    -0.075 A 
ATOM      2  C4  UNL d   1      -2.449   2.429   2.279  0.00  0.00     0.002 A 
ATOM      3  C5  UNL d   1      -3.832   2.253   2.220  0.00  0.00     0.002 A 
ATOM      4  C6  UNL d   1      -4.392   1.436   1.241  0.00  0.00    -0.004 A 
ATOM      5  C7  UNL d   1      -3.568   0.798   0.315  0.00  0.00     0.002 A 
ATOM      6  C8  UNL d   1      -2.184   0.968   0.375  0.00  0.00     0.002 A 
ENDROOT
BRANCH   1   7
ATOM      7  C2  UNL d   1      -0.109   1.941   1.440  0.00  0.00     0.056 C 
BRANCH   7   8
ATOM      8  C1  UNL d   1       0.579   2.037   0.074  0.00  0.00     0.007 C 
ATOM      9  C   UNL d   1       2.039   1.606   0.106  0.00  0.00     0.009 C 
ENDBRANCH   7   8
ENDBRANCH   1   7
TORSDOF 2
ENDMDL
