MODEL 1
REMARK minimizedAffinity 0.651924849
REMARK minimizedRMSD -1
REMARK  2 active torsions:
REMARK  status: ('A' for Active; 'I' for Inactive)
REMARK    1  A    between atoms: C1_2  and  C2_3 
REMARK    2  A    between atoms: C2_3  and  C3_4 
ROOT
ATOM      1  C3  UNL d   1      -2.473   1.065   0.875  0.00  0.00    -0.075 A 
ATOM      2  C4  UNL d   1      -3.529   1.298   1.767  0.00  0.00     0.002 A 
ATOM      3  C5  UNL d   1      -4.840   0.980   1.411  0.00  0.00     0.002 A 
ATOM      4  C6  UNL d   1      -5.113   0.436   0.157  0.00  0.00    -0.004 A 
ATOM      5  C7  UNL d   1      -4.073   0.217  -0.743  0.00  0.00     0.002 A 
ATOM      6  C8  UNL d   1      -2.760   0.530  -0.388  0.00  0.00     0.002 A 
ENDROOT
BRANCH   1   7
ATOM      7  C2  UNL d   1      -1.048   1.380   1.265  0.00  0.00     0.056 C 
BRANCH   7   8
ATOM      8  C1  UNL d   1      -0.108   1.594   0.074  0.00  0.00     0.007 C 
ATOM      9  C   UNL d   1       1.321   1.919   0.488  0.00  0.00     0.009 C 
ENDBRANCH   7   8
ENDBRANCH   1   7
TORSDOF 2
ENDMDL
