MODEL 1
REMARK minimizedAffinity 2.49302769
REMARK minimizedRMSD -1
REMARK  2 active torsions:
REMARK  status: ('A' for Active; 'I' for Inactive)
REMARK    1  A    between atoms: C1_2  and  C2_3 
REMARK    2  A    between atoms: C2_3  and  C3_4 
ROOT
ATOM      1  C3  UNL d   1       2.470  -0.562  -0.172  0.00  0.00    -0.075 A 
ATOM      2  C4  UNL d   1       1.537  -1.164  -1.029  0.00  0.00     0.002 A 
ATOM      3  C5  UNL d   1       1.068  -2.453  -0.772  0.00  0.00     0.002 A 
ATOM      4  C6  UNL d   1       1.533  -3.159   0.336  0.00  0.00    -0.004 A 
ATOM      5  C7  UNL d   1       2.472  -2.577   1.184  0.00  0.00     0.002 A 
ATOM      6  C8  UNL d   1       2.939  -1.286   0.932  0.00  0.00     0.002 A 
ENDROOT
BRANCH   1   7
ATOM      7  C2  UNL d   1       2.958   0.843  -0.428  0.00  0.00     0.056 C 
BRANCH   7   8
ATOM      8  C1  UNL d   1       2.340   1.897   0.498  0.00  0.00     0.007 C 
ATOM      9  C   UNL d   1       0.913   2.268   0.116  0.00  0.00     0.009 C 
ENDBRANCH   7   8
ENDBRANCH   1   7
TORSDOF 2
ENDMDL
