MODEL 1
REMARK minimizedAffinity 8.65045547
REMARK minimizedRMSD -1
REMARK  3 active torsions:
REMARK  status: ('A' for Active; 'I' for Inactive)
REMARK    1  A    between atoms: C3'_2  and  C2'_3 
REMARK    2  A    between atoms: C2'_3  and  C1'_4 
REMARK    3  A    between atoms: C1'_4  and  C1_5 
ROOT
ATOM      1  C1  N4B d   1      -2.449  -1.985   1.910  0.00  0.00    -0.075 A 
ATOM      2  C2  N4B d   1      -3.142  -1.087   2.751  0.00  0.00     0.002 A 
ATOM      3  C3  N4B d   1      -2.517   0.047   3.208  0.00  0.00     0.002 A 
ATOM      4  C4  N4B d   1      -1.199   0.293   2.853  0.00  0.00    -0.004 A 
ATOM      5  C5  N4B d   1      -0.545  -0.566   2.020  0.00  0.00     0.002 A 
ATOM      6  C6  N4B d   1      -1.162  -1.708   1.550  0.00  0.00     0.002 A 
ENDROOT
BRANCH   1   7
ATOM      7  C1' N4B d   1      -3.062  -3.281   1.455  0.00  0.00     0.057 C 
BRANCH   7   8
ATOM      8  C2' N4B d   1      -4.283  -3.588   2.318  0.00  0.00     0.009 C 
BRANCH   8   9
ATOM      9  C3' N4B d   1      -4.555  -5.080   2.407  0.00  0.00     0.004 C 
ATOM     10  C4' N4B d   1      -5.338  -5.455   3.630  0.00  0.00     0.003 C 
ENDBRANCH   8   9
ENDBRANCH   7   8
ENDBRANCH   1   7
TORSDOF 3
ENDMDL
