MODEL 1
REMARK minimizedAffinity 6.92684984
REMARK minimizedRMSD -1
REMARK  3 active torsions:
REMARK  status: ('A' for Active; 'I' for Inactive)
REMARK    1  A    between atoms: C3'_2  and  C2'_3 
REMARK    2  A    between atoms: C2'_3  and  C1'_4 
REMARK    3  A    between atoms: C1'_4  and  C1_5 
ROOT
ATOM      1  C1  N4B d   1       3.930   2.332   0.799  0.00  0.00    -0.075 A 
ATOM      2  C2  N4B d   1       3.771   3.430   1.673  0.00  0.00     0.002 A 
ATOM      3  C3  N4B d   1       4.720   4.422   1.709  0.00  0.00     0.002 A 
ATOM      4  C4  N4B d   1       5.841   4.329   0.897  0.00  0.00    -0.004 A 
ATOM      5  C5  N4B d   1       5.974   3.278   0.037  0.00  0.00     0.002 A 
ATOM      6  C6  N4B d   1       5.026   2.276  -0.012  0.00  0.00     0.002 A 
ENDROOT
BRANCH   1   7
ATOM      7  C1' N4B d   1       2.962   1.180   0.787  0.00  0.00     0.057 C 
BRANCH   7   8
ATOM      8  C2' N4B d   1       1.768   1.539  -0.091  0.00  0.00     0.009 C 
BRANCH   8   9
ATOM      9  C3' N4B d   1       2.137   1.582  -1.564  0.00  0.00     0.004 C 
ATOM     10  C4' N4B d   1       1.061   2.188  -2.415  0.00  0.00     0.003 C 
ENDBRANCH   8   9
ENDBRANCH   7   8
ENDBRANCH   1   7
TORSDOF 3
ENDMDL
