MODEL 1
REMARK minimizedAffinity 3.67204213
REMARK minimizedRMSD -1
REMARK  3 active torsions:
REMARK  status: ('A' for Active; 'I' for Inactive)
REMARK    1  A    between atoms: C3'_2  and  C2'_3 
REMARK    2  A    between atoms: C2'_3  and  C1'_4 
REMARK    3  A    between atoms: C1'_4  and  C1_5 
ROOT
ATOM      1  C1  N4B d   1       3.603  -3.826  -0.014  0.00  0.00    -0.075 A 
ATOM      2  C2  N4B d   1       4.902  -3.272  -0.041  0.00  0.00     0.002 A 
ATOM      3  C3  N4B d   1       6.000  -4.096  -0.032  0.00  0.00     0.002 A 
ATOM      4  C4  N4B d   1       5.825  -5.471   0.022  0.00  0.00    -0.004 A 
ATOM      5  C5  N4B d   1       4.567  -5.999   0.023  0.00  0.00     0.002 A 
ATOM      6  C6  N4B d   1       3.454  -5.182   0.010  0.00  0.00     0.002 A 
ENDROOT
BRANCH   1   7
ATOM      7  C1' N4B d   1       2.373  -2.963   0.064  0.00  0.00     0.057 C 
BRANCH   7   8
ATOM      8  C2' N4B d   1       1.173  -3.755  -0.446  0.00  0.00     0.009 C 
BRANCH   8   9
ATOM      9  C3' N4B d   1       0.687  -3.245  -1.792  0.00  0.00     0.004 C 
ATOM     10  C4' N4B d   1       1.054  -4.157  -2.925  0.00  0.00     0.003 C 
ENDBRANCH   8   9
ENDBRANCH   7   8
ENDBRANCH   1   7
TORSDOF 3
ENDMDL
