MODEL 1
REMARK minimizedAffinity -1.29657233
REMARK minimizedRMSD -1
REMARK  3 active torsions:
REMARK  status: ('A' for Active; 'I' for Inactive)
REMARK    1  A    between atoms: C3'_2  and  C2'_3 
REMARK    2  A    between atoms: C2'_3  and  C1'_4 
REMARK    3  A    between atoms: C1'_4  and  C1_5 
ROOT
ATOM      1  C1  N4B d   1       0.946  -3.382   0.286  0.00  0.00    -0.075 A 
ATOM      2  C2  N4B d   1       0.264  -2.619   1.259  0.00  0.00     0.002 A 
ATOM      3  C3  N4B d   1      -1.108  -2.625   1.299  0.00  0.00     0.002 A 
ATOM      4  C4  N4B d   1      -1.818  -3.370   0.369  0.00  0.00    -0.004 A 
ATOM      5  C5  N4B d   1      -1.152  -4.124  -0.552  0.00  0.00     0.002 A 
ATOM      6  C6  N4B d   1       0.228  -4.130  -0.601  0.00  0.00     0.002 A 
ENDROOT
BRANCH   1   7
ATOM      7  C1' N4B d   1       2.443  -3.339   0.148  0.00  0.00     0.057 C 
BRANCH   7   8
ATOM      8  C2' N4B d   1       2.973  -4.761  -0.004  0.00  0.00     0.009 C 
BRANCH   8   9
ATOM      9  C3' N4B d   1       4.491  -4.809   0.029  0.00  0.00     0.004 C 
ATOM     10  C4' N4B d   1       5.019  -5.999   0.774  0.00  0.00     0.003 C 
ENDBRANCH   8   9
ENDBRANCH   7   8
ENDBRANCH   1   7
TORSDOF 3
ENDMDL
