MODEL 1
REMARK minimizedAffinity 13.7828913
REMARK minimizedRMSD -1
REMARK  3 active torsions:
REMARK  status: ('A' for Active; 'I' for Inactive)
REMARK    1  A    between atoms: C3'_2  and  C2'_3 
REMARK    2  A    between atoms: C2'_3  and  C1'_4 
REMARK    3  A    between atoms: C1'_4  and  C1_5 
ROOT
ATOM      1  C1  N4B d   1      -4.844  -2.817   0.933  0.00  0.00    -0.075 A 
ATOM      2  C2  N4B d   1      -4.818  -3.115   2.313  0.00  0.00     0.002 A 
ATOM      3  C3  N4B d   1      -5.386  -4.277   2.776  0.00  0.00     0.002 A 
ATOM      4  C4  N4B d   1      -6.000  -5.143   1.883  0.00  0.00    -0.004 A 
ATOM      5  C5  N4B d   1      -5.998  -4.860   0.548  0.00  0.00     0.002 A 
ATOM      6  C6  N4B d   1      -5.428  -3.698   0.069  0.00  0.00     0.002 A 
ENDROOT
BRANCH   1   7
ATOM      7  C1' N4B d   1      -4.312  -1.518   0.391  0.00  0.00     0.057 C 
BRANCH   7   8
ATOM      8  C2' N4B d   1      -5.323  -0.934  -0.591  0.00  0.00     0.009 C 
BRANCH   8   9
ATOM      9  C3' N4B d   1      -4.814   0.342  -1.239  0.00  0.00     0.004 C 
ATOM     10  C4' N4B d   1      -4.982   1.546  -0.361  0.00  0.00     0.003 C 
ENDBRANCH   8   9
ENDBRANCH   7   8
ENDBRANCH   1   7
TORSDOF 3
ENDMDL
