MODEL 1
REMARK minimizedAffinity 2.34839487
REMARK minimizedRMSD -1
REMARK  3 active torsions:
REMARK  status: ('A' for Active; 'I' for Inactive)
REMARK    1  A    between atoms: C3'_2  and  C2'_3 
REMARK    2  A    between atoms: C2'_3  and  C1'_4 
REMARK    3  A    between atoms: C1'_4  and  C1_5 
ROOT
ATOM      1  C1  N4B d   1       2.541   0.820   0.230  0.00  0.00    -0.075 A 
ATOM      2  C2  N4B d   1       2.516   2.195   0.554  0.00  0.00     0.002 A 
ATOM      3  C3  N4B d   1       2.941   3.124  -0.364  0.00  0.00     0.002 A 
ATOM      4  C4  N4B d   1       3.410   2.703  -1.599  0.00  0.00    -0.004 A 
ATOM      5  C5  N4B d   1       3.407   1.376  -1.913  0.00  0.00     0.002 A 
ATOM      6  C6  N4B d   1       2.979   0.431  -1.002  0.00  0.00     0.002 A 
ENDROOT
BRANCH   1   7
ATOM      7  C1' N4B d   1       2.168  -0.238   1.232  0.00  0.00     0.057 C 
BRANCH   7   8
ATOM      8  C2' N4B d   1       2.763  -1.573   0.795  0.00  0.00     0.009 C 
BRANCH   8   9
ATOM      9  C3' N4B d   1       1.739  -2.694   0.840  0.00  0.00     0.004 C 
ATOM     10  C4' N4B d   1       2.297  -4.010   0.385  0.00  0.00     0.003 C 
ENDBRANCH   8   9
ENDBRANCH   7   8
ENDBRANCH   1   7
TORSDOF 3
ENDMDL
