MODEL 1
REMARK minimizedAffinity 1.14716959
REMARK minimizedRMSD -1
REMARK  0 active torsions:
REMARK  status: ('A' for Active; 'I' for Inactive)
ROOT
ATOM      1  C   UNL d   1       0.505  -1.331  -0.408  0.00  0.00     0.124 A 
ATOM      2  C1  UNL d   1      -0.592  -2.131  -0.124  0.00  0.00     0.062 A 
ATOM      3  C2  UNL d   1      -0.412  -3.462   0.242  0.00  0.00     0.162 A 
ATOM      4  C3  UNL d   1       0.872  -4.000   0.329  0.00  0.00    -0.034 A 
ATOM      5  C4  UNL d   1       1.971  -3.189   0.041  0.00  0.00     0.162 A 
ATOM      6  C5  UNL d   1       1.785  -1.860  -0.325  0.00  0.00     0.062 A 
ATOM      7  F   UNL d   1       2.847  -1.088  -0.599  0.00  0.00    -0.097 F 
ATOM      8  F1  UNL d   1       3.219  -3.675   0.115  0.00  0.00    -0.096 F 
ATOM      9  I   UNL d   1       1.145  -5.989   0.877  0.00  0.00    -0.060 I 
ATOM     10  F2  UNL d   1      -1.491  -4.212   0.511  0.00  0.00    -0.096 F 
ATOM     11  F3  UNL d   1      -1.830  -1.622  -0.205  0.00  0.00    -0.097 F 
ATOM     12  F4  UNL d   1       0.329  -0.051  -0.762  0.00  0.00    -0.092 F 
ENDROOT
TORSDOF 0
ENDMDL
