MODEL 1
REMARK minimizedAffinity 9.51749992
REMARK minimizedRMSD -1
REMARK  0 active torsions:
REMARK  status: ('A' for Active; 'I' for Inactive)
ROOT
ATOM      1  C   UNL d   1      -0.003  -1.148   0.505  0.00  0.00     0.124 A 
ATOM      2  C1  UNL d   1      -1.070  -1.689  -0.198  0.00  0.00     0.062 A 
ATOM      3  C2  UNL d   1      -1.090  -1.637  -1.589  0.00  0.00     0.162 A 
ATOM      4  C3  UNL d   1      -0.038  -1.042  -2.286  0.00  0.00    -0.034 A 
ATOM      5  C4  UNL d   1       1.031  -0.498  -1.572  0.00  0.00     0.162 A 
ATOM      6  C5  UNL d   1       1.046  -0.553  -0.182  0.00  0.00     0.062 A 
ATOM      7  F   UNL d   1       2.077  -0.029   0.497  0.00  0.00    -0.097 F 
ATOM      8  F1  UNL d   1       2.058   0.081  -2.210  0.00  0.00    -0.096 F 
ATOM      9  I   UNL d   1      -0.064  -0.962  -4.366  0.00  0.00    -0.060 I 
ATOM     10  F2  UNL d   1      -2.133  -2.169  -2.243  0.00  0.00    -0.096 F 
ATOM     11  F3  UNL d   1      -2.085  -2.264   0.463  0.00  0.00    -0.097 F 
ATOM     12  F4  UNL d   1       0.013  -1.198   1.843  0.00  0.00    -0.092 F 
ENDROOT
TORSDOF 0
ENDMDL
