MODEL 1
REMARK minimizedAffinity 7.26699352
REMARK minimizedRMSD -1
REMARK  0 active torsions:
REMARK  status: ('A' for Active; 'I' for Inactive)
ROOT
ATOM      1  C   UNL d   1       0.244   0.234  -2.876  0.00  0.00     0.124 A 
ATOM      2  C1  UNL d   1       0.676  -1.026  -3.269  0.00  0.00     0.062 A 
ATOM      3  C2  UNL d   1       1.449  -1.800  -2.409  0.00  0.00     0.162 A 
ATOM      4  C3  UNL d   1       1.796  -1.317  -1.147  0.00  0.00    -0.034 A 
ATOM      5  C4  UNL d   1       1.359  -0.049  -0.760  0.00  0.00     0.162 A 
ATOM      6  C5  UNL d   1       0.586   0.721  -1.623  0.00  0.00     0.062 A 
ATOM      7  F   UNL d   1       0.170   1.938  -1.242  0.00  0.00    -0.097 F 
ATOM      8  F1  UNL d   1       1.673   0.446   0.447  0.00  0.00    -0.096 F 
ATOM      9  I   UNL d   1       2.952  -2.472   0.142  0.00  0.00    -0.060 I 
ATOM     10  F2  UNL d   1       1.852  -3.013  -2.814  0.00  0.00    -0.096 F 
ATOM     11  F3  UNL d   1       0.347  -1.498  -4.480  0.00  0.00    -0.097 F 
ATOM     12  F4  UNL d   1      -0.499   0.977  -3.706  0.00  0.00    -0.092 F 
ENDROOT
TORSDOF 0
ENDMDL
