MODEL 1
REMARK minimizedAffinity -2.86824107
REMARK minimizedRMSD -1
REMARK  0 active torsions:
REMARK  status: ('A' for Active; 'I' for Inactive)
ROOT
ATOM      1  C   UNL d   1      -0.303  -3.180   0.309  0.00  0.00     0.124 A 
ATOM      2  C1  UNL d   1      -0.652  -1.902  -0.105  0.00  0.00     0.062 A 
ATOM      3  C2  UNL d   1       0.290  -1.085  -0.725  0.00  0.00     0.162 A 
ATOM      4  C3  UNL d   1       1.589  -1.545  -0.937  0.00  0.00    -0.034 A 
ATOM      5  C4  UNL d   1       1.933  -2.832  -0.518  0.00  0.00     0.162 A 
ATOM      6  C5  UNL d   1       0.989  -3.644   0.102  0.00  0.00     0.062 A 
ATOM      7  F   UNL d   1       1.328  -4.878   0.500  0.00  0.00    -0.097 F 
ATOM      8  F1  UNL d   1       3.174  -3.305  -0.706  0.00  0.00    -0.096 F 
ATOM      9  I   UNL d   1       3.000  -0.328  -1.864  0.00  0.00    -0.060 I 
ATOM     10  F2  UNL d   1      -0.075   0.145  -1.114  0.00  0.00    -0.096 F 
ATOM     11  F3  UNL d   1      -1.899  -1.451   0.095  0.00  0.00    -0.097 F 
ATOM     12  F4  UNL d   1      -1.210  -3.963   0.906  0.00  0.00    -0.092 F 
ENDROOT
TORSDOF 0
ENDMDL
