MODEL 1
REMARK minimizedAffinity 0.800777793
REMARK minimizedRMSD -1
REMARK  0 active torsions:
REMARK  status: ('A' for Active; 'I' for Inactive)
ROOT
ATOM      1  C   UNL d   1       0.529  -1.395  -1.277  0.00  0.00     0.124 A 
ATOM      2  C1  UNL d   1       1.830  -1.695  -0.897  0.00  0.00     0.062 A 
ATOM      3  C2  UNL d   1       2.102  -2.868  -0.199  0.00  0.00     0.162 A 
ATOM      4  C3  UNL d   1       1.071  -3.750   0.125  0.00  0.00    -0.034 A 
ATOM      5  C4  UNL d   1      -0.235  -3.441  -0.259  0.00  0.00     0.162 A 
ATOM      6  C5  UNL d   1      -0.502  -2.267  -0.957  0.00  0.00     0.062 A 
ATOM      7  F   UNL d   1      -1.760  -1.979  -1.323  0.00  0.00    -0.097 F 
ATOM      8  F1  UNL d   1      -1.250  -4.266   0.035  0.00  0.00    -0.096 F 
ATOM      9  I   UNL d   1       1.474  -5.505   1.169  0.00  0.00    -0.060 I 
ATOM     10  F2  UNL d   1       3.368  -3.133   0.155  0.00  0.00    -0.096 F 
ATOM     11  F3  UNL d   1       2.827  -0.853  -1.204  0.00  0.00    -0.097 F 
ATOM     12  F4  UNL d   1       0.270  -0.265  -1.948  0.00  0.00    -0.092 F 
ENDROOT
TORSDOF 0
ENDMDL
