MODEL 1
REMARK minimizedAffinity 20.3202171
REMARK minimizedRMSD -1
REMARK  0 active torsions:
REMARK  status: ('A' for Active; 'I' for Inactive)
ROOT
ATOM      1  C   UNL d   1      -3.561   0.468   4.030  0.00  0.00     0.124 A 
ATOM      2  C1  UNL d   1      -2.555  -0.352   4.522  0.00  0.00     0.062 A 
ATOM      3  C2  UNL d   1      -2.684  -1.736   4.455  0.00  0.00     0.162 A 
ATOM      4  C3  UNL d   1      -3.825  -2.310   3.893  0.00  0.00    -0.034 A 
ATOM      5  C4  UNL d   1      -4.833  -1.479   3.402  0.00  0.00     0.162 A 
ATOM      6  C5  UNL d   1      -4.699  -0.097   3.470  0.00  0.00     0.062 A 
ATOM      7  F   UNL d   1      -5.673   0.694   2.994  0.00  0.00    -0.097 F 
ATOM      8  F1  UNL d   1      -5.943  -1.998   2.855  0.00  0.00    -0.096 F 
ATOM      9  I   UNL d   1      -4.022  -4.380   3.792  0.00  0.00    -0.060 I 
ATOM     10  F2  UNL d   1      -1.696  -2.504   4.938  0.00  0.00    -0.096 F 
ATOM     11  F3  UNL d   1      -1.455   0.191   5.063  0.00  0.00    -0.097 F 
ATOM     12  F4  UNL d   1      -3.435   1.799   4.096  0.00  0.00    -0.092 F 
ENDROOT
TORSDOF 0
ENDMDL
