MODEL 1
REMARK minimizedAffinity -1.62397802
REMARK minimizedRMSD -1
REMARK  0 active torsions:
REMARK  status: ('A' for Active; 'I' for Inactive)
ROOT
ATOM      1  C   UNL d   1       0.547  -0.946  -0.588  0.00  0.00     0.124 A 
ATOM      2  C1  UNL d   1      -0.541  -1.763  -0.316  0.00  0.00     0.062 A 
ATOM      3  C2  UNL d   1      -0.343  -3.081   0.087  0.00  0.00     0.162 A 
ATOM      4  C3  UNL d   1       0.949  -3.589   0.222  0.00  0.00    -0.034 A 
ATOM      5  C4  UNL d   1       2.038  -2.761  -0.054  0.00  0.00     0.162 A 
ATOM      6  C5  UNL d   1       1.835  -1.445  -0.457  0.00  0.00     0.062 A 
ATOM      7  F   UNL d   1       2.888  -0.656  -0.719  0.00  0.00    -0.097 F 
ATOM      8  F1  UNL d   1       3.294  -3.217   0.065  0.00  0.00    -0.096 F 
ATOM      9  I   UNL d   1       1.249  -5.558   0.825  0.00  0.00    -0.060 I 
ATOM     10  F2  UNL d   1      -1.413  -3.848   0.343  0.00  0.00    -0.096 F 
ATOM     11  F3  UNL d   1      -1.786  -1.284  -0.443  0.00  0.00    -0.097 F 
ATOM     12  F4  UNL d   1       0.354   0.321  -0.976  0.00  0.00    -0.092 F 
ENDROOT
TORSDOF 0
ENDMDL
