MODEL 1
REMARK minimizedAffinity 3.55423951
REMARK minimizedRMSD -1
REMARK  0 active torsions:
REMARK  status: ('A' for Active; 'I' for Inactive)
ROOT
ATOM      1  C   UNL d   1      -0.010  -0.725  -0.855  0.00  0.00     0.124 A 
ATOM      2  C1  UNL d   1      -0.960  -1.735  -0.792  0.00  0.00     0.062 A 
ATOM      3  C2  UNL d   1      -0.622  -2.983  -0.277  0.00  0.00     0.162 A 
ATOM      4  C3  UNL d   1       0.673  -3.228   0.181  0.00  0.00    -0.034 A 
ATOM      5  C4  UNL d   1       1.623  -2.208   0.114  0.00  0.00     0.162 A 
ATOM      6  C5  UNL d   1       1.280  -0.962  -0.402  0.00  0.00     0.062 A 
ATOM      7  F   UNL d   1       2.199   0.012  -0.463  0.00  0.00    -0.097 F 
ATOM      8  F1  UNL d   1       2.877  -2.409   0.545  0.00  0.00    -0.096 F 
ATOM      9  I   UNL d   1       1.182  -5.092   0.953  0.00  0.00    -0.060 I 
ATOM     10  F2  UNL d   1      -1.560  -3.940  -0.228  0.00  0.00    -0.096 F 
ATOM     11  F3  UNL d   1      -2.207  -1.509  -1.230  0.00  0.00    -0.097 F 
ATOM     12  F4  UNL d   1      -0.338   0.474  -1.353  0.00  0.00    -0.092 F 
ENDROOT
TORSDOF 0
ENDMDL
