MODEL 1
REMARK minimizedAffinity 2.76970744
REMARK minimizedRMSD -1
REMARK  0 active torsions:
REMARK  status: ('A' for Active; 'I' for Inactive)
ROOT
ATOM      1  C   UNL d   1       0.608  -1.536  -0.525  0.00  0.00     0.124 A 
ATOM      2  C1  UNL d   1       1.900  -2.040  -0.577  0.00  0.00     0.062 A 
ATOM      3  C2  UNL d   1       2.177  -3.310  -0.077  0.00  0.00     0.162 A 
ATOM      4  C3  UNL d   1       1.158  -4.085   0.477  0.00  0.00    -0.034 A 
ATOM      5  C4  UNL d   1      -0.139  -3.571   0.526  0.00  0.00     0.162 A 
ATOM      6  C5  UNL d   1      -0.410  -2.302   0.026  0.00  0.00     0.062 A 
ATOM      7  F   UNL d   1      -1.659  -1.816   0.077  0.00  0.00    -0.097 F 
ATOM      8  F1  UNL d   1      -1.141  -4.290   1.053  0.00  0.00    -0.096 F 
ATOM      9  I   UNL d   1       1.568  -5.984   1.225  0.00  0.00    -0.060 I 
ATOM     10  F2  UNL d   1       3.434  -3.771  -0.140  0.00  0.00    -0.096 F 
ATOM     11  F3  UNL d   1       2.886  -1.302  -1.108  0.00  0.00    -0.097 F 
ATOM     12  F4  UNL d   1       0.345  -0.314  -1.005  0.00  0.00    -0.092 F 
ENDROOT
TORSDOF 0
ENDMDL
