MODEL 1
REMARK minimizedAffinity 5.60497475
REMARK minimizedRMSD -1
REMARK  0 active torsions:
REMARK  status: ('A' for Active; 'I' for Inactive)
ROOT
ATOM      1  C   UNL d   1       0.076  -0.907  -0.948  0.00  0.00     0.124 A 
ATOM      2  C1  UNL d   1      -0.929  -1.846  -0.760  0.00  0.00     0.062 A 
ATOM      3  C2  UNL d   1      -0.637  -3.075  -0.176  0.00  0.00     0.162 A 
ATOM      4  C3  UNL d   1       0.665  -3.373   0.225  0.00  0.00    -0.034 A 
ATOM      5  C4  UNL d   1       1.670  -2.423   0.032  0.00  0.00     0.162 A 
ATOM      6  C5  UNL d   1       1.374  -1.196  -0.552  0.00  0.00     0.062 A 
ATOM      7  F   UNL d   1       2.346  -0.290  -0.733  0.00  0.00    -0.097 F 
ATOM      8  F1  UNL d   1       2.933  -2.677   0.406  0.00  0.00    -0.096 F 
ATOM      9  I   UNL d   1       1.105  -5.210   1.098  0.00  0.00    -0.060 I 
ATOM     10  F2  UNL d   1      -1.628  -3.964  -0.006  0.00  0.00    -0.096 F 
ATOM     11  F3  UNL d   1      -2.184  -1.569  -1.142  0.00  0.00    -0.097 F 
ATOM     12  F4  UNL d   1      -0.208   0.275  -1.511  0.00  0.00    -0.092 F 
ENDROOT
TORSDOF 0
ENDMDL
