MODEL 1
REMARK minimizedAffinity 8.17454815
REMARK minimizedRMSD -1
REMARK  0 active torsions:
REMARK  status: ('A' for Active; 'I' for Inactive)
ROOT
ATOM      1  C   UNL d   1       0.692  -1.166  -0.793  0.00  0.00     0.124 A 
ATOM      2  C1  UNL d   1      -0.360  -1.914  -0.284  0.00  0.00     0.062 A 
ATOM      3  C2  UNL d   1      -0.114  -3.129   0.350  0.00  0.00     0.162 A 
ATOM      4  C3  UNL d   1       1.192  -3.603   0.479  0.00  0.00    -0.034 A 
ATOM      5  C4  UNL d   1       2.245  -2.846  -0.037  0.00  0.00     0.162 A 
ATOM      6  C5  UNL d   1       1.993  -1.632  -0.670  0.00  0.00     0.062 A 
ATOM      7  F   UNL d   1       3.011  -0.911  -1.162  0.00  0.00    -0.097 F 
ATOM      8  F1  UNL d   1       3.512  -3.272   0.069  0.00  0.00    -0.096 F 
ATOM      9  I   UNL d   1       1.565  -5.418   1.425  0.00  0.00    -0.060 I 
ATOM     10  F2  UNL d   1      -1.150  -3.830   0.833  0.00  0.00    -0.096 F 
ATOM     11  F3  UNL d   1      -1.619  -1.466  -0.403  0.00  0.00    -0.097 F 
ATOM     12  F4  UNL d   1       0.452   0.001  -1.404  0.00  0.00    -0.092 F 
ENDROOT
TORSDOF 0
ENDMDL
