MODEL 1
REMARK minimizedAffinity -0.897455215
REMARK minimizedRMSD -1
REMARK  0 active torsions:
REMARK  status: ('A' for Active; 'I' for Inactive)
ROOT
ATOM      1  C   UNL d   1       0.302  -0.818  -0.883  0.00  0.00     0.124 A 
ATOM      2  C1  UNL d   1      -0.714  -1.679  -0.493  0.00  0.00     0.062 A 
ATOM      3  C2  UNL d   1      -0.414  -2.842   0.211  0.00  0.00     0.162 A 
ATOM      4  C3  UNL d   1       0.909  -3.150   0.530  0.00  0.00    -0.034 A 
ATOM      5  C4  UNL d   1       1.925  -2.279   0.133  0.00  0.00     0.162 A 
ATOM      6  C5  UNL d   1       1.620  -1.118  -0.569  0.00  0.00     0.062 A 
ATOM      7  F   UNL d   1       2.603  -0.287  -0.945  0.00  0.00    -0.097 F 
ATOM      8  F1  UNL d   1       3.208  -2.545   0.424  0.00  0.00    -0.096 F 
ATOM      9  I   UNL d   1       1.362  -4.888   1.582  0.00  0.00    -0.060 I 
ATOM     10  F2  UNL d   1      -1.415  -3.657   0.575  0.00  0.00    -0.096 F 
ATOM     11  F3  UNL d   1      -1.988  -1.392  -0.795  0.00  0.00    -0.097 F 
ATOM     12  F4  UNL d   1       0.011   0.300  -1.560  0.00  0.00    -0.092 F 
ENDROOT
TORSDOF 0
ENDMDL
