MODEL 1
REMARK minimizedAffinity 4.25136042
REMARK minimizedRMSD -1
REMARK  0 active torsions:
REMARK  status: ('A' for Active; 'I' for Inactive)
ROOT
ATOM      1  C   UNL d   1      -4.746  -0.190   2.225  0.00  0.00     0.124 A 
ATOM      2  C1  UNL d   1      -5.090  -0.023   0.890  0.00  0.00     0.062 A 
ATOM      3  C2  UNL d   1      -4.639   1.090   0.186  0.00  0.00     0.162 A 
ATOM      4  C3  UNL d   1      -3.839   2.044   0.813  0.00  0.00    -0.034 A 
ATOM      5  C4  UNL d   1      -3.498   1.870   2.156  0.00  0.00     0.162 A 
ATOM      6  C5  UNL d   1      -3.951   0.756   2.856  0.00  0.00     0.062 A 
ATOM      7  F   UNL d   1      -3.617   0.596   4.145  0.00  0.00    -0.097 F 
ATOM      8  F1  UNL d   1      -2.730   2.768   2.790  0.00  0.00    -0.096 F 
ATOM      9  I   UNL d   1      -3.164   3.709  -0.237  0.00  0.00    -0.060 I 
ATOM     10  F2  UNL d   1      -4.987   1.225  -1.103  0.00  0.00    -0.096 F 
ATOM     11  F3  UNL d   1      -5.858  -0.935   0.278  0.00  0.00    -0.097 F 
ATOM     12  F4  UNL d   1      -5.181  -1.261   2.901  0.00  0.00    -0.092 F 
ENDROOT
TORSDOF 0
ENDMDL
