MODEL 1
REMARK minimizedAffinity 3.46706557
REMARK minimizedRMSD -1
REMARK  0 active torsions:
REMARK  status: ('A' for Active; 'I' for Inactive)
ROOT
ATOM      1  C   UNL d   1       2.555   4.155   1.475  0.00  0.00     0.077 C 
ATOM      2  C1  UNL d   1       2.330   2.890   0.701  0.00  0.00    -0.074 A 
ATOM      3  C2  UNL d   1       2.823   2.746  -0.600  0.00  0.00    -0.005 A 
ATOM      4  C3  UNL d   1       2.614   1.560  -1.304  0.00  0.00     0.006 A 
ATOM      5  C4  UNL d   1       1.912   0.508  -0.715  0.00  0.00    -0.005 A 
ATOM      6  C5  UNL d   1       1.412   0.633   0.585  0.00  0.00    -0.074 A 
ATOM      7  C6  UNL d   1       0.663  -0.492   1.236  0.00  0.00     0.077 C 
ATOM      8  C7  UNL d   1       1.632   1.825   1.289  0.00  0.00    -0.001 A 
ENDROOT
TORSDOF 0
ENDMDL
