MODEL 1
REMARK minimizedAffinity -5.21109438
REMARK minimizedRMSD -1
REMARK  0 active torsions:
REMARK  status: ('A' for Active; 'I' for Inactive)
ROOT
ATOM      1  C   UNL d   1       2.166  -1.452  -3.145  0.00  0.00     0.077 C 
ATOM      2  C1  UNL d   1       1.469  -0.788  -1.995  0.00  0.00    -0.074 A 
ATOM      3  C2  UNL d   1       0.657  -1.524  -1.125  0.00  0.00    -0.005 A 
ATOM      4  C3  UNL d   1       0.022  -0.895  -0.055  0.00  0.00     0.006 A 
ATOM      5  C4  UNL d   1       0.193   0.474   0.158  0.00  0.00    -0.005 A 
ATOM      6  C5  UNL d   1       1.001   1.226  -0.701  0.00  0.00    -0.074 A 
ATOM      7  C6  UNL d   1       1.203   2.696  -0.481  0.00  0.00     0.077 C 
ATOM      8  C7  UNL d   1       1.641   0.585  -1.770  0.00  0.00    -0.001 A 
ENDROOT
TORSDOF 0
ENDMDL
