MODEL 1
REMARK minimizedAffinity -5.45725441
REMARK minimizedRMSD -1
REMARK  0 active torsions:
REMARK  status: ('A' for Active; 'I' for Inactive)
ROOT
ATOM      1  C   UNL d   1       2.012  -2.572  -2.326  0.00  0.00     0.077 C 
ATOM      2  C1  UNL d   1       1.563  -1.247  -1.784  0.00  0.00    -0.074 A 
ATOM      3  C2  UNL d   1       1.970  -0.050  -2.383  0.00  0.00    -0.005 A 
ATOM      4  C3  UNL d   1       1.536   1.174  -1.874  0.00  0.00     0.006 A 
ATOM      5  C4  UNL d   1       0.692   1.213  -0.763  0.00  0.00    -0.005 A 
ATOM      6  C5  UNL d   1       0.275   0.027  -0.151  0.00  0.00    -0.074 A 
ATOM      7  C6  UNL d   1      -0.639   0.052   1.037  0.00  0.00     0.077 C 
ATOM      8  C7  UNL d   1       0.709  -1.199  -0.673  0.00  0.00    -0.001 A 
ENDROOT
TORSDOF 0
ENDMDL
