MODEL 1
REMARK minimizedAffinity -5.80299616
REMARK minimizedRMSD -1
REMARK  0 active torsions:
REMARK  status: ('A' for Active; 'I' for Inactive)
ROOT
ATOM      1  C   UNL d   1       1.570  -2.340  -2.392  0.00  0.00     0.077 C 
ATOM      2  C1  UNL d   1       1.270  -1.110  -1.588  0.00  0.00    -0.074 A 
ATOM      3  C2  UNL d   1       1.846   0.122  -1.916  0.00  0.00    -0.005 A 
ATOM      4  C3  UNL d   1       1.550   1.259  -1.165  0.00  0.00     0.006 A 
ATOM      5  C4  UNL d   1       0.677   1.177  -0.080  0.00  0.00    -0.005 A 
ATOM      6  C5  UNL d   1       0.090  -0.046   0.262  0.00  0.00    -0.074 A 
ATOM      7  C6  UNL d   1      -0.858  -0.150   1.420  0.00  0.00     0.077 C 
ATOM      8  C7  UNL d   1       0.387  -1.183  -0.502  0.00  0.00    -0.001 A 
ENDROOT
TORSDOF 0
ENDMDL
