MODEL 1
REMARK minimizedAffinity -1.38448322
REMARK minimizedRMSD -1
REMARK  0 active torsions:
REMARK  status: ('A' for Active; 'I' for Inactive)
ROOT
ATOM      1  C   UNL d   1       0.293  -3.318   0.056  0.00  0.00     0.077 C 
ATOM      2  C1  UNL d   1       0.417  -1.824   0.086  0.00  0.00    -0.074 A 
ATOM      3  C2  UNL d   1      -0.176  -1.074   1.108  0.00  0.00    -0.005 A 
ATOM      4  C3  UNL d   1      -0.045   0.314   1.128  0.00  0.00     0.006 A 
ATOM      5  C4  UNL d   1       0.679   0.966   0.129  0.00  0.00    -0.005 A 
ATOM      6  C5  UNL d   1       1.279   0.234  -0.900  0.00  0.00    -0.074 A 
ATOM      7  C6  UNL d   1       2.068   0.918  -1.976  0.00  0.00     0.077 C 
ATOM      8  C7  UNL d   1       1.148  -1.162  -0.910  0.00  0.00    -0.001 A 
ENDROOT
TORSDOF 0
ENDMDL
