MODEL 1
REMARK minimizedAffinity -4.85797501
REMARK minimizedRMSD -1
REMARK  0 active torsions:
REMARK  status: ('A' for Active; 'I' for Inactive)
ROOT
ATOM      1  C   UNL d   1       1.531  -3.930  -1.170  0.00  0.00     0.077 C 
ATOM      2  C1  UNL d   1       1.164  -2.478  -1.250  0.00  0.00    -0.074 A 
ATOM      3  C2  UNL d   1       1.474  -1.719  -2.384  0.00  0.00    -0.005 A 
ATOM      4  C3  UNL d   1       1.118  -0.372  -2.447  0.00  0.00     0.006 A 
ATOM      5  C4  UNL d   1       0.450   0.229  -1.380  0.00  0.00    -0.005 A 
ATOM      6  C5  UNL d   1       0.131  -0.514  -0.239  0.00  0.00    -0.074 A 
ATOM      7  C6  UNL d   1      -0.596   0.115   0.912  0.00  0.00     0.077 C 
ATOM      8  C7  UNL d   1       0.485  -1.868  -0.186  0.00  0.00    -0.001 A 
ENDROOT
TORSDOF 0
ENDMDL
