MODEL 1
REMARK minimizedAffinity -4.83518171
REMARK minimizedRMSD -1
REMARK  0 active torsions:
REMARK  status: ('A' for Active; 'I' for Inactive)
ROOT
ATOM      1  C   UNL d   1       1.954   0.740  -2.154  0.00  0.00     0.077 C 
ATOM      2  C1  UNL d   1       1.011  -0.148  -1.399  0.00  0.00    -0.074 A 
ATOM      3  C2  UNL d   1       0.993  -1.530  -1.618  0.00  0.00    -0.005 A 
ATOM      4  C3  UNL d   1       0.117  -2.345  -0.901  0.00  0.00     0.006 A 
ATOM      5  C4  UNL d   1      -0.749  -1.788   0.041  0.00  0.00    -0.005 A 
ATOM      6  C5  UNL d   1      -0.745  -0.409   0.274  0.00  0.00    -0.074 A 
ATOM      7  C6  UNL d   1      -1.663   0.205   1.290  0.00  0.00     0.077 C 
ATOM      8  C7  UNL d   1       0.143   0.403  -0.445  0.00  0.00    -0.001 A 
ENDROOT
TORSDOF 0
ENDMDL
