MODEL 1
REMARK minimizedAffinity -5.06526947
REMARK minimizedRMSD -1
REMARK  0 active torsions:
REMARK  status: ('A' for Active; 'I' for Inactive)
ROOT
ATOM      1  C   UNL d   1      -0.897   0.337   1.407  0.00  0.00     0.077 C 
ATOM      2  C1  UNL d   1       0.142   0.387   0.327  0.00  0.00    -0.074 A 
ATOM      3  C2  UNL d   1       0.706   1.604  -0.072  0.00  0.00    -0.005 A 
ATOM      4  C3  UNL d   1       1.679   1.634  -1.072  0.00  0.00     0.006 A 
ATOM      5  C4  UNL d   1       2.096   0.450  -1.682  0.00  0.00    -0.005 A 
ATOM      6  C5  UNL d   1       1.544  -0.775  -1.296  0.00  0.00    -0.074 A 
ATOM      7  C6  UNL d   1       1.989  -2.057  -1.934  0.00  0.00     0.077 C 
ATOM      8  C7  UNL d   1       0.573  -0.798  -0.286  0.00  0.00    -0.001 A 
ENDROOT
TORSDOF 0
ENDMDL
