MODEL 1
REMARK minimizedAffinity -5.89742899
REMARK minimizedRMSD -1
REMARK  0 active torsions:
REMARK  status: ('A' for Active; 'I' for Inactive)
ROOT
ATOM      1  C   UNL d   1      -0.778  -0.001   1.016  0.00  0.00     0.077 C 
ATOM      2  C1  UNL d   1       0.045  -0.546  -0.113  0.00  0.00    -0.074 A 
ATOM      3  C2  UNL d   1       0.110  -1.922  -0.356  0.00  0.00    -0.005 A 
ATOM      4  C3  UNL d   1       0.872  -2.413  -1.416  0.00  0.00     0.006 A 
ATOM      5  C4  UNL d   1       1.575  -1.536  -2.242  0.00  0.00    -0.005 A 
ATOM      6  C5  UNL d   1       1.522  -0.157  -2.015  0.00  0.00    -0.074 A 
ATOM      7  C6  UNL d   1       2.264   0.801  -2.899  0.00  0.00     0.077 C 
ATOM      8  C7  UNL d   1       0.748   0.330  -0.952  0.00  0.00    -0.001 A 
ENDROOT
TORSDOF 0
ENDMDL
