MODEL 1
REMARK minimizedAffinity -4.32516623
REMARK minimizedRMSD -1
REMARK  0 active torsions:
REMARK  status: ('A' for Active; 'I' for Inactive)
ROOT
ATOM      1  C   UNL d   1       1.917  -0.825  -3.335  0.00  0.00     0.077 C 
ATOM      2  C1  UNL d   1       1.278  -0.980  -1.987  0.00  0.00    -0.074 A 
ATOM      3  C2  UNL d   1       1.072  -2.247  -1.430  0.00  0.00    -0.005 A 
ATOM      4  C3  UNL d   1       0.486  -2.375  -0.171  0.00  0.00     0.006 A 
ATOM      5  C4  UNL d   1       0.099  -1.240   0.543  0.00  0.00    -0.005 A 
ATOM      6  C5  UNL d   1       0.297   0.034   0.003  0.00  0.00    -0.074 A 
ATOM      7  C6  UNL d   1      -0.104   1.265   0.761  0.00  0.00     0.077 C 
ATOM      8  C7  UNL d   1       0.894   0.155  -1.260  0.00  0.00    -0.001 A 
ENDROOT
TORSDOF 0
ENDMDL
