MODEL 1
REMARK minimizedAffinity -6.48141432
REMARK minimizedRMSD -1
REMARK  0 active torsions:
REMARK  status: ('A' for Active; 'I' for Inactive)
ROOT
ATOM      1  C   UNL d   1       0.205  -2.519   0.777  0.00  0.00     0.077 C 
ATOM      2  C1  UNL d   1       0.618  -1.562  -0.302  0.00  0.00    -0.074 A 
ATOM      3  C2  UNL d   1       0.911  -2.016  -1.592  0.00  0.00    -0.005 A 
ATOM      4  C3  UNL d   1       1.284  -1.113  -2.588  0.00  0.00     0.006 A 
ATOM      5  C4  UNL d   1       1.369   0.250  -2.304  0.00  0.00    -0.005 A 
ATOM      6  C5  UNL d   1       1.079   0.723  -1.020  0.00  0.00    -0.074 A 
ATOM      7  C6  UNL d   1       1.155   2.187  -0.701  0.00  0.00     0.077 C 
ATOM      8  C7  UNL d   1       0.697  -0.190  -0.027  0.00  0.00    -0.001 A 
ENDROOT
TORSDOF 0
ENDMDL
