MODEL 1
REMARK minimizedAffinity 21.0094776
REMARK minimizedRMSD -1
REMARK  0 active torsions:
REMARK  status: ('A' for Active; 'I' for Inactive)
ROOT
ATOM      1  C4' PXY d   1       1.098  -5.636  -5.274  0.00  0.00     0.077 C 
ATOM      2  C1' PXY d   1       0.260   0.082  -5.379  0.00  0.00     0.077 C 
ATOM      3  C1  PXY d   1       0.467  -1.419  -5.353  0.00  0.00    -0.082 A 
ATOM      4  C2  PXY d   1       1.507  -1.925  -4.712  0.00  0.00     0.003 A 
ATOM      5  C3  PXY d   1       1.727  -3.279  -4.706  0.00  0.00     0.003 A 
ATOM      6  C4  PXY d   1       0.844  -4.127  -5.318  0.00  0.00    -0.082 A 
ATOM      7  C5  PXY d   1      -0.226  -3.619  -5.966  0.00  0.00     0.003 A 
ATOM      8  C6  PXY d   1      -0.409  -2.240  -5.995  0.00  0.00     0.003 A 
ENDROOT
TORSDOF 0
ENDMDL
