MODEL 1
REMARK minimizedAffinity 5.95839453
REMARK minimizedRMSD -1
REMARK  0 active torsions:
REMARK  status: ('A' for Active; 'I' for Inactive)
ROOT
ATOM      1  C4' PXY d   1       4.159   6.000   1.466  0.00  0.00     0.077 C 
ATOM      2  C1' PXY d   1       5.548   1.237   4.433  0.00  0.00     0.077 C 
ATOM      3  C1  PXY d   1       5.184   2.493   3.666  0.00  0.00    -0.082 A 
ATOM      4  C2  PXY d   1       4.533   2.393   2.519  0.00  0.00     0.003 A 
ATOM      5  C3  PXY d   1       4.224   3.517   1.796  0.00  0.00     0.003 A 
ATOM      6  C4  PXY d   1       4.538   4.759   2.279  0.00  0.00    -0.082 A 
ATOM      7  C5  PXY d   1       5.193   4.870   3.455  0.00  0.00     0.003 A 
ATOM      8  C6  PXY d   1       5.533   3.715   4.153  0.00  0.00     0.003 A 
ENDROOT
TORSDOF 0
ENDMDL
