MODEL 1
REMARK minimizedAffinity 9.1140337
REMARK minimizedRMSD -1
REMARK  0 active torsions:
REMARK  status: ('A' for Active; 'I' for Inactive)
ROOT
ATOM      1  C4' PXY d   1      -2.021  -1.982  -0.822  0.00  0.00     0.077 C 
ATOM      2  C1' PXY d   1       0.067  -0.361  -5.963  0.00  0.00     0.077 C 
ATOM      3  C1  PXY d   1      -0.493  -0.788  -4.620  0.00  0.00    -0.082 A 
ATOM      4  C2  PXY d   1       0.130  -0.430  -3.508  0.00  0.00     0.003 A 
ATOM      5  C3  PXY d   1      -0.344  -0.834  -2.287  0.00  0.00     0.003 A 
ATOM      6  C4  PXY d   1      -1.498  -1.566  -2.199  0.00  0.00    -0.082 A 
ATOM      7  C5  PXY d   1      -2.145  -1.926  -3.328  0.00  0.00     0.003 A 
ATOM      8  C6  PXY d   1      -1.624  -1.541  -4.560  0.00  0.00     0.003 A 
ENDROOT
TORSDOF 0
ENDMDL
