MODEL 1
REMARK minimizedAffinity 14.2487392
REMARK minimizedRMSD -1
REMARK  0 active torsions:
REMARK  status: ('A' for Active; 'I' for Inactive)
ROOT
ATOM      1  C4' PXY d   1       5.937   3.836  -5.999  0.00  0.00     0.077 C 
ATOM      2  C1' PXY d   1       3.276  -1.188  -4.956  0.00  0.00     0.077 C 
ATOM      3  C1  PXY d   1       3.984   0.125  -5.224  0.00  0.00    -0.082 A 
ATOM      4  C2  PXY d   1       3.274   1.225  -5.410  0.00  0.00     0.003 A 
ATOM      5  C3  PXY d   1       3.897   2.415  -5.685  0.00  0.00     0.003 A 
ATOM      6  C4  PXY d   1       5.264   2.490  -5.717  0.00  0.00    -0.082 A 
ATOM      7  C5  PXY d   1       5.996   1.374  -5.517  0.00  0.00     0.003 A 
ATOM      8  C6  PXY d   1       5.343   0.168  -5.281  0.00  0.00     0.003 A 
ENDROOT
TORSDOF 0
ENDMDL
