MODEL 1
REMARK minimizedAffinity 16.2629147
REMARK minimizedRMSD -1
REMARK  0 active torsions:
REMARK  status: ('A' for Active; 'I' for Inactive)
ROOT
ATOM      1  C4' PXY d   1      -1.714  -2.075  -1.467  0.00  0.00     0.077 C 
ATOM      2  C1' PXY d   1       0.499   0.467   3.229  0.00  0.00     0.077 C 
ATOM      3  C1  PXY d   1      -0.092  -0.202   2.004  0.00  0.00    -0.082 A 
ATOM      4  C2  PXY d   1       0.711  -0.679   1.067  0.00  0.00     0.003 A 
ATOM      5  C3  PXY d   1       0.193  -1.259  -0.062  0.00  0.00     0.003 A 
ATOM      6  C4  PXY d   1      -1.161  -1.400  -0.209  0.00  0.00    -0.082 A 
ATOM      7  C5  PXY d   1      -1.987  -0.925   0.747  0.00  0.00     0.003 A 
ATOM      8  C6  PXY d   1      -1.442  -0.303   1.866  0.00  0.00     0.003 A 
ENDROOT
TORSDOF 0
ENDMDL
