MODEL 1
REMARK minimizedAffinity 11.7486744
REMARK minimizedRMSD -1
REMARK  0 active torsions:
REMARK  status: ('A' for Active; 'I' for Inactive)
ROOT
ATOM      1  C4' PXY d   1      -0.000   2.996   6.000  0.00  0.00     0.077 C 
ATOM      2  C1' PXY d   1       0.525  -0.857   1.723  0.00  0.00     0.077 C 
ATOM      3  C1  PXY d   1       0.389   0.144   2.853  0.00  0.00    -0.082 A 
ATOM      4  C2  PXY d   1      -0.290   1.263   2.658  0.00  0.00     0.003 A 
ATOM      5  C3  PXY d   1      -0.395   2.193   3.660  0.00  0.00     0.003 A 
ATOM      6  C4  PXY d   1       0.155   1.952   4.890  0.00  0.00    -0.082 A 
ATOM      7  C5  PXY d   1       0.840   0.809   5.100  0.00  0.00     0.003 A 
ATOM      8  C6  PXY d   1       0.971  -0.105   4.058  0.00  0.00     0.003 A 
ENDROOT
TORSDOF 0
ENDMDL
