MODEL 1
REMARK minimizedAffinity 16.8496132
REMARK minimizedRMSD -1
REMARK  0 active torsions:
REMARK  status: ('A' for Active; 'I' for Inactive)
ROOT
ATOM      1  C4' PXY d   1      -1.292   2.652   1.866  0.00  0.00     0.077 C 
ATOM      2  C1' PXY d   1       1.909  -1.855   3.559  0.00  0.00     0.077 C 
ATOM      3  C1  PXY d   1       1.068  -0.678   3.103  0.00  0.00    -0.082 A 
ATOM      4  C2  PXY d   1       1.213   0.497   3.693  0.00  0.00     0.003 A 
ATOM      5  C3  PXY d   1       0.438   1.563   3.315  0.00  0.00     0.003 A 
ATOM      6  C4  PXY d   1      -0.457   1.439   2.287  0.00  0.00    -0.082 A 
ATOM      7  C5  PXY d   1      -0.603   0.246   1.672  0.00  0.00     0.003 A 
ATOM      8  C6  PXY d   1       0.163  -0.835   2.099  0.00  0.00     0.003 A 
ENDROOT
TORSDOF 0
ENDMDL
