MODEL 1
REMARK minimizedAffinity 8.59188557
REMARK minimizedRMSD -1
REMARK  0 active torsions:
REMARK  status: ('A' for Active; 'I' for Inactive)
ROOT
ATOM      1  C4' PXY d   1       0.536  -2.348   4.041  0.00  0.00     0.077 C 
ATOM      2  C1' PXY d   1      -1.487   2.721   2.138  0.00  0.00     0.077 C 
ATOM      3  C1  PXY d   1      -0.969   1.387   2.638  0.00  0.00    -0.082 A 
ATOM      4  C2  PXY d   1       0.202   1.328   3.251  0.00  0.00     0.003 A 
ATOM      5  C3  PXY d   1       0.701   0.126   3.681  0.00  0.00     0.003 A 
ATOM      6  C4  PXY d   1      -0.031  -1.022   3.529  0.00  0.00    -0.082 A 
ATOM      7  C5  PXY d   1      -1.232  -0.968   2.914  0.00  0.00     0.003 A 
ATOM      8  C6  PXY d   1      -1.701   0.256   2.448  0.00  0.00     0.003 A 
ENDROOT
TORSDOF 0
ENDMDL
