MODEL 1
REMARK minimizedAffinity -3.27817035
REMARK minimizedRMSD -1
REMARK  1 active torsions:
REMARK  status: ('A' for Active; 'I' for Inactive)
REMARK    1  A    between atoms: C1_2  and  C2_3 
ROOT
ATOM      1  C2  UNL d   1       0.559  -0.024  -0.510  0.00  0.00    -0.081 A 
ATOM      2  C3  UNL d   1       1.333   0.162   0.642  0.00  0.00     0.006 A 
ATOM      3  C4  UNL d   1       0.753   0.062   1.909  0.00  0.00     0.002 A 
ATOM      4  C5  UNL d   1      -0.608  -0.232   2.045  0.00  0.00    -0.080 A 
ATOM      5  C6  UNL d   1      -1.237  -0.372   3.400  0.00  0.00     0.076 C 
ATOM      6  C7  UNL d   1      -1.385  -0.401   0.894  0.00  0.00     0.002 A 
ATOM      7  C8  UNL d   1      -0.806  -0.301  -0.372  0.00  0.00     0.006 A 
ENDROOT
BRANCH   1   8
ATOM      8  C1  UNL d   1       1.195   0.018  -1.876  0.00  0.00     0.054 C 
ATOM      9  C   UNL d   1       1.634  -1.368  -2.325  0.00  0.00     0.018 C 
ENDBRANCH   1   8
TORSDOF 1
ENDMDL
