MODEL 1
REMARK minimizedAffinity -5.93171453
REMARK minimizedRMSD -1
REMARK  1 active torsions:
REMARK  status: ('A' for Active; 'I' for Inactive)
REMARK    1  A    between atoms: C1_2  and  C2_3 
ROOT
ATOM      1  C2  UNL d   1       0.384   0.072  -1.057  0.00  0.00    -0.081 A 
ATOM      2  C3  UNL d   1       1.370   0.273  -0.083  0.00  0.00     0.006 A 
ATOM      3  C4  UNL d   1       1.055   0.173   1.275  0.00  0.00     0.002 A 
ATOM      4  C5  UNL d   1      -0.247  -0.137   1.681  0.00  0.00    -0.080 A 
ATOM      5  C6  UNL d   1      -0.591  -0.278   3.134  0.00  0.00     0.076 C 
ATOM      6  C7  UNL d   1      -1.236  -0.322   0.708  0.00  0.00     0.002 A 
ATOM      7  C8  UNL d   1      -0.922  -0.222  -0.649  0.00  0.00     0.006 A 
ENDROOT
BRANCH   1   8
ATOM      8  C1  UNL d   1       0.734   0.115  -2.522  0.00  0.00     0.054 C 
ATOM      9  C   UNL d   1       0.602  -1.259  -3.163  0.00  0.00     0.018 C 
ENDBRANCH   1   8
TORSDOF 1
ENDMDL
