MODEL 1
REMARK minimizedAffinity -4.48872042
REMARK minimizedRMSD -1
REMARK  1 active torsions:
REMARK  status: ('A' for Active; 'I' for Inactive)
REMARK    1  A    between atoms: C1_2  and  C2_3 
ROOT
ATOM      1  C2  UNL d   1       0.351   0.160  -0.928  0.00  0.00    -0.081 A 
ATOM      2  C3  UNL d   1       1.304   0.460   0.053  0.00  0.00     0.006 A 
ATOM      3  C4  UNL d   1       1.018   0.256   1.405  0.00  0.00     0.002 A 
ATOM      4  C5  UNL d   1      -0.222  -0.259   1.798  0.00  0.00    -0.080 A 
ATOM      5  C6  UNL d   1      -0.532  -0.511   3.243  0.00  0.00     0.076 C 
ATOM      6  C7  UNL d   1      -1.181  -0.543   0.819  0.00  0.00     0.002 A 
ATOM      7  C8  UNL d   1      -0.895  -0.338  -0.533  0.00  0.00     0.006 A 
ENDROOT
BRANCH   1   8
ATOM      8  C1  UNL d   1       0.681   0.318  -2.390  0.00  0.00     0.054 C 
ATOM      9  C   UNL d   1       0.841  -1.034  -3.071  0.00  0.00     0.018 C 
ENDBRANCH   1   8
TORSDOF 1
ENDMDL
