MODEL 1
REMARK minimizedAffinity -4.64168835
REMARK minimizedRMSD -1
REMARK  1 active torsions:
REMARK  status: ('A' for Active; 'I' for Inactive)
REMARK    1  A    between atoms: C1_2  and  C2_3 
ROOT
ATOM      1  C2  UNL d   1       0.448   0.105  -0.866  0.00  0.00    -0.081 A 
ATOM      2  C3  UNL d   1       1.451   0.270   0.097  0.00  0.00     0.006 A 
ATOM      3  C4  UNL d   1       1.156   0.144   1.456  0.00  0.00     0.002 A 
ATOM      4  C5  UNL d   1      -0.144  -0.157   1.876  0.00  0.00    -0.080 A 
ATOM      5  C6  UNL d   1      -0.468  -0.325   3.330  0.00  0.00     0.076 C 
ATOM      6  C7  UNL d   1      -1.150  -0.304   0.915  0.00  0.00     0.002 A 
ATOM      7  C8  UNL d   1      -0.856  -0.178  -0.444  0.00  0.00     0.006 A 
ENDROOT
BRANCH   1   8
ATOM      8  C1  UNL d   1       0.776   0.177  -2.335  0.00  0.00     0.054 C 
ATOM      9  C   UNL d   1       0.839  -1.211  -2.956  0.00  0.00     0.018 C 
ENDBRANCH   1   8
TORSDOF 1
ENDMDL
