MODEL 1
REMARK minimizedAffinity -4.71912384
REMARK minimizedRMSD -1
REMARK  1 active torsions:
REMARK  status: ('A' for Active; 'I' for Inactive)
REMARK    1  A    between atoms: C1_2  and  C2_3 
ROOT
ATOM      1  C2  UNL d   1       0.500  -0.322   0.712  0.00  0.00    -0.081 A 
ATOM      2  C3  UNL d   1      -0.178   0.376  -0.295  0.00  0.00     0.006 A 
ATOM      3  C4  UNL d   1       0.023   0.052  -1.639  0.00  0.00     0.002 A 
ATOM      4  C5  UNL d   1       0.897  -0.979  -1.998  0.00  0.00    -0.080 A 
ATOM      5  C6  UNL d   1       1.098  -1.357  -3.435  0.00  0.00     0.076 C 
ATOM      6  C7  UNL d   1       1.588  -1.665  -0.993  0.00  0.00     0.002 A 
ATOM      7  C8  UNL d   1       1.388  -1.341   0.351  0.00  0.00     0.006 A 
ENDROOT
BRANCH   1   8
ATOM      8  C1  UNL d   1       0.238  -0.018   2.165  0.00  0.00     0.054 C 
ATOM      9  C   UNL d   1      -0.795  -0.970   2.751  0.00  0.00     0.018 C 
ENDBRANCH   1   8
TORSDOF 1
ENDMDL
