MODEL 1
REMARK minimizedAffinity -1.30294836
REMARK minimizedRMSD -1
REMARK  1 active torsions:
REMARK  status: ('A' for Active; 'I' for Inactive)
REMARK    1  A    between atoms: C1_2  and  C2_3 
ROOT
ATOM      1  C2  UNL d   1      -0.230   0.382   2.159  0.00  0.00    -0.081 A 
ATOM      2  C3  UNL d   1      -1.221   0.084   1.215  0.00  0.00     0.006 A 
ATOM      3  C4  UNL d   1      -0.881  -0.135  -0.122  0.00  0.00     0.002 A 
ATOM      4  C5  UNL d   1       0.453  -0.067  -0.536  0.00  0.00    -0.080 A 
ATOM      5  C6  UNL d   1       0.835  -0.330  -1.963  0.00  0.00     0.076 C 
ATOM      6  C7  UNL d   1       1.441   0.247   0.404  0.00  0.00     0.002 A 
ATOM      7  C8  UNL d   1       1.102   0.467   1.741  0.00  0.00     0.006 A 
ENDROOT
BRANCH   1   8
ATOM      8  C1  UNL d   1      -0.586   0.555   3.614  0.00  0.00     0.054 C 
ATOM      9  C   UNL d   1      -1.698  -0.398   4.029  0.00  0.00     0.018 C 
ENDBRANCH   1   8
TORSDOF 1
ENDMDL
