MODEL 1
REMARK minimizedAffinity -4.23743105
REMARK minimizedRMSD -1
REMARK  1 active torsions:
REMARK  status: ('A' for Active; 'I' for Inactive)
REMARK    1  A    between atoms: C1_2  and  C2_3 
ROOT
ATOM      1  C2  UNL d   1       0.609  -0.198  -0.852  0.00  0.00    -0.081 A 
ATOM      2  C3  UNL d   1       1.645  -0.076   0.081  0.00  0.00     0.006 A 
ATOM      3  C4  UNL d   1       1.364  -0.020   1.448  0.00  0.00     0.002 A 
ATOM      4  C5  UNL d   1       0.043  -0.092   1.905  0.00  0.00    -0.080 A 
ATOM      5  C6  UNL d   1      -0.270  -0.063   3.371  0.00  0.00     0.076 C 
ATOM      6  C7  UNL d   1      -0.993  -0.195   0.972  0.00  0.00     0.002 A 
ATOM      7  C8  UNL d   1      -0.713  -0.251  -0.395  0.00  0.00     0.006 A 
ENDROOT
BRANCH   1   8
ATOM      8  C1  UNL d   1       0.913  -0.324  -2.323  0.00  0.00     0.054 C 
ATOM      9  C   UNL d   1       0.597  -1.722  -2.835  0.00  0.00     0.018 C 
ENDBRANCH   1   8
TORSDOF 1
ENDMDL
