MODEL 1
REMARK minimizedAffinity -3.83196712
REMARK minimizedRMSD -1
REMARK  1 active torsions:
REMARK  status: ('A' for Active; 'I' for Inactive)
REMARK    1  A    between atoms: C1_2  and  C2_3 
ROOT
ATOM      1  C2  UNL d   1       0.200   0.213   1.901  0.00  0.00    -0.081 A 
ATOM      2  C3  UNL d   1      -0.880  -0.143   1.084  0.00  0.00     0.006 A 
ATOM      3  C4  UNL d   1      -0.746  -0.145  -0.306  0.00  0.00     0.002 A 
ATOM      4  C5  UNL d   1       0.471   0.201  -0.903  0.00  0.00    -0.080 A 
ATOM      5  C6  UNL d   1       0.637   0.173  -2.393  0.00  0.00     0.076 C 
ATOM      6  C7  UNL d   1       1.545   0.573  -0.088  0.00  0.00     0.002 A 
ATOM      7  C8  UNL d   1       1.412   0.576   1.302  0.00  0.00     0.006 A 
ENDROOT
BRANCH   1   8
ATOM      8  C1  UNL d   1       0.079   0.154   3.402  0.00  0.00     0.054 C 
ATOM      9  C   UNL d   1      -1.327  -0.245   3.828  0.00  0.00     0.018 C 
ENDBRANCH   1   8
TORSDOF 1
ENDMDL
