MODEL 1
REMARK minimizedAffinity 4.98579073
REMARK minimizedRMSD -1
REMARK  0 active torsions:
REMARK  status: ('A' for Active; 'I' for Inactive)
ROOT
ATOM      1  C4' PXY d   1      -0.080   4.157  -4.769  0.00  0.00     0.077 C 
ATOM      2  C1' PXY d   1       5.450   5.320  -5.988  0.00  0.00     0.077 C 
ATOM      3  C1  PXY d   1       3.998   5.027  -5.666  0.00  0.00    -0.082 A 
ATOM      4  C2  PXY d   1       3.654   3.829  -5.223  0.00  0.00     0.003 A 
ATOM      5  C3  PXY d   1       2.341   3.538  -4.958  0.00  0.00     0.003 A 
ATOM      6  C4  PXY d   1       1.376   4.499  -5.097  0.00  0.00    -0.082 A 
ATOM      7  C5  PXY d   1       1.720   5.728  -5.538  0.00  0.00     0.003 A 
ATOM      8  C6  PXY d   1       3.053   5.991  -5.841  0.00  0.00     0.003 A 
ENDROOT
TORSDOF 0
ENDMDL
