MODEL 1
REMARK minimizedAffinity 7.03623343
REMARK minimizedRMSD -1
REMARK  0 active torsions:
REMARK  status: ('A' for Active; 'I' for Inactive)
ROOT
ATOM      1  C4' PXY d   1       2.054  -5.627   0.229  0.00  0.00     0.077 C 
ATOM      2  C1' PXY d   1       1.616  -0.030   1.606  0.00  0.00     0.077 C 
ATOM      3  C1  PXY d   1       1.718  -1.499   1.245  0.00  0.00    -0.082 A 
ATOM      4  C2  PXY d   1       2.822  -2.168   1.533  0.00  0.00     0.003 A 
ATOM      5  C3  PXY d   1       2.944  -3.489   1.184  0.00  0.00     0.003 A 
ATOM      6  C4  PXY d   1       1.904  -4.145   0.583  0.00  0.00    -0.082 A 
ATOM      7  C5  PXY d   1       0.769  -3.472   0.296  0.00  0.00     0.003 A 
ATOM      8  C6  PXY d   1       0.681  -2.122   0.620  0.00  0.00     0.003 A 
ENDROOT
TORSDOF 0
ENDMDL
