MODEL 1
REMARK minimizedAffinity 10.4519367
REMARK minimizedRMSD -1
REMARK  0 active torsions:
REMARK  status: ('A' for Active; 'I' for Inactive)
ROOT
ATOM      1  C4' PXY d   1      -3.771   3.594  -4.429  0.00  0.00     0.077 C 
ATOM      2  C1' PXY d   1      -1.167  -0.320  -1.065  0.00  0.00     0.077 C 
ATOM      3  C1  PXY d   1      -1.839   0.713  -1.948  0.00  0.00    -0.082 A 
ATOM      4  C2  PXY d   1      -3.150   0.876  -1.884  0.00  0.00     0.003 A 
ATOM      5  C3  PXY d   1      -3.778   1.783  -2.698  0.00  0.00     0.003 A 
ATOM      6  C4  PXY d   1      -3.049   2.570  -3.549  0.00  0.00    -0.082 A 
ATOM      7  C5  PXY d   1      -1.709   2.418  -3.613  0.00  0.00     0.003 A 
ATOM      8  C6  PXY d   1      -1.096   1.462  -2.808  0.00  0.00     0.003 A 
ENDROOT
TORSDOF 0
ENDMDL
