MODEL 1
REMARK minimizedAffinity 2.67768621
REMARK minimizedRMSD -1
REMARK  0 active torsions:
REMARK  status: ('A' for Active; 'I' for Inactive)
ROOT
ATOM      1  C4' PXY d   1      -5.377   1.713   5.999  0.00  0.00     0.077 C 
ATOM      2  C1' PXY d   1      -4.081   1.058   0.404  0.00  0.00     0.077 C 
ATOM      3  C1  PXY d   1      -4.410   1.223   1.875  0.00  0.00    -0.082 A 
ATOM      4  C2  PXY d   1      -5.666   1.407   2.247  0.00  0.00     0.003 A 
ATOM      5  C3  PXY d   1      -5.978   1.590   3.570  0.00  0.00     0.003 A 
ATOM      6  C4  PXY d   1      -5.000   1.532   4.526  0.00  0.00    -0.082 A 
ATOM      7  C5  PXY d   1      -3.717   1.334   4.155  0.00  0.00     0.003 A 
ATOM      8  C6  PXY d   1      -3.416   1.192   2.804  0.00  0.00     0.003 A 
ENDROOT
TORSDOF 0
ENDMDL
