MODEL 1
REMARK minimizedAffinity 5.59423018
REMARK minimizedRMSD -1
REMARK  0 active torsions:
REMARK  status: ('A' for Active; 'I' for Inactive)
ROOT
ATOM      1  C4' PXY d   1       1.898  -1.678   1.249  0.00  0.00     0.077 C 
ATOM      2  C1' PXY d   1       5.820  -5.655  -0.241  0.00  0.00     0.077 C 
ATOM      3  C1  PXY d   1       4.800  -4.606   0.158  0.00  0.00    -0.082 A 
ATOM      4  C2  PXY d   1       3.510  -4.883   0.072  0.00  0.00     0.003 A 
ATOM      5  C3  PXY d   1       2.573  -3.936   0.398  0.00  0.00     0.003 A 
ATOM      6  C4  PXY d   1       2.963  -2.710   0.866  0.00  0.00    -0.082 A 
ATOM      7  C5  PXY d   1       4.278  -2.423   0.966  0.00  0.00     0.003 A 
ATOM      8  C6  PXY d   1       5.212  -3.384   0.591  0.00  0.00     0.003 A 
ENDROOT
TORSDOF 0
ENDMDL
