MODEL 1
REMARK minimizedAffinity 2.49921441
REMARK minimizedRMSD -1
REMARK  0 active torsions:
REMARK  status: ('A' for Active; 'I' for Inactive)
ROOT
ATOM      1  C4' PXY d   1      -3.974   1.997  -1.775  0.00  0.00     0.077 C 
ATOM      2  C1' PXY d   1      -4.255  -3.088  -4.509  0.00  0.00     0.077 C 
ATOM      3  C1  PXY d   1      -4.186  -1.749  -3.802  0.00  0.00    -0.082 A 
ATOM      4  C2  PXY d   1      -3.316  -1.570  -2.821  0.00  0.00     0.003 A 
ATOM      5  C3  PXY d   1      -3.263  -0.376  -2.150  0.00  0.00     0.003 A 
ATOM      6  C4  PXY d   1      -4.072   0.664  -2.522  0.00  0.00    -0.082 A 
ATOM      7  C5  PXY d   1      -4.954   0.494  -3.529  0.00  0.00     0.003 A 
ATOM      8  C6  PXY d   1      -5.021  -0.740  -4.171  0.00  0.00     0.003 A 
ENDROOT
TORSDOF 0
ENDMDL
