MODEL 1
REMARK minimizedAffinity 7.74148703
REMARK minimizedRMSD -1
REMARK  0 active torsions:
REMARK  status: ('A' for Active; 'I' for Inactive)
ROOT
ATOM      1  C4' PXY d   1      -1.639  -0.740   3.760  0.00  0.00     0.077 C 
ATOM      2  C1' PXY d   1       2.576  -2.624   0.282  0.00  0.00     0.077 C 
ATOM      3  C1  PXY d   1       1.479  -2.128   1.203  0.00  0.00    -0.082 A 
ATOM      4  C2  PXY d   1       0.232  -2.526   1.010  0.00  0.00     0.003 A 
ATOM      5  C3  PXY d   1      -0.776  -2.062   1.814  0.00  0.00     0.003 A 
ATOM      6  C4  PXY d   1      -0.498  -1.223   2.860  0.00  0.00    -0.082 A 
ATOM      7  C5  PXY d   1       0.773  -0.821   3.071  0.00  0.00     0.003 A 
ATOM      8  C6  PXY d   1       1.777  -1.271   2.218  0.00  0.00     0.003 A 
ENDROOT
TORSDOF 0
ENDMDL
