MODEL 1
REMARK minimizedAffinity 15.1156502
REMARK minimizedRMSD -1
REMARK  0 active torsions:
REMARK  status: ('A' for Active; 'I' for Inactive)
ROOT
ATOM      1  C4' PXY d   1       5.117  -5.903   5.997  0.00  0.00     0.077 C 
ATOM      2  C1' PXY d   1       3.261  -1.072   3.421  0.00  0.00     0.077 C 
ATOM      3  C1  PXY d   1       3.756  -2.332   4.105  0.00  0.00    -0.082 A 
ATOM      4  C2  PXY d   1       3.688  -3.491   3.469  0.00  0.00     0.003 A 
ATOM      5  C3  PXY d   1       4.101  -4.644   4.084  0.00  0.00     0.003 A 
ATOM      6  C4  PXY d   1       4.638  -4.604   5.343  0.00  0.00    -0.082 A 
ATOM      7  C5  PXY d   1       4.721  -3.425   5.994  0.00  0.00     0.003 A 
ATOM      8  C6  PXY d   1       4.258  -2.271   5.368  0.00  0.00     0.003 A 
ENDROOT
TORSDOF 0
ENDMDL
