MODEL 1
REMARK minimizedAffinity 9.59473324
REMARK minimizedRMSD -1
REMARK  0 active torsions:
REMARK  status: ('A' for Active; 'I' for Inactive)
ROOT
ATOM      1  C4' PXY d   1       3.291  -0.942   4.889  0.00  0.00     0.077 C 
ATOM      2  C1' PXY d   1       5.996  -5.997   5.630  0.00  0.00     0.077 C 
ATOM      3  C1  PXY d   1       5.292  -4.666   5.447  0.00  0.00    -0.082 A 
ATOM      4  C2  PXY d   1       4.175  -4.609   4.740  0.00  0.00     0.003 A 
ATOM      5  C3  PXY d   1       3.543  -3.410   4.537  0.00  0.00     0.003 A 
ATOM      6  C4  PXY d   1       4.030  -2.265   5.108  0.00  0.00    -0.082 A 
ATOM      7  C5  PXY d   1       5.164  -2.316   5.840  0.00  0.00     0.003 A 
ATOM      8  C6  PXY d   1       5.812  -3.537   6.000  0.00  0.00     0.003 A 
ENDROOT
TORSDOF 0
ENDMDL
