MODEL 1
REMARK minimizedAffinity 4.5846858
REMARK minimizedRMSD -1
REMARK  2 active torsions:
REMARK  status: ('A' for Active; 'I' for Inactive)
REMARK    1  A    between atoms: C1_2  and  C2_3 
REMARK    2  A    between atoms: C2_3  and  C3_4 
ROOT
ATOM      1  C3  UNL d   1       1.845   2.489   1.555  0.00  0.00    -0.075 A 
ATOM      2  C4  UNL d   1       1.351   1.778   2.659  0.00  0.00     0.002 A 
ATOM      3  C5  UNL d   1       2.165   1.530   3.764  0.00  0.00     0.002 A 
ATOM      4  C6  UNL d   1       3.484   1.980   3.776  0.00  0.00    -0.004 A 
ATOM      5  C7  UNL d   1       3.990   2.673   2.679  0.00  0.00     0.002 A 
ATOM      6  C8  UNL d   1       3.176   2.926   1.573  0.00  0.00     0.002 A 
ENDROOT
BRANCH   1   7
ATOM      7  C2  UNL d   1       0.959   2.786   0.369  0.00  0.00     0.056 C 
BRANCH   7   8
ATOM      8  C1  UNL d   1       0.054   4.008   0.556  0.00  0.00     0.007 C 
ATOM      9  C   UNL d   1      -1.380   3.643   0.916  0.00  0.00     0.009 C 
ENDBRANCH   7   8
ENDBRANCH   1   7
TORSDOF 2
ENDMDL
