MODEL 1
REMARK minimizedAffinity 2.56591344
REMARK minimizedRMSD -1
REMARK  2 active torsions:
REMARK  status: ('A' for Active; 'I' for Inactive)
REMARK    1  A    between atoms: C1_2  and  C2_3 
REMARK    2  A    between atoms: C2_3  and  C3_4 
ROOT
ATOM      1  C3  UNL d   1      -1.182   2.070   1.280  0.00  0.00    -0.075 A 
ATOM      2  C4  UNL d   1      -1.264   3.449   1.522  0.00  0.00     0.002 A 
ATOM      3  C5  UNL d   1      -0.288   4.314   1.029  0.00  0.00     0.002 A 
ATOM      4  C6  UNL d   1       0.786   3.813   0.297  0.00  0.00    -0.004 A 
ATOM      5  C7  UNL d   1       0.887   2.443   0.064  0.00  0.00     0.002 A 
ATOM      6  C8  UNL d   1      -0.091   1.575   0.553  0.00  0.00     0.002 A 
ENDROOT
BRANCH   1   7
ATOM      7  C2  UNL d   1      -2.251   1.131   1.786  0.00  0.00     0.056 C 
BRANCH   7   8
ATOM      8  C1  UNL d   1      -3.679   1.657   1.605  0.00  0.00     0.007 C 
ATOM      9  C   UNL d   1      -4.476   0.883   0.563  0.00  0.00     0.009 C 
ENDBRANCH   7   8
ENDBRANCH   1   7
TORSDOF 2
ENDMDL
