MODEL 1
REMARK minimizedAffinity 0.240302235
REMARK minimizedRMSD -1
REMARK  2 active torsions:
REMARK  status: ('A' for Active; 'I' for Inactive)
REMARK    1  A    between atoms: C1_2  and  C2_3 
REMARK    2  A    between atoms: C2_3  and  C3_4 
ROOT
ATOM      1  C3  UNL d   1       1.309  -0.165  -0.364  0.00  0.00    -0.075 A 
ATOM      2  C4  UNL d   1       2.473  -0.758   0.145  0.00  0.00     0.002 A 
ATOM      3  C5  UNL d   1       2.607  -2.146   0.173  0.00  0.00     0.002 A 
ATOM      4  C6  UNL d   1       1.576  -2.958  -0.297  0.00  0.00    -0.004 A 
ATOM      5  C7  UNL d   1       0.409  -2.380  -0.790  0.00  0.00     0.002 A 
ATOM      6  C8  UNL d   1       0.274  -0.990  -0.823  0.00  0.00     0.002 A 
ENDROOT
BRANCH   1   7
ATOM      7  C2  UNL d   1       1.170   1.338  -0.424  0.00  0.00     0.056 C 
BRANCH   7   8
ATOM      8  C1  UNL d   1       0.589   1.962   0.849  0.00  0.00     0.007 C 
ATOM      9  C   UNL d   1      -0.424   3.064   0.569  0.00  0.00     0.009 C 
ENDBRANCH   7   8
ENDBRANCH   1   7
TORSDOF 2
ENDMDL
