MODEL 1
REMARK minimizedAffinity 1.60276508
REMARK minimizedRMSD -1
REMARK  2 active torsions:
REMARK  status: ('A' for Active; 'I' for Inactive)
REMARK    1  A    between atoms: C1_2  and  C2_3 
REMARK    2  A    between atoms: C2_3  and  C3_4 
ROOT
ATOM      1  C3  UNL d   1      -0.162   1.739   1.154  0.00  0.00    -0.075 A 
ATOM      2  C4  UNL d   1       0.363   1.271   2.367  0.00  0.00     0.002 A 
ATOM      3  C5  UNL d   1      -0.456   1.136   3.488  0.00  0.00     0.002 A 
ATOM      4  C6  UNL d   1      -1.805   1.477   3.415  0.00  0.00    -0.004 A 
ATOM      5  C7  UNL d   1      -2.334   1.959   2.219  0.00  0.00     0.002 A 
ATOM      6  C8  UNL d   1      -1.518   2.091   1.094  0.00  0.00     0.002 A 
ENDROOT
BRANCH   1   7
ATOM      7  C2  UNL d   1       0.712   1.860  -0.071  0.00  0.00     0.056 C 
BRANCH   7   8
ATOM      8  C1  UNL d   1       2.137   1.331   0.125  0.00  0.00     0.007 C 
ATOM      9  C   UNL d   1       2.294  -0.132  -0.267  0.00  0.00     0.009 C 
ENDBRANCH   7   8
ENDBRANCH   1   7
TORSDOF 2
ENDMDL
