MODEL 1
REMARK minimizedAffinity 3.74244118
REMARK minimizedRMSD -1
REMARK  2 active torsions:
REMARK  status: ('A' for Active; 'I' for Inactive)
REMARK    1  A    between atoms: C1_2  and  C2_3 
REMARK    2  A    between atoms: C2_3  and  C3_4 
ROOT
ATOM      1  C3  UNL d   1       0.894  -0.121  -0.614  0.00  0.00    -0.075 A 
ATOM      2  C4  UNL d   1      -0.048  -1.142  -0.807  0.00  0.00     0.002 A 
ATOM      3  C5  UNL d   1       0.344  -2.480  -0.791  0.00  0.00     0.002 A 
ATOM      4  C6  UNL d   1       1.682  -2.815  -0.591  0.00  0.00    -0.004 A 
ATOM      5  C7  UNL d   1       2.629  -1.808  -0.414  0.00  0.00     0.002 A 
ATOM      6  C8  UNL d   1       2.238  -0.468  -0.426  0.00  0.00     0.002 A 
ENDROOT
BRANCH   1   7
ATOM      7  C2  UNL d   1       0.471   1.329  -0.601  0.00  0.00     0.056 C 
BRANCH   7   8
ATOM      8  C1  UNL d   1       1.305   2.214   0.331  0.00  0.00     0.007 C 
ATOM      9  C   UNL d   1       0.585   3.487   0.754  0.00  0.00     0.009 C 
ENDBRANCH   7   8
ENDBRANCH   1   7
TORSDOF 2
ENDMDL
