MODEL 1
REMARK minimizedAffinity -3.71621037
REMARK minimizedRMSD -1
REMARK  1 active torsions:
REMARK  status: ('A' for Active; 'I' for Inactive)
REMARK    1  A    between atoms: C1_2  and  C2_3 
ROOT
ATOM      1  C2  UNL d   1       0.329   0.437  -1.779  0.00  0.00    -0.076 A 
ATOM      2  C3  UNL d   1      -0.614   1.461  -1.585  0.00  0.00     0.004 A 
ATOM      3  C4  UNL d   1      -1.578   1.367  -0.583  0.00  0.00    -0.003 A 
ATOM      4  C5  UNL d   1      -1.615   0.248   0.241  0.00  0.00     0.000 A 
ATOM      5  C6  UNL d   1      -0.677  -0.769   0.074  0.00  0.00     0.000 A 
ATOM      6  C7  UNL d   1       0.313  -0.683  -0.920  0.00  0.00    -0.073 A 
ATOM      7  C8  UNL d   1       1.296  -1.813  -1.060  0.00  0.00     0.078 C 
ENDROOT
BRANCH   1   8
ATOM      8  C1  UNL d   1       1.335   0.581  -2.899  0.00  0.00     0.053 C 
ATOM      9  C   UNL d   1       0.804   0.067  -4.228  0.00  0.00     0.018 C 
ENDBRANCH   1   8
TORSDOF 1
ENDMDL
