MODEL 1
REMARK minimizedAffinity -0.218003452
REMARK minimizedRMSD -1
REMARK  1 active torsions:
REMARK  status: ('A' for Active; 'I' for Inactive)
REMARK    1  A    between atoms: C1_2  and  C2_3 
ROOT
ATOM      1  C2  UNL d   1      -0.336  -0.164  -0.091  0.00  0.00    -0.076 A 
ATOM      2  C3  UNL d   1      -1.554   0.348  -0.571  0.00  0.00     0.004 A 
ATOM      3  C4  UNL d   1      -2.527   0.824   0.307  0.00  0.00    -0.003 A 
ATOM      4  C5  UNL d   1      -2.297   0.797   1.678  0.00  0.00     0.000 A 
ATOM      5  C6  UNL d   1      -1.087   0.309   2.170  0.00  0.00     0.000 A 
ATOM      6  C7  UNL d   1      -0.089  -0.160   1.299  0.00  0.00    -0.073 A 
ATOM      7  C8  UNL d   1       1.194  -0.680   1.885  0.00  0.00     0.078 C 
ENDROOT
BRANCH   1   8
ATOM      8  C1  UNL d   1       0.671  -0.692  -1.088  0.00  0.00     0.053 C 
ATOM      9  C   UNL d   1       0.334  -0.301  -2.519  0.00  0.00     0.018 C 
ENDBRANCH   1   8
TORSDOF 1
ENDMDL
