MODEL 1
REMARK minimizedAffinity 8.32657051
REMARK minimizedRMSD -1
REMARK  0 active torsions:
REMARK  status: ('A' for Active; 'I' for Inactive)
ROOT
ATOM      1  N1  IND d   1       1.214   3.839   0.784  0.00  0.00    -0.196 N 
ATOM      2  C2  IND d   1      -0.027   3.628   0.250  0.00  0.00     0.054 A 
ATOM      3  C3  IND d   1      -0.581   2.511   0.773  0.00  0.00    -0.031 A 
ATOM      4  C4  IND d   1       0.328   0.934   2.594  0.00  0.00     0.051 A 
ATOM      5  C5  IND d   1       1.436   0.696   3.358  0.00  0.00    -0.031 A 
ATOM      6  C6  IND d   1       2.548   1.512   3.304  0.00  0.00     0.015 A 
ATOM      7  C7  IND d   1       2.589   2.607   2.489  0.00  0.00    -0.016 A 
ATOM      8  C8  IND d   1       1.468   2.848   1.706  0.00  0.00    -0.047 A 
ATOM      9  C9  IND d   1       0.354   1.999   1.725  0.00  0.00    -0.096 A 
ATOM     10  HN1 IND d   1       1.746   4.482   0.578  0.00  0.00     0.298 HD
ENDROOT
TORSDOF 0
ENDMDL
