MODEL 1
REMARK minimizedAffinity 2.68287182
REMARK minimizedRMSD -1
REMARK  0 active torsions:
REMARK  status: ('A' for Active; 'I' for Inactive)
ROOT
ATOM      1  N1  IND d   1       1.874   1.275  -0.192  0.00  0.00    -0.196 N 
ATOM      2  C2  IND d   1       1.087   0.245   0.242  0.00  0.00     0.054 A 
ATOM      3  C3  IND d   1      -0.193   0.658   0.382  0.00  0.00    -0.031 A 
ATOM      4  C4  IND d   1      -1.237   2.952  -0.140  0.00  0.00     0.051 A 
ATOM      5  C5  IND d   1      -0.910   4.222  -0.525  0.00  0.00    -0.031 A 
ATOM      6  C6  IND d   1       0.387   4.581  -0.827  0.00  0.00     0.015 A 
ATOM      7  C7  IND d   1       1.409   3.676  -0.766  0.00  0.00    -0.016 A 
ATOM      8  C8  IND d   1       1.082   2.388  -0.369  0.00  0.00    -0.047 A 
ATOM      9  C9  IND d   1      -0.226   2.028  -0.020  0.00  0.00    -0.096 A 
ATOM     10  HN1 IND d   1       2.722   1.234  -0.330  0.00  0.00     0.298 HD
ENDROOT
TORSDOF 0
ENDMDL
