MODEL 1
REMARK minimizedAffinity 2.11606812
REMARK minimizedRMSD -1
REMARK  0 active torsions:
REMARK  status: ('A' for Active; 'I' for Inactive)
ROOT
ATOM      1  N1  IND d   1       3.052  -0.903   5.979  0.00  0.00    -0.196 N 
ATOM      2  C2  IND d   1       1.786  -1.416   6.000  0.00  0.00     0.054 A 
ATOM      3  C3  IND d   1       1.825  -2.767   5.962  0.00  0.00    -0.031 A 
ATOM      4  C4  IND d   1       3.858  -4.346   5.964  0.00  0.00     0.051 A 
ATOM      5  C5  IND d   1       5.224  -4.343   5.904  0.00  0.00    -0.031 A 
ATOM      6  C6  IND d   1       5.950  -3.170   5.868  0.00  0.00     0.015 A 
ATOM      7  C7  IND d   1       5.335  -1.951   5.902  0.00  0.00    -0.016 A 
ATOM      8  C8  IND d   1       3.949  -1.949   5.956  0.00  0.00    -0.047 A 
ATOM      9  C9  IND d   1       3.205  -3.136   5.950  0.00  0.00    -0.096 A 
ATOM     10  HN1 IND d   1       3.255  -0.068   5.980  0.00  0.00     0.298 HD
ENDROOT
TORSDOF 0
ENDMDL
