MODEL 1
REMARK minimizedAffinity 6.44342136
REMARK minimizedRMSD -1
REMARK  0 active torsions:
REMARK  status: ('A' for Active; 'I' for Inactive)
ROOT
ATOM      1  N1  IND d   1       2.115   0.792   1.510  0.00  0.00    -0.196 N 
ATOM      2  C2  IND d   1       1.532  -0.431   1.325  0.00  0.00     0.054 A 
ATOM      3  C3  IND d   1       0.373  -0.300   0.641  0.00  0.00    -0.031 A 
ATOM      4  C4  IND d   1      -0.706   1.812  -0.360  0.00  0.00     0.051 A 
ATOM      5  C5  IND d   1      -0.563   3.170  -0.420  0.00  0.00    -0.031 A 
ATOM      6  C6  IND d   1       0.503   3.817   0.170  0.00  0.00     0.015 A 
ATOM      7  C7  IND d   1       1.476   3.126   0.836  0.00  0.00    -0.016 A 
ATOM      8  C8  IND d   1       1.330   1.748   0.904  0.00  0.00    -0.047 A 
ATOM      9  C9  IND d   1       0.228   1.090   0.344  0.00  0.00    -0.096 A 
ATOM     10  HN1 IND d   1       2.849   0.939   1.934  0.00  0.00     0.298 HD
ENDROOT
TORSDOF 0
ENDMDL
