MODEL 1
REMARK minimizedAffinity 13.2034636
REMARK minimizedRMSD -1
REMARK  0 active torsions:
REMARK  status: ('A' for Active; 'I' for Inactive)
ROOT
ATOM      1  N1  IND d   1       1.228   4.753  -1.788  0.00  0.00    -0.196 N 
ATOM      2  C2  IND d   1       0.568   5.834  -2.301  0.00  0.00     0.054 A 
ATOM      3  C3  IND d   1      -0.626   5.992  -1.687  0.00  0.00    -0.031 A 
ATOM      4  C4  IND d   1      -1.655   4.654   0.257  0.00  0.00     0.051 A 
ATOM      5  C5  IND d   1      -1.443   3.552   1.037  0.00  0.00    -0.031 A 
ATOM      6  C6  IND d   1      -0.306   2.780   0.915  0.00  0.00     0.015 A 
ATOM      7  C7  IND d   1       0.671   3.089   0.012  0.00  0.00    -0.016 A 
ATOM      8  C8  IND d   1       0.456   4.203  -0.787  0.00  0.00    -0.047 A 
ATOM      9  C9  IND d   1      -0.715   4.966  -0.697  0.00  0.00    -0.096 A 
ATOM     10  HN1 IND d   1       1.995   4.464  -2.046  0.00  0.00     0.298 HD
ENDROOT
TORSDOF 0
ENDMDL
