MODEL 1
REMARK minimizedAffinity 1.08299839
REMARK minimizedRMSD -1
REMARK  0 active torsions:
REMARK  status: ('A' for Active; 'I' for Inactive)
ROOT
ATOM      1  N1  IND d   1      -4.664   1.396  -4.664  0.00  0.00    -0.196 N 
ATOM      2  C2  IND d   1      -3.702   1.417  -3.693  0.00  0.00     0.054 A 
ATOM      3  C3  IND d   1      -3.377   2.692  -3.381  0.00  0.00    -0.031 A 
ATOM      4  C4  IND d   1      -4.370   4.897  -4.265  0.00  0.00     0.051 A 
ATOM      5  C5  IND d   1      -5.248   5.388  -5.189  0.00  0.00    -0.031 A 
ATOM      6  C6  IND d   1      -5.994   4.558  -6.000  0.00  0.00     0.015 A 
ATOM      7  C7  IND d   1      -5.897   3.198  -5.909  0.00  0.00    -0.016 A 
ATOM      8  C8  IND d   1      -5.001   2.695  -4.976  0.00  0.00    -0.047 A 
ATOM      9  C9  IND d   1      -4.210   3.534  -4.180  0.00  0.00    -0.096 A 
ATOM     10  HN1 IND d   1      -5.002   0.690  -5.020  0.00  0.00     0.298 HD
ENDROOT
TORSDOF 0
ENDMDL
