MODEL 1
REMARK minimizedAffinity -4.91406393
REMARK minimizedRMSD -1
REMARK  0 active torsions:
REMARK  status: ('A' for Active; 'I' for Inactive)
ROOT
ATOM      1  N1  IND d   1      -3.792   4.500  -5.346  0.00  0.00    -0.196 N 
ATOM      2  C2  IND d   1      -4.969   4.939  -5.884  0.00  0.00     0.054 A 
ATOM      3  C3  IND d   1      -6.000   4.187  -5.436  0.00  0.00    -0.031 A 
ATOM      4  C4  IND d   1      -5.996   2.253  -3.738  0.00  0.00     0.051 A 
ATOM      5  C5  IND d   1      -5.155   1.468  -3.001  0.00  0.00    -0.031 A 
ATOM      6  C6  IND d   1      -3.788   1.660  -3.005  0.00  0.00     0.015 A 
ATOM      7  C7  IND d   1      -3.211   2.655  -3.742  0.00  0.00    -0.016 A 
ATOM      8  C8  IND d   1      -4.062   3.449  -4.498  0.00  0.00    -0.047 A 
ATOM      9  C9  IND d   1      -5.446   3.232  -4.530  0.00  0.00    -0.096 A 
ATOM     10  HN1 IND d   1      -3.013   4.826  -5.510  0.00  0.00     0.298 HD
ENDROOT
TORSDOF 0
ENDMDL
