MODEL 1
REMARK minimizedAffinity -3.25422764
REMARK minimizedRMSD -1
REMARK  0 active torsions:
REMARK  status: ('A' for Active; 'I' for Inactive)
ROOT
ATOM      1  N1  IND d   1      -6.000  -0.089   0.418  0.00  0.00    -0.196 N 
ATOM      2  C2  IND d   1      -5.156   0.821  -0.157  0.00  0.00     0.054 A 
ATOM      3  C3  IND d   1      -4.134   1.109   0.679  0.00  0.00    -0.031 A 
ATOM      4  C4  IND d   1      -3.592   0.130   2.997  0.00  0.00     0.051 A 
ATOM      5  C5  IND d   1      -4.090  -0.707   3.957  0.00  0.00    -0.031 A 
ATOM      6  C6  IND d   1      -5.272  -1.396   3.781  0.00  0.00     0.015 A 
ATOM      7  C7  IND d   1      -5.998  -1.283   2.629  0.00  0.00    -0.016 A 
ATOM      8  C8  IND d   1      -5.499  -0.429   1.655  0.00  0.00    -0.047 A 
ATOM      9  C9  IND d   1      -4.322   0.306   1.846  0.00  0.00    -0.096 A 
ATOM     10  HN1 IND d   1      -6.721  -0.397   0.065  0.00  0.00     0.298 HD
ENDROOT
TORSDOF 0
ENDMDL
