MODEL 1
REMARK minimizedAffinity 6.8661108
REMARK minimizedRMSD -1
REMARK  1 active torsions:
REMARK  status: ('A' for Active; 'I' for Inactive)
REMARK    1  A    between atoms: N_2  and  C1_3 
ROOT
ATOM      1  C1  UNL d   1       0.439  -2.224   1.965  0.00  0.00     0.143 A 
ATOM      2  C2  UNL d   1       0.255  -2.031   0.591  0.00  0.00    -0.057 A 
ATOM      3  C3  UNL d   1       1.346  -1.910  -0.277  0.00  0.00     0.033 A 
ATOM      4  C4  UNL d   1       2.645  -1.950   0.219  0.00  0.00    -0.042 A 
ATOM      5  C5  UNL d   1       2.852  -2.115   1.584  0.00  0.00     0.033 A 
ATOM      6  C6  UNL d   1       1.758  -2.242   2.445  0.00  0.00    -0.057 A 
ENDROOT
BRANCH   1   7
ATOM      7  N   UNL d   1      -0.605  -2.253   2.893  0.00  0.00    -0.732 N 
ATOM      8  C   UNL d   1      -1.159  -1.023   3.418  0.00  0.00     0.284 C 
ATOM      9  H3  UNL d   1      -1.301  -2.962   2.673  0.00  0.00     0.395 HD
ENDBRANCH   1   7
TORSDOF 1
ENDMDL
