MODEL 1
REMARK minimizedAffinity 0.94934243
REMARK minimizedRMSD -1
REMARK  1 active torsions:
REMARK  status: ('A' for Active; 'I' for Inactive)
REMARK    1  A    between atoms: N_2  and  C1_3 
ROOT
ATOM      1  C1  UNL d   1      -0.084   3.598  -2.876  0.00  0.00     0.143 A 
ATOM      2  C2  UNL d   1      -0.266   2.323  -2.330  0.00  0.00    -0.057 A 
ATOM      3  C3  UNL d   1      -1.546   1.779  -2.169  0.00  0.00     0.033 A 
ATOM      4  C4  UNL d   1      -2.671   2.514  -2.526  0.00  0.00    -0.042 A 
ATOM      5  C5  UNL d   1      -2.515   3.794  -3.046  0.00  0.00     0.033 A 
ATOM      6  C6  UNL d   1      -1.234   4.330  -3.211  0.00  0.00    -0.057 A 
ENDROOT
BRANCH   1   7
ATOM      7  N   UNL d   1       1.157   4.234  -2.970  0.00  0.00    -0.732 N 
ATOM      8  C   UNL d   1       1.559   4.888  -4.196  0.00  0.00     0.284 C 
ATOM      9  H3  UNL d   1       1.393   4.751  -2.126  0.00  0.00     0.395 HD
ENDBRANCH   1   7
TORSDOF 1
ENDMDL
