MODEL 1
REMARK minimizedAffinity 4.24590778
REMARK minimizedRMSD -1
REMARK  1 active torsions:
REMARK  status: ('A' for Active; 'I' for Inactive)
REMARK    1  A    between atoms: N_2  and  C1_3 
ROOT
ATOM      1  C1  UNL d   1       5.959   1.715  -4.180  0.00  0.00     0.143 A 
ATOM      2  C2  UNL d   1       5.966   0.705  -3.212  0.00  0.00    -0.057 A 
ATOM      3  C3  UNL d   1       5.954  -0.648  -3.573  0.00  0.00     0.033 A 
ATOM      4  C4  UNL d   1       5.906  -1.015  -4.914  0.00  0.00    -0.042 A 
ATOM      5  C5  UNL d   1       5.874  -0.028  -5.893  0.00  0.00     0.033 A 
ATOM      6  C6  UNL d   1       5.893   1.321  -5.525  0.00  0.00    -0.057 A 
ENDROOT
BRANCH   1   7
ATOM      7  N   UNL d   1       5.871   3.077  -3.882  0.00  0.00    -0.732 N 
ATOM      8  C   UNL d   1       4.731   3.854  -4.320  0.00  0.00     0.284 C 
ATOM      9  H3  UNL d   1       6.180   3.289  -2.936  0.00  0.00     0.395 HD
ENDBRANCH   1   7
TORSDOF 1
ENDMDL
