MODEL 1
REMARK minimizedAffinity 7.94208765
REMARK minimizedRMSD -1
REMARK  1 active torsions:
REMARK  status: ('A' for Active; 'I' for Inactive)
REMARK    1  A    between atoms: N_2  and  C1_3 
ROOT
ATOM      1  C1  UNL d   1       5.876   1.083  -4.450  0.00  0.00     0.143 A 
ATOM      2  C2  UNL d   1       5.839   0.444  -5.694  0.00  0.00    -0.057 A 
ATOM      3  C3  UNL d   1       5.855  -0.953  -5.795  0.00  0.00     0.033 A 
ATOM      4  C4  UNL d   1       5.937  -1.737  -4.649  0.00  0.00    -0.042 A 
ATOM      5  C5  UNL d   1       6.000  -1.124  -3.403  0.00  0.00     0.033 A 
ATOM      6  C6  UNL d   1       5.977   0.271  -3.309  0.00  0.00    -0.057 A 
ENDROOT
BRANCH   1   7
ATOM      7  N   UNL d   1       5.962   2.467  -4.289  0.00  0.00    -0.732 N 
ATOM      8  C   UNL d   1       5.999   3.055  -2.967  0.00  0.00     0.284 C 
ATOM      9  H3  UNL d   1       6.603   2.897  -4.953  0.00  0.00     0.395 HD
ENDBRANCH   1   7
TORSDOF 1
ENDMDL
