MODEL 1
REMARK minimizedAffinity 2.28816223
REMARK minimizedRMSD -1
REMARK  1 active torsions:
REMARK  status: ('A' for Active; 'I' for Inactive)
REMARK    1  A    between atoms: N_2  and  C1_3 
ROOT
ATOM      1  C1  UNL d   1       1.039  -2.520   2.062  0.00  0.00     0.143 A 
ATOM      2  C2  UNL d   1       1.775  -1.803   1.113  0.00  0.00    -0.057 A 
ATOM      3  C3  UNL d   1       2.666  -2.447   0.246  0.00  0.00     0.033 A 
ATOM      4  C4  UNL d   1       2.858  -3.822   0.333  0.00  0.00    -0.042 A 
ATOM      5  C5  UNL d   1       2.155  -4.552   1.286  0.00  0.00     0.033 A 
ATOM      6  C6  UNL d   1       1.263  -3.903   2.144  0.00  0.00    -0.057 A 
ENDROOT
BRANCH   1   7
ATOM      7  N   UNL d   1       0.212  -1.924   3.017  0.00  0.00    -0.732 N 
ATOM      8  C   UNL d   1       0.545  -0.632   3.577  0.00  0.00     0.284 C 
ATOM      9  H3  UNL d   1      -0.776  -2.043   2.804  0.00  0.00     0.395 HD
ENDBRANCH   1   7
TORSDOF 1
ENDMDL
