MODEL 1
REMARK minimizedAffinity 3.95203257
REMARK minimizedRMSD -1
REMARK  1 active torsions:
REMARK  status: ('A' for Active; 'I' for Inactive)
REMARK    1  A    between atoms: N_2  and  C1_3 
ROOT
ATOM      1  C1  UNL d   1       3.422   1.147  -5.221  0.00  0.00     0.143 A 
ATOM      2  C2  UNL d   1       2.038   1.080  -5.026  0.00  0.00    -0.057 A 
ATOM      3  C3  UNL d   1       1.208   2.164  -5.336  0.00  0.00     0.033 A 
ATOM      4  C4  UNL d   1       1.752   3.348  -5.821  0.00  0.00    -0.042 A 
ATOM      5  C5  UNL d   1       3.128   3.446  -6.000  0.00  0.00     0.033 A 
ATOM      6  C6  UNL d   1       3.951   2.358  -5.694  0.00  0.00    -0.057 A 
ENDROOT
BRANCH   1   7
ATOM      7  N   UNL d   1       4.311   0.139  -4.839  0.00  0.00    -0.732 N 
ATOM      8  C   UNL d   1       5.675   0.458  -4.476  0.00  0.00     0.284 C 
ATOM      9  H3  UNL d   1       3.874  -0.559  -4.242  0.00  0.00     0.395 HD
ENDBRANCH   1   7
TORSDOF 1
ENDMDL
