MODEL 1
REMARK minimizedAffinity 5.16706514
REMARK minimizedRMSD -1
REMARK  0 active torsions:
REMARK  status: ('A' for Active; 'I' for Inactive)
ROOT
ATOM      1  C   UNL d   1      -1.499   2.653   1.852  0.00  0.00     0.124 A 
ATOM      2  C1  UNL d   1      -0.340   1.946   1.566  0.00  0.00     0.062 A 
ATOM      3  C2  UNL d   1      -0.232   0.605   1.923  0.00  0.00     0.162 A 
ATOM      4  C3  UNL d   1      -1.287  -0.038   2.571  0.00  0.00    -0.034 A 
ATOM      5  C4  UNL d   1      -2.449   0.680   2.856  0.00  0.00     0.162 A 
ATOM      6  C5  UNL d   1      -2.552   2.020   2.497  0.00  0.00     0.062 A 
ATOM      7  F   UNL d   1      -3.673   2.702   2.774  0.00  0.00    -0.097 F 
ATOM      8  F1  UNL d   1      -3.483   0.093   3.477  0.00  0.00    -0.096 F 
ATOM      9  I   UNL d   1      -1.129  -2.043   3.107  0.00  0.00    -0.060 I 
ATOM     10  F2  UNL d   1       0.900  -0.054   1.634  0.00  0.00    -0.096 F 
ATOM     11  F3  UNL d   1       0.680   2.555   0.944  0.00  0.00    -0.097 F 
ATOM     12  F4  UNL d   1      -1.600   3.944   1.508  0.00  0.00    -0.092 F 
ENDROOT
TORSDOF 0
ENDMDL
