MODEL 1
REMARK minimizedAffinity 2.17888284
REMARK minimizedRMSD -1
REMARK  0 active torsions:
REMARK  status: ('A' for Active; 'I' for Inactive)
ROOT
ATOM      1  C   UNL d   1       0.069   0.319   1.321  0.00  0.00     0.124 A 
ATOM      2  C1  UNL d   1      -0.109   1.684   1.491  0.00  0.00     0.062 A 
ATOM      3  C2  UNL d   1      -1.221   2.165   2.178  0.00  0.00     0.162 A 
ATOM      4  C3  UNL d   1      -2.162   1.278   2.701  0.00  0.00    -0.034 A 
ATOM      5  C4  UNL d   1      -1.976  -0.094   2.524  0.00  0.00     0.162 A 
ATOM      6  C5  UNL d   1      -0.864  -0.569   1.837  0.00  0.00     0.062 A 
ATOM      7  F   UNL d   1      -0.693  -1.889   1.673  0.00  0.00    -0.097 F 
ATOM      8  F1  UNL d   1      -2.862  -0.975   3.013  0.00  0.00    -0.096 F 
ATOM      9  I   UNL d   1      -3.825   1.992   3.728  0.00  0.00    -0.060 I 
ATOM     10  F2  UNL d   1      -1.368   3.489   2.328  0.00  0.00    -0.096 F 
ATOM     11  F3  UNL d   1       0.791   2.544   0.993  0.00  0.00    -0.097 F 
ATOM     12  F4  UNL d   1       1.139  -0.141   0.659  0.00  0.00    -0.092 F 
ENDROOT
TORSDOF 0
ENDMDL
