MODEL 1
REMARK minimizedAffinity -2.30108142
REMARK minimizedRMSD -1
REMARK  0 active torsions:
REMARK  status: ('A' for Active; 'I' for Inactive)
ROOT
ATOM      1  C   UNL d   1      -1.329   1.993   1.835  0.00  0.00     0.124 A 
ATOM      2  C1  UNL d   1      -0.078   1.556   1.424  0.00  0.00     0.062 A 
ATOM      3  C2  UNL d   1       0.239   0.201   1.464  0.00  0.00     0.162 A 
ATOM      4  C3  UNL d   1      -0.698  -0.728   1.917  0.00  0.00    -0.034 A 
ATOM      5  C4  UNL d   1      -1.955  -0.281   2.330  0.00  0.00     0.162 A 
ATOM      6  C5  UNL d   1      -2.266   1.074   2.288  0.00  0.00     0.062 A 
ATOM      7  F   UNL d   1      -3.476   1.495   2.686  0.00  0.00    -0.097 F 
ATOM      8  F1  UNL d   1      -2.880  -1.146   2.771  0.00  0.00    -0.096 F 
ATOM      9  I   UNL d   1      -0.229  -2.754   1.979  0.00  0.00    -0.060 I 
ATOM     10  F2  UNL d   1       1.456  -0.193   1.061  0.00  0.00    -0.096 F 
ATOM     11  F3  UNL d   1       0.830   2.441   0.987  0.00  0.00    -0.097 F 
ATOM     12  F4  UNL d   1      -1.631   3.297   1.797  0.00  0.00    -0.092 F 
ENDROOT
TORSDOF 0
ENDMDL
