MODEL 1
REMARK minimizedAffinity 5.39506102
REMARK minimizedRMSD -1
REMARK  0 active torsions:
REMARK  status: ('A' for Active; 'I' for Inactive)
ROOT
ATOM      1  C   UNL d   1       0.242   0.646   1.581  0.00  0.00     0.124 A 
ATOM      2  C1  UNL d   1       0.232   2.033   1.612  0.00  0.00     0.062 A 
ATOM      3  C2  UNL d   1      -0.840   2.712   2.185  0.00  0.00     0.162 A 
ATOM      4  C3  UNL d   1      -1.909   2.005   2.734  0.00  0.00    -0.034 A 
ATOM      5  C4  UNL d   1      -1.892   0.609   2.698  0.00  0.00     0.162 A 
ATOM      6  C5  UNL d   1      -0.819  -0.065   2.124  0.00  0.00     0.062 A 
ATOM      7  F   UNL d   1      -0.810  -1.405   2.095  0.00  0.00    -0.097 F 
ATOM      8  F1  UNL d   1      -2.904  -0.102   3.216  0.00  0.00    -0.096 F 
ATOM      9  I   UNL d   1      -3.513   3.017   3.592  0.00  0.00    -0.060 I 
ATOM     10  F2  UNL d   1      -0.823   4.054   2.201  0.00  0.00    -0.096 F 
ATOM     11  F3  UNL d   1       1.255   2.722   1.087  0.00  0.00    -0.097 F 
ATOM     12  F4  UNL d   1       1.274  -0.005   1.028  0.00  0.00    -0.092 F 
ENDROOT
TORSDOF 0
ENDMDL
