MODEL 1
REMARK minimizedAffinity 2.80824757
REMARK minimizedRMSD -1
REMARK  0 active torsions:
REMARK  status: ('A' for Active; 'I' for Inactive)
ROOT
ATOM      1  C   UNL d   1       0.146   0.153   1.519  0.00  0.00     0.124 A 
ATOM      2  C1  UNL d   1      -0.127   1.514   1.533  0.00  0.00     0.062 A 
ATOM      3  C2  UNL d   1      -1.333   1.981   2.046  0.00  0.00     0.162 A 
ATOM      4  C3  UNL d   1      -2.277   1.086   2.551  0.00  0.00    -0.034 A 
ATOM      5  C4  UNL d   1      -1.995  -0.282   2.533  0.00  0.00     0.162 A 
ATOM      6  C5  UNL d   1      -0.788  -0.743   2.019  0.00  0.00     0.062 A 
ATOM      7  F   UNL d   1      -0.526  -2.058   2.007  0.00  0.00    -0.097 F 
ATOM      8  F1  UNL d   1      -2.880  -1.169   3.011  0.00  0.00    -0.096 F 
ATOM      9  I   UNL d   1      -4.082   1.780   3.319  0.00  0.00    -0.060 I 
ATOM     10  F2  UNL d   1      -1.570   3.301   2.046  0.00  0.00    -0.096 F 
ATOM     11  F3  UNL d   1       0.774   2.381   1.049  0.00  0.00    -0.097 F 
ATOM     12  F4  UNL d   1       1.308  -0.294   1.024  0.00  0.00    -0.092 F 
ENDROOT
TORSDOF 0
ENDMDL
