MODEL 1
REMARK minimizedAffinity 12.1886158
REMARK minimizedRMSD -1
REMARK  0 active torsions:
REMARK  status: ('A' for Active; 'I' for Inactive)
ROOT
ATOM      1  C   UNL d   1      -1.027   3.027   1.335  0.00  0.00     0.124 A 
ATOM      2  C1  UNL d   1       0.159   2.313   1.246  0.00  0.00     0.062 A 
ATOM      3  C2  UNL d   1       0.213   0.990   1.675  0.00  0.00     0.162 A 
ATOM      4  C3  UNL d   1      -0.924   0.371   2.195  0.00  0.00    -0.034 A 
ATOM      5  C4  UNL d   1      -2.113   1.097   2.282  0.00  0.00     0.162 A 
ATOM      6  C5  UNL d   1      -2.162   2.419   1.852  0.00  0.00     0.062 A 
ATOM      7  F   UNL d   1      -3.310   3.108   1.938  0.00  0.00    -0.097 F 
ATOM      8  F1  UNL d   1      -3.225   0.533   2.777  0.00  0.00    -0.096 F 
ATOM      9  I   UNL d   1      -0.847  -1.607   2.838  0.00  0.00    -0.060 I 
ATOM     10  F2  UNL d   1       1.373   0.323   1.578  0.00  0.00    -0.096 F 
ATOM     11  F3  UNL d   1       1.257   2.898   0.748  0.00  0.00    -0.097 F 
ATOM     12  F4  UNL d   1      -1.076   4.300   0.922  0.00  0.00    -0.092 F 
ENDROOT
TORSDOF 0
ENDMDL
