MODEL 1
REMARK minimizedAffinity 8.4087286
REMARK minimizedRMSD -1
REMARK  0 active torsions:
REMARK  status: ('A' for Active; 'I' for Inactive)
ROOT
ATOM      1  C   UNL d   1      -1.719   2.064   1.808  0.00  0.00     0.124 A 
ATOM      2  C1  UNL d   1      -1.587   0.715   2.104  0.00  0.00     0.062 A 
ATOM      3  C2  UNL d   1      -0.371   0.069   1.900  0.00  0.00     0.162 A 
ATOM      4  C3  UNL d   1       0.724   0.773   1.397  0.00  0.00    -0.034 A 
ATOM      5  C4  UNL d   1       0.583   2.129   1.101  0.00  0.00     0.162 A 
ATOM      6  C5  UNL d   1      -0.635   2.770   1.307  0.00  0.00     0.062 A 
ATOM      7  F   UNL d   1      -0.761   4.074   1.020  0.00  0.00    -0.097 F 
ATOM      8  F1  UNL d   1       1.615   2.836   0.616  0.00  0.00    -0.096 F 
ATOM      9  I   UNL d   1       2.544  -0.189   1.090  0.00  0.00    -0.060 I 
ATOM     10  F2  UNL d   1      -0.272  -1.236   2.195  0.00  0.00    -0.096 F 
ATOM     11  F3  UNL d   1      -2.634   0.030   2.588  0.00  0.00    -0.097 F 
ATOM     12  F4  UNL d   1      -2.891   2.683   2.004  0.00  0.00    -0.092 F 
ENDROOT
TORSDOF 0
ENDMDL
