MODEL 1
REMARK minimizedAffinity 4.08083057
REMARK minimizedRMSD -1
REMARK  0 active torsions:
REMARK  status: ('A' for Active; 'I' for Inactive)
ROOT
ATOM      1  C   UNL d   1       0.281   0.591   1.253  0.00  0.00     0.124 A 
ATOM      2  C1  UNL d   1      -0.610  -0.311   1.817  0.00  0.00     0.062 A 
ATOM      3  C2  UNL d   1      -1.745   0.147   2.480  0.00  0.00     0.162 A 
ATOM      4  C3  UNL d   1      -1.996   1.515   2.582  0.00  0.00    -0.034 A 
ATOM      5  C4  UNL d   1      -1.095   2.417   2.013  0.00  0.00     0.162 A 
ATOM      6  C5  UNL d   1       0.038   1.954   1.352  0.00  0.00     0.062 A 
ATOM      7  F   UNL d   1       0.898   2.828   0.808  0.00  0.00    -0.097 F 
ATOM      8  F1  UNL d   1      -1.306   3.739   2.092  0.00  0.00    -0.096 F 
ATOM      9  I   UNL d   1      -3.692   2.205   3.572  0.00  0.00    -0.060 I 
ATOM     10  F2  UNL d   1      -2.589  -0.748   3.016  0.00  0.00    -0.096 F 
ATOM     11  F3  UNL d   1      -0.377  -1.628   1.725  0.00  0.00    -0.097 F 
ATOM     12  F4  UNL d   1       1.373   0.148   0.617  0.00  0.00    -0.092 F 
ENDROOT
TORSDOF 0
ENDMDL
