MODEL 1
REMARK minimizedAffinity 11.4798927
REMARK minimizedRMSD -1
REMARK  0 active torsions:
REMARK  status: ('A' for Active; 'I' for Inactive)
ROOT
ATOM      1  C   UNL d   1      -4.872   1.667   4.849  0.00  0.00     0.124 A 
ATOM      2  C1  UNL d   1      -3.701   2.368   5.103  0.00  0.00     0.062 A 
ATOM      3  C2  UNL d   1      -2.527   2.038   4.432  0.00  0.00     0.162 A 
ATOM      4  C3  UNL d   1      -2.519   1.002   3.498  0.00  0.00    -0.034 A 
ATOM      5  C4  UNL d   1      -3.699   0.300   3.249  0.00  0.00     0.162 A 
ATOM      6  C5  UNL d   1      -4.870   0.634   3.923  0.00  0.00     0.062 A 
ATOM      7  F   UNL d   1      -6.000  -0.045   3.676  0.00  0.00    -0.097 F 
ATOM      8  F1  UNL d   1      -3.726  -0.702   2.358  0.00  0.00    -0.096 F 
ATOM      9  I   UNL d   1      -0.766   0.505   2.492  0.00  0.00    -0.060 I 
ATOM     10  F2  UNL d   1      -1.411   2.733   4.697  0.00  0.00    -0.096 F 
ATOM     11  F3  UNL d   1      -3.700   3.366   5.999  0.00  0.00    -0.097 F 
ATOM     12  F4  UNL d   1      -5.999   1.986   5.498  0.00  0.00    -0.092 F 
ENDROOT
TORSDOF 0
ENDMDL
