MODEL 1
REMARK minimizedAffinity 2.39234686
REMARK minimizedRMSD -1
REMARK  0 active torsions:
REMARK  status: ('A' for Active; 'I' for Inactive)
ROOT
ATOM      1  C   UNL d   1      -0.063   0.127   1.517  0.00  0.00     0.124 A 
ATOM      2  C1  UNL d   1      -1.059  -0.717   1.989  0.00  0.00     0.062 A 
ATOM      3  C2  UNL d   1      -2.154  -0.194   2.672  0.00  0.00     0.162 A 
ATOM      4  C3  UNL d   1      -2.259   1.181   2.886  0.00  0.00    -0.034 A 
ATOM      5  C4  UNL d   1      -1.253   2.023   2.408  0.00  0.00     0.162 A 
ATOM      6  C5  UNL d   1      -0.161   1.495   1.727  0.00  0.00     0.062 A 
ATOM      7  F   UNL d   1       0.800   2.312   1.271  0.00  0.00    -0.097 F 
ATOM      8  F1  UNL d   1      -1.322   3.349   2.597  0.00  0.00    -0.096 F 
ATOM      9  I   UNL d   1      -3.894   1.966   3.906  0.00  0.00    -0.060 I 
ATOM     10  F2  UNL d   1      -3.101  -1.032   3.117  0.00  0.00    -0.096 F 
ATOM     11  F3  UNL d   1      -0.967  -2.039   1.788  0.00  0.00    -0.097 F 
ATOM     12  F4  UNL d   1       0.989  -0.379   0.861  0.00  0.00    -0.092 F 
ENDROOT
TORSDOF 0
ENDMDL
