MODEL 1
REMARK minimizedAffinity 4.97843599
REMARK minimizedRMSD -1
REMARK  0 active torsions:
REMARK  status: ('A' for Active; 'I' for Inactive)
ROOT
ATOM      1  C   UNL d   1       0.103   0.458   1.185  0.00  0.00     0.124 A 
ATOM      2  C1  UNL d   1       0.055   1.824   1.429  0.00  0.00     0.062 A 
ATOM      3  C2  UNL d   1      -1.029   2.376   2.105  0.00  0.00     0.162 A 
ATOM      4  C3  UNL d   1      -2.075   1.563   2.542  0.00  0.00    -0.034 A 
ATOM      5  C4  UNL d   1      -2.020   0.190   2.291  0.00  0.00     0.162 A 
ATOM      6  C5  UNL d   1      -0.934  -0.357   1.615  0.00  0.00     0.062 A 
ATOM      7  F   UNL d   1      -0.890  -1.676   1.380  0.00  0.00    -0.097 F 
ATOM      8  F1  UNL d   1      -3.008  -0.621   2.697  0.00  0.00    -0.096 F 
ATOM      9  I   UNL d   1      -3.698   2.385   3.552  0.00  0.00    -0.060 I 
ATOM     10  F2  UNL d   1      -1.049   3.699   2.328  0.00  0.00    -0.096 F 
ATOM     11  F3  UNL d   1       1.056   2.613   1.014  0.00  0.00    -0.097 F 
ATOM     12  F4  UNL d   1       1.147  -0.071   0.534  0.00  0.00    -0.092 F 
ENDROOT
TORSDOF 0
ENDMDL
