MODEL 1
REMARK minimizedAffinity 0.3972615
REMARK minimizedRMSD -1
REMARK  0 active torsions:
REMARK  status: ('A' for Active; 'I' for Inactive)
ROOT
ATOM      1  C   UNL d   1       0.352   0.129   1.081  0.00  0.00     0.124 A 
ATOM      2  C1  UNL d   1      -0.690  -0.673   1.524  0.00  0.00     0.062 A 
ATOM      3  C2  UNL d   1      -1.775  -0.108   2.190  0.00  0.00     0.162 A 
ATOM      4  C3  UNL d   1      -1.823   1.267   2.415  0.00  0.00    -0.034 A 
ATOM      5  C4  UNL d   1      -0.771   2.068   1.967  0.00  0.00     0.162 A 
ATOM      6  C5  UNL d   1       0.310   1.498   1.302  0.00  0.00     0.062 A 
ATOM      7  F   UNL d   1       1.316   2.275   0.874  0.00  0.00    -0.097 F 
ATOM      8  F1  UNL d   1      -0.785   3.394   2.166  0.00  0.00    -0.096 F 
ATOM      9  I   UNL d   1      -3.442   2.116   3.410  0.00  0.00    -0.060 I 
ATOM     10  F2  UNL d   1      -2.767  -0.908   2.608  0.00  0.00    -0.096 F 
ATOM     11  F3  UNL d   1      -0.653  -1.997   1.313  0.00  0.00    -0.097 F 
ATOM     12  F4  UNL d   1       1.394  -0.417   0.442  0.00  0.00    -0.092 F 
ENDROOT
TORSDOF 0
ENDMDL
