MODEL 1
REMARK minimizedAffinity 13.8547773
REMARK minimizedRMSD -1
REMARK  0 active torsions:
REMARK  status: ('A' for Active; 'I' for Inactive)
ROOT
ATOM      1  C   UNL d   1      -2.602   1.616   2.764  0.00  0.00     0.124 A 
ATOM      2  C1  UNL d   1      -2.302   0.286   3.024  0.00  0.00     0.062 A 
ATOM      3  C2  UNL d   1      -1.016  -0.199   2.800  0.00  0.00     0.162 A 
ATOM      4  C3  UNL d   1      -0.020   0.647   2.314  0.00  0.00    -0.034 A 
ATOM      5  C4  UNL d   1      -0.329   1.984   2.054  0.00  0.00     0.162 A 
ATOM      6  C5  UNL d   1      -1.615   2.463   2.280  0.00  0.00     0.062 A 
ATOM      7  F   UNL d   1      -1.903   3.748   2.028  0.00  0.00    -0.097 F 
ATOM      8  F1  UNL d   1       0.605   2.825   1.586  0.00  0.00    -0.096 F 
ATOM      9  I   UNL d   1       1.903  -0.073   1.979  0.00  0.00    -0.060 I 
ATOM     10  F2  UNL d   1      -0.755  -1.489   3.061  0.00  0.00    -0.096 F 
ATOM     11  F3  UNL d   1      -3.253  -0.536   3.491  0.00  0.00    -0.097 F 
ATOM     12  F4  UNL d   1      -3.839   2.079   2.979  0.00  0.00    -0.092 F 
ENDROOT
TORSDOF 0
ENDMDL
