MODEL 1
REMARK minimizedAffinity 4.75914574
REMARK minimizedRMSD -1
REMARK  0 active torsions:
REMARK  status: ('A' for Active; 'I' for Inactive)
ROOT
ATOM      1  C   UNL d   1      -1.217   2.954   2.000  0.00  0.00     0.124 A 
ATOM      2  C1  UNL d   1      -2.258   2.435   2.758  0.00  0.00     0.062 A 
ATOM      3  C2  UNL d   1      -2.318   1.069   3.022  0.00  0.00     0.162 A 
ATOM      4  C3  UNL d   1      -1.333   0.213   2.529  0.00  0.00    -0.034 A 
ATOM      5  C4  UNL d   1      -0.290   0.743   1.767  0.00  0.00     0.162 A 
ATOM      6  C5  UNL d   1      -0.235   2.108   1.506  0.00  0.00     0.062 A 
ATOM      7  F   UNL d   1       0.771   2.608   0.773  0.00  0.00    -0.097 F 
ATOM      8  F1  UNL d   1       0.673  -0.052   1.277  0.00  0.00    -0.096 F 
ATOM      9  I   UNL d   1      -1.419  -1.829   2.922  0.00  0.00    -0.060 I 
ATOM     10  F2  UNL d   1      -3.335   0.595   3.757  0.00  0.00    -0.096 F 
ATOM     11  F3  UNL d   1      -3.209   3.250   3.236  0.00  0.00    -0.097 F 
ATOM     12  F4  UNL d   1      -1.163   4.268   1.747  0.00  0.00    -0.092 F 
ENDROOT
TORSDOF 0
ENDMDL
