MODEL 1
REMARK minimizedAffinity 14.1429739
REMARK minimizedRMSD -1
REMARK  0 active torsions:
REMARK  status: ('A' for Active; 'I' for Inactive)
ROOT
ATOM      1  N1  IND d   1      -1.336   3.532   0.990  0.00  0.00    -0.196 N 
ATOM      2  C2  IND d   1      -0.199   3.030   1.559  0.00  0.00     0.054 A 
ATOM      3  C3  IND d   1       0.895   3.529   0.942  0.00  0.00    -0.031 A 
ATOM      4  C4  IND d   1       1.055   5.260  -0.957  0.00  0.00     0.051 A 
ATOM      5  C5  IND d   1       0.284   5.979  -1.827  0.00  0.00    -0.031 A 
ATOM      6  C6  IND d   1      -1.094   5.920  -1.800  0.00  0.00     0.015 A 
ATOM      7  C7  IND d   1      -1.756   5.145  -0.890  0.00  0.00    -0.016 A 
ATOM      8  C8  IND d   1      -0.976   4.408  -0.010  0.00  0.00    -0.047 A 
ATOM      9  C9  IND d   1       0.423   4.431  -0.061  0.00  0.00    -0.096 A 
ATOM     10  HN1 IND d   1      -2.141   3.334   1.219  0.00  0.00     0.298 HD
ENDROOT
TORSDOF 0
ENDMDL
