MODEL 1
REMARK minimizedAffinity 11.6883965
REMARK minimizedRMSD -1
REMARK  0 active torsions:
REMARK  status: ('A' for Active; 'I' for Inactive)
ROOT
ATOM      1  N1  IND d   1       6.000  -4.770  -1.234  0.00  0.00    -0.196 N 
ATOM      2  C2  IND d   1       5.420  -5.646  -0.359  0.00  0.00     0.054 A 
ATOM      3  C3  IND d   1       4.190  -6.000  -0.793  0.00  0.00    -0.031 A 
ATOM      4  C4  IND d   1       2.970  -5.343  -2.963  0.00  0.00     0.051 A 
ATOM      5  C5  IND d   1       3.083  -4.535  -4.060  0.00  0.00    -0.031 A 
ATOM      6  C6  IND d   1       4.197  -3.751  -4.276  0.00  0.00     0.015 A 
ATOM      7  C7  IND d   1       5.250  -3.754  -3.406  0.00  0.00    -0.016 A 
ATOM      8  C8  IND d   1       5.136  -4.567  -2.288  0.00  0.00    -0.047 A 
ATOM      9  C9  IND d   1       3.990  -5.333  -2.041  0.00  0.00    -0.096 A 
ATOM     10  HN1 IND d   1       6.774  -4.407  -1.141  0.00  0.00     0.298 HD
ENDROOT
TORSDOF 0
ENDMDL
