MODEL 1
REMARK minimizedAffinity 14.837553
REMARK minimizedRMSD -1
REMARK  0 active torsions:
REMARK  status: ('A' for Active; 'I' for Inactive)
ROOT
ATOM      1  N1  IND d   1       4.887  -1.824  -1.503  0.00  0.00    -0.196 N 
ATOM      2  C2  IND d   1       3.798  -1.204  -0.957  0.00  0.00     0.054 A 
ATOM      3  C3  IND d   1       2.912  -2.119  -0.505  0.00  0.00    -0.031 A 
ATOM      4  C4  IND d   1       3.090  -4.687  -0.465  0.00  0.00     0.051 A 
ATOM      5  C5  IND d   1       3.883  -5.718  -0.884  0.00  0.00    -0.031 A 
ATOM      6  C6  IND d   1       5.077  -5.500  -1.541  0.00  0.00     0.015 A 
ATOM      7  C7  IND d   1       5.529  -4.236  -1.795  0.00  0.00    -0.016 A 
ATOM      8  C8  IND d   1       4.723  -3.187  -1.378  0.00  0.00    -0.047 A 
ATOM      9  C9  IND d   1       3.490  -3.403  -0.748  0.00  0.00    -0.096 A 
ATOM     10  HN1 IND d   1       5.560  -1.430  -1.863  0.00  0.00     0.298 HD
ENDROOT
TORSDOF 0
ENDMDL
