MODEL 1
REMARK minimizedAffinity 2.47060633
REMARK minimizedRMSD -1
REMARK  0 active torsions:
REMARK  status: ('A' for Active; 'I' for Inactive)
ROOT
ATOM      1  N1  IND d   1      -1.156   3.934   2.582  0.00  0.00    -0.196 N 
ATOM      2  C2  IND d   1      -1.877   5.020   2.993  0.00  0.00     0.054 A 
ATOM      3  C3  IND d   1      -1.823   6.000   2.063  0.00  0.00    -0.031 A 
ATOM      4  C4  IND d   1      -0.695   5.998  -0.251  0.00  0.00     0.051 A 
ATOM      5  C5  IND d   1       0.114   5.245  -1.055  0.00  0.00    -0.031 A 
ATOM      6  C6  IND d   1       0.547   3.989  -0.681  0.00  0.00     0.015 A 
ATOM      7  C7  IND d   1       0.177   3.433   0.511  0.00  0.00    -0.016 A 
ATOM      8  C8  IND d   1      -0.638   4.199   1.333  0.00  0.00    -0.047 A 
ATOM      9  C9  IND d   1      -1.047   5.491   0.977  0.00  0.00    -0.096 A 
ATOM     10  HN1 IND d   1      -1.044   3.207   3.028  0.00  0.00     0.298 HD
ENDROOT
TORSDOF 0
ENDMDL
