MODEL 1
REMARK minimizedAffinity 13.8909779
REMARK minimizedRMSD -1
REMARK  0 active torsions:
REMARK  status: ('A' for Active; 'I' for Inactive)
ROOT
ATOM      1  N1  IND d   1       1.029   4.848  -0.776  0.00  0.00    -0.196 N 
ATOM      2  C2  IND d   1       0.016   4.586   0.104  0.00  0.00     0.054 A 
ATOM      3  C3  IND d   1      -1.182   4.826  -0.474  0.00  0.00    -0.031 A 
ATOM      4  C4  IND d   1      -1.720   5.554  -2.883  0.00  0.00     0.051 A 
ATOM      5  C5  IND d   1      -1.124   5.951  -4.047  0.00  0.00    -0.031 A 
ATOM      6  C6  IND d   1       0.249   5.998  -4.184  0.00  0.00     0.015 A 
ATOM      7  C7  IND d   1       1.079   5.638  -3.161  0.00  0.00    -0.016 A 
ATOM      8  C8  IND d   1       0.477   5.242  -1.975  0.00  0.00    -0.047 A 
ATOM      9  C9  IND d   1      -0.915   5.233  -1.817  0.00  0.00    -0.096 A 
ATOM     10  HN1 IND d   1       1.870   4.778  -0.609  0.00  0.00     0.298 HD
ENDROOT
TORSDOF 0
ENDMDL
