MODEL 1
REMARK minimizedAffinity 6.70028162
REMARK minimizedRMSD -1
REMARK  0 active torsions:
REMARK  status: ('A' for Active; 'I' for Inactive)
ROOT
ATOM      1  N1  IND d   1       0.754   4.945  -1.121  0.00  0.00    -0.196 N 
ATOM      2  C2  IND d   1      -0.098   6.000  -1.292  0.00  0.00     0.054 A 
ATOM      3  C3  IND d   1      -1.047   5.999  -0.329  0.00  0.00    -0.031 A 
ATOM      4  C4  IND d   1      -1.333   4.420   1.684  0.00  0.00     0.051 A 
ATOM      5  C5  IND d   1      -0.821   3.283   2.242  0.00  0.00    -0.031 A 
ATOM      6  C6  IND d   1       0.266   2.629   1.698  0.00  0.00     0.015 A 
ATOM      7  C7  IND d   1       0.891   3.097   0.578  0.00  0.00    -0.016 A 
ATOM      8  C8  IND d   1       0.369   4.249   0.004  0.00  0.00    -0.047 A 
ATOM      9  C9  IND d   1      -0.759   4.892   0.527  0.00  0.00    -0.096 A 
ATOM     10  HN1 IND d   1       1.418   4.748  -1.630  0.00  0.00     0.298 HD
ENDROOT
TORSDOF 0
ENDMDL
