MODEL 1
REMARK minimizedAffinity 11.1760902
REMARK minimizedRMSD -1
REMARK  0 active torsions:
REMARK  status: ('A' for Active; 'I' for Inactive)
ROOT
ATOM      1  N1  IND d   1       1.106   2.573   0.514  0.00  0.00    -0.196 N 
ATOM      2  C2  IND d   1       0.240   2.247   1.521  0.00  0.00     0.054 A 
ATOM      3  C3  IND d   1      -0.735   3.178   1.623  0.00  0.00    -0.031 A 
ATOM      4  C4  IND d   1      -1.162   5.264   0.176  0.00  0.00     0.051 A 
ATOM      5  C5  IND d   1      -0.621   5.998  -0.841  0.00  0.00    -0.031 A 
ATOM      6  C6  IND d   1       0.546   5.620  -1.473  0.00  0.00     0.015 A 
ATOM      7  C7  IND d   1       1.212   4.481  -1.118  0.00  0.00    -0.016 A 
ATOM      8  C8  IND d   1       0.669   3.736  -0.080  0.00  0.00    -0.047 A 
ATOM      9  C9  IND d   1      -0.492   4.138   0.593  0.00  0.00    -0.096 A 
ATOM     10  HN1 IND d   1       1.806   2.127   0.290  0.00  0.00     0.298 HD
ENDROOT
TORSDOF 0
ENDMDL
