MODEL 1
REMARK minimizedAffinity 12.2056532
REMARK minimizedRMSD -1
REMARK  0 active torsions:
REMARK  status: ('A' for Active; 'I' for Inactive)
ROOT
ATOM      1  N1  IND d   1      -3.548   5.712  -2.860  0.00  0.00    -0.196 N 
ATOM      2  C2  IND d   1      -3.590   4.735  -1.905  0.00  0.00     0.054 A 
ATOM      3  C3  IND d   1      -4.403   3.728  -2.297  0.00  0.00    -0.031 A 
ATOM      4  C4  IND d   1      -5.686   3.429  -4.509  0.00  0.00     0.051 A 
ATOM      5  C5  IND d   1      -5.987   4.075  -5.675  0.00  0.00    -0.031 A 
ATOM      6  C6  IND d   1      -5.478   5.323  -5.970  0.00  0.00     0.015 A 
ATOM      7  C7  IND d   1      -4.636   5.970  -5.111  0.00  0.00    -0.016 A 
ATOM      8  C8  IND d   1      -4.334   5.321  -3.922  0.00  0.00    -0.047 A 
ATOM      9  C9  IND d   1      -4.881   4.072  -3.598  0.00  0.00    -0.096 A 
ATOM     10  HN1 IND d   1      -3.106   6.447  -2.807  0.00  0.00     0.298 HD
ENDROOT
TORSDOF 0
ENDMDL
