MODEL 1
REMARK minimizedAffinity 11.8884563
REMARK minimizedRMSD -1
REMARK  0 active torsions:
REMARK  status: ('A' for Active; 'I' for Inactive)
ROOT
ATOM      1  N1  IND d   1      -0.925   3.315   2.391  0.00  0.00    -0.196 N 
ATOM      2  C2  IND d   1      -0.017   2.303   2.253  0.00  0.00     0.054 A 
ATOM      3  C3  IND d   1       0.709   2.472   1.126  0.00  0.00    -0.031 A 
ATOM      4  C4  IND d   1       0.646   4.392  -0.588  0.00  0.00     0.051 A 
ATOM      5  C5  IND d   1      -0.044   5.528  -0.908  0.00  0.00    -0.031 A 
ATOM      6  C6  IND d   1      -1.082   5.995  -0.128  0.00  0.00     0.015 A 
ATOM      7  C7  IND d   1      -1.463   5.347   1.013  0.00  0.00    -0.016 A 
ATOM      8  C8  IND d   1      -0.769   4.190   1.337  0.00  0.00    -0.047 A 
ATOM      9  C9  IND d   1       0.257   3.687   0.527  0.00  0.00    -0.096 A 
ATOM     10  HN1 IND d   1      -1.497   3.393   3.028  0.00  0.00     0.298 HD
ENDROOT
TORSDOF 0
ENDMDL
