MODEL 1
REMARK minimizedAffinity 4.6118207
REMARK minimizedRMSD -1
REMARK  0 active torsions:
REMARK  status: ('A' for Active; 'I' for Inactive)
ROOT
ATOM      1  N1  IND d   1      -5.576   5.094  -5.994  0.00  0.00    -0.196 N 
ATOM      2  C2  IND d   1      -5.264   5.993  -5.012  0.00  0.00     0.054 A 
ATOM      3  C3  IND d   1      -5.170   5.369  -3.816  0.00  0.00    -0.031 A 
ATOM      4  C4  IND d   1      -5.387   2.866  -3.256  0.00  0.00     0.051 A 
ATOM      5  C5  IND d   1      -5.702   1.660  -3.816  0.00  0.00    -0.031 A 
ATOM      6  C6  IND d   1      -5.995   1.534  -5.159  0.00  0.00     0.015 A 
ATOM      7  C7  IND d   1      -5.972   2.612  -5.997  0.00  0.00    -0.016 A 
ATOM      8  C8  IND d   1      -5.659   3.840  -5.430  0.00  0.00    -0.047 A 
ATOM      9  C9  IND d   1      -5.402   3.981  -4.060  0.00  0.00    -0.096 A 
ATOM     10  HN1 IND d   1      -5.700   5.281  -6.824  0.00  0.00     0.298 HD
ENDROOT
TORSDOF 0
ENDMDL
