MODEL 1
REMARK minimizedAffinity 11.573945
REMARK minimizedRMSD -1
REMARK  0 active torsions:
REMARK  status: ('A' for Active; 'I' for Inactive)
ROOT
ATOM      1  N1  IND d   1      -3.017   0.714   1.862  0.00  0.00    -0.196 N 
ATOM      2  C2  IND d   1      -1.931  -0.116   1.906  0.00  0.00     0.054 A 
ATOM      3  C3  IND d   1      -2.158  -1.144   2.754  0.00  0.00    -0.031 A 
ATOM      4  C4  IND d   1      -4.278  -1.718   4.097  0.00  0.00     0.051 A 
ATOM      5  C5  IND d   1      -5.519  -1.237   4.409  0.00  0.00    -0.031 A 
ATOM      6  C6  IND d   1      -6.000  -0.059   3.875  0.00  0.00     0.015 A 
ATOM      7  C7  IND d   1      -5.259   0.679   2.997  0.00  0.00    -0.016 A 
ATOM      8  C8  IND d   1      -3.996   0.198   2.683  0.00  0.00    -0.047 A 
ATOM      9  C9  IND d   1      -3.486  -0.975   3.254  0.00  0.00    -0.096 A 
ATOM     10  HN1 IND d   1      -3.078   1.436   1.400  0.00  0.00     0.298 HD
ENDROOT
TORSDOF 0
ENDMDL
