MODEL 1
REMARK minimizedAffinity 4.75141478
REMARK minimizedRMSD -1
REMARK  1 active torsions:
REMARK  status: ('A' for Active; 'I' for Inactive)
REMARK    1  A    between atoms: C1_2  and  C2_3 
ROOT
ATOM      1  C2  UNL d   1      -1.814  -2.182   1.541  0.00  0.00    -0.077 A 
ATOM      2  C3  UNL d   1      -2.515  -1.414   0.601  0.00  0.00     0.002 A 
ATOM      3  C4  UNL d   1      -2.160  -1.453  -0.749  0.00  0.00     0.002 A 
ATOM      4  C5  UNL d   1      -1.106  -2.261  -1.171  0.00  0.00    -0.004 A 
ATOM      5  C6  UNL d   1      -0.401  -3.027  -0.243  0.00  0.00     0.002 A 
ATOM      6  C7  UNL d   1      -0.754  -2.988   1.106  0.00  0.00     0.002 A 
ENDROOT
BRANCH   1   7
ATOM      7  C1  UNL d   1      -2.227  -2.180   2.990  0.00  0.00     0.055 C 
ATOM      8  C   UNL d   1      -1.193  -1.478   3.859  0.00  0.00     0.019 C 
ENDBRANCH   1   7
TORSDOF 1
ENDMDL
