MODEL 1
REMARK minimizedAffinity 6.25965881
REMARK minimizedRMSD -1
REMARK  1 active torsions:
REMARK  status: ('A' for Active; 'I' for Inactive)
REMARK    1  A    between atoms: C1_2  and  C2_3 
ROOT
ATOM      1  C2  UNL d   1       1.144  -0.277  -2.109  0.00  0.00    -0.077 A 
ATOM      2  C3  UNL d   1       0.181  -0.666  -1.166  0.00  0.00     0.002 A 
ATOM      3  C4  UNL d   1      -1.002  -1.281  -1.579  0.00  0.00     0.002 A 
ATOM      4  C5  UNL d   1      -1.232  -1.516  -2.933  0.00  0.00    -0.004 A 
ATOM      5  C6  UNL d   1      -0.282  -1.131  -3.878  0.00  0.00     0.002 A 
ATOM      6  C7  UNL d   1       0.901  -0.515  -3.467  0.00  0.00     0.002 A 
ENDROOT
BRANCH   1   7
ATOM      7  C1  UNL d   1       2.443   0.342  -1.662  0.00  0.00     0.055 C 
ATOM      8  C   UNL d   1       3.624  -0.240  -2.424  0.00  0.00     0.019 C 
ENDBRANCH   1   7
TORSDOF 1
ENDMDL
