MODEL 1
REMARK minimizedAffinity 5.45345306
REMARK minimizedRMSD -1
REMARK  1 active torsions:
REMARK  status: ('A' for Active; 'I' for Inactive)
REMARK    1  A    between atoms: C1_2  and  C2_3 
ROOT
ATOM      1  C2  UNL d   1      -5.167   5.220   0.024  0.00  0.00    -0.077 A 
ATOM      2  C3  UNL d   1      -5.520   5.998  -1.087  0.00  0.00     0.002 A 
ATOM      3  C4  UNL d   1      -4.776   5.924  -2.266  0.00  0.00     0.002 A 
ATOM      4  C5  UNL d   1      -3.678   5.070  -2.347  0.00  0.00    -0.004 A 
ATOM      5  C6  UNL d   1      -3.317   4.294  -1.246  0.00  0.00     0.002 A 
ATOM      6  C7  UNL d   1      -4.059   4.368  -0.066  0.00  0.00     0.002 A 
ENDROOT
BRANCH   1   7
ATOM      7  C1  UNL d   1      -5.997   5.262   1.280  0.00  0.00     0.055 C 
ATOM      8  C   UNL d   1      -5.999   3.915   1.988  0.00  0.00     0.019 C 
ENDBRANCH   1   7
TORSDOF 1
ENDMDL
