MODEL 1
REMARK minimizedAffinity 11.1459217
REMARK minimizedRMSD -1
REMARK  1 active torsions:
REMARK  status: ('A' for Active; 'I' for Inactive)
REMARK    1  A    between atoms: C1_2  and  C2_3 
ROOT
ATOM      1  C2  UNL d   1       0.195  -0.184  -1.789  0.00  0.00    -0.077 A 
ATOM      2  C3  UNL d   1      -0.490  -0.293  -0.571  0.00  0.00     0.002 A 
ATOM      3  C4  UNL d   1      -1.792  -0.796  -0.536  0.00  0.00     0.002 A 
ATOM      4  C5  UNL d   1      -2.418  -1.197  -1.714  0.00  0.00    -0.004 A 
ATOM      5  C6  UNL d   1      -1.746  -1.090  -2.931  0.00  0.00     0.002 A 
ATOM      6  C7  UNL d   1      -0.445  -0.587  -2.968  0.00  0.00     0.002 A 
ENDROOT
BRANCH   1   7
ATOM      7  C1  UNL d   1       1.617   0.312  -1.823  0.00  0.00     0.055 C 
ATOM      8  C   UNL d   1       1.696   1.792  -1.475  0.00  0.00     0.019 C 
ENDBRANCH   1   7
TORSDOF 1
ENDMDL
