MODEL 1
REMARK minimizedAffinity 0.270217627
REMARK minimizedRMSD -1
REMARK  1 active torsions:
REMARK  status: ('A' for Active; 'I' for Inactive)
REMARK    1  A    between atoms: C1_2  and  C2_3 
ROOT
ATOM      1  C2  UNL d   1      -3.991   3.621  -5.067  0.00  0.00    -0.077 A 
ATOM      2  C3  UNL d   1      -3.774   4.772  -4.296  0.00  0.00     0.002 A 
ATOM      3  C4  UNL d   1      -4.660   5.848  -4.369  0.00  0.00     0.002 A 
ATOM      4  C5  UNL d   1      -5.771   5.783  -5.208  0.00  0.00    -0.004 A 
ATOM      5  C6  UNL d   1      -5.995   4.644  -5.980  0.00  0.00     0.002 A 
ATOM      6  C7  UNL d   1      -5.109   3.568  -5.909  0.00  0.00     0.002 A 
ENDROOT
BRANCH   1   7
ATOM      7  C1  UNL d   1      -3.064   2.440  -4.953  0.00  0.00     0.055 C 
ATOM      8  C   UNL d   1      -1.607   2.867  -5.059  0.00  0.00     0.019 C 
ENDBRANCH   1   7
TORSDOF 1
ENDMDL
