MODEL 1
REMARK minimizedAffinity 8.75167274
REMARK minimizedRMSD -1
REMARK  1 active torsions:
REMARK  status: ('A' for Active; 'I' for Inactive)
REMARK    1  A    between atoms: C1_2  and  C2_3 
ROOT
ATOM      1  C2  UNL d   1      -4.364   4.338  -5.258  0.00  0.00    -0.077 A 
ATOM      2  C3  UNL d   1      -3.288   4.220  -4.367  0.00  0.00     0.002 A 
ATOM      3  C4  UNL d   1      -2.644   2.993  -4.197  0.00  0.00     0.002 A 
ATOM      4  C5  UNL d   1      -3.065   1.877  -4.917  0.00  0.00    -0.004 A 
ATOM      5  C6  UNL d   1      -4.135   1.985  -5.805  0.00  0.00     0.002 A 
ATOM      6  C7  UNL d   1      -4.781   3.210  -5.976  0.00  0.00     0.002 A 
ENDROOT
BRANCH   1   7
ATOM      7  C1  UNL d   1      -5.028   5.672  -5.480  0.00  0.00     0.055 C 
ATOM      8  C   UNL d   1      -6.000   6.000  -4.356  0.00  0.00     0.019 C 
ENDBRANCH   1   7
TORSDOF 1
ENDMDL
