MODEL 1
REMARK minimizedAffinity 14.4547596
REMARK minimizedRMSD -1
REMARK  1 active torsions:
REMARK  status: ('A' for Active; 'I' for Inactive)
REMARK    1  A    between atoms: C1_2  and  C2_3 
ROOT
ATOM      1  C2  UNL d   1       2.939   1.301  -1.118  0.00  0.00    -0.077 A 
ATOM      2  C3  UNL d   1       4.158   1.259  -1.809  0.00  0.00     0.002 A 
ATOM      3  C4  UNL d   1       4.347   0.352  -2.853  0.00  0.00     0.002 A 
ATOM      4  C5  UNL d   1       3.321  -0.517  -3.218  0.00  0.00    -0.004 A 
ATOM      5  C6  UNL d   1       2.106  -0.485  -2.536  0.00  0.00     0.002 A 
ATOM      6  C7  UNL d   1       1.915   0.420  -1.491  0.00  0.00     0.002 A 
ENDROOT
BRANCH   1   7
ATOM      7  C1  UNL d   1       2.715   2.312  -0.024  0.00  0.00     0.055 C 
ATOM      8  C   UNL d   1       4.034   2.799   0.557  0.00  0.00     0.019 C 
ENDBRANCH   1   7
TORSDOF 1
ENDMDL
