MODEL 1
REMARK minimizedAffinity 6.98887014
REMARK minimizedRMSD -1
REMARK  1 active torsions:
REMARK  status: ('A' for Active; 'I' for Inactive)
REMARK    1  A    between atoms: C1_2  and  C2_3 
ROOT
ATOM      1  C2  UNL d   1      -4.384   3.395  -5.301  0.00  0.00    -0.077 A 
ATOM      2  C3  UNL d   1      -3.743   4.261  -4.405  0.00  0.00     0.002 A 
ATOM      3  C4  UNL d   1      -4.222   5.559  -4.212  0.00  0.00     0.002 A 
ATOM      4  C5  UNL d   1      -5.345   6.000  -4.910  0.00  0.00    -0.004 A 
ATOM      5  C6  UNL d   1      -5.988   5.146  -5.805  0.00  0.00     0.002 A 
ATOM      6  C7  UNL d   1      -5.510   3.849  -5.999  0.00  0.00     0.002 A 
ENDROOT
BRANCH   1   7
ATOM      7  C1  UNL d   1      -3.899   1.979  -5.473  0.00  0.00     0.055 C 
ATOM      8  C   UNL d   1      -3.006   1.556  -4.316  0.00  0.00     0.019 C 
ENDBRANCH   1   7
TORSDOF 1
ENDMDL
