MODEL 1
REMARK minimizedAffinity 14.6944065
REMARK minimizedRMSD -1
REMARK  1 active torsions:
REMARK  status: ('A' for Active; 'I' for Inactive)
REMARK    1  A    between atoms: C1_2  and  C2_3 
ROOT
ATOM      1  C2  UNL d   1      -4.041   5.238  -4.087  0.00  0.00    -0.077 A 
ATOM      2  C3  UNL d   1      -3.803   3.947  -4.579  0.00  0.00     0.002 A 
ATOM      3  C4  UNL d   1      -4.658   3.384  -5.528  0.00  0.00     0.002 A 
ATOM      4  C5  UNL d   1      -5.754   4.107  -5.997  0.00  0.00    -0.004 A 
ATOM      5  C6  UNL d   1      -6.000   5.391  -5.513  0.00  0.00     0.002 A 
ATOM      6  C7  UNL d   1      -5.147   5.954  -4.563  0.00  0.00     0.002 A 
ENDROOT
BRANCH   1   7
ATOM      7  C1  UNL d   1      -3.092   5.866  -3.100  0.00  0.00     0.055 C 
ATOM      8  C   UNL d   1      -3.289   5.296  -1.703  0.00  0.00     0.019 C 
ENDBRANCH   1   7
TORSDOF 1
ENDMDL
