MODEL 1
REMARK minimizedAffinity 15.6644821
REMARK minimizedRMSD -1
REMARK  1 active torsions:
REMARK  status: ('A' for Active; 'I' for Inactive)
REMARK    1  A    between atoms: C1_2  and  C2_3 
ROOT
ATOM      1  C2  UNL d   1      -0.187  -0.699  -1.777  0.00  0.00    -0.077 A 
ATOM      2  C3  UNL d   1       0.659   0.152  -1.053  0.00  0.00     0.002 A 
ATOM      3  C4  UNL d   1       1.883   0.555  -1.591  0.00  0.00     0.002 A 
ATOM      4  C5  UNL d   1       2.269   0.116  -2.855  0.00  0.00    -0.004 A 
ATOM      5  C6  UNL d   1       1.435  -0.733  -3.582  0.00  0.00     0.002 A 
ATOM      6  C7  UNL d   1       0.212  -1.138  -3.046  0.00  0.00     0.002 A 
ENDROOT
BRANCH   1   7
ATOM      7  C1  UNL d   1      -1.530  -1.096  -1.220  0.00  0.00     0.055 C 
ATOM      8  C   UNL d   1      -1.381  -1.895   0.066  0.00  0.00     0.019 C 
ENDBRANCH   1   7
TORSDOF 1
ENDMDL
