MODEL 1
REMARK minimizedAffinity 10.776885
REMARK minimizedRMSD -1
REMARK  1 active torsions:
REMARK  status: ('A' for Active; 'I' for Inactive)
REMARK    1  A    between atoms: C1_2  and  C2_3 
ROOT
ATOM      1  C2  UNL d   1      -1.021  -2.297  -0.359  0.00  0.00    -0.077 A 
ATOM      2  C3  UNL d   1      -2.176  -1.629   0.070  0.00  0.00     0.002 A 
ATOM      3  C4  UNL d   1      -2.866  -0.782  -0.799  0.00  0.00     0.002 A 
ATOM      4  C5  UNL d   1      -2.411  -0.597  -2.102  0.00  0.00    -0.004 A 
ATOM      5  C6  UNL d   1      -1.262  -1.256  -2.539  0.00  0.00     0.002 A 
ATOM      6  C7  UNL d   1      -0.570  -2.102  -1.671  0.00  0.00     0.002 A 
ENDROOT
BRANCH   1   7
ATOM      7  C1  UNL d   1      -0.303  -3.250   0.561  0.00  0.00     0.055 C 
ATOM      8  C   UNL d   1      -0.397  -4.683   0.056  0.00  0.00     0.019 C 
ENDBRANCH   1   7
TORSDOF 1
ENDMDL
