MODEL 1
REMARK minimizedAffinity 12.5588427
REMARK minimizedRMSD -1
REMARK  1 active torsions:
REMARK  status: ('A' for Active; 'I' for Inactive)
REMARK    1  A    between atoms: C1_2  and  C2_3 
ROOT
ATOM      1  C2  UNL d   1      -2.087  -2.171   1.428  0.00  0.00    -0.077 A 
ATOM      2  C3  UNL d   1      -1.045  -2.963   0.925  0.00  0.00     0.002 A 
ATOM      3  C4  UNL d   1      -0.590  -2.785  -0.383  0.00  0.00     0.002 A 
ATOM      4  C5  UNL d   1      -1.169  -1.812  -1.197  0.00  0.00    -0.004 A 
ATOM      5  C6  UNL d   1      -2.206  -1.021  -0.706  0.00  0.00     0.002 A 
ATOM      6  C7  UNL d   1      -2.663  -1.199   0.600  0.00  0.00     0.002 A 
ENDROOT
BRANCH   1   7
ATOM      7  C1  UNL d   1      -2.545  -2.329   2.854  0.00  0.00     0.055 C 
ATOM      8  C   UNL d   1      -2.200  -1.102   3.685  0.00  0.00     0.019 C 
ENDBRANCH   1   7
TORSDOF 1
ENDMDL
