MODEL 1
REMARK minimizedAffinity 9.7071991
REMARK minimizedRMSD -1
REMARK  1 active torsions:
REMARK  status: ('A' for Active; 'I' for Inactive)
REMARK    1  A    between atoms: C1_2  and  C2_3 
ROOT
ATOM      1  C2  UNL d   1      -3.865   3.807  -4.542  0.00  0.00    -0.077 A 
ATOM      2  C3  UNL d   1      -3.937   5.018  -3.840  0.00  0.00     0.002 A 
ATOM      3  C4  UNL d   1      -4.856   6.000  -4.217  0.00  0.00     0.002 A 
ATOM      4  C5  UNL d   1      -5.712   5.778  -5.294  0.00  0.00    -0.004 A 
ATOM      5  C6  UNL d   1      -5.647   4.578  -6.000  0.00  0.00     0.002 A 
ATOM      6  C7  UNL d   1      -4.728   3.596  -5.625  0.00  0.00     0.002 A 
ENDROOT
BRANCH   1   7
ATOM      7  C1  UNL d   1      -2.909   2.728  -4.106  0.00  0.00     0.055 C 
ATOM      8  C   UNL d   1      -3.018   1.499  -4.997  0.00  0.00     0.019 C 
ENDBRANCH   1   7
TORSDOF 1
ENDMDL
