MODEL 1
REMARK minimizedAffinity 9.67238808
REMARK minimizedRMSD -1
REMARK  1 active torsions:
REMARK  status: ('A' for Active; 'I' for Inactive)
REMARK    1  A    between atoms: C1_2  and  C2_3 
ROOT
ATOM      1  C2  UNL d   1      -2.172  -2.411   2.023  0.00  0.00    -0.077 A 
ATOM      2  C3  UNL d   1      -1.090  -3.243   1.704  0.00  0.00     0.002 A 
ATOM      3  C4  UNL d   1      -0.455  -3.132   0.466  0.00  0.00     0.002 A 
ATOM      4  C5  UNL d   1      -0.893  -2.189  -0.462  0.00  0.00    -0.004 A 
ATOM      5  C6  UNL d   1      -1.971  -1.359  -0.155  0.00  0.00     0.002 A 
ATOM      6  C7  UNL d   1      -2.607  -1.469   1.082  0.00  0.00     0.002 A 
ENDROOT
BRANCH   1   7
ATOM      7  C1  UNL d   1      -2.827  -2.495   3.377  0.00  0.00     0.055 C 
ATOM      8  C   UNL d   1      -2.150  -1.569   4.377  0.00  0.00     0.019 C 
ENDBRANCH   1   7
TORSDOF 1
ENDMDL
