MODEL 1
REMARK minimizedAffinity 16.8898716
REMARK minimizedRMSD -1
REMARK  1 active torsions:
REMARK  status: ('A' for Active; 'I' for Inactive)
REMARK    1  A    between atoms: C1_2  and  C2_3 
ROOT
ATOM      1  C2  UNL d   1      -0.385   0.757  -4.320  0.00  0.00    -0.077 A 
ATOM      2  C3  UNL d   1       0.178   2.007  -4.613  0.00  0.00     0.002 A 
ATOM      3  C4  UNL d   1      -0.630   3.143  -4.697  0.00  0.00     0.002 A 
ATOM      4  C5  UNL d   1      -2.003   3.040  -4.485  0.00  0.00    -0.004 A 
ATOM      5  C6  UNL d   1      -2.573   1.801  -4.196  0.00  0.00     0.002 A 
ATOM      6  C7  UNL d   1      -1.767   0.664  -4.112  0.00  0.00     0.002 A 
ENDROOT
BRANCH   1   7
ATOM      7  C1  UNL d   1       0.491  -0.461  -4.180  0.00  0.00     0.055 C 
ATOM      8  C   UNL d   1       1.746  -0.151  -3.378  0.00  0.00     0.019 C 
ENDBRANCH   1   7
TORSDOF 1
ENDMDL
