MODEL 1
REMARK minimizedAffinity -5.227458
REMARK minimizedRMSD -1
REMARK  1 active torsions:
REMARK  status: ('A' for Active; 'I' for Inactive)
REMARK    1  A    between atoms: C1_2  and  C2_3 
ROOT
ATOM      1  C2  UNL d   1      -0.629   0.357   1.056  0.00  0.00    -0.076 A 
ATOM      2  C3  UNL d   1       0.580  -0.274   1.400  0.00  0.00     0.004 A 
ATOM      3  C4  UNL d   1       1.657  -0.292   0.515  0.00  0.00    -0.003 A 
ATOM      4  C5  UNL d   1       1.544   0.322  -0.727  0.00  0.00     0.000 A 
ATOM      5  C6  UNL d   1       0.359   0.968  -1.078  0.00  0.00     0.000 A 
ATOM      6  C7  UNL d   1      -0.731   1.009  -0.191  0.00  0.00    -0.073 A 
ATOM      7  C8  UNL d   1      -1.987   1.715  -0.624  0.00  0.00     0.078 C 
ENDROOT
BRANCH   1   8
ATOM      8  C1  UNL d   1      -1.772   0.320   2.045  0.00  0.00     0.053 C 
ATOM      9  C   UNL d   1      -1.594   1.318   3.178  0.00  0.00     0.018 C 
ENDBRANCH   1   8
TORSDOF 1
ENDMDL
