MODEL 1
REMARK minimizedAffinity -1.72128201
REMARK minimizedRMSD -1
REMARK  1 active torsions:
REMARK  status: ('A' for Active; 'I' for Inactive)
REMARK    1  A    between atoms: C1_2  and  C2_3 
ROOT
ATOM      1  C2  UNL d   1       0.747   0.191  -0.551  0.00  0.00    -0.076 A 
ATOM      2  C3  UNL d   1      -0.555  -0.338  -0.491  0.00  0.00     0.004 A 
ATOM      3  C4  UNL d   1      -0.768  -1.695  -0.259  0.00  0.00    -0.003 A 
ATOM      4  C5  UNL d   1       0.317  -2.547  -0.081  0.00  0.00     0.000 A 
ATOM      5  C6  UNL d   1       1.614  -2.037  -0.120  0.00  0.00     0.000 A 
ATOM      6  C7  UNL d   1       1.846  -0.668  -0.337  0.00  0.00    -0.073 A 
ATOM      7  C8  UNL d   1       3.266  -0.174  -0.375  0.00  0.00     0.078 C 
ENDROOT
BRANCH   1   8
ATOM      8  C1  UNL d   1       0.917   1.666  -0.833  0.00  0.00     0.053 C 
ATOM      9  C   UNL d   1      -0.257   2.252  -1.601  0.00  0.00     0.018 C 
ENDBRANCH   1   8
TORSDOF 1
ENDMDL
