MODEL 1
REMARK minimizedAffinity -4.87924385
REMARK minimizedRMSD -1
REMARK  1 active torsions:
REMARK  status: ('A' for Active; 'I' for Inactive)
REMARK    1  A    between atoms: C1_2  and  C2_3 
ROOT
ATOM      1  C2  UNL d   1       0.921   0.679  -1.550  0.00  0.00    -0.076 A 
ATOM      2  C3  UNL d   1      -0.458   0.874  -1.360  0.00  0.00     0.004 A 
ATOM      3  C4  UNL d   1      -1.103   0.377  -0.228  0.00  0.00    -0.003 A 
ATOM      4  C5  UNL d   1      -0.379  -0.321   0.732  0.00  0.00     0.000 A 
ATOM      5  C6  UNL d   1       0.993  -0.509   0.567  0.00  0.00     0.000 A 
ATOM      6  C7  UNL d   1       1.662  -0.000  -0.560  0.00  0.00    -0.073 A 
ATOM      7  C8  UNL d   1       3.142  -0.237  -0.688  0.00  0.00     0.078 C 
ENDROOT
BRANCH   1   8
ATOM      8  C1  UNL d   1       1.561   1.217  -2.810  0.00  0.00     0.053 C 
ATOM      9  C   UNL d   1       2.209   2.576  -2.600  0.00  0.00     0.018 C 
ENDBRANCH   1   8
TORSDOF 1
ENDMDL
