MODEL 1
REMARK minimizedAffinity -3.38919067
REMARK minimizedRMSD -1
REMARK  1 active torsions:
REMARK  status: ('A' for Active; 'I' for Inactive)
REMARK    1  A    between atoms: C1_2  and  C2_3 
ROOT
ATOM      1  C2  UNL d   1       0.196   0.468  -1.012  0.00  0.00    -0.076 A 
ATOM      2  C3  UNL d   1       0.413   1.677  -1.696  0.00  0.00     0.004 A 
ATOM      3  C4  UNL d   1       1.507   1.835  -2.545  0.00  0.00    -0.003 A 
ATOM      4  C5  UNL d   1       2.401   0.785  -2.725  0.00  0.00     0.000 A 
ATOM      5  C6  UNL d   1       2.192  -0.427  -2.068  0.00  0.00     0.000 A 
ATOM      6  C7  UNL d   1       1.085  -0.608  -1.221  0.00  0.00    -0.073 A 
ATOM      7  C8  UNL d   1       0.911  -1.934  -0.534  0.00  0.00     0.078 C 
ENDROOT
BRANCH   1   8
ATOM      8  C1  UNL d   1      -0.992   0.365  -0.083  0.00  0.00     0.053 C 
ATOM      9  C   UNL d   1      -0.632   0.682   1.361  0.00  0.00     0.018 C 
ENDBRANCH   1   8
TORSDOF 1
ENDMDL
