MODEL 1
REMARK minimizedAffinity -2.69249654
REMARK minimizedRMSD -1
REMARK  1 active torsions:
REMARK  status: ('A' for Active; 'I' for Inactive)
REMARK    1  A    between atoms: C1_2  and  C2_3 
ROOT
ATOM      1  C2  UNL d   1       0.708   0.060  -0.393  0.00  0.00    -0.076 A 
ATOM      2  C3  UNL d   1      -0.488   0.798  -0.404  0.00  0.00     0.004 A 
ATOM      3  C4  UNL d   1      -0.574   2.015  -1.077  0.00  0.00    -0.003 A 
ATOM      4  C5  UNL d   1       0.535   2.515  -1.751  0.00  0.00     0.000 A 
ATOM      5  C6  UNL d   1       1.725   1.788  -1.765  0.00  0.00     0.000 A 
ATOM      6  C7  UNL d   1       1.824   0.551  -1.105  0.00  0.00    -0.073 A 
ATOM      7  C8  UNL d   1       3.133  -0.188  -1.149  0.00  0.00     0.078 C 
ENDROOT
BRANCH   1   8
ATOM      8  C1  UNL d   1       0.750  -1.241   0.377  0.00  0.00     0.053 C 
ATOM      9  C   UNL d   1       0.087  -2.384  -0.375  0.00  0.00     0.018 C 
ENDBRANCH   1   8
TORSDOF 1
ENDMDL
