MODEL 1
REMARK minimizedAffinity -5.12451029
REMARK minimizedRMSD -1
REMARK  1 active torsions:
REMARK  status: ('A' for Active; 'I' for Inactive)
REMARK    1  A    between atoms: C1_2  and  C2_3 
ROOT
ATOM      1  C2  UNL d   1       0.489  -0.041  -0.074  0.00  0.00    -0.076 A 
ATOM      2  C3  UNL d   1       1.436   0.930  -0.445  0.00  0.00     0.004 A 
ATOM      3  C4  UNL d   1       2.695   0.561  -0.915  0.00  0.00    -0.003 A 
ATOM      4  C5  UNL d   1       3.028  -0.784  -1.023  0.00  0.00     0.000 A 
ATOM      5  C6  UNL d   1       2.096  -1.761  -0.676  0.00  0.00     0.000 A 
ATOM      6  C7  UNL d   1       0.816  -1.407  -0.216  0.00  0.00    -0.073 A 
ATOM      7  C8  UNL d   1      -0.149  -2.502   0.150  0.00  0.00     0.078 C 
ENDROOT
BRANCH   1   8
ATOM      8  C1  UNL d   1      -0.851   0.418   0.455  0.00  0.00     0.053 C 
ATOM      9  C   UNL d   1      -0.753   1.013   1.851  0.00  0.00     0.018 C 
ENDBRANCH   1   8
TORSDOF 1
ENDMDL
