MODEL 1
REMARK minimizedAffinity 0.647126436
REMARK minimizedRMSD -1
REMARK  1 active torsions:
REMARK  status: ('A' for Active; 'I' for Inactive)
REMARK    1  A    between atoms: C1_2  and  C2_3 
ROOT
ATOM      1  C2  UNL d   1      -0.286  -1.893  -0.308  0.00  0.00    -0.076 A 
ATOM      2  C3  UNL d   1      -1.358  -1.044   0.018  0.00  0.00     0.004 A 
ATOM      3  C4  UNL d   1      -1.357   0.294  -0.370  0.00  0.00    -0.003 A 
ATOM      4  C5  UNL d   1      -0.283   0.806  -1.091  0.00  0.00     0.000 A 
ATOM      5  C6  UNL d   1       0.781  -0.026  -1.438  0.00  0.00     0.000 A 
ATOM      6  C7  UNL d   1       0.787  -1.382  -1.069  0.00  0.00    -0.073 A 
ATOM      7  C8  UNL d   1       1.964  -2.232  -1.465  0.00  0.00     0.078 C 
ENDROOT
BRANCH   1   8
ATOM      8  C1  UNL d   1      -0.329  -3.329   0.163  0.00  0.00     0.053 C 
ATOM      9  C   UNL d   1       0.424  -3.538   1.467  0.00  0.00     0.018 C 
ENDBRANCH   1   8
TORSDOF 1
ENDMDL
