MODEL 1
REMARK minimizedAffinity 0.474920541
REMARK minimizedRMSD -1
REMARK  0 active torsions:
REMARK  status: ('A' for Active; 'I' for Inactive)
ROOT
ATOM      1  C   UNL d   1       2.653  -5.992  -5.783  0.00  0.00     0.172 C 
ATOM      2  N   UNL d   1       3.070  -5.994  -4.401  0.00  0.00    -0.070 N 
ATOM      3  C1  UNL d   1       2.236  -5.991  -3.315  0.00  0.00    -0.004 A 
ATOM      4  C2  UNL d   1       3.019  -5.994  -2.181  0.00  0.00    -0.047 A 
ATOM      5  C3  UNL d   1       4.371  -5.998  -2.600  0.00  0.00    -0.047 A 
ATOM      6  C4  UNL d   1       4.373  -5.998  -3.978  0.00  0.00    -0.004 A 
ENDROOT
TORSDOF 0
ENDMDL
