MODEL 1
REMARK minimizedAffinity 3.12130189
REMARK minimizedRMSD -1
REMARK  0 active torsions:
REMARK  status: ('A' for Active; 'I' for Inactive)
ROOT
ATOM      1  C   UNL d   1       1.365  -5.213   5.513  0.00  0.00     0.172 C 
ATOM      2  N   UNL d   1       1.626  -4.145   4.577  0.00  0.00    -0.070 N 
ATOM      3  C1  UNL d   1       2.318  -2.995   4.849  0.00  0.00    -0.004 A 
ATOM      4  C2  UNL d   1       2.347  -2.237   3.699  0.00  0.00    -0.047 A 
ATOM      5  C3  UNL d   1       1.648  -2.956   2.700  0.00  0.00    -0.047 A 
ATOM      6  C4  UNL d   1       1.212  -4.133   3.271  0.00  0.00    -0.004 A 
ENDROOT
TORSDOF 0
ENDMDL
