MODEL 1
REMARK minimizedAffinity 4.28742981
REMARK minimizedRMSD -1
REMARK  0 active torsions:
REMARK  status: ('A' for Active; 'I' for Inactive)
ROOT
ATOM      1  C   UNL d   1      -2.980  -1.594  -2.978  0.00  0.00     0.172 C 
ATOM      2  N   UNL d   1      -2.743  -0.377  -2.238  0.00  0.00    -0.070 N 
ATOM      3  C1  UNL d   1      -3.152   0.876  -2.609  0.00  0.00    -0.004 A 
ATOM      4  C2  UNL d   1      -2.732   1.762  -1.641  0.00  0.00    -0.047 A 
ATOM      5  C3  UNL d   1      -2.045   1.016  -0.654  0.00  0.00    -0.047 A 
ATOM      6  C4  UNL d   1      -2.067  -0.305  -1.049  0.00  0.00    -0.004 A 
ENDROOT
TORSDOF 0
ENDMDL
