MODEL 1
REMARK minimizedAffinity 4.26812744
REMARK minimizedRMSD -1
REMARK  0 active torsions:
REMARK  status: ('A' for Active; 'I' for Inactive)
ROOT
ATOM      1  C   UNL d   1       2.160  -4.573   2.899  0.00  0.00     0.172 C 
ATOM      2  N   UNL d   1       1.824  -3.198   2.613  0.00  0.00    -0.070 N 
ATOM      3  C1  UNL d   1       1.184  -2.750   1.488  0.00  0.00    -0.004 A 
ATOM      4  C2  UNL d   1       1.051  -1.383   1.594  0.00  0.00    -0.047 A 
ATOM      5  C3  UNL d   1       1.632  -0.995   2.825  0.00  0.00    -0.047 A 
ATOM      6  C4  UNL d   1       2.102  -2.139   3.435  0.00  0.00    -0.004 A 
ENDROOT
TORSDOF 0
ENDMDL
