MODEL 1
REMARK minimizedAffinity 2.71832395
REMARK minimizedRMSD -1
REMARK  0 active torsions:
REMARK  status: ('A' for Active; 'I' for Inactive)
ROOT
ATOM      1  C   UNL d   1       5.484  -2.840   3.834  0.00  0.00     0.172 C 
ATOM      2  N   UNL d   1       4.066  -3.035   3.638  0.00  0.00    -0.070 N 
ATOM      3  C1  UNL d   1       3.251  -2.248   2.869  0.00  0.00    -0.004 A 
ATOM      4  C2  UNL d   1       1.975  -2.765   2.941  0.00  0.00    -0.047 A 
ATOM      5  C3  UNL d   1       2.026  -3.901   3.783  0.00  0.00    -0.047 A 
ATOM      6  C4  UNL d   1       3.332  -4.045   4.200  0.00  0.00    -0.004 A 
ENDROOT
TORSDOF 0
ENDMDL
