MODEL 1
REMARK minimizedAffinity 0.555457234
REMARK minimizedRMSD -1
REMARK  0 active torsions:
REMARK  status: ('A' for Active; 'I' for Inactive)
ROOT
ATOM      1  C   UNL d   1       2.628  -0.408   1.850  0.00  0.00     0.172 C 
ATOM      2  N   UNL d   1       2.180  -1.552   2.609  0.00  0.00    -0.070 N 
ATOM      3  C1  UNL d   1       1.234  -1.532   3.599  0.00  0.00    -0.004 A 
ATOM      4  C2  UNL d   1       1.091  -2.819   4.072  0.00  0.00    -0.047 A 
ATOM      5  C3  UNL d   1       1.983  -3.640   3.341  0.00  0.00    -0.047 A 
ATOM      6  C4  UNL d   1       2.644  -2.830   2.443  0.00  0.00    -0.004 A 
ENDROOT
TORSDOF 0
ENDMDL
