MODEL 1
REMARK minimizedAffinity 6.30917883
REMARK minimizedRMSD -1
REMARK  0 active torsions:
REMARK  status: ('A' for Active; 'I' for Inactive)
ROOT
ATOM      1  C   UNL d   1       1.586  -5.976  -3.943  0.00  0.00     0.172 C 
ATOM      2  N   UNL d   1       3.029  -5.984  -3.876  0.00  0.00    -0.070 N 
ATOM      3  C1  UNL d   1       3.878  -5.989  -4.950  0.00  0.00    -0.004 A 
ATOM      4  C2  UNL d   1       5.169  -5.996  -4.468  0.00  0.00    -0.047 A 
ATOM      5  C3  UNL d   1       5.093  -5.997  -3.055  0.00  0.00    -0.047 A 
ATOM      6  C4  UNL d   1       3.757  -5.989  -2.715  0.00  0.00    -0.004 A 
ENDROOT
TORSDOF 0
ENDMDL
