MODEL 1
REMARK minimizedAffinity -1.87573862
REMARK minimizedRMSD -1
REMARK  0 active torsions:
REMARK  status: ('A' for Active; 'I' for Inactive)
ROOT
ATOM      1  C   UNL d   1       2.050  -5.978  -3.864  0.00  0.00     0.172 C 
ATOM      2  N   UNL d   1       3.218  -5.986  -3.014  0.00  0.00    -0.070 N 
ATOM      3  C1  UNL d   1       4.518  -5.993  -3.444  0.00  0.00    -0.004 A 
ATOM      4  C2  UNL d   1       5.330  -5.998  -2.330  0.00  0.00    -0.047 A 
ATOM      5  C3  UNL d   1       4.489  -5.996  -1.192  0.00  0.00    -0.047 A 
ATOM      6  C4  UNL d   1       3.187  -5.988  -1.644  0.00  0.00    -0.004 A 
ENDROOT
TORSDOF 0
ENDMDL
