MODEL 1
REMARK minimizedAffinity 0.167090967
REMARK minimizedRMSD -1
REMARK  0 active torsions:
REMARK  status: ('A' for Active; 'I' for Inactive)
ROOT
ATOM      1  C   UNL d   1       2.190  -5.999  -5.972  0.00  0.00     0.172 C 
ATOM      2  N   UNL d   1       2.676  -5.999  -4.612  0.00  0.00    -0.070 N 
ATOM      3  C1  UNL d   1       1.898  -5.998  -3.486  0.00  0.00    -0.004 A 
ATOM      4  C2  UNL d   1       2.736  -5.999  -2.393  0.00  0.00    -0.047 A 
ATOM      5  C3  UNL d   1       4.066  -6.000  -2.879  0.00  0.00    -0.047 A 
ATOM      6  C4  UNL d   1       3.999  -6.000  -4.256  0.00  0.00    -0.004 A 
ENDROOT
TORSDOF 0
ENDMDL
