MODEL 1
REMARK minimizedAffinity 1.36192703
REMARK minimizedRMSD -1
REMARK  0 active torsions:
REMARK  status: ('A' for Active; 'I' for Inactive)
ROOT
ATOM      1  C   UNL d   1       2.223  -4.449   3.024  0.00  0.00     0.172 C 
ATOM      2  N   UNL d   1       1.989  -3.056   3.324  0.00  0.00    -0.070 N 
ATOM      3  C1  UNL d   1       1.905  -2.044   2.406  0.00  0.00    -0.004 A 
ATOM      4  C2  UNL d   1       1.674  -0.871   3.090  0.00  0.00    -0.047 A 
ATOM      5  C3  UNL d   1       1.618  -1.188   4.468  0.00  0.00    -0.047 A 
ATOM      6  C4  UNL d   1       1.816  -2.548   4.585  0.00  0.00    -0.004 A 
ENDROOT
TORSDOF 0
ENDMDL
