MODEL 1
REMARK minimizedAffinity 6.67711496
REMARK minimizedRMSD -1
REMARK  0 active torsions:
REMARK  status: ('A' for Active; 'I' for Inactive)
ROOT
ATOM      1  C   UNL d   1      -3.060   1.164  -2.574  0.00  0.00     0.172 C 
ATOM      2  N   UNL d   1      -3.117  -0.278  -2.530  0.00  0.00    -0.070 N 
ATOM      3  C1  UNL d   1      -2.646  -1.065  -1.514  0.00  0.00    -0.004 A 
ATOM      4  C2  UNL d   1      -2.890  -2.379  -1.850  0.00  0.00    -0.047 A 
ATOM      5  C3  UNL d   1      -3.528  -2.382  -3.113  0.00  0.00    -0.047 A 
ATOM      6  C4  UNL d   1      -3.657  -1.068  -3.511  0.00  0.00    -0.004 A 
ENDROOT
TORSDOF 0
ENDMDL
