MODEL 1
REMARK minimizedAffinity 3.74847531
REMARK minimizedRMSD -1
REMARK  0 active torsions:
REMARK  status: ('A' for Active; 'I' for Inactive)
ROOT
ATOM      1  C   UNL d   1       4.489  -5.491  -2.627  0.00  0.00     0.172 C 
ATOM      2  N   UNL d   1       3.600  -5.620  -1.496  0.00  0.00    -0.070 N 
ATOM      3  C1  UNL d   1       2.280  -5.977  -1.555  0.00  0.00    -0.004 A 
ATOM      4  C2  UNL d   1       1.787  -5.986  -0.268  0.00  0.00    -0.047 A 
ATOM      5  C3  UNL d   1       2.848  -5.621   0.594  0.00  0.00    -0.047 A 
ATOM      6  C4  UNL d   1       3.959  -5.400  -0.192  0.00  0.00    -0.004 A 
ENDROOT
TORSDOF 0
ENDMDL
