MODEL 1
REMARK minimizedAffinity 2.68990159
REMARK minimizedRMSD -1
REMARK  0 active torsions:
REMARK  status: ('A' for Active; 'I' for Inactive)
ROOT
ATOM      1  C1  BNZ d   1       2.200   1.707   1.249  0.00  0.00     0.000 A 
ATOM      2  C2  BNZ d   1       3.445   1.609   0.688  0.00  0.00     0.000 A 
ATOM      3  C3  BNZ d   1       4.362   0.718   1.171  0.00  0.00     0.000 A 
ATOM      4  C4  BNZ d   1       4.047  -0.045   2.238  0.00  0.00     0.000 A 
ATOM      5  C5  BNZ d   1       2.799   0.049   2.820  0.00  0.00     0.000 A 
ATOM      6  C6  BNZ d   1       1.865   0.920   2.307  0.00  0.00     0.000 A 
ENDROOT
TORSDOF 0
ENDMDL
