MODEL 1
REMARK minimizedAffinity -1.93058789
REMARK minimizedRMSD -1
REMARK  0 active torsions:
REMARK  status: ('A' for Active; 'I' for Inactive)
ROOT
ATOM      1  C1  BNZ d   1      -5.069   3.691   4.133  0.00  0.00     0.000 A 
ATOM      2  C2  BNZ d   1      -5.517   3.710   2.839  0.00  0.00     0.000 A 
ATOM      3  C3  BNZ d   1      -5.963   4.870   2.270  0.00  0.00     0.000 A 
ATOM      4  C4  BNZ d   1      -5.999   5.999   3.007  0.00  0.00     0.000 A 
ATOM      5  C5  BNZ d   1      -5.559   5.995   4.315  0.00  0.00     0.000 A 
ATOM      6  C6  BNZ d   1      -5.074   4.834   4.873  0.00  0.00     0.000 A 
ENDROOT
TORSDOF 0
ENDMDL
