MODEL 1
REMARK minimizedAffinity 9.26964951
REMARK minimizedRMSD -1
REMARK  0 active torsions:
REMARK  status: ('A' for Active; 'I' for Inactive)
ROOT
ATOM      1  C1  BNZ d   1      -4.746  -5.755  -2.631  0.00  0.00     0.000 A 
ATOM      2  C2  BNZ d   1      -3.485  -5.307  -2.340  0.00  0.00     0.000 A 
ATOM      3  C3  BNZ d   1      -3.188  -3.974  -2.388  0.00  0.00     0.000 A 
ATOM      4  C4  BNZ d   1      -4.140  -3.095  -2.764  0.00  0.00     0.000 A 
ATOM      5  C5  BNZ d   1      -5.413  -3.532  -3.069  0.00  0.00     0.000 A 
ATOM      6  C6  BNZ d   1      -5.719  -4.871  -2.982  0.00  0.00     0.000 A 
ENDROOT
TORSDOF 0
ENDMDL
