MODEL 1
REMARK minimizedAffinity 4.49755764
REMARK minimizedRMSD -1
REMARK  0 active torsions:
REMARK  status: ('A' for Active; 'I' for Inactive)
ROOT
ATOM      1  C1  BNZ d   1       3.626   5.987   3.900  0.00  0.00     0.000 A 
ATOM      2  C2  BNZ d   1       4.823   5.975   4.565  0.00  0.00     0.000 A 
ATOM      3  C3  BNZ d   1       5.995   5.766   3.893  0.00  0.00     0.000 A 
ATOM      4  C4  BNZ d   1       5.964   5.531   2.565  0.00  0.00     0.000 A 
ATOM      5  C5  BNZ d   1       4.764   5.530   1.882  0.00  0.00     0.000 A 
ATOM      6  C6  BNZ d   1       3.591   5.780   2.556  0.00  0.00     0.000 A 
ENDROOT
TORSDOF 0
ENDMDL
