MODEL 1
REMARK minimizedAffinity 0.391609907
REMARK minimizedRMSD -1
REMARK  0 active torsions:
REMARK  status: ('A' for Active; 'I' for Inactive)
ROOT
ATOM      1  C1  BNZ d   1       1.661   0.556   1.356  0.00  0.00     0.000 A 
ATOM      2  C2  BNZ d   1       1.161   1.786   1.690  0.00  0.00     0.000 A 
ATOM      3  C3  BNZ d   1       1.914   2.916   1.527  0.00  0.00     0.000 A 
ATOM      4  C4  BNZ d   1       3.177   2.809   1.068  0.00  0.00     0.000 A 
ATOM      5  C5  BNZ d   1       3.699   1.575   0.735  0.00  0.00     0.000 A 
ATOM      6  C6  BNZ d   1       2.925   0.445   0.864  0.00  0.00     0.000 A 
ENDROOT
TORSDOF 0
ENDMDL
