MODEL 1
REMARK minimizedAffinity 3.84835577
REMARK minimizedRMSD -1
REMARK  0 active torsions:
REMARK  status: ('A' for Active; 'I' for Inactive)
ROOT
ATOM      1  C1  BNZ d   1      -4.766   3.758   4.278  0.00  0.00     0.000 A 
ATOM      2  C2  BNZ d   1      -4.867   4.885   5.048  0.00  0.00     0.000 A 
ATOM      3  C3  BNZ d   1      -5.503   6.000   4.577  0.00  0.00     0.000 A 
ATOM      4  C4  BNZ d   1      -6.000   5.999   3.323  0.00  0.00     0.000 A 
ATOM      5  C5  BNZ d   1      -5.897   4.873   2.531  0.00  0.00     0.000 A 
ATOM      6  C6  BNZ d   1      -5.291   3.740   3.022  0.00  0.00     0.000 A 
ENDROOT
TORSDOF 0
ENDMDL
