MODEL 1
REMARK minimizedAffinity 8.23184013
REMARK minimizedRMSD -1
REMARK  0 active torsions:
REMARK  status: ('A' for Active; 'I' for Inactive)
ROOT
ATOM      1  C1  BNZ d   1       1.483   1.735  -3.095  0.00  0.00     0.000 A 
ATOM      2  C2  BNZ d   1       0.341   1.539  -2.365  0.00  0.00     0.000 A 
ATOM      3  C3  BNZ d   1      -0.385   2.600  -1.902  0.00  0.00     0.000 A 
ATOM      4  C4  BNZ d   1       0.052   3.854  -2.135  0.00  0.00     0.000 A 
ATOM      5  C5  BNZ d   1       1.207   4.069  -2.861  0.00  0.00     0.000 A 
ATOM      6  C6  BNZ d   1       1.914   2.999  -3.359  0.00  0.00     0.000 A 
ENDROOT
TORSDOF 0
ENDMDL
