MODEL 1
REMARK minimizedAffinity 5.22373247
REMARK minimizedRMSD -1
REMARK  0 active torsions:
REMARK  status: ('A' for Active; 'I' for Inactive)
ROOT
ATOM      1  C1  BNZ d   1       2.746   0.816   0.338  0.00  0.00     0.000 A 
ATOM      2  C2  BNZ d   1       1.406   1.021   0.533  0.00  0.00     0.000 A 
ATOM      3  C3  BNZ d   1       0.868   0.989   1.789  0.00  0.00     0.000 A 
ATOM      4  C4  BNZ d   1       1.663   0.711   2.844  0.00  0.00     0.000 A 
ATOM      5  C5  BNZ d   1       3.014   0.493   2.662  0.00  0.00     0.000 A 
ATOM      6  C6  BNZ d   1       3.558   0.565   1.401  0.00  0.00     0.000 A 
ENDROOT
TORSDOF 0
ENDMDL
