MODEL 1
REMARK minimizedAffinity 1.58896554
REMARK minimizedRMSD -1
REMARK  0 active torsions:
REMARK  status: ('A' for Active; 'I' for Inactive)
ROOT
ATOM      1  C1  BNZ d   1       4.131   5.972  -6.000  0.00  0.00     0.000 A 
ATOM      2  C2  BNZ d   1       2.777   6.000  -5.799  0.00  0.00     0.000 A 
ATOM      3  C3  BNZ d   1       2.227   5.474  -4.663  0.00  0.00     0.000 A 
ATOM      4  C4  BNZ d   1       3.027   4.887  -3.750  0.00  0.00     0.000 A 
ATOM      5  C5  BNZ d   1       4.393   4.843  -3.943  0.00  0.00     0.000 A 
ATOM      6  C6  BNZ d   1       4.947   5.407  -5.069  0.00  0.00     0.000 A 
ENDROOT
TORSDOF 0
ENDMDL
