MODEL 1
REMARK minimizedAffinity 1.04477632
REMARK minimizedRMSD -1
REMARK  0 active torsions:
REMARK  status: ('A' for Active; 'I' for Inactive)
ROOT
ATOM      1  C1  BNZ d   1       5.149   5.295  -3.746  0.00  0.00     0.000 A 
ATOM      2  C2  BNZ d   1       3.782   5.221  -3.759  0.00  0.00     0.000 A 
ATOM      3  C3  BNZ d   1       3.076   5.510  -4.894  0.00  0.00     0.000 A 
ATOM      4  C4  BNZ d   1       3.734   5.911  -6.000  0.00  0.00     0.000 A 
ATOM      5  C5  BNZ d   1       5.112   6.000  -6.000  0.00  0.00     0.000 A 
ATOM      6  C6  BNZ d   1       5.822   5.671  -4.868  0.00  0.00     0.000 A 
ENDROOT
TORSDOF 0
ENDMDL
