MODEL 1
REMARK minimizedAffinity -2.23503852
REMARK minimizedRMSD -1
REMARK  0 active torsions:
REMARK  status: ('A' for Active; 'I' for Inactive)
ROOT
ATOM      1  C1  BNZ d   1       2.240   4.826  -5.235  0.00  0.00     0.000 A 
ATOM      2  C2  BNZ d   1       2.874   3.666  -4.880  0.00  0.00     0.000 A 
ATOM      3  C3  BNZ d   1       4.196   3.668  -4.534  0.00  0.00     0.000 A 
ATOM      4  C4  BNZ d   1       4.892   4.822  -4.582  0.00  0.00     0.000 A 
ATOM      5  C5  BNZ d   1       4.270   5.999  -4.947  0.00  0.00     0.000 A 
ATOM      6  C6  BNZ d   1       2.929   6.000  -5.257  0.00  0.00     0.000 A 
ENDROOT
TORSDOF 0
ENDMDL
