MODEL 1
REMARK minimizedAffinity 5.73051786
REMARK minimizedRMSD -1
REMARK  0 active torsions:
REMARK  status: ('A' for Active; 'I' for Inactive)
ROOT
ATOM      1  C1  BNZ d   1       3.183   0.126   0.071  0.00  0.00     0.000 A 
ATOM      2  C2  BNZ d   1       2.088   0.949   0.061  0.00  0.00     0.000 A 
ATOM      3  C3  BNZ d   1       1.496   1.339   1.229  0.00  0.00     0.000 A 
ATOM      4  C4  BNZ d   1       1.972   0.875   2.402  0.00  0.00     0.000 A 
ATOM      5  C5  BNZ d   1       3.069   0.037   2.428  0.00  0.00     0.000 A 
ATOM      6  C6  BNZ d   1       3.688  -0.323   1.252  0.00  0.00     0.000 A 
ENDROOT
TORSDOF 0
ENDMDL
