MODEL 1
REMARK minimizedAffinity 11.1690245
REMARK minimizedRMSD -1
REMARK  0 active torsions:
REMARK  status: ('A' for Active; 'I' for Inactive)
ROOT
ATOM      1  C1  BNZ d   1       1.023   3.814   1.634  0.00  0.00     0.000 A 
ATOM      2  C2  BNZ d   1       0.649   2.497   1.602  0.00  0.00     0.000 A 
ATOM      3  C3  BNZ d   1       1.579   1.509   1.447  0.00  0.00     0.000 A 
ATOM      4  C4  BNZ d   1       2.877   1.839   1.284  0.00  0.00     0.000 A 
ATOM      5  C5  BNZ d   1       3.269   3.162   1.305  0.00  0.00     0.000 A 
ATOM      6  C6  BNZ d   1       2.334   4.153   1.500  0.00  0.00     0.000 A 
ENDROOT
TORSDOF 0
ENDMDL
