MODEL 1
REMARK minimizedAffinity 7.8197751
REMARK minimizedRMSD -1
REMARK  0 active torsions:
REMARK  status: ('A' for Active; 'I' for Inactive)
ROOT
ATOM      1  C1  BNZ d   1       4.084   0.623  -6.000  0.00  0.00     0.000 A 
ATOM      2  C2  BNZ d   1       4.087   1.774  -5.257  0.00  0.00     0.000 A 
ATOM      3  C3  BNZ d   1       4.877   1.889  -4.148  0.00  0.00     0.000 A 
ATOM      4  C4  BNZ d   1       5.633   0.841  -3.761  0.00  0.00     0.000 A 
ATOM      5  C5  BNZ d   1       5.633  -0.329  -4.494  0.00  0.00     0.000 A 
ATOM      6  C6  BNZ d   1       4.866  -0.428  -5.631  0.00  0.00     0.000 A 
ENDROOT
TORSDOF 0
ENDMDL
