MODEL 1
REMARK minimizedAffinity 1.05467165
REMARK minimizedRMSD -1
REMARK  0 active torsions:
REMARK  status: ('A' for Active; 'I' for Inactive)
ROOT
ATOM      1  C1  BNZ d   1      -1.157  -2.038  -0.950  0.00  0.00     0.000 A 
ATOM      2  C2  BNZ d   1      -2.248  -1.827  -1.751  0.00  0.00     0.000 A 
ATOM      3  C3  BNZ d   1      -2.423  -2.548  -2.899  0.00  0.00     0.000 A 
ATOM      4  C4  BNZ d   1      -1.488  -3.449  -3.265  0.00  0.00     0.000 A 
ATOM      5  C5  BNZ d   1      -0.379  -3.666  -2.473  0.00  0.00     0.000 A 
ATOM      6  C6  BNZ d   1      -0.225  -2.966  -1.298  0.00  0.00     0.000 A 
ENDROOT
TORSDOF 0
ENDMDL
