MODEL 1
REMARK minimizedAffinity 7.92960024
REMARK minimizedRMSD -1
REMARK  0 active torsions:
REMARK  status: ('A' for Active; 'I' for Inactive)
ROOT
ATOM      1  C1  BNZ d   1      -1.125  -1.937  -3.679  0.00  0.00     0.000 A 
ATOM      2  C2  BNZ d   1      -0.487  -1.571  -4.835  0.00  0.00     0.000 A 
ATOM      3  C3  BNZ d   1      -0.705  -2.252  -6.000  0.00  0.00     0.000 A 
ATOM      4  C4  BNZ d   1      -1.528  -3.320  -6.000  0.00  0.00     0.000 A 
ATOM      5  C5  BNZ d   1      -2.171  -3.707  -4.841  0.00  0.00     0.000 A 
ATOM      6  C6  BNZ d   1      -1.980  -2.996  -3.679  0.00  0.00     0.000 A 
ENDROOT
TORSDOF 0
ENDMDL
