MODEL 1
REMARK minimizedAffinity 6.22628641
REMARK minimizedRMSD -1
REMARK  0 active torsions:
REMARK  status: ('A' for Active; 'I' for Inactive)
ROOT
ATOM      1  C1  BNZ d   1      -1.394  -1.950  -3.410  0.00  0.00     0.000 A 
ATOM      2  C2  BNZ d   1      -2.510  -2.688  -3.706  0.00  0.00     0.000 A 
ATOM      3  C3  BNZ d   1      -3.328  -3.148  -2.712  0.00  0.00     0.000 A 
ATOM      4  C4  BNZ d   1      -3.009  -2.904  -1.424  0.00  0.00     0.000 A 
ATOM      5  C5  BNZ d   1      -1.883  -2.170  -1.110  0.00  0.00     0.000 A 
ATOM      6  C6  BNZ d   1      -1.082  -1.675  -2.114  0.00  0.00     0.000 A 
ENDROOT
TORSDOF 0
ENDMDL
