MODEL 1
REMARK minimizedAffinity 4.59251976
REMARK minimizedRMSD -1
REMARK  0 active torsions:
REMARK  status: ('A' for Active; 'I' for Inactive)
ROOT
ATOM      1  C   UNL d   1      -1.241  -0.809   0.142  0.00  0.00    -0.002 A 
ATOM      2  C1  UNL d   1      -1.376   0.572   0.125  0.00  0.00     0.010 A 
ATOM      3  C2  UNL d   1      -0.283   1.395   0.401  0.00  0.00     0.041 A 
ATOM      4  C3  UNL d   1       0.961   0.802   0.695  0.00  0.00    -0.075 A 
ATOM      5  S   UNL d   1       2.438   1.611   1.064  0.00  0.00     0.015 SA
ATOM      6  C4  UNL d   1       3.282   0.143   1.252  0.00  0.00     0.022 A 
ATOM      7  C5  UNL d   1       2.472  -0.948   1.042  0.00  0.00     0.026 A 
ATOM      8  C6  UNL d   1       1.121  -0.586   0.718  0.00  0.00    -0.082 A 
ATOM      9  C7  UNL d   1      -0.006  -1.394   0.434  0.00  0.00     0.045 A 
ENDROOT
TORSDOF 0
ENDMDL
