MODEL 1
REMARK minimizedAffinity -4.10466957
REMARK minimizedRMSD -1
REMARK  0 active torsions:
REMARK  status: ('A' for Active; 'I' for Inactive)
ROOT
ATOM      1  C   UNL d   1       2.558  -1.640   1.013  0.00  0.00    -0.002 A 
ATOM      2  C1  UNL d   1       3.163  -0.392   0.966  0.00  0.00     0.010 A 
ATOM      3  C2  UNL d   1       2.440   0.733   0.565  0.00  0.00     0.041 A 
ATOM      4  C3  UNL d   1       1.085   0.582   0.211  0.00  0.00    -0.075 A 
ATOM      5  S   UNL d   1       0.002   1.819  -0.309  0.00  0.00     0.015 SA
ATOM      6  C4  UNL d   1      -1.289   0.719  -0.480  0.00  0.00     0.022 A 
ATOM      7  C5  UNL d   1      -0.921  -0.564  -0.153  0.00  0.00     0.026 A 
ATOM      8  C6  UNL d   1       0.453  -0.664   0.252  0.00  0.00    -0.082 A 
ATOM      9  C7  UNL d   1       1.214  -1.786   0.661  0.00  0.00     0.045 A 
ENDROOT
TORSDOF 0
ENDMDL
