MODEL 1
REMARK minimizedAffinity -4.86256313
REMARK minimizedRMSD -1
REMARK  0 active torsions:
REMARK  status: ('A' for Active; 'I' for Inactive)
ROOT
ATOM      1  C   UNL d   1       3.227  -1.045   1.810  0.00  0.00    -0.002 A 
ATOM      2  C1  UNL d   1       2.402  -2.126   2.087  0.00  0.00     0.010 A 
ATOM      3  C2  UNL d   1       1.082  -2.147   1.634  0.00  0.00     0.041 A 
ATOM      4  C3  UNL d   1       0.600  -1.053   0.888  0.00  0.00    -0.075 A 
ATOM      5  S   UNL d   1      -0.982  -0.860   0.230  0.00  0.00     0.015 SA
ATOM      6  C4  UNL d   1      -0.600   0.662  -0.436  0.00  0.00     0.022 A 
ATOM      7  C5  UNL d   1       0.698   1.030  -0.171  0.00  0.00     0.026 A 
ATOM      8  C6  UNL d   1       1.411   0.047   0.596  0.00  0.00    -0.082 A 
ATOM      9  C7  UNL d   1       2.745   0.038   1.070  0.00  0.00     0.045 A 
ENDROOT
TORSDOF 0
ENDMDL
