MODEL 1
REMARK minimizedAffinity -4.51583624
REMARK minimizedRMSD -1
REMARK  0 active torsions:
REMARK  status: ('A' for Active; 'I' for Inactive)
ROOT
ATOM      1  C   UNL d   1       3.458   0.113   0.950  0.00  0.00    -0.002 A 
ATOM      2  C1  UNL d   1       3.308  -1.171   1.455  0.00  0.00     0.010 A 
ATOM      3  C2  UNL d   1       2.067  -1.809   1.414  0.00  0.00     0.041 A 
ATOM      4  C3  UNL d   1       0.969  -1.130   0.851  0.00  0.00    -0.075 A 
ATOM      5  S   UNL d   1      -0.645  -1.714   0.692  0.00  0.00     0.015 SA
ATOM      6  C4  UNL d   1      -1.173  -0.274  -0.050  0.00  0.00     0.022 A 
ATOM      7  C5  UNL d   1      -0.156   0.642  -0.182  0.00  0.00     0.026 A 
ATOM      8  C6  UNL d   1       1.096   0.163   0.335  0.00  0.00    -0.082 A 
ATOM      9  C7  UNL d   1       2.367   0.784   0.392  0.00  0.00     0.045 A 
ENDROOT
TORSDOF 0
ENDMDL
