MODEL 1
REMARK minimizedAffinity -2.89374852
REMARK minimizedRMSD -1
REMARK  0 active torsions:
REMARK  status: ('A' for Active; 'I' for Inactive)
ROOT
ATOM      1  C   UNL d   1       2.883   0.489   0.360  0.00  0.00    -0.002 A 
ATOM      2  C1  UNL d   1       1.916   1.352  -0.136  0.00  0.00     0.010 A 
ATOM      3  C2  UNL d   1       0.563   1.009  -0.083  0.00  0.00     0.041 A 
ATOM      4  C3  UNL d   1       0.196  -0.228   0.484  0.00  0.00    -0.075 A 
ATOM      5  S   UNL d   1      -1.400  -0.858   0.657  0.00  0.00     0.015 SA
ATOM      6  C4  UNL d   1      -0.835  -2.288   1.394  0.00  0.00     0.022 A 
ATOM      7  C5  UNL d   1       0.535  -2.300   1.512  0.00  0.00     0.026 A 
ATOM      8  C6  UNL d   1       1.151  -1.113   0.991  0.00  0.00    -0.082 A 
ATOM      9  C7  UNL d   1       2.514  -0.737   0.922  0.00  0.00     0.045 A 
ENDROOT
TORSDOF 0
ENDMDL
