MODEL 1
REMARK minimizedAffinity -3.65322661
REMARK minimizedRMSD -1
REMARK  0 active torsions:
REMARK  status: ('A' for Active; 'I' for Inactive)
ROOT
ATOM      1  C   UNL d   1       3.052  -0.067   0.736  0.00  0.00    -0.002 A 
ATOM      2  C1  UNL d   1       2.761  -1.415   0.891  0.00  0.00     0.010 A 
ATOM      3  C2  UNL d   1       1.441  -1.868   0.840  0.00  0.00     0.041 A 
ATOM      4  C3  UNL d   1       0.409  -0.933   0.627  0.00  0.00    -0.075 A 
ATOM      5  S   UNL d   1      -1.282  -1.258   0.526  0.00  0.00     0.015 SA
ATOM      6  C4  UNL d   1      -1.658   0.385   0.274  0.00  0.00     0.022 A 
ATOM      7  C5  UNL d   1      -0.533   1.176   0.264  0.00  0.00     0.026 A 
ATOM      8  C6  UNL d   1       0.676   0.429   0.466  0.00  0.00    -0.082 A 
ATOM      9  C7  UNL d   1       2.025   0.856   0.524  0.00  0.00     0.045 A 
ENDROOT
TORSDOF 0
ENDMDL
