MODEL 1
REMARK minimizedAffinity -2.93376422
REMARK minimizedRMSD -1
REMARK  0 active torsions:
REMARK  status: ('A' for Active; 'I' for Inactive)
ROOT
ATOM      1  C   UNL d   1      -1.572   0.757  -2.130  0.00  0.00    -0.002 A 
ATOM      2  C1  UNL d   1      -2.395   0.001  -1.308  0.00  0.00     0.010 A 
ATOM      3  C2  UNL d   1      -1.864  -0.702  -0.224  0.00  0.00     0.041 A 
ATOM      4  C3  UNL d   1      -0.479  -0.630   0.022  0.00  0.00    -0.075 A 
ATOM      5  S   UNL d   1       0.392  -1.406   1.291  0.00  0.00     0.015 SA
ATOM      6  C4  UNL d   1       1.878  -0.752   0.772  0.00  0.00     0.022 A 
ATOM      7  C5  UNL d   1       1.731   0.042  -0.341  0.00  0.00     0.026 A 
ATOM      8  C6  UNL d   1       0.370   0.126  -0.791  0.00  0.00    -0.082 A 
ATOM      9  C7  UNL d   1      -0.198   0.826  -1.882  0.00  0.00     0.045 A 
ENDROOT
TORSDOF 0
ENDMDL
