MODEL 1
REMARK minimizedAffinity -3.73116374
REMARK minimizedRMSD -1
REMARK  1 active torsions:
REMARK  status: ('A' for Active; 'I' for Inactive)
REMARK    1  A    between atoms: C1_2  and  C2_3 
ROOT
ATOM      1  C2  UNL d   1      -2.721   0.495   1.504  0.00  0.00    -0.076 A 
ATOM      2  C3  UNL d   1      -2.784  -0.489   0.503  0.00  0.00     0.004 A 
ATOM      3  C4  UNL d   1      -1.713  -1.352   0.276  0.00  0.00    -0.003 A 
ATOM      4  C5  UNL d   1      -0.562  -1.245   1.047  0.00  0.00     0.000 A 
ATOM      5  C6  UNL d   1      -0.488  -0.286   2.057  0.00  0.00     0.000 A 
ATOM      6  C7  UNL d   1      -1.565   0.581   2.310  0.00  0.00    -0.073 A 
ATOM      7  C8  UNL d   1      -1.429   1.601   3.407  0.00  0.00     0.078 C 
ENDROOT
BRANCH   1   8
ATOM      8  C1  UNL d   1      -3.903   1.421   1.686  0.00  0.00     0.053 C 
ATOM      9  C   UNL d   1      -5.097   0.723   2.319  0.00  0.00     0.018 C 
ENDBRANCH   1   8
TORSDOF 1
ENDMDL
