MODEL 1
REMARK minimizedAffinity -4.87739468
REMARK minimizedRMSD -1
REMARK  1 active torsions:
REMARK  status: ('A' for Active; 'I' for Inactive)
REMARK    1  A    between atoms: C1_2  and  C2_3 
ROOT
ATOM      1  C2  UNL d   1      -0.842  -0.732   0.618  0.00  0.00    -0.076 A 
ATOM      2  C3  UNL d   1      -0.368  -0.643   1.939  0.00  0.00     0.004 A 
ATOM      3  C4  UNL d   1       0.899  -1.115   2.279  0.00  0.00    -0.003 A 
ATOM      4  C5  UNL d   1       1.713  -1.682   1.305  0.00  0.00     0.000 A 
ATOM      5  C6  UNL d   1       1.266  -1.761  -0.014  0.00  0.00     0.000 A 
ATOM      6  C7  UNL d   1      -0.002  -1.276  -0.377  0.00  0.00    -0.073 A 
ATOM      7  C8  UNL d   1      -0.436  -1.392  -1.813  0.00  0.00     0.078 C 
ENDROOT
BRANCH   1   8
ATOM      8  C1  UNL d   1      -2.235  -0.228   0.313  0.00  0.00     0.053 C 
ATOM      9  C   UNL d   1      -2.940   0.316   1.546  0.00  0.00     0.018 C 
ENDBRANCH   1   8
TORSDOF 1
ENDMDL
