MODEL 1
REMARK minimizedAffinity -1.80220413
REMARK minimizedRMSD -1
REMARK  1 active torsions:
REMARK  status: ('A' for Active; 'I' for Inactive)
REMARK    1  A    between atoms: C1_2  and  C2_3 
ROOT
ATOM      1  C2  UNL d   1      -0.865  -0.954   1.738  0.00  0.00    -0.076 A 
ATOM      2  C3  UNL d   1      -1.783  -0.044   2.289  0.00  0.00     0.004 A 
ATOM      3  C4  UNL d   1      -2.793   0.518   1.509  0.00  0.00    -0.003 A 
ATOM      4  C5  UNL d   1      -2.902   0.177   0.166  0.00  0.00     0.000 A 
ATOM      5  C6  UNL d   1      -2.010  -0.738  -0.394  0.00  0.00     0.000 A 
ATOM      6  C7  UNL d   1      -0.997  -1.326   0.383  0.00  0.00    -0.073 A 
ATOM      7  C8  UNL d   1      -0.059  -2.302  -0.274  0.00  0.00     0.078 C 
ENDROOT
BRANCH   1   8
ATOM      8  C1  UNL d   1       0.226  -1.510   2.625  0.00  0.00     0.053 C 
ATOM      9  C   UNL d   1       1.598  -1.445   1.972  0.00  0.00     0.018 C 
ENDBRANCH   1   8
TORSDOF 1
ENDMDL
