MODEL 1
REMARK minimizedAffinity -3.74803257
REMARK minimizedRMSD -1
REMARK  1 active torsions:
REMARK  status: ('A' for Active; 'I' for Inactive)
REMARK    1  A    between atoms: C1_2  and  C2_3 
ROOT
ATOM      1  C2  UNL d   1      -1.462  -1.417   0.051  0.00  0.00    -0.076 A 
ATOM      2  C3  UNL d   1      -2.668  -0.922  -0.473  0.00  0.00     0.004 A 
ATOM      3  C4  UNL d   1      -3.478  -0.067   0.274  0.00  0.00    -0.003 A 
ATOM      4  C5  UNL d   1      -3.093   0.307   1.557  0.00  0.00     0.000 A 
ATOM      5  C6  UNL d   1      -1.891  -0.161   2.086  0.00  0.00     0.000 A 
ATOM      6  C7  UNL d   1      -1.055  -1.010   1.340  0.00  0.00    -0.073 A 
ATOM      7  C8  UNL d   1       0.228  -1.489   1.962  0.00  0.00     0.078 C 
ENDROOT
BRANCH   1   8
ATOM      8  C1  UNL d   1      -0.638  -2.362  -0.795  0.00  0.00     0.053 C 
ATOM      9  C   UNL d   1      -0.886  -2.177  -2.284  0.00  0.00     0.018 C 
ENDBRANCH   1   8
TORSDOF 1
ENDMDL
