MODEL 1
REMARK minimizedAffinity -3.63785887
REMARK minimizedRMSD -1
REMARK  1 active torsions:
REMARK  status: ('A' for Active; 'I' for Inactive)
REMARK    1  A    between atoms: C1_2  and  C2_3 
ROOT
ATOM      1  C2  UNL d   1      -1.058  -0.877   1.303  0.00  0.00    -0.076 A 
ATOM      2  C3  UNL d   1      -0.844  -0.389   2.604  0.00  0.00     0.004 A 
ATOM      3  C4  UNL d   1       0.400  -0.513   3.221  0.00  0.00    -0.003 A 
ATOM      4  C5  UNL d   1       1.450  -1.127   2.547  0.00  0.00     0.000 A 
ATOM      5  C6  UNL d   1       1.260  -1.601   1.250  0.00  0.00     0.000 A 
ATOM      6  C7  UNL d   1       0.017  -1.469   0.607  0.00  0.00    -0.073 A 
ATOM      7  C8  UNL d   1      -0.133  -2.004  -0.791  0.00  0.00     0.078 C 
ENDROOT
BRANCH   1   8
ATOM      8  C1  UNL d   1      -2.435  -0.738   0.695  0.00  0.00     0.053 C 
ATOM      9  C   UNL d   1      -3.267   0.338   1.376  0.00  0.00     0.018 C 
ENDBRANCH   1   8
TORSDOF 1
ENDMDL
