MODEL 1
REMARK minimizedAffinity 4.02871847
REMARK minimizedRMSD -1
REMARK  2 active torsions:
REMARK  status: ('A' for Active; 'I' for Inactive)
REMARK    1  A    between atoms: C2'_3  and  C1'_4 
REMARK    2  A    between atoms: C1'_4  and  C1_5 
ROOT
ATOM      1  C1  I4B d   1       0.225  -1.204   3.392  0.00  0.00    -0.075 A 
ATOM      2  C2  I4B d   1      -0.893  -0.836   2.685  0.00  0.00     0.003 A 
ATOM      3  C3  I4B d   1      -2.169  -1.311   3.072  0.00  0.00     0.002 A 
ATOM      4  C4  I4B d   1      -2.276  -2.186   4.134  0.00  0.00    -0.004 A 
ATOM      5  C5  I4B d   1      -1.145  -2.540   4.864  0.00  0.00     0.002 A 
ATOM      6  C6  I4B d   1       0.112  -2.036   4.498  0.00  0.00     0.003 A 
ENDROOT
BRANCH   1   7
ATOM      7  C1' I4B d   1       1.561  -0.710   2.936  0.00  0.00     0.060 C 
BRANCH   7   8
ATOM      8  C2' I4B d   1       1.485  -0.471   1.442  0.00  0.00    -0.013 C 
ATOM      9  C4' I4B d   1       1.870   0.944   1.096  0.00  0.00     0.013 C 
ATOM     10  C3' I4B d   1       2.390  -1.458   0.768  0.00  0.00     0.013 C 
ENDBRANCH   7   8
ENDBRANCH   1   7
TORSDOF 2
ENDMDL
