MODEL 1
REMARK minimizedAffinity 2.85002232
REMARK minimizedRMSD -1
REMARK  2 active torsions:
REMARK  status: ('A' for Active; 'I' for Inactive)
REMARK    1  A    between atoms: C2'_3  and  C1'_4 
REMARK    2  A    between atoms: C1'_4  and  C1_5 
ROOT
ATOM      1  C1  I4B d   1      -0.261  -0.510   2.573  0.00  0.00    -0.075 A 
ATOM      2  C2  I4B d   1       0.282  -1.214   3.618  0.00  0.00     0.003 A 
ATOM      3  C3  I4B d   1       1.673  -1.476   3.656  0.00  0.00     0.002 A 
ATOM      4  C4  I4B d   1       2.471  -1.062   2.609  0.00  0.00    -0.004 A 
ATOM      5  C5  I4B d   1       1.923  -0.329   1.561  0.00  0.00     0.002 A 
ATOM      6  C6  I4B d   1       0.551  -0.040   1.548  0.00  0.00     0.003 A 
ENDROOT
BRANCH   1   7
ATOM      7  C1' I4B d   1      -1.738  -0.279   2.549  0.00  0.00     0.060 C 
BRANCH   7   8
ATOM      8  C2' I4B d   1      -2.422  -1.608   2.801  0.00  0.00    -0.013 C 
ATOM      9  C4' I4B d   1      -3.780  -1.413   3.422  0.00  0.00     0.013 C 
ATOM     10  C3' I4B d   1      -2.525  -2.331   1.491  0.00  0.00     0.013 C 
ENDBRANCH   7   8
ENDBRANCH   1   7
TORSDOF 2
ENDMDL
