MODEL 1
REMARK minimizedAffinity 2.98142433
REMARK minimizedRMSD -1
REMARK  2 active torsions:
REMARK  status: ('A' for Active; 'I' for Inactive)
REMARK    1  A    between atoms: C2'_3  and  C1'_4 
REMARK    2  A    between atoms: C1'_4  and  C1_5 
ROOT
ATOM      1  C1  I4B d   1      -0.446  -0.781   3.174  0.00  0.00    -0.075 A 
ATOM      2  C2  I4B d   1      -0.117  -1.219   4.433  0.00  0.00     0.003 A 
ATOM      3  C3  I4B d   1       1.225  -1.545   4.747  0.00  0.00     0.002 A 
ATOM      4  C4  I4B d   1       2.190  -1.469   3.764  0.00  0.00    -0.004 A 
ATOM      5  C5  I4B d   1       1.860  -1.003   2.494  0.00  0.00     0.002 A 
ATOM      6  C6  I4B d   1       0.536  -0.645   2.201  0.00  0.00     0.003 A 
ENDROOT
BRANCH   1   7
ATOM      7  C1' I4B d   1      -1.878  -0.476   2.868  0.00  0.00     0.060 C 
BRANCH   7   8
ATOM      8  C2' I4B d   1      -2.691  -1.724   3.147  0.00  0.00    -0.013 C 
ATOM      9  C4' I4B d   1      -1.989  -2.623   4.131  0.00  0.00     0.013 C 
ATOM     10  C3' I4B d   1      -4.031  -1.296   3.666  0.00  0.00     0.013 C 
ENDBRANCH   7   8
ENDBRANCH   1   7
TORSDOF 2
ENDMDL
