MODEL 1
REMARK minimizedAffinity 3.84177971
REMARK minimizedRMSD -1
REMARK  2 active torsions:
REMARK  status: ('A' for Active; 'I' for Inactive)
REMARK    1  A    between atoms: C2'_3  and  C1'_4 
REMARK    2  A    between atoms: C1'_4  and  C1_5 
ROOT
ATOM      1  C1  I4B d   1      -0.060  -0.620   2.348  0.00  0.00    -0.075 A 
ATOM      2  C2  I4B d   1      -0.090   0.731   2.103  0.00  0.00     0.003 A 
ATOM      3  C3  I4B d   1      -1.303   1.362   1.736  0.00  0.00     0.002 A 
ATOM      4  C4  I4B d   1      -2.444   0.602   1.577  0.00  0.00    -0.004 A 
ATOM      5  C5  I4B d   1      -2.417  -0.763   1.848  0.00  0.00     0.002 A 
ATOM      6  C6  I4B d   1      -1.221  -1.376   2.247  0.00  0.00     0.003 A 
ENDROOT
BRANCH   1   7
ATOM      7  C1' I4B d   1       1.245  -1.259   2.701  0.00  0.00     0.060 C 
BRANCH   7   8
ATOM      8  C2' I4B d   1       1.463  -1.083   4.190  0.00  0.00    -0.013 C 
ATOM      9  C4' I4B d   1       1.379  -2.401   4.913  0.00  0.00     0.013 C 
ATOM     10  C3' I4B d   1       2.804  -0.441   4.388  0.00  0.00     0.013 C 
ENDBRANCH   7   8
ENDBRANCH   1   7
TORSDOF 2
ENDMDL
