MODEL 1
REMARK minimizedAffinity 8.06192875
REMARK minimizedRMSD -1
REMARK  2 active torsions:
REMARK  status: ('A' for Active; 'I' for Inactive)
REMARK    1  A    between atoms: C2'_3  and  C1'_4 
REMARK    2  A    between atoms: C1'_4  and  C1_5 
ROOT
ATOM      1  C1  I4B d   1      -0.003   0.074   2.365  0.00  0.00    -0.075 A 
ATOM      2  C2  I4B d   1       1.092  -0.519   1.788  0.00  0.00     0.003 A 
ATOM      3  C3  I4B d   1       1.932  -1.363   2.555  0.00  0.00     0.002 A 
ATOM      4  C4  I4B d   1       1.670  -1.544   3.897  0.00  0.00    -0.004 A 
ATOM      5  C5  I4B d   1       0.546  -0.960   4.475  0.00  0.00     0.002 A 
ATOM      6  C6  I4B d   1      -0.303  -0.155   3.701  0.00  0.00     0.003 A 
ENDROOT
BRANCH   1   7
ATOM      7  C1' I4B d   1      -0.850   0.986   1.534  0.00  0.00     0.060 C 
BRANCH   7   8
ATOM      8  C2' I4B d   1      -2.149   0.268   1.231  0.00  0.00    -0.013 C 
ATOM      9  C4' I4B d   1      -2.855   0.892   0.056  0.00  0.00     0.013 C 
ATOM     10  C3' I4B d   1      -1.832  -1.174   0.968  0.00  0.00     0.013 C 
ENDBRANCH   7   8
ENDBRANCH   1   7
TORSDOF 2
ENDMDL
