MODEL 1
REMARK minimizedAffinity -1.58563185
REMARK minimizedRMSD -1
REMARK  2 active torsions:
REMARK  status: ('A' for Active; 'I' for Inactive)
REMARK    1  A    between atoms: C2'_3  and  C1'_4 
REMARK    2  A    between atoms: C1'_4  and  C1_5 
ROOT
ATOM      1  C1  I4B d   1       1.374  -0.774   3.268  0.00  0.00    -0.075 A 
ATOM      2  C2  I4B d   1       0.927  -2.068   3.360  0.00  0.00     0.003 A 
ATOM      3  C3  I4B d   1       1.373  -2.903   4.413  0.00  0.00     0.002 A 
ATOM      4  C4  I4B d   1       2.299  -2.422   5.316  0.00  0.00    -0.004 A 
ATOM      5  C5  I4B d   1       2.734  -1.102   5.234  0.00  0.00     0.002 A 
ATOM      6  C6  I4B d   1       2.259  -0.269   4.211  0.00  0.00     0.003 A 
ENDROOT
BRANCH   1   7
ATOM      7  C1' I4B d   1       0.907   0.070   2.124  0.00  0.00     0.060 C 
BRANCH   7   8
ATOM      8  C2' I4B d   1      -0.522   0.488   2.405  0.00  0.00    -0.013 C 
ATOM      9  C4' I4B d   1      -0.813   1.852   1.837  0.00  0.00     0.013 C 
ATOM     10  C3' I4B d   1      -1.432  -0.549   1.817  0.00  0.00     0.013 C 
ENDBRANCH   7   8
ENDBRANCH   1   7
TORSDOF 2
ENDMDL
