MODEL 1
REMARK minimizedAffinity 12.9298735
REMARK minimizedRMSD -1
REMARK  0 active torsions:
REMARK  status: ('A' for Active; 'I' for Inactive)
ROOT
ATOM      1  C   UNL d   1      -3.956   3.671  -4.540  0.00  0.00     0.077 C 
ATOM      2  C1  UNL d   1      -3.268   2.615  -3.727  0.00  0.00    -0.074 A 
ATOM      3  C2  UNL d   1      -2.007   2.133  -4.095  0.00  0.00    -0.005 A 
ATOM      4  C3  UNL d   1      -1.376   1.157  -3.323  0.00  0.00     0.006 A 
ATOM      5  C4  UNL d   1      -1.997   0.655  -2.179  0.00  0.00    -0.005 A 
ATOM      6  C5  UNL d   1      -3.256   1.126  -1.796  0.00  0.00    -0.074 A 
ATOM      7  C6  UNL d   1      -3.933   0.604  -0.563  0.00  0.00     0.077 C 
ATOM      8  C7  UNL d   1      -3.882   2.111  -2.572  0.00  0.00    -0.001 A 
ENDROOT
TORSDOF 0
ENDMDL
