MODEL 1
REMARK minimizedAffinity 10.6562719
REMARK minimizedRMSD -1
REMARK  0 active torsions:
REMARK  status: ('A' for Active; 'I' for Inactive)
ROOT
ATOM      1  C   UNL d   1       0.753   6.000   3.716  0.00  0.00     0.077 C 
ATOM      2  C1  UNL d   1      -0.455   5.378   4.352  0.00  0.00    -0.074 A 
ATOM      3  C2  UNL d   1      -1.102   5.998   5.425  0.00  0.00    -0.005 A 
ATOM      4  C3  UNL d   1      -2.230   5.413   6.000  0.00  0.00     0.006 A 
ATOM      5  C4  UNL d   1      -2.722   4.203   5.508  0.00  0.00    -0.005 A 
ATOM      6  C5  UNL d   1      -2.088   3.569   4.434  0.00  0.00    -0.074 A 
ATOM      7  C6  UNL d   1      -2.610   2.273   3.887  0.00  0.00     0.077 C 
ATOM      8  C7  UNL d   1      -0.959   4.167   3.858  0.00  0.00    -0.001 A 
ENDROOT
TORSDOF 0
ENDMDL
