MODEL 1
REMARK minimizedAffinity 9.44662189
REMARK minimizedRMSD -1
REMARK  0 active torsions:
REMARK  status: ('A' for Active; 'I' for Inactive)
ROOT
ATOM      1  C   UNL d   1      -0.569  -1.208  -1.591  0.00  0.00     0.077 C 
ATOM      2  C1  UNL d   1       0.610  -1.828  -0.902  0.00  0.00    -0.074 A 
ATOM      3  C2  UNL d   1       1.360  -1.103   0.030  0.00  0.00    -0.005 A 
ATOM      4  C3  UNL d   1       2.449  -1.696   0.670  0.00  0.00     0.006 A 
ATOM      5  C4  UNL d   1       2.797  -3.017   0.385  0.00  0.00    -0.005 A 
ATOM      6  C5  UNL d   1       2.058  -3.757  -0.543  0.00  0.00    -0.074 A 
ATOM      7  C6  UNL d   1       2.413  -5.181  -0.853  0.00  0.00     0.077 C 
ATOM      8  C7  UNL d   1       0.961  -3.157  -1.176  0.00  0.00    -0.001 A 
ENDROOT
TORSDOF 0
ENDMDL
