MODEL 1
REMARK minimizedAffinity 4.36961174
REMARK minimizedRMSD -1
REMARK  0 active torsions:
REMARK  status: ('A' for Active; 'I' for Inactive)
ROOT
ATOM      1  C   UNL d   1       5.880  -3.930   0.505  0.00  0.00     0.077 C 
ATOM      2  C1  UNL d   1       4.396  -4.115   0.619  0.00  0.00    -0.074 A 
ATOM      3  C2  UNL d   1       3.831  -5.394   0.635  0.00  0.00    -0.005 A 
ATOM      4  C3  UNL d   1       2.450  -5.551   0.751  0.00  0.00     0.006 A 
ATOM      5  C4  UNL d   1       1.622  -4.433   0.852  0.00  0.00    -0.005 A 
ATOM      6  C5  UNL d   1       2.169  -3.146   0.838  0.00  0.00    -0.074 A 
ATOM      7  C6  UNL d   1       1.294  -1.933   0.955  0.00  0.00     0.077 C 
ATOM      8  C7  UNL d   1       3.559  -2.997   0.728  0.00  0.00    -0.001 A 
ENDROOT
TORSDOF 0
ENDMDL
