MODEL 1
REMARK minimizedAffinity 0.0168189928
REMARK minimizedRMSD -1
REMARK  0 active torsions:
REMARK  status: ('A' for Active; 'I' for Inactive)
ROOT
ATOM      1  C   UNL d   1       5.144  -2.671   0.526  0.00  0.00     0.077 C 
ATOM      2  C1  UNL d   1       3.730  -3.128   0.323  0.00  0.00    -0.074 A 
ATOM      3  C2  UNL d   1       3.449  -4.309  -0.372  0.00  0.00    -0.005 A 
ATOM      4  C3  UNL d   1       2.130  -4.726  -0.544  0.00  0.00     0.006 A 
ATOM      5  C4  UNL d   1       1.079  -3.968  -0.025  0.00  0.00    -0.005 A 
ATOM      6  C5  UNL d   1       1.341  -2.785   0.673  0.00  0.00    -0.074 A 
ATOM      7  C6  UNL d   1       0.224  -1.964   1.246  0.00  0.00     0.077 C 
ATOM      8  C7  UNL d   1       2.670  -2.376   0.849  0.00  0.00    -0.001 A 
ENDROOT
TORSDOF 0
ENDMDL
