MODEL 1
REMARK minimizedAffinity 8.15105915
REMARK minimizedRMSD -1
REMARK  0 active torsions:
REMARK  status: ('A' for Active; 'I' for Inactive)
ROOT
ATOM      1  C   UNL d   1      -1.048  -0.793   3.051  0.00  0.00     0.077 C 
ATOM      2  C1  UNL d   1       0.342  -1.028   2.539  0.00  0.00    -0.074 A 
ATOM      3  C2  UNL d   1       1.403  -0.208   2.939  0.00  0.00    -0.005 A 
ATOM      4  C3  UNL d   1       2.692  -0.444   2.462  0.00  0.00     0.006 A 
ATOM      5  C4  UNL d   1       2.934  -1.501   1.583  0.00  0.00    -0.005 A 
ATOM      6  C5  UNL d   1       1.886  -2.332   1.174  0.00  0.00    -0.074 A 
ATOM      7  C6  UNL d   1       2.130  -3.478   0.238  0.00  0.00     0.077 C 
ATOM      8  C7  UNL d   1       0.594  -2.092   1.662  0.00  0.00    -0.001 A 
ENDROOT
TORSDOF 0
ENDMDL
