MODEL 1
REMARK minimizedAffinity 13.5153284
REMARK minimizedRMSD -1
REMARK  0 active torsions:
REMARK  status: ('A' for Active; 'I' for Inactive)
ROOT
ATOM      1  C   UNL d   1      -3.897   3.662  -3.920  0.00  0.00     0.077 C 
ATOM      2  C1  UNL d   1      -2.816   2.770  -3.383  0.00  0.00    -0.074 A 
ATOM      3  C2  UNL d   1      -3.049   1.942  -2.281  0.00  0.00    -0.005 A 
ATOM      4  C3  UNL d   1      -2.037   1.111  -1.799  0.00  0.00     0.006 A 
ATOM      5  C4  UNL d   1      -0.784   1.101  -2.414  0.00  0.00    -0.005 A 
ATOM      6  C5  UNL d   1      -0.534   1.921  -3.518  0.00  0.00    -0.074 A 
ATOM      7  C6  UNL d   1       0.804   1.915  -4.197  0.00  0.00     0.077 C 
ATOM      8  C7  UNL d   1      -1.557   2.748  -4.000  0.00  0.00    -0.001 A 
ENDROOT
TORSDOF 0
ENDMDL
