MODEL 1
REMARK minimizedAffinity 17.2584152
REMARK minimizedRMSD -1
REMARK  0 active torsions:
REMARK  status: ('A' for Active; 'I' for Inactive)
ROOT
ATOM      1  C   UNL d   1       2.362  -4.075  -0.523  0.00  0.00     0.077 C 
ATOM      2  C1  UNL d   1       1.716  -3.151   0.466  0.00  0.00    -0.074 A 
ATOM      3  C2  UNL d   1       2.337  -1.958   0.849  0.00  0.00    -0.005 A 
ATOM      4  C3  UNL d   1       1.719  -1.105   1.763  0.00  0.00     0.006 A 
ATOM      5  C4  UNL d   1       0.475  -1.435   2.302  0.00  0.00    -0.005 A 
ATOM      6  C5  UNL d   1      -0.162  -2.623   1.931  0.00  0.00    -0.074 A 
ATOM      7  C6  UNL d   1      -1.503  -2.988   2.494  0.00  0.00     0.077 C 
ATOM      8  C7  UNL d   1       0.462  -3.472   1.007  0.00  0.00    -0.001 A 
ENDROOT
TORSDOF 0
ENDMDL
