MODEL 1
REMARK minimizedAffinity 14.198822
REMARK minimizedRMSD -1
REMARK  0 active torsions:
REMARK  status: ('A' for Active; 'I' for Inactive)
ROOT
ATOM      1  C   UNL d   1       5.999  -0.774  -4.184  0.00  0.00     0.077 C 
ATOM      2  C1  UNL d   1       5.907  -0.169  -2.814  0.00  0.00    -0.074 A 
ATOM      3  C2  UNL d   1       5.985   1.215  -2.633  0.00  0.00    -0.005 A 
ATOM      4  C3  UNL d   1       5.888   1.763  -1.354  0.00  0.00     0.006 A 
ATOM      5  C4  UNL d   1       5.711   0.934  -0.246  0.00  0.00    -0.005 A 
ATOM      6  C5  UNL d   1       5.629  -0.453  -0.408  0.00  0.00    -0.074 A 
ATOM      7  C6  UNL d   1       5.430  -1.357   0.772  0.00  0.00     0.077 C 
ATOM      8  C7  UNL d   1       5.721  -0.995  -1.697  0.00  0.00    -0.001 A 
ENDROOT
TORSDOF 0
ENDMDL
