MODEL 1
REMARK minimizedAffinity 0.666812837
REMARK minimizedRMSD -1
REMARK  0 active torsions:
REMARK  status: ('A' for Active; 'I' for Inactive)
ROOT
ATOM      1  C   UNL d   1       3.112  -5.049   1.074  0.00  0.00     0.077 C 
ATOM      2  C1  UNL d   1       2.700  -3.607   1.043  0.00  0.00    -0.074 A 
ATOM      3  C2  UNL d   1       3.109  -2.764   0.005  0.00  0.00    -0.005 A 
ATOM      4  C3  UNL d   1       2.710  -1.428  -0.015  0.00  0.00     0.006 A 
ATOM      5  C4  UNL d   1       1.900  -0.921   1.002  0.00  0.00    -0.005 A 
ATOM      6  C5  UNL d   1       1.481  -1.749   2.049  0.00  0.00    -0.074 A 
ATOM      7  C6  UNL d   1       0.603  -1.223   3.144  0.00  0.00     0.077 C 
ATOM      8  C7  UNL d   1       1.880  -3.092   2.057  0.00  0.00    -0.001 A 
ENDROOT
TORSDOF 0
ENDMDL
