MODEL 1
REMARK minimizedAffinity 10.8161917
REMARK minimizedRMSD -1
REMARK  0 active torsions:
REMARK  status: ('A' for Active; 'I' for Inactive)
ROOT
ATOM      1  C   UNL d   1       2.581  -3.828  -0.830  0.00  0.00     0.077 C 
ATOM      2  C1  UNL d   1       2.320  -2.944   0.353  0.00  0.00    -0.074 A 
ATOM      3  C2  UNL d   1       1.257  -2.035   0.350  0.00  0.00    -0.005 A 
ATOM      4  C3  UNL d   1       1.021  -1.227   1.462  0.00  0.00     0.006 A 
ATOM      5  C4  UNL d   1       1.843  -1.318   2.585  0.00  0.00    -0.005 A 
ATOM      6  C5  UNL d   1       2.910  -2.222   2.607  0.00  0.00    -0.074 A 
ATOM      7  C6  UNL d   1       3.798  -2.340   3.810  0.00  0.00     0.077 C 
ATOM      8  C7  UNL d   1       3.137  -3.036   1.488  0.00  0.00    -0.001 A 
ENDROOT
TORSDOF 0
ENDMDL
