MODEL 1
REMARK minimizedAffinity 11.1367369
REMARK minimizedRMSD -1
REMARK  0 active torsions:
REMARK  status: ('A' for Active; 'I' for Inactive)
ROOT
ATOM      1  C   UNL d   1      -3.317  -3.557  -4.717  0.00  0.00     0.020 A 
ATOM      2  C1  UNL d   1      -2.113  -3.430  -5.408  0.00  0.00     0.020 A 
ATOM      3  C2  UNL d   1      -0.911  -3.770  -4.785  0.00  0.00     0.034 A 
ATOM      4  C3  UNL d   1      -0.910  -4.239  -3.466  0.00  0.00     0.017 A 
ATOM      5  C4  UNL d   1      -2.119  -4.366  -2.773  0.00  0.00     0.017 A 
ATOM      6  C5  UNL d   1      -3.320  -4.024  -3.402  0.00  0.00     0.034 A 
ATOM      7 Cl   UNL d   1      -2.197  -4.937  -1.143  0.00  0.00    -0.070 Cl
ATOM      8 Cl1  UNL d   1       0.614  -4.641  -2.758  0.00  0.00    -0.070 Cl
ENDROOT
TORSDOF 0
ENDMDL
