MODEL 1
REMARK minimizedAffinity 10.9468069
REMARK minimizedRMSD -1
REMARK  0 active torsions:
REMARK  status: ('A' for Active; 'I' for Inactive)
ROOT
ATOM      1  C   UNL d   1       0.366   0.752   2.317  0.00  0.00     0.020 A 
ATOM      2  C1  UNL d   1      -0.609   1.747   2.245  0.00  0.00     0.020 A 
ATOM      3  C2  UNL d   1      -0.838   2.580   3.342  0.00  0.00     0.034 A 
ATOM      4  C3  UNL d   1      -0.092   2.420   4.516  0.00  0.00     0.017 A 
ATOM      5  C4  UNL d   1       0.886   1.422   4.586  0.00  0.00     0.017 A 
ATOM      6  C5  UNL d   1       1.112   0.591   3.485  0.00  0.00     0.034 A 
ATOM      7 Cl   UNL d   1       1.847   1.165   6.000  0.00  0.00    -0.070 Cl
ATOM      8 Cl1  UNL d   1      -0.429   3.486   5.833  0.00  0.00    -0.070 Cl
ENDROOT
TORSDOF 0
ENDMDL
