MODEL 1
REMARK minimizedAffinity 5.11346483
REMARK minimizedRMSD -1
REMARK  0 active torsions:
REMARK  status: ('A' for Active; 'I' for Inactive)
ROOT
ATOM      1  C   UNL d   1      -3.206  -3.572  -5.157  0.00  0.00     0.020 A 
ATOM      2  C1  UNL d   1      -1.974  -3.480  -5.803  0.00  0.00     0.020 A 
ATOM      3  C2  UNL d   1      -0.822  -3.966  -5.181  0.00  0.00     0.034 A 
ATOM      4  C3  UNL d   1      -0.900  -4.546  -3.910  0.00  0.00     0.017 A 
ATOM      5  C4  UNL d   1      -2.137  -4.638  -3.262  0.00  0.00     0.017 A 
ATOM      6  C5  UNL d   1      -3.287  -4.149  -3.889  0.00  0.00     0.034 A 
ATOM      7 Cl   UNL d   1      -2.312  -5.341  -1.693  0.00  0.00    -0.070 Cl
ATOM      8 Cl1  UNL d   1       0.565  -5.127  -3.201  0.00  0.00    -0.070 Cl
ENDROOT
TORSDOF 0
ENDMDL
