MODEL 1
REMARK minimizedAffinity 16.4503632
REMARK minimizedRMSD -1
REMARK  0 active torsions:
REMARK  status: ('A' for Active; 'I' for Inactive)
ROOT
ATOM      1  C   UNL d   1       2.694  -0.383  -0.748  0.00  0.00     0.020 A 
ATOM      2  C1  UNL d   1       1.654  -0.222  -1.663  0.00  0.00     0.020 A 
ATOM      3  C2  UNL d   1       0.967  -1.339  -2.144  0.00  0.00     0.034 A 
ATOM      4  C3  UNL d   1       1.320  -2.622  -1.711  0.00  0.00     0.017 A 
ATOM      5  C4  UNL d   1       2.364  -2.783  -0.793  0.00  0.00     0.017 A 
ATOM      6  C5  UNL d   1       3.048  -1.661  -0.314  0.00  0.00     0.034 A 
ATOM      7 Cl   UNL d   1       2.857  -4.335  -0.212  0.00  0.00    -0.070 Cl
ATOM      8 Cl1  UNL d   1       0.429  -3.958  -2.347  0.00  0.00    -0.070 Cl
ENDROOT
TORSDOF 0
ENDMDL
