MODEL 1
REMARK minimizedAffinity 7.55488205
REMARK minimizedRMSD -1
REMARK  0 active torsions:
REMARK  status: ('A' for Active; 'I' for Inactive)
ROOT
ATOM      1  C   UNL d   1       2.182  -0.338  -4.302  0.00  0.00     0.020 A 
ATOM      2  C1  UNL d   1       2.090   0.989  -3.883  0.00  0.00     0.020 A 
ATOM      3  C2  UNL d   1       1.966   1.285  -2.524  0.00  0.00     0.034 A 
ATOM      4  C3  UNL d   1       1.934   0.253  -1.579  0.00  0.00     0.017 A 
ATOM      5  C4  UNL d   1       2.026  -1.078  -2.000  0.00  0.00     0.017 A 
ATOM      6  C5  UNL d   1       2.150  -1.369  -3.362  0.00  0.00     0.034 A 
ATOM      7 Cl   UNL d   1       1.994  -2.405  -0.893  0.00  0.00    -0.070 Cl
ATOM      8 Cl1  UNL d   1       1.779   0.692   0.085  0.00  0.00    -0.070 Cl
ENDROOT
TORSDOF 0
ENDMDL
