MODEL 1
REMARK minimizedAffinity 15.3045483
REMARK minimizedRMSD -1
REMARK  0 active torsions:
REMARK  status: ('A' for Active; 'I' for Inactive)
ROOT
ATOM      1  C   UNL d   1      -5.427   2.491   4.571  0.00  0.00     0.020 A 
ATOM      2  C1  UNL d   1      -4.876   2.974   5.757  0.00  0.00     0.020 A 
ATOM      3  C2  UNL d   1      -3.507   2.838   5.997  0.00  0.00     0.034 A 
ATOM      4  C3  UNL d   1      -2.684   2.218   5.049  0.00  0.00     0.017 A 
ATOM      5  C4  UNL d   1      -3.238   1.734   3.859  0.00  0.00     0.017 A 
ATOM      6  C5  UNL d   1      -4.610   1.872   3.624  0.00  0.00     0.034 A 
ATOM      7 Cl   UNL d   1      -2.287   0.958   2.642  0.00  0.00    -0.070 Cl
ATOM      8 Cl1  UNL d   1      -1.000   2.086   5.412  0.00  0.00    -0.070 Cl
ENDROOT
TORSDOF 0
ENDMDL
