MODEL 1
REMARK minimizedAffinity 11.12815
REMARK minimizedRMSD -1
REMARK  0 active torsions:
REMARK  status: ('A' for Active; 'I' for Inactive)
ROOT
ATOM      1  C   UNL d   1      -5.250  -4.954  -5.792  0.00  0.00     0.020 A 
ATOM      2  C1  UNL d   1      -5.503  -3.598  -5.999  0.00  0.00     0.020 A 
ATOM      3  C2  UNL d   1      -4.726  -2.636  -5.351  0.00  0.00     0.034 A 
ATOM      4  C3  UNL d   1      -3.693  -3.027  -4.491  0.00  0.00     0.017 A 
ATOM      5  C4  UNL d   1      -3.440  -4.388  -4.284  0.00  0.00     0.017 A 
ATOM      6  C5  UNL d   1      -4.221  -5.347  -4.936  0.00  0.00     0.034 A 
ATOM      7 Cl   UNL d   1      -2.183  -4.948  -3.238  0.00  0.00    -0.070 Cl
ATOM      8 Cl1  UNL d   1      -2.773  -1.783  -3.723  0.00  0.00    -0.070 Cl
ENDROOT
TORSDOF 0
ENDMDL
