MODEL 1
REMARK minimizedAffinity 8.6202364
REMARK minimizedRMSD -1
REMARK  0 active torsions:
REMARK  status: ('A' for Active; 'I' for Inactive)
ROOT
ATOM      1  C   UNL d   1       2.614  -2.735  -0.887  0.00  0.00     0.020 A 
ATOM      2  C1  UNL d   1       1.748  -2.912  -1.966  0.00  0.00     0.020 A 
ATOM      3  C2  UNL d   1       1.340  -1.811  -2.721  0.00  0.00     0.034 A 
ATOM      4  C3  UNL d   1       1.796  -0.528  -2.399  0.00  0.00     0.017 A 
ATOM      5  C4  UNL d   1       2.665  -0.351  -1.316  0.00  0.00     0.017 A 
ATOM      6  C5  UNL d   1       3.071  -1.457  -0.563  0.00  0.00     0.034 A 
ATOM      7 Cl   UNL d   1       3.271   1.201  -0.858  0.00  0.00    -0.070 Cl
ATOM      8 Cl1  UNL d   1       1.251   0.788  -3.377  0.00  0.00    -0.070 Cl
ENDROOT
TORSDOF 0
ENDMDL
