MODEL 1
REMARK minimizedAffinity 7.68209314
REMARK minimizedRMSD -1
REMARK  0 active torsions:
REMARK  status: ('A' for Active; 'I' for Inactive)
ROOT
ATOM      1  C   UNL d   1       2.415  -1.204  -1.195  0.00  0.00     0.020 A 
ATOM      2  C1  UNL d   1       1.385  -1.120  -2.132  0.00  0.00     0.020 A 
ATOM      3  C2  UNL d   1       0.770  -2.284  -2.599  0.00  0.00     0.034 A 
ATOM      4  C3  UNL d   1       1.184  -3.536  -2.129  0.00  0.00     0.017 A 
ATOM      5  C4  UNL d   1       2.218  -3.619  -1.189  0.00  0.00     0.017 A 
ATOM      6  C5  UNL d   1       2.830  -2.450  -0.725  0.00  0.00     0.034 A 
ATOM      7 Cl   UNL d   1       2.783  -5.127  -0.563  0.00  0.00    -0.070 Cl
ATOM      8 Cl1  UNL d   1       0.379  -4.933  -2.750  0.00  0.00    -0.070 Cl
ENDROOT
TORSDOF 0
ENDMDL
