MODEL 1
REMARK minimizedAffinity 15.7817745
REMARK minimizedRMSD -1
REMARK  0 active torsions:
REMARK  status: ('A' for Active; 'I' for Inactive)
ROOT
ATOM      1  C   UNL d   1      -2.950   0.545   3.123  0.00  0.00     0.020 A 
ATOM      2  C1  UNL d   1      -3.726   0.509   1.965  0.00  0.00     0.020 A 
ATOM      3  C2  UNL d   1      -4.660  -0.513   1.782  0.00  0.00     0.034 A 
ATOM      4  C3  UNL d   1      -4.819  -1.504   2.758  0.00  0.00     0.017 A 
ATOM      5  C4  UNL d   1      -4.040  -1.467   3.919  0.00  0.00     0.017 A 
ATOM      6  C5  UNL d   1      -3.106  -0.442   4.098  0.00  0.00     0.034 A 
ATOM      7 Cl   UNL d   1      -4.180  -2.655   5.167  0.00  0.00    -0.070 Cl
ATOM      8 Cl1  UNL d   1      -5.993  -2.738   2.465  0.00  0.00    -0.070 Cl
ENDROOT
TORSDOF 0
ENDMDL
