MODEL 1
REMARK minimizedAffinity 17.3737717
REMARK minimizedRMSD -1
REMARK  0 active torsions:
REMARK  status: ('A' for Active; 'I' for Inactive)
ROOT
ATOM      1  C   UNL d   1       0.179   1.261   5.905  0.00  0.00     0.020 A 
ATOM      2  C1  UNL d   1       1.553   1.487   5.978  0.00  0.00     0.020 A 
ATOM      3  C2  UNL d   1       2.295   1.668   4.809  0.00  0.00     0.034 A 
ATOM      4  C3  UNL d   1       1.663   1.623   3.561  0.00  0.00     0.017 A 
ATOM      5  C4  UNL d   1       0.283   1.396   3.488  0.00  0.00     0.017 A 
ATOM      6  C5  UNL d   1      -0.454   1.216   4.662  0.00  0.00     0.034 A 
ATOM      7 Cl   UNL d   1      -0.567   1.328   1.984  0.00  0.00    -0.070 Cl
ATOM      8 Cl1  UNL d   1       2.641   1.855   2.156  0.00  0.00    -0.070 Cl
ENDROOT
TORSDOF 0
ENDMDL
