MODEL 1
REMARK minimizedAffinity 10.9008503
REMARK minimizedRMSD -1
REMARK  0 active torsions:
REMARK  status: ('A' for Active; 'I' for Inactive)
ROOT
ATOM      1  C   UNL d   1       1.668  -0.380  -3.329  0.00  0.00     0.020 A 
ATOM      2  C1  UNL d   1       1.970   0.945  -3.018  0.00  0.00     0.020 A 
ATOM      3  C2  UNL d   1       2.734   1.240  -1.887  0.00  0.00     0.034 A 
ATOM      4  C3  UNL d   1       3.198   0.208  -1.062  0.00  0.00     0.017 A 
ATOM      5  C4  UNL d   1       2.893  -1.122  -1.375  0.00  0.00     0.017 A 
ATOM      6  C5  UNL d   1       2.128  -1.411  -2.509  0.00  0.00     0.034 A 
ATOM      7 Cl   UNL d   1       3.430  -2.448  -0.406  0.00  0.00    -0.070 Cl
ATOM      8 Cl1  UNL d   1       4.137   0.645   0.321  0.00  0.00    -0.070 Cl
ENDROOT
TORSDOF 0
ENDMDL
