MODEL 1
REMARK minimizedAffinity 16.9679947
REMARK minimizedRMSD -1
REMARK  0 active torsions:
REMARK  status: ('A' for Active; 'I' for Inactive)
ROOT
ATOM      1  C   UNL d   1      -4.505   3.363   4.826  0.00  0.00     0.020 A 
ATOM      2  C1  UNL d   1      -4.557   2.613   6.000  0.00  0.00     0.020 A 
ATOM      3  C2  UNL d   1      -4.225   1.256   5.977  0.00  0.00     0.034 A 
ATOM      4  C3  UNL d   1      -3.840   0.646   4.777  0.00  0.00     0.017 A 
ATOM      5  C4  UNL d   1      -3.789   1.400   3.599  0.00  0.00     0.017 A 
ATOM      6  C5  UNL d   1      -4.122   2.758   3.628  0.00  0.00     0.034 A 
ATOM      7 Cl   UNL d   1      -3.323   0.717   2.081  0.00  0.00    -0.070 Cl
ATOM      8 Cl1  UNL d   1      -3.444  -1.035   4.822  0.00  0.00    -0.070 Cl
ENDROOT
TORSDOF 0
ENDMDL
