MODEL 1
REMARK minimizedAffinity 5.57180023
REMARK minimizedRMSD -1
REMARK  0 active torsions:
REMARK  status: ('A' for Active; 'I' for Inactive)
ROOT
ATOM      1  C   UNL d   1      -4.795  -5.948  -5.357  0.00  0.00     0.020 A 
ATOM      2  C1  UNL d   1      -5.095  -4.748  -6.000  0.00  0.00     0.020 A 
ATOM      3  C2  UNL d   1      -4.359  -3.597  -5.710  0.00  0.00     0.034 A 
ATOM      4  C3  UNL d   1      -3.318  -3.645  -4.775  0.00  0.00     0.017 A 
ATOM      5  C4  UNL d   1      -3.018  -4.850  -4.130  0.00  0.00     0.017 A 
ATOM      6  C5  UNL d   1      -3.758  -5.999  -4.424  0.00  0.00     0.034 A 
ATOM      7 Cl   UNL d   1      -1.749  -4.986  -2.965  0.00  0.00    -0.070 Cl
ATOM      8 Cl1  UNL d   1      -2.449  -2.184  -4.465  0.00  0.00    -0.070 Cl
ENDROOT
TORSDOF 0
ENDMDL
