MODEL 1
REMARK minimizedAffinity 14.9561901
REMARK minimizedRMSD -1
REMARK  0 active torsions:
REMARK  status: ('A' for Active; 'I' for Inactive)
ROOT
ATOM      1  C   UNL d   1       0.100   0.531   2.750  0.00  0.00     0.020 A 
ATOM      2  C1  UNL d   1       0.058   1.558   3.692  0.00  0.00     0.020 A 
ATOM      3  C2  UNL d   1      -1.172   2.027   4.159  0.00  0.00     0.034 A 
ATOM      4  C3  UNL d   1      -2.364   1.468   3.685  0.00  0.00     0.017 A 
ATOM      5  C4  UNL d   1      -2.321   0.436   2.740  0.00  0.00     0.017 A 
ATOM      6  C5  UNL d   1      -1.087  -0.029   2.275  0.00  0.00     0.034 A 
ATOM      7 Cl   UNL d   1      -3.750  -0.303   2.109  0.00  0.00    -0.070 Cl
ATOM      8 Cl1  UNL d   1      -3.849   2.096   4.307  0.00  0.00    -0.070 Cl
ENDROOT
TORSDOF 0
ENDMDL
