MODEL 1
REMARK minimizedAffinity -2.84234476
REMARK minimizedRMSD -1
REMARK  0 active torsions:
REMARK  status: ('A' for Active; 'I' for Inactive)
ROOT
ATOM      1  C   UNL d   1       1.869  -1.140  -0.778  0.00  0.00     0.020 A 
ATOM      2  C1  UNL d   1       1.857  -0.808  -2.132  0.00  0.00     0.020 A 
ATOM      3  C2  UNL d   1       2.213  -1.763  -3.088  0.00  0.00     0.034 A 
ATOM      4  C3  UNL d   1       2.581  -3.053  -2.691  0.00  0.00     0.017 A 
ATOM      5  C4  UNL d   1       2.592  -3.385  -1.331  0.00  0.00     0.017 A 
ATOM      6  C5  UNL d   1       2.236  -2.426  -0.378  0.00  0.00     0.034 A 
ATOM      7 Cl   UNL d   1       3.035  -4.957  -0.765  0.00  0.00    -0.070 Cl
ATOM      8 Cl1  UNL d   1       3.008  -4.183  -3.926  0.00  0.00    -0.070 Cl
ENDROOT
TORSDOF 0
ENDMDL
