MODEL 1
REMARK minimizedAffinity 19.7049255
REMARK minimizedRMSD -1
REMARK  0 active torsions:
REMARK  status: ('A' for Active; 'I' for Inactive)
ROOT
ATOM      1  C   UNL d   1      -5.078   1.907   4.240  0.00  0.00     0.020 A 
ATOM      2  C1  UNL d   1      -4.870   2.520   5.475  0.00  0.00     0.020 A 
ATOM      3  C2  UNL d   1      -3.579   2.612   6.000  0.00  0.00     0.034 A 
ATOM      4  C3  UNL d   1      -2.492   2.089   5.290  0.00  0.00     0.017 A 
ATOM      5  C4  UNL d   1      -2.702   1.474   4.051  0.00  0.00     0.017 A 
ATOM      6  C5  UNL d   1      -3.996   1.385   3.530  0.00  0.00     0.034 A 
ATOM      7 Cl   UNL d   1      -1.410   0.806   3.117  0.00  0.00    -0.070 Cl
ATOM      8 Cl1  UNL d   1      -0.923   2.238   6.000  0.00  0.00    -0.070 Cl
ENDROOT
TORSDOF 0
ENDMDL
