MODEL 1
REMARK minimizedAffinity 11.5680628
REMARK minimizedRMSD -1
REMARK  0 active torsions:
REMARK  status: ('A' for Active; 'I' for Inactive)
ROOT
ATOM      1  C   UNL d   1       2.928   2.740  -1.919  0.00  0.00     0.020 A 
ATOM      2  C1  UNL d   1       3.483   1.624  -1.294  0.00  0.00     0.020 A 
ATOM      3  C2  UNL d   1       3.340   1.453   0.085  0.00  0.00     0.034 A 
ATOM      4  C3  UNL d   1       2.641   2.400   0.843  0.00  0.00     0.017 A 
ATOM      5  C4  UNL d   1       2.085   3.519   0.214  0.00  0.00     0.017 A 
ATOM      6  C5  UNL d   1       2.230   3.685  -1.167  0.00  0.00     0.034 A 
ATOM      7 Cl   UNL d   1       1.208   4.730   1.082  0.00  0.00    -0.070 Cl
ATOM      8 Cl1  UNL d   1       2.503   2.124   2.543  0.00  0.00    -0.070 Cl
ENDROOT
TORSDOF 0
ENDMDL
