MODEL 1
REMARK minimizedAffinity 8.4111414
REMARK minimizedRMSD -1
REMARK  0 active torsions:
REMARK  status: ('A' for Active; 'I' for Inactive)
ROOT
ATOM      1  C   UNL d   1       2.555  -0.570  -0.680  0.00  0.00     0.020 A 
ATOM      2  C1  UNL d   1       1.912  -0.621  -1.916  0.00  0.00     0.020 A 
ATOM      3  C2  UNL d   1       1.529  -1.852  -2.454  0.00  0.00     0.034 A 
ATOM      4  C3  UNL d   1       1.789  -3.036  -1.756  0.00  0.00     0.017 A 
ATOM      5  C4  UNL d   1       2.435  -2.984  -0.515  0.00  0.00     0.017 A 
ATOM      6  C5  UNL d   1       2.816  -1.750   0.019  0.00  0.00     0.034 A 
ATOM      7 Cl   UNL d   1       2.790  -4.404   0.405  0.00  0.00    -0.070 Cl
ATOM      8 Cl1  UNL d   1       1.288  -4.523  -2.481  0.00  0.00    -0.070 Cl
ENDROOT
TORSDOF 0
ENDMDL
