MODEL 1
REMARK minimizedAffinity 21.8469601
REMARK minimizedRMSD -1
REMARK  0 active torsions:
REMARK  status: ('A' for Active; 'I' for Inactive)
ROOT
ATOM      1  C   UNL d   1      -3.260  -4.328  -3.162  0.00  0.00     0.020 A 
ATOM      2  C1  UNL d   1      -2.190  -5.086  -2.689  0.00  0.00     0.020 A 
ATOM      3  C2  UNL d   1      -1.059  -4.451  -2.173  0.00  0.00     0.034 A 
ATOM      4  C3  UNL d   1      -0.995  -3.054  -2.129  0.00  0.00     0.017 A 
ATOM      5  C4  UNL d   1      -2.069  -2.294  -2.604  0.00  0.00     0.017 A 
ATOM      6  C5  UNL d   1      -3.200  -2.935  -3.120  0.00  0.00     0.034 A 
ATOM      7 Cl   UNL d   1      -2.064  -0.565  -2.583  0.00  0.00    -0.070 Cl
ATOM      8 Cl1  UNL d   1       0.435  -2.335  -1.478  0.00  0.00    -0.070 Cl
ENDROOT
TORSDOF 0
ENDMDL
