MODEL 1
REMARK minimizedAffinity -5.19199848
REMARK minimizedRMSD -1
REMARK  0 active torsions:
REMARK  status: ('A' for Active; 'I' for Inactive)
ROOT
ATOM      1  C2' OXE d   1       0.519  -0.284  -0.602  0.00  0.00     0.078 C 
ATOM      2  C1' OXE d   1      -1.374  -1.057   1.321  0.00  0.00     0.078 C 
ATOM      3  C1  OXE d   1      -1.311   0.402   0.942  0.00  0.00    -0.078 A 
ATOM      4  C2  OXE d   1      -0.351   0.778   0.034  0.00  0.00    -0.078 A 
ATOM      5  C3  OXE d   1      -0.285   2.102  -0.391  0.00  0.00     0.003 A 
ATOM      6  C4  OXE d   1      -1.087   3.080   0.210  0.00  0.00    -0.002 A 
ATOM      7  C5  OXE d   1      -2.045   2.724   1.165  0.00  0.00    -0.002 A 
ATOM      8  C6  OXE d   1      -2.199   1.386   1.510  0.00  0.00     0.003 A 
ENDROOT
TORSDOF 0
ENDMDL
