MODEL 1
REMARK minimizedAffinity -5.98458624
REMARK minimizedRMSD -1
REMARK  0 active torsions:
REMARK  status: ('A' for Active; 'I' for Inactive)
ROOT
ATOM      1  C2' OXE d   1      -0.352  -0.755   2.205  0.00  0.00     0.078 C 
ATOM      2  C1' OXE d   1       0.732  -0.225  -0.329  0.00  0.00     0.078 C 
ATOM      3  C1  OXE d   1      -0.173   0.816   0.280  0.00  0.00    -0.078 A 
ATOM      4  C2  OXE d   1      -0.736   0.528   1.500  0.00  0.00    -0.078 A 
ATOM      5  C3  OXE d   1      -1.535   1.477   2.132  0.00  0.00     0.003 A 
ATOM      6  C4  OXE d   1      -1.893   2.657   1.468  0.00  0.00    -0.002 A 
ATOM      7  C5  OXE d   1      -1.362   2.952   0.208  0.00  0.00    -0.002 A 
ATOM      8  C6  OXE d   1      -0.469   2.063  -0.380  0.00  0.00     0.003 A 
ENDROOT
TORSDOF 0
ENDMDL
