MODEL 1
REMARK minimizedAffinity -4.84897947
REMARK minimizedRMSD -1
REMARK  0 active torsions:
REMARK  status: ('A' for Active; 'I' for Inactive)
ROOT
ATOM      1  C2' OXE d   1      -0.717  -1.217   1.980  0.00  0.00     0.078 C 
ATOM      2  C1' OXE d   1       0.128  -0.746  -0.655  0.00  0.00     0.078 C 
ATOM      3  C1  OXE d   1      -0.332   0.438   0.158  0.00  0.00    -0.078 A 
ATOM      4  C2  OXE d   1      -0.788   0.192   1.431  0.00  0.00    -0.078 A 
ATOM      5  C3  OXE d   1      -1.172   1.255   2.243  0.00  0.00     0.003 A 
ATOM      6  C4  OXE d   1      -1.244   2.554   1.724  0.00  0.00    -0.002 A 
ATOM      7  C5  OXE d   1      -0.822   2.820   0.418  0.00  0.00    -0.002 A 
ATOM      8  C6  OXE d   1      -0.324   1.783  -0.363  0.00  0.00     0.003 A 
ENDROOT
TORSDOF 0
ENDMDL
