MODEL 1
REMARK minimizedAffinity -3.51796246
REMARK minimizedRMSD -1
REMARK  0 active torsions:
REMARK  status: ('A' for Active; 'I' for Inactive)
ROOT
ATOM      1  C2' OXE d   1       0.348  -1.093  -0.739  0.00  0.00     0.078 C 
ATOM      2  C1' OXE d   1      -1.591  -2.014   1.070  0.00  0.00     0.078 C 
ATOM      3  C1  OXE d   1      -1.426  -0.523   0.915  0.00  0.00    -0.078 A 
ATOM      4  C2  OXE d   1      -0.442  -0.081   0.063  0.00  0.00    -0.078 A 
ATOM      5  C3  OXE d   1      -0.284   1.284  -0.158  0.00  0.00     0.003 A 
ATOM      6  C4  OXE d   1      -1.012   2.213   0.595  0.00  0.00    -0.002 A 
ATOM      7  C5  OXE d   1      -1.991   1.784   1.498  0.00  0.00    -0.002 A 
ATOM      8  C6  OXE d   1      -2.239   0.423   1.638  0.00  0.00     0.003 A 
ENDROOT
TORSDOF 0
ENDMDL
