MODEL 1
REMARK minimizedAffinity -2.15528083
REMARK minimizedRMSD -1
REMARK  0 active torsions:
REMARK  status: ('A' for Active; 'I' for Inactive)
ROOT
ATOM      1  C2' OXE d   1      -0.782  -2.989  -2.156  0.00  0.00     0.078 C 
ATOM      2  C1' OXE d   1       1.842  -2.138  -1.632  0.00  0.00     0.078 C 
ATOM      3  C1  OXE d   1       0.719  -1.454  -0.893  0.00  0.00    -0.078 A 
ATOM      4  C2  OXE d   1      -0.564  -1.844  -1.189  0.00  0.00    -0.078 A 
ATOM      5  C3  OXE d   1      -1.633  -1.284  -0.496  0.00  0.00     0.003 A 
ATOM      6  C4  OXE d   1      -1.424  -0.219   0.389  0.00  0.00    -0.002 A 
ATOM      7  C5  OXE d   1      -0.128   0.221   0.676  0.00  0.00    -0.002 A 
ATOM      8  C6  OXE d   1       0.955  -0.413   0.077  0.00  0.00     0.003 A 
ENDROOT
TORSDOF 0
ENDMDL
