MODEL 1
REMARK minimizedAffinity -4.05528259
REMARK minimizedRMSD -1
REMARK  0 active torsions:
REMARK  status: ('A' for Active; 'I' for Inactive)
ROOT
ATOM      1  C2' OXE d   1      -0.190  -1.567   1.991  0.00  0.00     0.078 C 
ATOM      2  C1' OXE d   1       0.605  -1.133  -0.666  0.00  0.00     0.078 C 
ATOM      3  C1  OXE d   1      -0.078   0.000   0.059  0.00  0.00    -0.078 A 
ATOM      4  C2  OXE d   1      -0.505  -0.237   1.343  0.00  0.00    -0.078 A 
ATOM      5  C3  OXE d   1      -1.092   0.792   2.075  0.00  0.00     0.003 A 
ATOM      6  C4  OXE d   1      -1.389   2.016   1.465  0.00  0.00    -0.002 A 
ATOM      7  C5  OXE d   1      -0.998   2.265   0.145  0.00  0.00    -0.002 A 
ATOM      8  C6  OXE d   1      -0.305   1.284  -0.557  0.00  0.00     0.003 A 
ENDROOT
TORSDOF 0
ENDMDL
