MODEL 1
REMARK minimizedAffinity -1.62941134
REMARK minimizedRMSD -1
REMARK  0 active torsions:
REMARK  status: ('A' for Active; 'I' for Inactive)
ROOT
ATOM      1  C2' OXE d   1      -0.047  -0.746   2.165  0.00  0.00     0.078 C 
ATOM      2  C1' OXE d   1      -1.571   1.604   1.976  0.00  0.00     0.078 C 
ATOM      3  C1  OXE d   1      -0.680   1.248   0.812  0.00  0.00    -0.078 A 
ATOM      4  C2  OXE d   1       0.097   0.121   0.933  0.00  0.00    -0.078 A 
ATOM      5  C3  OXE d   1       0.895  -0.282  -0.134  0.00  0.00     0.003 A 
ATOM      6  C4  OXE d   1       1.030   0.531  -1.266  0.00  0.00    -0.002 A 
ATOM      7  C5  OXE d   1       0.278   1.703  -1.391  0.00  0.00    -0.002 A 
ATOM      8  C6  OXE d   1      -0.612   2.053  -0.382  0.00  0.00     0.003 A 
ENDROOT
TORSDOF 0
ENDMDL
