MODEL 1
REMARK minimizedAffinity -4.88399506
REMARK minimizedRMSD -1
REMARK  0 active torsions:
REMARK  status: ('A' for Active; 'I' for Inactive)
ROOT
ATOM      1  C2' OXE d   1       0.041  -0.823  -0.788  0.00  0.00     0.078 C 
ATOM      2  C1' OXE d   1      -1.931  -1.509   1.088  0.00  0.00     0.078 C 
ATOM      3  C1  OXE d   1      -1.663  -0.044   0.853  0.00  0.00    -0.078 A 
ATOM      4  C2  OXE d   1      -0.664   0.283  -0.032  0.00  0.00    -0.078 A 
ATOM      5  C3  OXE d   1      -0.413   1.620  -0.326  0.00  0.00     0.003 A 
ATOM      6  C4  OXE d   1      -1.063   2.636   0.385  0.00  0.00    -0.002 A 
ATOM      7  C5  OXE d   1      -2.056   2.325   1.320  0.00  0.00    -0.002 A 
ATOM      8  C6  OXE d   1      -2.397   0.994   1.534  0.00  0.00     0.003 A 
ENDROOT
TORSDOF 0
ENDMDL
