MODEL 1
REMARK minimizedAffinity -4.48723316
REMARK minimizedRMSD -1
REMARK  0 active torsions:
REMARK  status: ('A' for Active; 'I' for Inactive)
ROOT
ATOM      1  C2' OXE d   1      -2.205   2.015   1.165  0.00  0.00     0.078 C 
ATOM      2  C1' OXE d   1      -0.828   2.583  -1.215  0.00  0.00     0.078 C 
ATOM      3  C1  OXE d   1      -0.492   1.300  -0.497  0.00  0.00    -0.078 A 
ATOM      4  C2  OXE d   1      -1.137   1.053   0.691  0.00  0.00    -0.078 A 
ATOM      5  C3  OXE d   1      -0.904  -0.142   1.366  0.00  0.00     0.003 A 
ATOM      6  C4  OXE d   1       0.092  -1.022   0.927  0.00  0.00    -0.002 A 
ATOM      7  C5  OXE d   1       0.789  -0.770  -0.259  0.00  0.00    -0.002 A 
ATOM      8  C6  OXE d   1       0.480   0.363  -1.004  0.00  0.00     0.003 A 
ENDROOT
TORSDOF 0
ENDMDL
