MODEL 1
REMARK minimizedAffinity -3.34736395
REMARK minimizedRMSD -1
REMARK  0 active torsions:
REMARK  status: ('A' for Active; 'I' for Inactive)
ROOT
ATOM      1  C2' OXE d   1      -0.908  -0.916   2.372  0.00  0.00     0.078 C 
ATOM      2  C1' OXE d   1      -1.515   1.790   1.941  0.00  0.00     0.078 C 
ATOM      3  C1  OXE d   1      -0.682   1.082   0.902  0.00  0.00    -0.078 A 
ATOM      4  C2  OXE d   1      -0.351  -0.229   1.144  0.00  0.00    -0.078 A 
ATOM      5  C3  OXE d   1       0.370  -0.945   0.192  0.00  0.00     0.003 A 
ATOM      6  C4  OXE d   1       0.890  -0.299  -0.936  0.00  0.00    -0.002 A 
ATOM      7  C5  OXE d   1       0.598   1.047  -1.182  0.00  0.00    -0.002 A 
ATOM      8  C6  OXE d   1      -0.221   1.739  -0.296  0.00  0.00     0.003 A 
ENDROOT
TORSDOF 0
ENDMDL
