MODEL 1
REMARK minimizedAffinity -1.62575495
REMARK minimizedRMSD -1
REMARK  0 active torsions:
REMARK  status: ('A' for Active; 'I' for Inactive)
ROOT
ATOM      1  C2' OXE d   1       0.385  -2.954  -3.019  0.00  0.00     0.078 C 
ATOM      2  C1' OXE d   1       2.068  -3.662  -0.886  0.00  0.00     0.078 C 
ATOM      3  C1  OXE d   1       1.150  -2.481  -0.696  0.00  0.00    -0.078 A 
ATOM      4  C2  OXE d   1       0.363  -2.113  -1.761  0.00  0.00    -0.078 A 
ATOM      5  C3  OXE d   1      -0.541  -1.064  -1.620  0.00  0.00     0.003 A 
ATOM      6  C4  OXE d   1      -0.547  -0.284  -0.457  0.00  0.00    -0.002 A 
ATOM      7  C5  OXE d   1       0.274  -0.618   0.625  0.00  0.00    -0.002 A 
ATOM      8  C6  OXE d   1       1.096  -1.736   0.538  0.00  0.00     0.003 A 
ENDROOT
TORSDOF 0
ENDMDL
