MODEL 1
REMARK minimizedAffinity -1.59836304
REMARK minimizedRMSD -1
REMARK  0 active torsions:
REMARK  status: ('A' for Active; 'I' for Inactive)
ROOT
ATOM      1  C2' OXE d   1       1.287  -1.124  -0.749  0.00  0.00     0.078 C 
ATOM      2  C1' OXE d   1       0.816   1.604  -1.215  0.00  0.00     0.078 C 
ATOM      3  C1  OXE d   1       0.237   0.994   0.037  0.00  0.00    -0.078 A 
ATOM      4  C2  OXE d   1       0.433  -0.352   0.234  0.00  0.00    -0.078 A 
ATOM      5  C3  OXE d   1      -0.033  -0.953   1.399  0.00  0.00     0.003 A 
ATOM      6  C4  OXE d   1      -0.830  -0.234   2.298  0.00  0.00    -0.002 A 
ATOM      7  C5  OXE d   1      -1.075   1.129   2.097  0.00  0.00    -0.002 A 
ATOM      8  C6  OXE d   1      -0.514   1.766   0.996  0.00  0.00     0.003 A 
ENDROOT
TORSDOF 0
ENDMDL
