MODEL 1
REMARK minimizedAffinity -5.24970341
REMARK minimizedRMSD -1
REMARK  0 active torsions:
REMARK  status: ('A' for Active; 'I' for Inactive)
ROOT
ATOM      1  C2' OXE d   1       1.429  -0.600  -0.025  0.00  0.00     0.078 C 
ATOM      2  C1' OXE d   1       0.940   2.009  -0.937  0.00  0.00     0.078 C 
ATOM      3  C1  OXE d   1       0.032   1.456   0.132  0.00  0.00    -0.078 A 
ATOM      4  C2  OXE d   1       0.249   0.162   0.539  0.00  0.00    -0.078 A 
ATOM      5  C3  OXE d   1      -0.525  -0.378   1.562  0.00  0.00     0.003 A 
ATOM      6  C4  OXE d   1      -1.620   0.330   2.072  0.00  0.00    -0.002 A 
ATOM      7  C5  OXE d   1      -1.884   1.635   1.643  0.00  0.00    -0.002 A 
ATOM      8  C6  OXE d   1      -1.043   2.227   0.707  0.00  0.00     0.003 A 
ENDROOT
TORSDOF 0
ENDMDL
