MODEL 1
REMARK minimizedAffinity -4.8019681
REMARK minimizedRMSD -1
REMARK  0 active torsions:
REMARK  status: ('A' for Active; 'I' for Inactive)
ROOT
ATOM      1  C2' OXE d   1      -2.041   1.871   0.579  0.00  0.00     0.078 C 
ATOM      2  C1' OXE d   1      -0.378   2.621  -1.554  0.00  0.00     0.078 C 
ATOM      3  C1  OXE d   1      -0.034   1.358  -0.804  0.00  0.00    -0.078 A 
ATOM      4  C2  OXE d   1      -0.826   1.024   0.268  0.00  0.00    -0.078 A 
ATOM      5  C3  OXE d   1      -0.586  -0.159   0.960  0.00  0.00     0.003 A 
ATOM      6  C4  OXE d   1       0.546  -0.932   0.672  0.00  0.00    -0.002 A 
ATOM      7  C5  OXE d   1       1.388  -0.588  -0.391  0.00  0.00    -0.002 A 
ATOM      8  C6  OXE d   1       1.089   0.528  -1.164  0.00  0.00     0.003 A 
ENDROOT
TORSDOF 0
ENDMDL
