MODEL 1
REMARK minimizedAffinity -0.926222265
REMARK minimizedRMSD -1
REMARK  0 active torsions:
REMARK  status: ('A' for Active; 'I' for Inactive)
ROOT
ATOM      1  C2' OXE d   1      -1.099   1.847   1.976  0.00  0.00     0.078 C 
ATOM      2  C1' OXE d   1       0.282   2.374  -0.411  0.00  0.00     0.078 C 
ATOM      3  C1  OXE d   1       0.174   0.938   0.037  0.00  0.00    -0.078 A 
ATOM      4  C2  OXE d   1      -0.463   0.694   1.230  0.00  0.00    -0.078 A 
ATOM      5  C3  OXE d   1      -0.637  -0.617   1.663  0.00  0.00     0.003 A 
ATOM      6  C4  OXE d   1      -0.037  -1.677   0.972  0.00  0.00    -0.002 A 
ATOM      7  C5  OXE d   1       0.650  -1.447  -0.224  0.00  0.00    -0.002 A 
ATOM      8  C6  OXE d   1       0.728  -0.152  -0.726  0.00  0.00     0.003 A 
ENDROOT
TORSDOF 0
ENDMDL
