MODEL 1
REMARK minimizedAffinity -3.95380831
REMARK minimizedRMSD -1
REMARK  0 active torsions:
REMARK  status: ('A' for Active; 'I' for Inactive)
ROOT
ATOM      1  C2' OXE d   1      -0.322  -0.445   1.871  0.00  0.00     0.078 C 
ATOM      2  C1' OXE d   1       1.035  -0.360  -0.585  0.00  0.00     0.078 C 
ATOM      3  C1  OXE d   1       0.413   0.918  -0.080  0.00  0.00    -0.078 A 
ATOM      4  C2  OXE d   1      -0.289   0.857   1.100  0.00  0.00    -0.078 A 
ATOM      5  C3  OXE d   1      -0.836   2.018   1.638  0.00  0.00     0.003 A 
ATOM      6  C4  OXE d   1      -0.810   3.216   0.913  0.00  0.00    -0.002 A 
ATOM      7  C5  OXE d   1      -0.134   3.291  -0.310  0.00  0.00    -0.002 A 
ATOM      8  C6  OXE d   1       0.517   2.164  -0.799  0.00  0.00     0.003 A 
ENDROOT
TORSDOF 0
ENDMDL
