MODEL 1
REMARK minimizedAffinity -6.24948788
REMARK minimizedRMSD -1
REMARK  0 active torsions:
REMARK  status: ('A' for Active; 'I' for Inactive)
ROOT
ATOM      1  C2' OXE d   1      -0.696  -0.331   0.635  0.00  0.00     0.078 C 
ATOM      2  C1' OXE d   1       0.184   0.245  -1.968  0.00  0.00     0.078 C 
ATOM      3  C1  OXE d   1      -0.303   1.393  -1.120  0.00  0.00    -0.078 A 
ATOM      4  C2  OXE d   1      -0.776   1.096   0.135  0.00  0.00    -0.078 A 
ATOM      5  C3  OXE d   1      -1.186   2.124   0.979  0.00  0.00     0.003 A 
ATOM      6  C4  OXE d   1      -1.266   3.440   0.506  0.00  0.00    -0.002 A 
ATOM      7  C5  OXE d   1      -0.827   3.758  -0.783  0.00  0.00    -0.002 A 
ATOM      8  C6  OXE d   1      -0.304   2.756  -1.592  0.00  0.00     0.003 A 
ENDROOT
TORSDOF 0
ENDMDL
