MODEL 1
REMARK minimizedAffinity -4.18794727
REMARK minimizedRMSD -1
REMARK  0 active torsions:
REMARK  status: ('A' for Active; 'I' for Inactive)
ROOT
ATOM      1  C2' OXE d   1       2.179  -1.770  -1.418  0.00  0.00     0.078 C 
ATOM      2  C1' OXE d   1      -0.335  -2.618  -2.335  0.00  0.00     0.078 C 
ATOM      3  C1  OXE d   1      -0.294  -1.718  -1.125  0.00  0.00    -0.078 A 
ATOM      4  C2  OXE d   1       0.943  -1.346  -0.656  0.00  0.00    -0.078 A 
ATOM      5  C3  OXE d   1       1.036  -0.473   0.424  0.00  0.00     0.003 A 
ATOM      6  C4  OXE d   1      -0.112  -0.094   1.130  0.00  0.00    -0.002 A 
ATOM      7  C5  OXE d   1      -1.379  -0.494   0.692  0.00  0.00    -0.002 A 
ATOM      8  C6  OXE d   1      -1.490  -1.269  -0.456  0.00  0.00     0.003 A 
ENDROOT
TORSDOF 0
ENDMDL
