MODEL 1
REMARK minimizedAffinity -2.71388793
REMARK minimizedRMSD -1
REMARK  0 active torsions:
REMARK  status: ('A' for Active; 'I' for Inactive)
ROOT
ATOM      1  C2' OXE d   1       0.611   1.490  -1.326  0.00  0.00     0.078 C 
ATOM      2  C1' OXE d   1       0.780  -1.211  -0.580  0.00  0.00     0.078 C 
ATOM      3  C1  OXE d   1      -0.057  -0.295   0.278  0.00  0.00    -0.078 A 
ATOM      4  C2  OXE d   1      -0.096   1.034  -0.068  0.00  0.00    -0.078 A 
ATOM      5  C3  OXE d   1      -0.897   1.912   0.657  0.00  0.00     0.003 A 
ATOM      6  C4  OXE d   1      -1.540   1.484   1.825  0.00  0.00    -0.002 A 
ATOM      7  C5  OXE d   1      -1.480   0.143   2.218  0.00  0.00    -0.002 A 
ATOM      8  C6  OXE d   1      -0.779  -0.766   1.433  0.00  0.00     0.003 A 
ENDROOT
TORSDOF 0
ENDMDL
