MODEL 1
REMARK minimizedAffinity -3.18895888
REMARK minimizedRMSD -1
REMARK  0 active torsions:
REMARK  status: ('A' for Active; 'I' for Inactive)
ROOT
ATOM      1  C   UNL d   1       0.283  -0.502  -1.269  0.00  0.00     0.078 C 
ATOM      2  C1  UNL d   1      -0.028  -0.456   0.197  0.00  0.00    -0.077 A 
ATOM      3  C2  UNL d   1      -1.317  -0.149   0.652  0.00  0.00    -0.001 A 
ATOM      4  C3  UNL d   1      -1.590  -0.100   2.020  0.00  0.00     0.003 A 
ATOM      5  C4  UNL d   1      -0.579  -0.356   2.945  0.00  0.00    -0.005 A 
ATOM      6  C5  UNL d   1       0.706  -0.660   2.502  0.00  0.00     0.003 A 
ATOM      7  C6  UNL d   1       0.981  -0.709   1.134  0.00  0.00    -0.001 A 
ENDROOT
TORSDOF 0
ENDMDL
