MODEL 1
REMARK minimizedAffinity -2.67341852
REMARK minimizedRMSD -1
REMARK  0 active torsions:
REMARK  status: ('A' for Active; 'I' for Inactive)
ROOT
ATOM      1  C   UNL d   1       1.361  -0.635   3.387  0.00  0.00     0.078 C 
ATOM      2  C1  UNL d   1       0.321  -0.330   2.350  0.00  0.00    -0.077 A 
ATOM      3  C2  UNL d   1       0.592  -0.495   0.986  0.00  0.00    -0.001 A 
ATOM      4  C3  UNL d   1      -0.383  -0.198   0.032  0.00  0.00     0.003 A 
ATOM      5  C4  UNL d   1      -1.634   0.268   0.431  0.00  0.00    -0.005 A 
ATOM      6  C5  UNL d   1      -1.912   0.438   1.786  0.00  0.00     0.003 A 
ATOM      7  C6  UNL d   1      -0.938   0.141   2.742  0.00  0.00    -0.001 A 
ENDROOT
TORSDOF 0
ENDMDL
