MODEL 1
REMARK minimizedAffinity 1.57322979
REMARK minimizedRMSD -1
REMARK  0 active torsions:
REMARK  status: ('A' for Active; 'I' for Inactive)
ROOT
ATOM      1  C   UNL d   1      -2.787  -2.100  -5.999  0.00  0.00     0.078 C 
ATOM      2  C1  UNL d   1      -1.694  -1.313  -5.339  0.00  0.00    -0.077 A 
ATOM      3  C2  UNL d   1      -1.009  -1.821  -4.228  0.00  0.00    -0.001 A 
ATOM      4  C3  UNL d   1      -0.001  -1.073  -3.618  0.00  0.00     0.003 A 
ATOM      5  C4  UNL d   1       0.331   0.188  -4.110  0.00  0.00    -0.005 A 
ATOM      6  C5  UNL d   1      -0.347   0.703  -5.214  0.00  0.00     0.003 A 
ATOM      7  C6  UNL d   1      -1.355  -0.044  -5.825  0.00  0.00    -0.001 A 
ENDROOT
TORSDOF 0
ENDMDL
