MODEL 1
REMARK minimizedAffinity -2.47113991
REMARK minimizedRMSD -1
REMARK  0 active torsions:
REMARK  status: ('A' for Active; 'I' for Inactive)
ROOT
ATOM      1  C   UNL d   1       1.907  -1.075   2.453  0.00  0.00     0.078 C 
ATOM      2  C1  UNL d   1       0.707  -0.701   1.635  0.00  0.00    -0.077 A 
ATOM      3  C2  UNL d   1       0.753  -0.723   0.235  0.00  0.00    -0.001 A 
ATOM      4  C3  UNL d   1      -0.368  -0.363  -0.514  0.00  0.00     0.003 A 
ATOM      5  C4  UNL d   1      -1.544   0.023   0.128  0.00  0.00    -0.005 A 
ATOM      6  C5  UNL d   1      -1.598   0.049   1.520  0.00  0.00     0.003 A 
ATOM      7  C6  UNL d   1      -0.478  -0.310   2.270  0.00  0.00    -0.001 A 
ENDROOT
TORSDOF 0
ENDMDL
