MODEL 1
REMARK minimizedAffinity -1.319556
REMARK minimizedRMSD -1
REMARK  0 active torsions:
REMARK  status: ('A' for Active; 'I' for Inactive)
ROOT
ATOM      1  C   UNL d   1       0.356  -0.458  -1.381  0.00  0.00     0.078 C 
ATOM      2  C1  UNL d   1      -0.280  -0.122  -0.065  0.00  0.00    -0.077 A 
ATOM      3  C2  UNL d   1      -1.609   0.316   0.003  0.00  0.00    -0.001 A 
ATOM      4  C3  UNL d   1      -2.185   0.635   1.233  0.00  0.00     0.003 A 
ATOM      5  C4  UNL d   1      -1.440   0.521   2.405  0.00  0.00    -0.005 A 
ATOM      6  C5  UNL d   1      -0.116   0.089   2.347  0.00  0.00     0.003 A 
ATOM      7  C6  UNL d   1       0.462  -0.230   1.118  0.00  0.00    -0.001 A 
ENDROOT
TORSDOF 0
ENDMDL
