MODEL 1
REMARK minimizedAffinity -3.56886983
REMARK minimizedRMSD -1
REMARK  0 active torsions:
REMARK  status: ('A' for Active; 'I' for Inactive)
ROOT
ATOM      1  C   UNL d   1       0.765  -0.783  -0.875  0.00  0.00     0.078 C 
ATOM      2  C1  UNL d   1       0.209  -0.398   0.463  0.00  0.00    -0.077 A 
ATOM      3  C2  UNL d   1       0.967  -0.552   1.631  0.00  0.00    -0.001 A 
ATOM      4  C3  UNL d   1       0.434  -0.198   2.871  0.00  0.00     0.003 A 
ATOM      5  C4  UNL d   1      -0.861   0.311   2.956  0.00  0.00    -0.005 A 
ATOM      6  C5  UNL d   1      -1.623   0.466   1.800  0.00  0.00     0.003 A 
ATOM      7  C6  UNL d   1      -1.091   0.112   0.559  0.00  0.00    -0.001 A 
ENDROOT
TORSDOF 0
ENDMDL
