MODEL 1
REMARK minimizedAffinity -5.23552847
REMARK minimizedRMSD -1
REMARK  1 active torsions:
REMARK  status: ('A' for Active; 'I' for Inactive)
REMARK    1  A    between atoms: C3_4  and  O_7 
ROOT
ATOM      1  C   UNL d   1       0.144  -0.825   0.611  0.00  0.00    -0.033 A 
ATOM      2  C1  UNL d   1       1.521  -0.748   0.392  0.00  0.00     0.039 A 
ATOM      3  C2  UNL d   1       2.365  -1.745   0.885  0.00  0.00    -0.080 A 
ATOM      4  C3  UNL d   1       1.821  -2.812   1.595  0.00  0.00     0.150 A 
ATOM      5  C4  UNL d   1       0.449  -2.897   1.814  0.00  0.00    -0.007 A 
ATOM      6  C5  UNL d   1      -0.392  -1.900   1.321  0.00  0.00     0.039 A 
ENDROOT
BRANCH   4   7
ATOM      7  O   UNL d   1       2.605  -3.806   2.100  0.00  0.00    -0.526 OA
ATOM      8  H5  UNL d   1       3.532  -3.600   1.896  0.00  0.00     0.418 HD
ENDBRANCH   4   7
TORSDOF 1
ENDMDL
