MODEL 1
REMARK minimizedAffinity -5.01477909
REMARK minimizedRMSD -1
REMARK  1 active torsions:
REMARK  status: ('A' for Active; 'I' for Inactive)
REMARK    1  A    between atoms: C3_4  and  O_7 
ROOT
ATOM      1  C   UNL d   1      -0.788  -0.137   0.564  0.00  0.00    -0.033 A 
ATOM      2  C1  UNL d   1       0.402  -0.114  -0.166  0.00  0.00     0.039 A 
ATOM      3  C2  UNL d   1       1.332  -1.145  -0.020  0.00  0.00    -0.080 A 
ATOM      4  C3  UNL d   1       1.060  -2.192   0.857  0.00  0.00     0.150 A 
ATOM      5  C4  UNL d   1      -0.125  -2.222   1.585  0.00  0.00    -0.007 A 
ATOM      6  C5  UNL d   1      -1.053  -1.191   1.438  0.00  0.00     0.039 A 
ENDROOT
BRANCH   4   7
ATOM      7  O   UNL d   1       1.939  -3.218   1.037  0.00  0.00    -0.526 OA
ATOM      8  H5  UNL d   1       2.726  -3.048   0.492  0.00  0.00     0.418 HD
ENDBRANCH   4   7
TORSDOF 1
ENDMDL
