MODEL 1
REMARK minimizedAffinity -5.91330242
REMARK minimizedRMSD -1
REMARK  1 active torsions:
REMARK  status: ('A' for Active; 'I' for Inactive)
REMARK    1  A    between atoms: C3_4  and  O_7 
ROOT
ATOM      1  C   UNL d   1       1.529  -2.482   0.936  0.00  0.00    -0.033 A 
ATOM      2  C1  UNL d   1       0.819  -1.429   0.355  0.00  0.00     0.039 A 
ATOM      3  C2  UNL d   1      -0.255  -0.850   1.034  0.00  0.00    -0.080 A 
ATOM      4  C3  UNL d   1      -0.608  -1.333   2.291  0.00  0.00     0.150 A 
ATOM      5  C4  UNL d   1       0.097  -2.379   2.878  0.00  0.00    -0.007 A 
ATOM      6  C5  UNL d   1       1.168  -2.956   2.198  0.00  0.00     0.039 A 
ENDROOT
BRANCH   4   7
ATOM      7  O   UNL d   1      -1.652  -0.803   2.990  0.00  0.00    -0.526 OA
ATOM      8  H5  UNL d   1      -2.063  -0.108   2.450  0.00  0.00     0.418 HD
ENDBRANCH   4   7
TORSDOF 1
ENDMDL
