MODEL 1
REMARK minimizedAffinity -4.95836496
REMARK minimizedRMSD -1
REMARK  1 active torsions:
REMARK  status: ('A' for Active; 'I' for Inactive)
REMARK    1  A    between atoms: C3_4  and  O_7 
ROOT
ATOM      1  C   UNL d   1      -0.327  -1.427   1.778  0.00  0.00    -0.033 A 
ATOM      2  C1  UNL d   1      -0.992  -2.094   2.808  0.00  0.00     0.039 A 
ATOM      3  C2  UNL d   1      -0.408  -3.210   3.411  0.00  0.00    -0.080 A 
ATOM      4  C3  UNL d   1       0.839  -3.647   2.975  0.00  0.00     0.150 A 
ATOM      5  C4  UNL d   1       1.509  -2.985   1.952  0.00  0.00    -0.007 A 
ATOM      6  C5  UNL d   1       0.924  -1.871   1.350  0.00  0.00     0.039 A 
ENDROOT
BRANCH   4   7
ATOM      7  O   UNL d   1       1.447  -4.734   3.529  0.00  0.00    -0.526 OA
ATOM      8  H5  UNL d   1       0.855  -5.107   4.204  0.00  0.00     0.418 HD
ENDBRANCH   4   7
TORSDOF 1
ENDMDL
