MODEL 1
REMARK minimizedAffinity -4.50554276
REMARK minimizedRMSD -1
REMARK  1 active torsions:
REMARK  status: ('A' for Active; 'I' for Inactive)
REMARK    1  A    between atoms: C3_4  and  O_7 
ROOT
ATOM      1  C   UNL d   1       0.293   0.532  -0.042  0.00  0.00    -0.033 A 
ATOM      2  C1  UNL d   1      -0.575  -0.405   0.521  0.00  0.00     0.039 A 
ATOM      3  C2  UNL d   1      -0.113  -1.684   0.839  0.00  0.00    -0.080 A 
ATOM      4  C3  UNL d   1       1.216  -2.013   0.589  0.00  0.00     0.150 A 
ATOM      5  C4  UNL d   1       2.087  -1.082   0.031  0.00  0.00    -0.007 A 
ATOM      6  C5  UNL d   1       1.625   0.194  -0.286  0.00  0.00     0.039 A 
ENDROOT
BRANCH   4   7
ATOM      7  O   UNL d   1       1.711  -3.250   0.877  0.00  0.00    -0.526 OA
ATOM      8  H5  UNL d   1       0.989  -3.795   1.230  0.00  0.00     0.418 HD
ENDBRANCH   4   7
TORSDOF 1
ENDMDL
