MODEL 1
REMARK minimizedAffinity -4.93209362
REMARK minimizedRMSD -1
REMARK  1 active torsions:
REMARK  status: ('A' for Active; 'I' for Inactive)
REMARK    1  A    between atoms: C3_4  and  O_7 
ROOT
ATOM      1  C   UNL d   1       1.585  -2.832   0.447  0.00  0.00    -0.033 A 
ATOM      2  C1  UNL d   1       0.759  -1.810  -0.027  0.00  0.00     0.039 A 
ATOM      3  C2  UNL d   1      -0.187  -1.227   0.818  0.00  0.00    -0.080 A 
ATOM      4  C3  UNL d   1      -0.298  -1.673   2.132  0.00  0.00     0.150 A 
ATOM      5  C4  UNL d   1       0.524  -2.688   2.612  0.00  0.00    -0.007 A 
ATOM      6  C5  UNL d   1       1.468  -3.270   1.767  0.00  0.00     0.039 A 
ENDROOT
BRANCH   4   7
ATOM      7  O   UNL d   1      -1.210  -1.137   2.992  0.00  0.00    -0.526 OA
ATOM      8  H5  UNL d   1      -1.727  -0.467   2.514  0.00  0.00     0.418 HD
ENDBRANCH   4   7
TORSDOF 1
ENDMDL
