MODEL 1
REMARK minimizedAffinity -2.60529423
REMARK minimizedRMSD -1
REMARK  1 active torsions:
REMARK  status: ('A' for Active; 'I' for Inactive)
REMARK    1  A    between atoms: C3_4  and  O_7 
ROOT
ATOM      1  C   UNL d   1      -2.397   1.859  -1.773  0.00  0.00    -0.033 A 
ATOM      2  C1  UNL d   1      -2.899   1.831  -3.075  0.00  0.00     0.039 A 
ATOM      3  C2  UNL d   1      -2.266   2.557  -4.085  0.00  0.00    -0.080 A 
ATOM      4  C3  UNL d   1      -1.132   3.305  -3.781  0.00  0.00     0.150 A 
ATOM      5  C4  UNL d   1      -0.624   3.334  -2.486  0.00  0.00    -0.007 A 
ATOM      6  C5  UNL d   1      -1.258   2.609  -1.479  0.00  0.00     0.039 A 
ENDROOT
BRANCH   4   7
ATOM      7  O   UNL d   1      -0.482   4.034  -4.732  0.00  0.00    -0.526 OA
ATOM      8  H5  UNL d   1      -0.963   3.942  -5.572  0.00  0.00     0.418 HD
ENDBRANCH   4   7
TORSDOF 1
ENDMDL
