MODEL 1
REMARK minimizedAffinity -2.82259703
REMARK minimizedRMSD -1
REMARK  1 active torsions:
REMARK  status: ('A' for Active; 'I' for Inactive)
REMARK    1  A    between atoms: C3_4  and  O_7 
ROOT
ATOM      1  C   UNL d   1      -0.997   0.403  -0.867  0.00  0.00    -0.033 A 
ATOM      2  C1  UNL d   1       0.093   1.194  -0.501  0.00  0.00     0.039 A 
ATOM      3  C2  UNL d   1       1.323   0.600  -0.208  0.00  0.00    -0.080 A 
ATOM      4  C3  UNL d   1       1.448  -0.784  -0.286  0.00  0.00     0.150 A 
ATOM      5  C4  UNL d   1       0.367  -1.578  -0.654  0.00  0.00    -0.007 A 
ATOM      6  C5  UNL d   1      -0.859  -0.983  -0.945  0.00  0.00     0.039 A 
ENDROOT
BRANCH   4   7
ATOM      7  O   UNL d   1       2.626  -1.409  -0.004  0.00  0.00    -0.526 OA
ATOM      8  H5  UNL d   1       3.276  -0.737   0.263  0.00  0.00     0.418 HD
ENDBRANCH   4   7
TORSDOF 1
ENDMDL
