MODEL 1
REMARK minimizedAffinity -2.58802485
REMARK minimizedRMSD -1
REMARK  1 active torsions:
REMARK  status: ('A' for Active; 'I' for Inactive)
REMARK    1  A    between atoms: C3_4  and  O_7 
ROOT
ATOM      1  C   UNL d   1       1.128  -2.505   2.644  0.00  0.00    -0.033 A 
ATOM      2  C1  UNL d   1      -0.225  -2.163   2.614  0.00  0.00     0.039 A 
ATOM      3  C2  UNL d   1      -0.749  -1.473   1.519  0.00  0.00    -0.080 A 
ATOM      4  C3  UNL d   1       0.090  -1.132   0.461  0.00  0.00     0.150 A 
ATOM      5  C4  UNL d   1       1.439  -1.473   0.483  0.00  0.00    -0.007 A 
ATOM      6  C5  UNL d   1       1.960  -2.161   1.578  0.00  0.00     0.039 A 
ENDROOT
BRANCH   4   7
ATOM      7  O   UNL d   1      -0.374  -0.454  -0.627  0.00  0.00    -0.526 OA
ATOM      8  H5  UNL d   1      -1.316  -0.261  -0.490  0.00  0.00     0.418 HD
ENDBRANCH   4   7
TORSDOF 1
ENDMDL
