MODEL 1
REMARK minimizedAffinity -4.93328905
REMARK minimizedRMSD -1
REMARK  1 active torsions:
REMARK  status: ('A' for Active; 'I' for Inactive)
REMARK    1  A    between atoms: C3_4  and  O_7 
ROOT
ATOM      1  C   UNL d   1       0.779  -2.972   1.942  0.00  0.00    -0.033 A 
ATOM      2  C1  UNL d   1       1.453  -2.631   0.768  0.00  0.00     0.039 A 
ATOM      3  C2  UNL d   1       1.011  -1.555  -0.005  0.00  0.00    -0.080 A 
ATOM      4  C3  UNL d   1      -0.103  -0.829   0.408  0.00  0.00     0.150 A 
ATOM      5  C4  UNL d   1      -0.776  -1.161   1.579  0.00  0.00    -0.007 A 
ATOM      6  C5  UNL d   1      -0.334  -2.237   2.349  0.00  0.00     0.039 A 
ENDROOT
BRANCH   4   7
ATOM      7  O   UNL d   1      -0.574   0.226  -0.315  0.00  0.00    -0.526 OA
ATOM      8  H5  UNL d   1      -0.027   0.321  -1.113  0.00  0.00     0.418 HD
ENDBRANCH   4   7
TORSDOF 1
ENDMDL
