MODEL 1
REMARK minimizedAffinity -3.49517417
REMARK minimizedRMSD -1
REMARK  1 active torsions:
REMARK  status: ('A' for Active; 'I' for Inactive)
REMARK    1  A    between atoms: C3_4  and  O_7 
ROOT
ATOM      1  C   UNL d   1       1.111  -2.086   1.683  0.00  0.00    -0.033 A 
ATOM      2  C1  UNL d   1       1.653  -1.574   0.503  0.00  0.00     0.039 A 
ATOM      3  C2  UNL d   1       0.999  -0.547  -0.180  0.00  0.00    -0.080 A 
ATOM      4  C3  UNL d   1      -0.194  -0.041   0.328  0.00  0.00     0.150 A 
ATOM      5  C4  UNL d   1      -0.738  -0.543   1.506  0.00  0.00    -0.007 A 
ATOM      6  C5  UNL d   1      -0.083  -1.570   2.186  0.00  0.00     0.039 A 
ENDROOT
BRANCH   4   7
ATOM      7  O   UNL d   1      -0.871   0.959  -0.305  0.00  0.00    -0.526 OA
ATOM      8  H5  UNL d   1      -0.393   1.186  -1.120  0.00  0.00     0.418 HD
ENDBRANCH   4   7
TORSDOF 1
ENDMDL
