MODEL 1
REMARK minimizedAffinity -0.427804381
REMARK minimizedRMSD -1
REMARK  1 active torsions:
REMARK  status: ('A' for Active; 'I' for Inactive)
REMARK    1  A    between atoms: C3_4  and  O_7 
ROOT
ATOM      1  C   UNL d   1      -2.525   1.313  -3.951  0.00  0.00    -0.033 A 
ATOM      2  C1  UNL d   1      -1.518   2.213  -3.599  0.00  0.00     0.039 A 
ATOM      3  C2  UNL d   1      -0.872   2.094  -2.367  0.00  0.00    -0.080 A 
ATOM      4  C3  UNL d   1      -1.241   1.071  -1.498  0.00  0.00     0.150 A 
ATOM      5  C4  UNL d   1      -2.241   0.168  -1.844  0.00  0.00    -0.007 A 
ATOM      6  C5  UNL d   1      -2.885   0.289  -3.074  0.00  0.00     0.039 A 
ENDROOT
BRANCH   4   7
ATOM      7  O   UNL d   1      -0.642   0.918  -0.283  0.00  0.00    -0.526 OA
ATOM      8  H5  UNL d   1       0.009   1.630  -0.168  0.00  0.00     0.418 HD
ENDBRANCH   4   7
TORSDOF 1
ENDMDL
