MODEL 1
REMARK minimizedAffinity -2.33509755
REMARK minimizedRMSD -1
REMARK  1 active torsions:
REMARK  status: ('A' for Active; 'I' for Inactive)
REMARK    1  A    between atoms: C3_4  and  O_7 
ROOT
ATOM      1  C   UNL d   1      -0.055   0.141  -0.486  0.00  0.00    -0.033 A 
ATOM      2  C1  UNL d   1      -0.407   1.462  -0.202  0.00  0.00     0.039 A 
ATOM      3  C2  UNL d   1      -1.340   2.125  -1.002  0.00  0.00    -0.080 A 
ATOM      4  C3  UNL d   1      -1.914   1.456  -2.080  0.00  0.00     0.150 A 
ATOM      5  C4  UNL d   1      -1.571   0.139  -2.366  0.00  0.00    -0.007 A 
ATOM      6  C5  UNL d   1      -0.638  -0.521  -1.566  0.00  0.00     0.039 A 
ENDROOT
BRANCH   4   7
ATOM      7  O   UNL d   1      -2.825   2.063  -2.891  0.00  0.00    -0.526 OA
ATOM      8  H5  UNL d   1      -2.943   2.980  -2.591  0.00  0.00     0.418 HD
ENDBRANCH   4   7
TORSDOF 1
ENDMDL
