MODEL 1
REMARK minimizedAffinity -3.89322305
REMARK minimizedRMSD -1
REMARK  1 active torsions:
REMARK  status: ('A' for Active; 'I' for Inactive)
REMARK    1  A    between atoms: C3_4  and  O_7 
ROOT
ATOM      1  C   UNL d   1       2.024  -1.097   0.426  0.00  0.00    -0.033 A 
ATOM      2  C1  UNL d   1       1.679  -1.552   1.700  0.00  0.00     0.039 A 
ATOM      3  C2  UNL d   1       0.491  -1.127   2.298  0.00  0.00    -0.080 A 
ATOM      4  C3  UNL d   1      -0.342  -0.248   1.612  0.00  0.00     0.150 A 
ATOM      5  C4  UNL d   1      -0.007   0.207   0.340  0.00  0.00    -0.007 A 
ATOM      6  C5  UNL d   1       1.180  -0.219  -0.255  0.00  0.00     0.039 A 
ENDROOT
BRANCH   4   7
ATOM      7  O   UNL d   1      -1.509   0.199   2.156  0.00  0.00    -0.526 OA
ATOM      8  H5  UNL d   1      -1.596  -0.175   3.049  0.00  0.00     0.418 HD
ENDBRANCH   4   7
TORSDOF 1
ENDMDL
