MODEL 1
REMARK minimizedAffinity 2.93935657
REMARK minimizedRMSD -1
REMARK  0 active torsions:
REMARK  status: ('A' for Active; 'I' for Inactive)
ROOT
ATOM      1  C   UNL d   1       5.851  -0.032   4.517  0.00  0.00     0.020 A 
ATOM      2  C1  UNL d   1       6.000   1.341   4.325  0.00  0.00     0.020 A 
ATOM      3  C2  UNL d   1       5.241   1.996   3.352  0.00  0.00     0.034 A 
ATOM      4  C3  UNL d   1       4.330   1.278   2.569  0.00  0.00     0.017 A 
ATOM      5  C4  UNL d   1       4.181  -0.100   2.763  0.00  0.00     0.017 A 
ATOM      6  C5  UNL d   1       4.943  -0.751   3.738  0.00  0.00     0.034 A 
ATOM      7 Cl   UNL d   1       3.077  -1.053   1.835  0.00  0.00    -0.070 Cl
ATOM      8 Cl1  UNL d   1       3.425   2.153   1.385  0.00  0.00    -0.070 Cl
ENDROOT
TORSDOF 0
ENDMDL
