MODEL 1
REMARK minimizedAffinity 1.11783075
REMARK minimizedRMSD -1
REMARK  0 active torsions:
REMARK  status: ('A' for Active; 'I' for Inactive)
ROOT
ATOM      1  C   UNL d   1      -5.305  -0.655   1.855  0.00  0.00     0.020 A 
ATOM      2  C1  UNL d   1      -5.234  -1.409   0.684  0.00  0.00     0.020 A 
ATOM      3  C2  UNL d   1      -4.000  -1.883   0.232  0.00  0.00     0.034 A 
ATOM      4  C3  UNL d   1      -2.833  -1.604   0.952  0.00  0.00     0.017 A 
ATOM      5  C4  UNL d   1      -2.905  -0.847   2.127  0.00  0.00     0.017 A 
ATOM      6  C5  UNL d   1      -4.143  -0.375   2.574  0.00  0.00     0.034 A 
ATOM      7 Cl   UNL d   1      -1.508  -0.461   3.068  0.00  0.00    -0.070 Cl
ATOM      8 Cl1  UNL d   1      -1.342  -2.222   0.335  0.00  0.00    -0.070 Cl
ENDROOT
TORSDOF 0
ENDMDL
