MODEL 1
REMARK minimizedAffinity -1.33518684
REMARK minimizedRMSD -1
REMARK  0 active torsions:
REMARK  status: ('A' for Active; 'I' for Inactive)
ROOT
ATOM      1  C   UNL d   1      -3.788  -0.385   3.781  0.00  0.00     0.020 A 
ATOM      2  C1  UNL d   1      -3.904   0.967   3.460  0.00  0.00     0.020 A 
ATOM      3  C2  UNL d   1      -3.384   1.447   2.257  0.00  0.00     0.034 A 
ATOM      4  C3  UNL d   1      -2.745   0.574   1.368  0.00  0.00     0.017 A 
ATOM      5  C4  UNL d   1      -2.628  -0.782   1.691  0.00  0.00     0.017 A 
ATOM      6  C5  UNL d   1      -3.151  -1.258   2.897  0.00  0.00     0.034 A 
ATOM      7 Cl   UNL d   1      -1.853  -1.920   0.646  0.00  0.00    -0.070 Cl
ATOM      8 Cl1  UNL d   1      -2.125   1.237  -0.102  0.00  0.00    -0.070 Cl
ENDROOT
TORSDOF 0
ENDMDL
