MODEL 1
REMARK minimizedAffinity 4.10769987
REMARK minimizedRMSD -1
REMARK  0 active torsions:
REMARK  status: ('A' for Active; 'I' for Inactive)
ROOT
ATOM      1  C   UNL d   1      -2.834  -0.162   4.044  0.00  0.00     0.020 A 
ATOM      2  C1  UNL d   1      -3.086  -1.319   3.308  0.00  0.00     0.020 A 
ATOM      3  C2  UNL d   1      -3.070  -1.277   1.912  0.00  0.00     0.034 A 
ATOM      4  C3  UNL d   1      -2.802  -0.074   1.248  0.00  0.00     0.017 A 
ATOM      5  C4  UNL d   1      -2.549   1.087   1.987  0.00  0.00     0.017 A 
ATOM      6  C5  UNL d   1      -2.566   1.039   3.385  0.00  0.00     0.034 A 
ATOM      7 Cl   UNL d   1      -2.210   2.607   1.238  0.00  0.00    -0.070 Cl
ATOM      8 Cl1  UNL d   1      -2.797  -0.095  -0.480  0.00  0.00    -0.070 Cl
ENDROOT
TORSDOF 0
ENDMDL
