MODEL 1
REMARK minimizedAffinity 2.16468477
REMARK minimizedRMSD -1
REMARK  0 active torsions:
REMARK  status: ('A' for Active; 'I' for Inactive)
ROOT
ATOM      1  C   UNL d   1      -3.281  -0.455   3.866  0.00  0.00     0.020 A 
ATOM      2  C1  UNL d   1      -2.660   0.763   4.138  0.00  0.00     0.020 A 
ATOM      3  C2  UNL d   1      -2.359   1.642   3.095  0.00  0.00     0.034 A 
ATOM      4  C3  UNL d   1      -2.678   1.304   1.775  0.00  0.00     0.017 A 
ATOM      5  C4  UNL d   1      -3.301   0.081   1.503  0.00  0.00     0.017 A 
ATOM      6  C5  UNL d   1      -3.601  -0.796   2.551  0.00  0.00     0.034 A 
ATOM      7 Cl   UNL d   1      -3.726  -0.407  -0.100  0.00  0.00    -0.070 Cl
ATOM      8 Cl1  UNL d   1      -2.277   2.439   0.536  0.00  0.00    -0.070 Cl
ENDROOT
TORSDOF 0
ENDMDL
