MODEL 1
REMARK minimizedAffinity 2.25416112
REMARK minimizedRMSD -1
REMARK  0 active torsions:
REMARK  status: ('A' for Active; 'I' for Inactive)
ROOT
ATOM      1  C   UNL d   1      -3.450  -1.132   3.638  0.00  0.00     0.020 A 
ATOM      2  C1  UNL d   1      -2.331  -0.315   3.479  0.00  0.00     0.020 A 
ATOM      3  C2  UNL d   1      -2.057   0.259   2.235  0.00  0.00     0.034 A 
ATOM      4  C3  UNL d   1      -2.902   0.016   1.146  0.00  0.00     0.017 A 
ATOM      5  C4  UNL d   1      -4.024  -0.805   1.307  0.00  0.00     0.017 A 
ATOM      6  C5  UNL d   1      -4.294  -1.376   2.554  0.00  0.00     0.034 A 
ATOM      7 Cl   UNL d   1      -5.113  -1.151   0.010  0.00  0.00    -0.070 Cl
ATOM      8 Cl1  UNL d   1      -2.502   0.758  -0.362  0.00  0.00    -0.070 Cl
ENDROOT
TORSDOF 0
ENDMDL
