MODEL 1
REMARK minimizedAffinity 1.1746161
REMARK minimizedRMSD -1
REMARK  0 active torsions:
REMARK  status: ('A' for Active; 'I' for Inactive)
ROOT
ATOM      1  C   UNL d   1       5.600  -0.592   4.881  0.00  0.00     0.020 A 
ATOM      2  C1  UNL d   1       4.654  -1.027   3.955  0.00  0.00     0.020 A 
ATOM      3  C2  UNL d   1       4.106  -0.125   3.039  0.00  0.00     0.034 A 
ATOM      4  C3  UNL d   1       4.505   1.216   3.049  0.00  0.00     0.017 A 
ATOM      5  C4  UNL d   1       5.455   1.652   3.979  0.00  0.00     0.017 A 
ATOM      6  C5  UNL d   1       6.000   0.745   4.893  0.00  0.00     0.034 A 
ATOM      7 Cl   UNL d   1       5.996   3.292   4.052  0.00  0.00    -0.070 Cl
ATOM      8 Cl1  UNL d   1       3.786   2.276   1.888  0.00  0.00    -0.070 Cl
ENDROOT
TORSDOF 0
ENDMDL
