MODEL 1
REMARK minimizedAffinity -4.92144251
REMARK minimizedRMSD -1
REMARK  0 active torsions:
REMARK  status: ('A' for Active; 'I' for Inactive)
ROOT
ATOM      1  C   UNL d   1       1.045  -0.998  -3.335  0.00  0.00     0.020 A 
ATOM      2  C1  UNL d   1       1.857  -1.931  -2.692  0.00  0.00     0.020 A 
ATOM      3  C2  UNL d   1       3.232  -1.947  -2.937  0.00  0.00     0.034 A 
ATOM      4  C3  UNL d   1       3.799  -1.027  -3.827  0.00  0.00     0.017 A 
ATOM      5  C4  UNL d   1       2.982  -0.090  -4.471  0.00  0.00     0.017 A 
ATOM      6  C5  UNL d   1       1.606  -0.079  -4.222  0.00  0.00     0.034 A 
ATOM      7 Cl   UNL d   1       3.609   1.077  -5.582  0.00  0.00    -0.070 Cl
ATOM      8 Cl1  UNL d   1       5.506  -1.102  -4.082  0.00  0.00    -0.070 Cl
ENDROOT
TORSDOF 0
ENDMDL
