MODEL 1
REMARK minimizedAffinity 1.64284742
REMARK minimizedRMSD -1
REMARK  0 active torsions:
REMARK  status: ('A' for Active; 'I' for Inactive)
ROOT
ATOM      1  C   UNL d   1      -4.021  -0.047  -0.263  0.00  0.00     0.020 A 
ATOM      2  C1  UNL d   1      -3.923  -1.168   0.561  0.00  0.00     0.020 A 
ATOM      3  C2  UNL d   1      -3.159  -1.112   1.728  0.00  0.00     0.034 A 
ATOM      4  C3  UNL d   1      -2.490   0.068   2.076  0.00  0.00     0.017 A 
ATOM      5  C4  UNL d   1      -2.589   1.192   1.248  0.00  0.00     0.017 A 
ATOM      6  C5  UNL d   1      -3.355   1.130   0.080  0.00  0.00     0.034 A 
ATOM      7 Cl   UNL d   1      -1.793   2.683   1.611  0.00  0.00    -0.070 Cl
ATOM      8 Cl1  UNL d   1      -1.563   0.066   3.534  0.00  0.00    -0.070 Cl
ENDROOT
TORSDOF 0
ENDMDL
