MODEL 1
REMARK minimizedAffinity -4.37258291
REMARK minimizedRMSD -1
REMARK  0 active torsions:
REMARK  status: ('A' for Active; 'I' for Inactive)
ROOT
ATOM      1  C   UNL d   1      -3.064   0.038   3.881  0.00  0.00     0.020 A 
ATOM      2  C1  UNL d   1      -2.937   1.425   3.811  0.00  0.00     0.020 A 
ATOM      3  C2  UNL d   1      -2.767   2.048   2.573  0.00  0.00     0.034 A 
ATOM      4  C3  UNL d   1      -2.724   1.285   1.401  0.00  0.00     0.017 A 
ATOM      5  C4  UNL d   1      -2.851  -0.107   1.472  0.00  0.00     0.017 A 
ATOM      6  C5  UNL d   1      -3.021  -0.726   2.714  0.00  0.00     0.034 A 
ATOM      7 Cl   UNL d   1      -2.807  -1.115   0.069  0.00  0.00    -0.070 Cl
ATOM      8 Cl1  UNL d   1      -2.512   2.123  -0.096  0.00  0.00    -0.070 Cl
ENDROOT
TORSDOF 0
ENDMDL
