MODEL 1
REMARK minimizedAffinity 8.63701153
REMARK minimizedRMSD -1
REMARK  0 active torsions:
REMARK  status: ('A' for Active; 'I' for Inactive)
ROOT
ATOM      1  C   UNL d   1       6.000   0.462   4.158  0.00  0.00     0.020 A 
ATOM      2  C1  UNL d   1       5.817   1.798   4.512  0.00  0.00     0.020 A 
ATOM      3  C2  UNL d   1       4.919   2.594   3.796  0.00  0.00     0.034 A 
ATOM      4  C3  UNL d   1       4.201   2.053   2.723  0.00  0.00     0.017 A 
ATOM      5  C4  UNL d   1       4.385   0.712   2.369  0.00  0.00     0.017 A 
ATOM      6  C5  UNL d   1       5.285  -0.080   3.089  0.00  0.00     0.034 A 
ATOM      7 Cl   UNL d   1       3.535  -0.025   1.057  0.00  0.00    -0.070 Cl
ATOM      8 Cl1  UNL d   1       3.108   3.095   1.883  0.00  0.00    -0.070 Cl
ENDROOT
TORSDOF 0
ENDMDL
