MODEL 1
REMARK minimizedAffinity 7.71207285
REMARK minimizedRMSD -1
REMARK  0 active torsions:
REMARK  status: ('A' for Active; 'I' for Inactive)
ROOT
ATOM      1  C   UNL d   1       4.349   2.780   2.652  0.00  0.00     0.020 A 
ATOM      2  C1  UNL d   1       5.462   3.190   3.385  0.00  0.00     0.020 A 
ATOM      3  C2  UNL d   1       5.955   2.386   4.414  0.00  0.00     0.034 A 
ATOM      4  C3  UNL d   1       5.336   1.168   4.714  0.00  0.00     0.017 A 
ATOM      5  C4  UNL d   1       4.219   0.756   3.978  0.00  0.00     0.017 A 
ATOM      6  C5  UNL d   1       3.729   1.565   2.948  0.00  0.00     0.034 A 
ATOM      7 Cl   UNL d   1       3.401  -0.734   4.290  0.00  0.00    -0.070 Cl
ATOM      8 Cl1  UNL d   1       6.000   0.224   6.000  0.00  0.00    -0.070 Cl
ENDROOT
TORSDOF 0
ENDMDL
