MODEL 1
REMARK minimizedAffinity 6.11056614
REMARK minimizedRMSD -1
REMARK  0 active torsions:
REMARK  status: ('A' for Active; 'I' for Inactive)
ROOT
ATOM      1  C   UNL d   1      -2.249  -0.004   4.309  0.00  0.00     0.020 A 
ATOM      2  C1  UNL d   1      -3.511   0.256   4.843  0.00  0.00     0.020 A 
ATOM      3  C2  UNL d   1      -4.656   0.003   4.085  0.00  0.00     0.034 A 
ATOM      4  C3  UNL d   1      -4.541  -0.510   2.787  0.00  0.00     0.017 A 
ATOM      5  C4  UNL d   1      -3.275  -0.770   2.252  0.00  0.00     0.017 A 
ATOM      6  C5  UNL d   1      -2.132  -0.515   3.016  0.00  0.00     0.034 A 
ATOM      7 Cl   UNL d   1      -3.054  -1.403   0.659  0.00  0.00    -0.070 Cl
ATOM      8 Cl1  UNL d   1      -5.999  -0.798   1.906  0.00  0.00    -0.070 Cl
ENDROOT
TORSDOF 0
ENDMDL
