MODEL 1
REMARK minimizedAffinity 1.58275044
REMARK minimizedRMSD -1
REMARK  0 active torsions:
REMARK  status: ('A' for Active; 'I' for Inactive)
ROOT
ATOM      1  C   UNL d   1      -3.446  -1.193   2.022  0.00  0.00     0.020 A 
ATOM      2  C1  UNL d   1      -2.933  -0.758   0.800  0.00  0.00     0.020 A 
ATOM      3  C2  UNL d   1      -2.450   0.546   0.670  0.00  0.00     0.034 A 
ATOM      4  C3  UNL d   1      -2.477   1.419   1.763  0.00  0.00     0.017 A 
ATOM      5  C4  UNL d   1      -2.992   0.982   2.989  0.00  0.00     0.017 A 
ATOM      6  C5  UNL d   1      -3.475  -0.324   3.114  0.00  0.00     0.034 A 
ATOM      7 Cl   UNL d   1      -3.059   2.002   4.383  0.00  0.00    -0.070 Cl
ATOM      8 Cl1  UNL d   1      -1.863   3.017   1.531  0.00  0.00    -0.070 Cl
ENDROOT
TORSDOF 0
ENDMDL
