MODEL 1
REMARK minimizedAffinity 5.66999817
REMARK minimizedRMSD -1
REMARK  0 active torsions:
REMARK  status: ('A' for Active; 'I' for Inactive)
ROOT
ATOM      1  C   UNL d   1      -3.348  -1.183   2.990  0.00  0.00     0.020 A 
ATOM      2  C1  UNL d   1      -3.273  -0.009   3.740  0.00  0.00     0.020 A 
ATOM      3  C2  UNL d   1      -2.952   1.198   3.116  0.00  0.00     0.034 A 
ATOM      4  C3  UNL d   1      -2.705   1.236   1.739  0.00  0.00     0.017 A 
ATOM      5  C4  UNL d   1      -2.780   0.058   0.988  0.00  0.00     0.017 A 
ATOM      6  C5  UNL d   1      -3.102  -1.149   1.617  0.00  0.00     0.034 A 
ATOM      7 Cl   UNL d   1      -2.488   0.025  -0.716  0.00  0.00    -0.070 Cl
ATOM      8 Cl1  UNL d   1      -2.314   2.764   1.034  0.00  0.00    -0.070 Cl
ENDROOT
TORSDOF 0
ENDMDL
