MODEL 1
REMARK minimizedAffinity 1.52132297
REMARK minimizedRMSD -1
REMARK  0 active torsions:
REMARK  status: ('A' for Active; 'I' for Inactive)
ROOT
ATOM      1  C   UNL d   1      -3.941   3.806  -0.060  0.00  0.00     0.020 A 
ATOM      2  C1  UNL d   1      -2.933   4.278  -0.900  0.00  0.00     0.020 A 
ATOM      3  C2  UNL d   1      -1.854   3.454  -1.227  0.00  0.00     0.034 A 
ATOM      4  C3  UNL d   1      -1.780   2.154  -0.714  0.00  0.00     0.017 A 
ATOM      5  C4  UNL d   1      -2.792   1.681   0.129  0.00  0.00     0.017 A 
ATOM      6  C5  UNL d   1      -3.870   2.511   0.453  0.00  0.00     0.034 A 
ATOM      7 Cl   UNL d   1      -2.771   0.089   0.801  0.00  0.00    -0.070 Cl
ATOM      8 Cl1  UNL d   1      -0.417   1.190  -1.160  0.00  0.00    -0.070 Cl
ENDROOT
TORSDOF 0
ENDMDL
