MODEL 1
REMARK minimizedAffinity -1.48701882
REMARK minimizedRMSD -1
REMARK  0 active torsions:
REMARK  status: ('A' for Active; 'I' for Inactive)
ROOT
ATOM      1  C   UNL d   1      -3.228   4.879  -0.310  0.00  0.00     0.020 A 
ATOM      2  C1  UNL d   1      -4.054   4.422   0.716  0.00  0.00     0.020 A 
ATOM      3  C2  UNL d   1      -3.896   3.128   1.216  0.00  0.00     0.034 A 
ATOM      4  C3  UNL d   1      -2.910   2.285   0.688  0.00  0.00     0.017 A 
ATOM      5  C4  UNL d   1      -2.082   2.745  -0.342  0.00  0.00     0.017 A 
ATOM      6  C5  UNL d   1      -2.245   4.042  -0.838  0.00  0.00     0.034 A 
ATOM      7 Cl   UNL d   1      -0.844   1.764  -1.043  0.00  0.00    -0.070 Cl
ATOM      8 Cl1  UNL d   1      -2.771   0.697   1.354  0.00  0.00    -0.070 Cl
ENDROOT
TORSDOF 0
ENDMDL
