MODEL 1
REMARK minimizedAffinity 3.99001646
REMARK minimizedRMSD -1
REMARK  0 active torsions:
REMARK  status: ('A' for Active; 'I' for Inactive)
ROOT
ATOM      1  C   UNL d   1      -3.982  -0.212  -0.959  0.00  0.00     0.020 A 
ATOM      2  C1  UNL d   1      -5.371  -0.182  -0.841  0.00  0.00     0.020 A 
ATOM      3  C2  UNL d   1      -5.974  -0.456   0.389  0.00  0.00     0.034 A 
ATOM      4  C3  UNL d   1      -5.187  -0.760   1.506  0.00  0.00     0.017 A 
ATOM      5  C4  UNL d   1      -3.793  -0.790   1.387  0.00  0.00     0.017 A 
ATOM      6  C5  UNL d   1      -3.195  -0.515   0.153  0.00  0.00     0.034 A 
ATOM      7 Cl   UNL d   1      -2.757  -1.157   2.720  0.00  0.00    -0.070 Cl
ATOM      8 Cl1  UNL d   1      -5.999  -1.087   2.995  0.00  0.00    -0.070 Cl
ENDROOT
TORSDOF 0
ENDMDL
