MODEL 1
REMARK minimizedAffinity 5.22260284
REMARK minimizedRMSD -1
REMARK  0 active torsions:
REMARK  status: ('A' for Active; 'I' for Inactive)
ROOT
ATOM      1  C   UNL d   1       5.815   1.185  -5.663  0.00  0.00     0.020 A 
ATOM      2  C1  UNL d   1       5.999   2.566  -5.690  0.00  0.00     0.020 A 
ATOM      3  C2  UNL d   1       4.893   3.418  -5.722  0.00  0.00     0.034 A 
ATOM      4  C3  UNL d   1       3.597   2.889  -5.728  0.00  0.00     0.017 A 
ATOM      5  C4  UNL d   1       3.413   1.502  -5.701  0.00  0.00     0.017 A 
ATOM      6  C5  UNL d   1       4.524   0.654  -5.668  0.00  0.00     0.034 A 
ATOM      7 Cl   UNL d   1       1.845   0.775  -5.706  0.00  0.00    -0.070 Cl
ATOM      8 Cl1  UNL d   1       2.275   4.001  -5.768  0.00  0.00    -0.070 Cl
ENDROOT
TORSDOF 0
ENDMDL
