MODEL 1
REMARK minimizedAffinity 0.404476672
REMARK minimizedRMSD -1
REMARK  0 active torsions:
REMARK  status: ('A' for Active; 'I' for Inactive)
ROOT
ATOM      1  C2' OXE d   1       5.999   1.926   3.683  0.00  0.00     0.078 C 
ATOM      2  C1' OXE d   1       3.730   1.457   5.268  0.00  0.00     0.078 C 
ATOM      3  C1  OXE d   1       4.302   2.853   5.254  0.00  0.00    -0.078 A 
ATOM      4  C2  OXE d   1       5.440   3.062   4.513  0.00  0.00    -0.078 A 
ATOM      5  C3  OXE d   1       5.978   4.343   4.422  0.00  0.00     0.003 A 
ATOM      6  C4  OXE d   1       5.461   5.386   5.200  0.00  0.00    -0.002 A 
ATOM      7  C5  OXE d   1       4.326   5.184   5.993  0.00  0.00    -0.002 A 
ATOM      8  C6  OXE d   1       3.711   3.937   5.998  0.00  0.00     0.003 A 
ENDROOT
TORSDOF 0
ENDMDL
