MODEL 1
REMARK minimizedAffinity 2.74957061
REMARK minimizedRMSD -1
REMARK  0 active torsions:
REMARK  status: ('A' for Active; 'I' for Inactive)
ROOT
ATOM      1  C2' OXE d   1       4.079   1.733   4.910  0.00  0.00     0.078 C 
ATOM      2  C1' OXE d   1       1.977   3.448   5.631  0.00  0.00     0.078 C 
ATOM      3  C1  OXE d   1       3.376   4.012   5.630  0.00  0.00    -0.078 A 
ATOM      4  C2  OXE d   1       4.403   3.153   5.321  0.00  0.00    -0.078 A 
ATOM      5  C3  OXE d   1       5.707   3.635   5.252  0.00  0.00     0.003 A 
ATOM      6  C4  OXE d   1       6.000   4.947   5.643  0.00  0.00    -0.002 A 
ATOM      7  C5  OXE d   1       4.973   5.827   6.000  0.00  0.00    -0.002 A 
ATOM      8  C6  OXE d   1       3.654   5.388   5.957  0.00  0.00     0.003 A 
ENDROOT
TORSDOF 0
ENDMDL
