MODEL 1
REMARK minimizedAffinity -2.0257225
REMARK minimizedRMSD -1
REMARK  0 active torsions:
REMARK  status: ('A' for Active; 'I' for Inactive)
ROOT
ATOM      1  C2' OXE d   1       6.000   4.864   5.990  0.00  0.00     0.078 C 
ATOM      2  C1' OXE d   1       3.429   5.991   5.999  0.00  0.00     0.078 C 
ATOM      3  C1  OXE d   1       3.545   4.507   5.754  0.00  0.00    -0.078 A 
ATOM      4  C2  OXE d   1       4.810   3.972   5.705  0.00  0.00    -0.078 A 
ATOM      5  C3  OXE d   1       4.972   2.600   5.537  0.00  0.00     0.003 A 
ATOM      6  C4  OXE d   1       3.867   1.784   5.264  0.00  0.00    -0.002 A 
ATOM      7  C5  OXE d   1       2.573   2.316   5.270  0.00  0.00    -0.002 A 
ATOM      8  C6  OXE d   1       2.392   3.665   5.555  0.00  0.00     0.003 A 
ENDROOT
TORSDOF 0
ENDMDL
