MODEL 1
REMARK minimizedAffinity 3.44928741
REMARK minimizedRMSD -1
REMARK  0 active torsions:
REMARK  status: ('A' for Active; 'I' for Inactive)
ROOT
ATOM      1  C2' OXE d   1       4.140   5.999   3.367  0.00  0.00     0.078 C 
ATOM      2  C1' OXE d   1       5.481   5.138   5.679  0.00  0.00     0.078 C 
ATOM      3  C1  OXE d   1       4.645   4.128   4.933  0.00  0.00    -0.078 A 
ATOM      4  C2  OXE d   1       3.955   4.569   3.829  0.00  0.00    -0.078 A 
ATOM      5  C3  OXE d   1       3.213   3.666   3.073  0.00  0.00     0.003 A 
ATOM      6  C4  OXE d   1       3.039   2.349   3.513  0.00  0.00    -0.002 A 
ATOM      7  C5  OXE d   1       3.701   1.888   4.656  0.00  0.00    -0.002 A 
ATOM      8  C6  OXE d   1       4.540   2.752   5.352  0.00  0.00     0.003 A 
ENDROOT
TORSDOF 0
ENDMDL
