MODEL 1
REMARK minimizedAffinity -3.5509367
REMARK minimizedRMSD -1
REMARK  0 active torsions:
REMARK  status: ('A' for Active; 'I' for Inactive)
ROOT
ATOM      1  C2' OXE d   1       3.749   5.973   3.976  0.00  0.00     0.078 C 
ATOM      2  C1' OXE d   1       5.605   5.385   5.998  0.00  0.00     0.078 C 
ATOM      3  C1  OXE d   1       4.732   4.262   5.496  0.00  0.00    -0.078 A 
ATOM      4  C2  OXE d   1       3.794   4.569   4.540  0.00  0.00    -0.078 A 
ATOM      5  C3  OXE d   1       3.001   3.559   4.004  0.00  0.00     0.003 A 
ATOM      6  C4  OXE d   1       3.042   2.266   4.538  0.00  0.00    -0.002 A 
ATOM      7  C5  OXE d   1       3.962   1.941   5.540  0.00  0.00    -0.002 A 
ATOM      8  C6  OXE d   1       4.842   2.915   6.000  0.00  0.00     0.003 A 
ENDROOT
TORSDOF 0
ENDMDL
