MODEL 1
REMARK minimizedAffinity -3.61442852
REMARK minimizedRMSD -1
REMARK  0 active torsions:
REMARK  status: ('A' for Active; 'I' for Inactive)
ROOT
ATOM      1  C2' OXE d   1       4.720   1.755   5.625  0.00  0.00     0.078 C 
ATOM      2  C1' OXE d   1       2.997   2.932   3.747  0.00  0.00     0.078 C 
ATOM      3  C1  OXE d   1       4.009   3.820   4.428  0.00  0.00    -0.078 A 
ATOM      4  C2  OXE d   1       4.816   3.245   5.379  0.00  0.00    -0.078 A 
ATOM      5  C3  OXE d   1       5.803   4.007   5.997  0.00  0.00     0.003 A 
ATOM      6  C4  OXE d   1       5.879   5.387   5.771  0.00  0.00    -0.002 A 
ATOM      7  C5  OXE d   1       5.040   6.000   4.835  0.00  0.00    -0.002 A 
ATOM      8  C6  OXE d   1       4.130   5.225   4.125  0.00  0.00     0.003 A 
ENDROOT
TORSDOF 0
ENDMDL
