MODEL 1
REMARK minimizedAffinity -4.4271965
REMARK minimizedRMSD -1
REMARK  0 active torsions:
REMARK  status: ('A' for Active; 'I' for Inactive)
ROOT
ATOM      1  C2' OXE d   1       4.687   5.244   3.521  0.00  0.00     0.078 C 
ATOM      2  C1' OXE d   1       4.539   3.387   5.620  0.00  0.00     0.078 C 
ATOM      3  C1  OXE d   1       3.298   4.179   5.293  0.00  0.00    -0.078 A 
ATOM      4  C2  OXE d   1       3.393   5.119   4.295  0.00  0.00    -0.078 A 
ATOM      5  C3  OXE d   1       2.263   5.839   3.917  0.00  0.00     0.003 A 
ATOM      6  C4  OXE d   1       1.073   5.724   4.645  0.00  0.00    -0.002 A 
ATOM      7  C5  OXE d   1       0.966   4.802   5.691  0.00  0.00    -0.002 A 
ATOM      8  C6  OXE d   1       2.055   3.993   6.000  0.00  0.00     0.003 A 
ENDROOT
TORSDOF 0
ENDMDL
