MODEL 1
REMARK minimizedAffinity -2.72668576
REMARK minimizedRMSD -1
REMARK  0 active torsions:
REMARK  status: ('A' for Active; 'I' for Inactive)
ROOT
ATOM      1  C2' OXE d   1       3.912   1.805   5.619  0.00  0.00     0.078 C 
ATOM      2  C1' OXE d   1       4.499   2.613   2.995  0.00  0.00     0.078 C 
ATOM      3  C1  OXE d   1       3.715   3.563   3.865  0.00  0.00    -0.078 A 
ATOM      4  C2  OXE d   1       3.392   3.141   5.133  0.00  0.00    -0.078 A 
ATOM      5  C3  OXE d   1       2.718   4.000   5.995  0.00  0.00     0.003 A 
ATOM      6  C4  OXE d   1       2.232   5.230   5.534  0.00  0.00    -0.002 A 
ATOM      7  C5  OXE d   1       2.515   5.663   4.234  0.00  0.00    -0.002 A 
ATOM      8  C6  OXE d   1       3.290   4.862   3.403  0.00  0.00     0.003 A 
ENDROOT
TORSDOF 0
ENDMDL
