MODEL 1
REMARK minimizedAffinity 2.34189916
REMARK minimizedRMSD -1
REMARK  0 active torsions:
REMARK  status: ('A' for Active; 'I' for Inactive)
ROOT
ATOM      1  N1  IND d   1      -0.221   2.719   1.152  0.00  0.00    -0.196 N 
ATOM      2  C2  IND d   1       0.792   1.869   0.806  0.00  0.00     0.054 A 
ATOM      3  C3  IND d   1       0.512   0.611   1.216  0.00  0.00    -0.031 A 
ATOM      4  C4  IND d   1      -1.595  -0.296   2.384  0.00  0.00     0.051 A 
ATOM      5  C5  IND d   1      -2.777   0.106   2.939  0.00  0.00    -0.031 A 
ATOM      6  C6  IND d   1      -3.177   1.427   2.923  0.00  0.00     0.015 A 
ATOM      7  C7  IND d   1      -2.411   2.396   2.340  0.00  0.00    -0.016 A 
ATOM      8  C8  IND d   1      -1.207   1.992   1.782  0.00  0.00    -0.047 A 
ATOM      9  C9  IND d   1      -0.776   0.660   1.833  0.00  0.00    -0.096 A 
ATOM     10  HN1 IND d   1      -0.239   3.565   1.002  0.00  0.00     0.298 HD
ENDROOT
TORSDOF 0
ENDMDL
