MODEL 1
REMARK minimizedAffinity 10.2601547
REMARK minimizedRMSD -1
REMARK  0 active torsions:
REMARK  status: ('A' for Active; 'I' for Inactive)
ROOT
ATOM      1  N1  IND d   1       2.283  -2.586  -0.625  0.00  0.00    -0.196 N 
ATOM      2  C2  IND d   1       2.581  -2.495  -1.956  0.00  0.00     0.054 A 
ATOM      3  C3  IND d   1       1.683  -3.192  -2.688  0.00  0.00    -0.031 A 
ATOM      4  C4  IND d   1      -0.414  -4.472  -1.918  0.00  0.00     0.051 A 
ATOM      5  C5  IND d   1      -1.081  -4.868  -0.793  0.00  0.00    -0.031 A 
ATOM      6  C6  IND d   1      -0.654  -4.515   0.471  0.00  0.00     0.015 A 
ATOM      7  C7  IND d   1       0.455  -3.739   0.657  0.00  0.00    -0.016 A 
ATOM      8  C8  IND d   1       1.139  -3.340  -0.483  0.00  0.00    -0.047 A 
ATOM      9  C9  IND d   1       0.735  -3.731  -1.766  0.00  0.00    -0.096 A 
ATOM     10  HN1 IND d   1       2.734  -2.232   0.015  0.00  0.00     0.298 HD
ENDROOT
TORSDOF 0
ENDMDL
