MODEL 1
REMARK minimizedAffinity 6.5710268
REMARK minimizedRMSD -1
REMARK  0 active torsions:
REMARK  status: ('A' for Active; 'I' for Inactive)
ROOT
ATOM      1  N1  IND d   1       3.668   2.137  -4.523  0.00  0.00    -0.196 N 
ATOM      2  C2  IND d   1       3.109   1.346  -3.559  0.00  0.00     0.054 A 
ATOM      3  C3  IND d   1       1.953   1.889  -3.116  0.00  0.00    -0.031 A 
ATOM      4  C4  IND d   1       0.738   4.017  -3.904  0.00  0.00     0.051 A 
ATOM      5  C5  IND d   1       0.878   5.091  -4.737  0.00  0.00    -0.031 A 
ATOM      6  C6  IND d   1       1.976   5.237  -5.560  0.00  0.00     0.015 A 
ATOM      7  C7  IND d   1       2.974   4.305  -5.589  0.00  0.00    -0.016 A 
ATOM      8  C8  IND d   1       2.839   3.216  -4.739  0.00  0.00    -0.047 A 
ATOM      9  C9  IND d   1       1.747   3.084  -3.871  0.00  0.00    -0.096 A 
ATOM     10  HN1 IND d   1       4.412   1.987  -4.926  0.00  0.00     0.298 HD
ENDROOT
TORSDOF 0
ENDMDL
