MODEL 1
REMARK minimizedAffinity 1.24018037
REMARK minimizedRMSD -1
REMARK  0 active torsions:
REMARK  status: ('A' for Active; 'I' for Inactive)
ROOT
ATOM      1  N1  IND d   1      -2.723  -2.915  -1.764  0.00  0.00    -0.196 N 
ATOM      2  C2  IND d   1      -3.757  -2.253  -2.367  0.00  0.00     0.054 A 
ATOM      3  C3  IND d   1      -4.922  -2.905  -2.152  0.00  0.00    -0.031 A 
ATOM      4  C4  IND d   1      -5.379  -5.019  -0.756  0.00  0.00     0.051 A 
ATOM      5  C5  IND d   1      -4.745  -5.999  -0.046  0.00  0.00    -0.031 A 
ATOM      6  C6  IND d   1      -3.377  -6.000   0.134  0.00  0.00     0.015 A 
ATOM      7  C7  IND d   1      -2.590  -5.009  -0.382  0.00  0.00    -0.016 A 
ATOM      8  C8  IND d   1      -3.230  -4.016  -1.110  0.00  0.00    -0.047 A 
ATOM      9  C9  IND d   1      -4.613  -4.034  -1.332  0.00  0.00    -0.096 A 
ATOM     10  HN1 IND d   1      -1.896  -2.682  -1.789  0.00  0.00     0.298 HD
ENDROOT
TORSDOF 0
ENDMDL
