MODEL 1
REMARK minimizedAffinity -2.25047398
REMARK minimizedRMSD -1
REMARK  0 active torsions:
REMARK  status: ('A' for Active; 'I' for Inactive)
ROOT
ATOM      1  N1  IND d   1      -2.679   1.273   2.520  0.00  0.00    -0.196 N 
ATOM      2  C2  IND d   1      -2.696   2.618   2.276  0.00  0.00     0.054 A 
ATOM      3  C3  IND d   1      -1.600   2.983   1.573  0.00  0.00    -0.031 A 
ATOM      4  C4  IND d   1       0.299   1.523   0.631  0.00  0.00     0.051 A 
ATOM      5  C5  IND d   1       0.771   0.240   0.626  0.00  0.00    -0.031 A 
ATOM      6  C6  IND d   1       0.102  -0.785   1.263  0.00  0.00     0.015 A 
ATOM      7  C7  IND d   1      -1.075  -0.567   1.922  0.00  0.00    -0.016 A 
ATOM      8  C8  IND d   1      -1.553   0.736   1.935  0.00  0.00    -0.047 A 
ATOM      9  C9  IND d   1      -0.857   1.788   1.326  0.00  0.00    -0.096 A 
ATOM     10  HN1 IND d   1      -3.271   0.836   2.964  0.00  0.00     0.298 HD
ENDROOT
TORSDOF 0
ENDMDL
