MODEL 1
REMARK minimizedAffinity 3.74129581
REMARK minimizedRMSD -1
REMARK  0 active torsions:
REMARK  status: ('A' for Active; 'I' for Inactive)
ROOT
ATOM      1  N1  IND d   1       0.861  -1.659   2.490  0.00  0.00    -0.196 N 
ATOM      2  C2  IND d   1      -0.406  -1.542   2.989  0.00  0.00     0.054 A 
ATOM      3  C3  IND d   1      -0.999  -0.425   2.510  0.00  0.00    -0.031 A 
ATOM      4  C4  IND d   1      -0.112   1.300   0.817  0.00  0.00     0.051 A 
ATOM      5  C5  IND d   1       1.007   1.637   0.109  0.00  0.00    -0.031 A 
ATOM      6  C6  IND d   1       2.158   0.876   0.157  0.00  0.00     0.015 A 
ATOM      7  C7  IND d   1       2.228  -0.262   0.910  0.00  0.00    -0.016 A 
ATOM      8  C8  IND d   1       1.096  -0.604   1.636  0.00  0.00    -0.047 A 
ATOM      9  C9  IND d   1      -0.060   0.188   1.624  0.00  0.00    -0.096 A 
ATOM     10  HN1 IND d   1       1.419  -2.286   2.678  0.00  0.00     0.298 HD
ENDROOT
TORSDOF 0
ENDMDL
