MODEL 1
REMARK minimizedAffinity 12.3296032
REMARK minimizedRMSD -1
REMARK  0 active torsions:
REMARK  status: ('A' for Active; 'I' for Inactive)
ROOT
ATOM      1  N1  IND d   1       1.976  -0.560   0.808  0.00  0.00    -0.196 N 
ATOM      2  C2  IND d   1       1.448   0.614   1.267  0.00  0.00     0.054 A 
ATOM      3  C3  IND d   1       1.559   1.579   0.326  0.00  0.00    -0.031 A 
ATOM      4  C4  IND d   1       2.481   1.427  -2.072  0.00  0.00     0.051 A 
ATOM      5  C5  IND d   1       3.109   0.571  -2.933  0.00  0.00    -0.031 A 
ATOM      6  C6  IND d   1       3.394  -0.734  -2.584  0.00  0.00     0.015 A 
ATOM      7  C7  IND d   1       3.051  -1.235  -1.361  0.00  0.00    -0.016 A 
ATOM      8  C8  IND d   1       2.420  -0.367  -0.482  0.00  0.00    -0.047 A 
ATOM      9  C9  IND d   1       2.165   0.970  -0.815  0.00  0.00    -0.096 A 
ATOM     10  HN1 IND d   1       2.024  -1.295   1.251  0.00  0.00     0.298 HD
ENDROOT
TORSDOF 0
ENDMDL
