MODEL 1
REMARK minimizedAffinity 5.88862324
REMARK minimizedRMSD -1
REMARK  0 active torsions:
REMARK  status: ('A' for Active; 'I' for Inactive)
ROOT
ATOM      1  N1  IND d   1      -2.888   2.888   3.318  0.00  0.00    -0.196 N 
ATOM      2  C2  IND d   1      -3.874   2.043   3.746  0.00  0.00     0.054 A 
ATOM      3  C3  IND d   1      -3.668   0.797   3.263  0.00  0.00    -0.031 A 
ATOM      4  C4  IND d   1      -1.724  -0.104   1.836  0.00  0.00     0.051 A 
ATOM      5  C5  IND d   1      -0.602   0.299   1.167  0.00  0.00    -0.031 A 
ATOM      6  C6  IND d   1      -0.174   1.611   1.184  0.00  0.00     0.015 A 
ATOM      7  C7  IND d   1      -0.850   2.571   1.882  0.00  0.00    -0.016 A 
ATOM      8  C8  IND d   1      -1.993   2.168   2.557  0.00  0.00    -0.047 A 
ATOM      9  C9  IND d   1      -2.456   0.846   2.509  0.00  0.00    -0.096 A 
ATOM     10  HN1 IND d   1      -2.835   3.728   3.495  0.00  0.00     0.298 HD
ENDROOT
TORSDOF 0
ENDMDL
