MODEL 1
REMARK minimizedAffinity -0.59248364
REMARK minimizedRMSD -1
REMARK  0 active torsions:
REMARK  status: ('A' for Active; 'I' for Inactive)
ROOT
ATOM      1  N1  IND d   1      -2.129  -0.675   2.042  0.00  0.00    -0.196 N 
ATOM      2  C2  IND d   1      -1.611  -1.903   1.735  0.00  0.00     0.054 A 
ATOM      3  C3  IND d   1      -0.420  -1.768   1.110  0.00  0.00    -0.031 A 
ATOM      4  C4  IND d   1       0.916   0.367   0.580  0.00  0.00     0.051 A 
ATOM      5  C5  IND d   1       0.835   1.730   0.636  0.00  0.00    -0.031 A 
ATOM      6  C6  IND d   1      -0.259   2.374   1.177  0.00  0.00     0.015 A 
ATOM      7  C7  IND d   1      -1.312   1.676   1.694  0.00  0.00    -0.016 A 
ATOM      8  C8  IND d   1      -1.237   0.291   1.633  0.00  0.00    -0.047 A 
ATOM      9  C9  IND d   1      -0.148  -0.367   1.047  0.00  0.00    -0.096 A 
ATOM     10  HN1 IND d   1      -2.885  -0.531   2.427  0.00  0.00     0.298 HD
ENDROOT
TORSDOF 0
ENDMDL
