MODEL 1
REMARK minimizedAffinity 4.39135075
REMARK minimizedRMSD -1
REMARK  0 active torsions:
REMARK  status: ('A' for Active; 'I' for Inactive)
ROOT
ATOM      1  N1  IND d   1       0.290   1.742   0.381  0.00  0.00    -0.196 N 
ATOM      2  C2  IND d   1       0.047   1.054   1.537  0.00  0.00     0.054 A 
ATOM      3  C3  IND d   1       0.939   0.048   1.681  0.00  0.00    -0.031 A 
ATOM      4  C4  IND d   1       2.941  -0.590   0.194  0.00  0.00     0.051 A 
ATOM      5  C5  IND d   1       3.545  -0.276  -0.991  0.00  0.00    -0.031 A 
ATOM      6  C6  IND d   1       3.087   0.748  -1.794  0.00  0.00     0.015 A 
ATOM      7  C7  IND d   1       2.011   1.509  -1.435  0.00  0.00    -0.016 A 
ATOM      8  C8  IND d   1       1.390   1.189  -0.236  0.00  0.00    -0.047 A 
ATOM      9  C9  IND d   1       1.824   0.123   0.563  0.00  0.00    -0.096 A 
ATOM     10  HN1 IND d   1      -0.168   2.408   0.088  0.00  0.00     0.298 HD
ENDROOT
TORSDOF 0
ENDMDL
