MODEL 1
REMARK minimizedAffinity 1.35078967
REMARK minimizedRMSD -1
REMARK  0 active torsions:
REMARK  status: ('A' for Active; 'I' for Inactive)
ROOT
ATOM      1  N1  IND d   1      -2.954   1.329   2.225  0.00  0.00    -0.196 N 
ATOM      2  C2  IND d   1      -3.033   2.599   1.726  0.00  0.00     0.054 A 
ATOM      3  C3  IND d   1      -1.907   2.907   1.045  0.00  0.00    -0.031 A 
ATOM      4  C4  IND d   1       0.149   1.445   0.537  0.00  0.00     0.051 A 
ATOM      5  C5  IND d   1       0.697   0.223   0.812  0.00  0.00    -0.031 A 
ATOM      6  C6  IND d   1       0.041  -0.712   1.586  0.00  0.00     0.015 A 
ATOM      7  C7  IND d   1      -1.197  -0.464   2.106  0.00  0.00    -0.016 A 
ATOM      8  C8  IND d   1      -1.754   0.778   1.834  0.00  0.00    -0.047 A 
ATOM      9  C9  IND d   1      -1.074   1.747   1.085  0.00  0.00    -0.096 A 
ATOM     10  HN1 IND d   1      -3.554   0.939   2.703  0.00  0.00     0.298 HD
ENDROOT
TORSDOF 0
ENDMDL
