MODEL 1
REMARK minimizedAffinity 7.56529808
REMARK minimizedRMSD -1
REMARK  0 active torsions:
REMARK  status: ('A' for Active; 'I' for Inactive)
ROOT
ATOM      1  N1  IND d   1       0.524  -1.668   2.515  0.00  0.00    -0.196 N 
ATOM      2  C2  IND d   1      -0.707  -1.926   3.051  0.00  0.00     0.054 A 
ATOM      3  C3  IND d   1      -1.562  -0.917   2.771  0.00  0.00    -0.031 A 
ATOM      4  C4  IND d   1      -1.185   1.204   1.362  0.00  0.00     0.051 A 
ATOM      5  C5  IND d   1      -0.213   1.896   0.696  0.00  0.00    -0.031 A 
ATOM      6  C6  IND d   1       1.081   1.425   0.598  0.00  0.00     0.015 A 
ATOM      7  C7  IND d   1       1.448   0.232   1.155  0.00  0.00    -0.016 A 
ATOM      8  C8  IND d   1       0.465  -0.470   1.838  0.00  0.00    -0.047 A 
ATOM      9  C9  IND d   1      -0.838   0.024   1.977  0.00  0.00    -0.096 A 
ATOM     10  HN1 IND d   1       1.218  -2.170   2.588  0.00  0.00     0.298 HD
ENDROOT
TORSDOF 0
ENDMDL
