MODEL 1
REMARK minimizedAffinity 0.73538816
REMARK minimizedRMSD -1
REMARK  0 active torsions:
REMARK  status: ('A' for Active; 'I' for Inactive)
ROOT
ATOM      1  N1  IND d   1      -0.465  -0.726   1.417  0.00  0.00    -0.196 N 
ATOM      2  C2  IND d   1       0.574  -0.059   0.831  0.00  0.00     0.054 A 
ATOM      3  C3  IND d   1       0.359   1.275   0.872  0.00  0.00    -0.031 A 
ATOM      4  C4  IND d   1      -1.581   2.587   1.942  0.00  0.00     0.051 A 
ATOM      5  C5  IND d   1      -2.786   2.413   2.563  0.00  0.00    -0.031 A 
ATOM      6  C6  IND d   1      -3.287   1.158   2.842  0.00  0.00     0.015 A 
ATOM      7  C7  IND d   1      -2.595   0.026   2.519  0.00  0.00    -0.016 A 
ATOM      8  C8  IND d   1      -1.374   0.199   1.881  0.00  0.00    -0.047 A 
ATOM      9  C9  IND d   1      -0.880   1.469   1.558  0.00  0.00    -0.096 A 
ATOM     10  HN1 IND d   1      -0.539  -1.580   1.483  0.00  0.00     0.298 HD
ENDROOT
TORSDOF 0
ENDMDL
