MODEL 1
REMARK minimizedAffinity 1.79665089
REMARK minimizedRMSD -1
REMARK  0 active torsions:
REMARK  status: ('A' for Active; 'I' for Inactive)
ROOT
ATOM      1  N1  IND d   1      -1.705   1.836   1.480  0.00  0.00    -0.196 N 
ATOM      2  C2  IND d   1      -0.867   2.865   1.147  0.00  0.00     0.054 A 
ATOM      3  C3  IND d   1       0.375   2.396   0.894  0.00  0.00    -0.031 A 
ATOM      4  C4  IND d   1       1.235  -0.030   0.868  0.00  0.00     0.051 A 
ATOM      5  C5  IND d   1       0.849  -1.312   1.141  0.00  0.00    -0.031 A 
ATOM      6  C6  IND d   1      -0.434  -1.617   1.548  0.00  0.00     0.015 A 
ATOM      7  C7  IND d   1      -1.386  -0.648   1.685  0.00  0.00    -0.016 A 
ATOM      8  C8  IND d   1      -0.997   0.656   1.415  0.00  0.00    -0.047 A 
ATOM      9  C9  IND d   1       0.315   0.977   1.043  0.00  0.00    -0.096 A 
ATOM     10  HN1 IND d   1      -2.534   1.914   1.694  0.00  0.00     0.298 HD
ENDROOT
TORSDOF 0
ENDMDL
