MODEL 1
REMARK minimizedAffinity 7.91557741
REMARK minimizedRMSD -1
REMARK  0 active torsions:
REMARK  status: ('A' for Active; 'I' for Inactive)
ROOT
ATOM      1  N1  IND d   1      -5.670   4.906   5.925  0.00  0.00    -0.196 N 
ATOM      2  C2  IND d   1      -5.872   5.806   4.917  0.00  0.00     0.054 A 
ATOM      3  C3  IND d   1      -5.590   5.244   3.720  0.00  0.00    -0.031 A 
ATOM      4  C4  IND d   1      -4.877   2.830   3.176  0.00  0.00     0.051 A 
ATOM      5  C5  IND d   1      -4.526   1.651   3.770  0.00  0.00    -0.031 A 
ATOM      6  C6  IND d   1      -4.541   1.492   5.140  0.00  0.00     0.015 A 
ATOM      7  C7  IND d   1      -4.921   2.508   5.971  0.00  0.00    -0.016 A 
ATOM      8  C8  IND d   1      -5.271   3.710   5.372  0.00  0.00    -0.047 A 
ATOM      9  C9  IND d   1      -5.217   3.890   3.983  0.00  0.00    -0.096 A 
ATOM     10  HN1 IND d   1      -5.774   5.062   6.765  0.00  0.00     0.298 HD
ENDROOT
TORSDOF 0
ENDMDL
