MODEL 1
REMARK minimizedAffinity 1.9125005
REMARK minimizedRMSD -1
REMARK  0 active torsions:
REMARK  status: ('A' for Active; 'I' for Inactive)
ROOT
ATOM      1  N1  IND d   1       1.487  -0.991   0.781  0.00  0.00    -0.196 N 
ATOM      2  C2  IND d   1       2.279   0.002   0.276  0.00  0.00     0.054 A 
ATOM      3  C3  IND d   1       1.615   1.180   0.280  0.00  0.00    -0.031 A 
ATOM      4  C4  IND d   1      -0.739   1.728   1.166  0.00  0.00     0.051 A 
ATOM      5  C5  IND d   1      -1.858   1.140   1.687  0.00  0.00    -0.031 A 
ATOM      6  C6  IND d   1      -1.919  -0.215   1.940  0.00  0.00     0.015 A 
ATOM      7  C7  IND d   1      -0.854  -1.035   1.691  0.00  0.00    -0.016 A 
ATOM      8  C8  IND d   1       0.281  -0.443   1.156  0.00  0.00    -0.047 A 
ATOM      9  C9  IND d   1       0.334   0.925   0.857  0.00  0.00    -0.096 A 
ATOM     10  HN1 IND d   1       1.707  -1.820   0.853  0.00  0.00     0.298 HD
ENDROOT
TORSDOF 0
ENDMDL
