MODEL 1
REMARK minimizedAffinity 11.2892284
REMARK minimizedRMSD -1
REMARK  0 active torsions:
REMARK  status: ('A' for Active; 'I' for Inactive)
ROOT
ATOM      1  N1  IND d   1       1.126   0.374   3.882  0.00  0.00    -0.196 N 
ATOM      2  C2  IND d   1       2.273  -0.336   3.659  0.00  0.00     0.054 A 
ATOM      3  C3  IND d   1       2.561  -0.361   2.339  0.00  0.00    -0.031 A 
ATOM      4  C4  IND d   1       1.347   0.782   0.377  0.00  0.00     0.051 A 
ATOM      5  C5  IND d   1       0.229   1.510   0.080  0.00  0.00    -0.031 A 
ATOM      6  C6  IND d   1      -0.663   1.907   1.054  0.00  0.00     0.015 A 
ATOM      7  C7  IND d   1      -0.465   1.599   2.370  0.00  0.00    -0.016 A 
ATOM      8  C8  IND d   1       0.666   0.853   2.676  0.00  0.00    -0.047 A 
ATOM      9  C9  IND d   1       1.553   0.411   1.685  0.00  0.00    -0.096 A 
ATOM     10  HN1 IND d   1       0.754   0.499   4.647  0.00  0.00     0.298 HD
ENDROOT
TORSDOF 0
ENDMDL
