MODEL 1
REMARK minimizedAffinity 17.014143
REMARK minimizedRMSD -1
REMARK  0 active torsions:
REMARK  status: ('A' for Active; 'I' for Inactive)
ROOT
ATOM      1  C   UNL d   1      -3.527  -2.449  -5.610  0.00  0.00    -0.002 A 
ATOM      2  C1  UNL d   1      -3.543  -3.823  -5.413  0.00  0.00     0.010 A 
ATOM      3  C2  UNL d   1      -2.683  -4.417  -4.487  0.00  0.00     0.041 A 
ATOM      4  C3  UNL d   1      -1.801  -3.600  -3.754  0.00  0.00    -0.075 A 
ATOM      5  S   UNL d   1      -0.659  -4.107  -2.566  0.00  0.00     0.015 SA
ATOM      6  C4  UNL d   1      -0.124  -2.512  -2.291  0.00  0.00     0.022 A 
ATOM      7  C5  UNL d   1      -0.790  -1.602  -3.078  0.00  0.00     0.026 A 
ATOM      8  C6  UNL d   1      -1.767  -2.214  -3.934  0.00  0.00    -0.082 A 
ATOM      9  C7  UNL d   1      -2.651  -1.642  -4.881  0.00  0.00     0.045 A 
ENDROOT
TORSDOF 0
ENDMDL
