MODEL 1
REMARK minimizedAffinity 13.4303608
REMARK minimizedRMSD -1
REMARK  0 active torsions:
REMARK  status: ('A' for Active; 'I' for Inactive)
ROOT
ATOM      1  C   UNL d   1      -2.835  -2.652  -4.829  0.00  0.00    -0.002 A 
ATOM      2  C1  UNL d   1      -3.269  -1.340  -4.951  0.00  0.00     0.010 A 
ATOM      3  C2  UNL d   1      -2.816  -0.357  -4.069  0.00  0.00     0.041 A 
ATOM      4  C3  UNL d   1      -1.910  -0.719  -3.052  0.00  0.00    -0.075 A 
ATOM      5  S   UNL d   1      -1.221   0.315  -1.858  0.00  0.00     0.015 SA
ATOM      6  C4  UNL d   1      -0.334  -0.961  -1.158  0.00  0.00     0.022 A 
ATOM      7  C5  UNL d   1      -0.547  -2.154  -1.807  0.00  0.00     0.026 A 
ATOM      8  C6  UNL d   1      -1.459  -2.034  -2.910  0.00  0.00    -0.082 A 
ATOM      9  C7  UNL d   1      -1.937  -3.008  -3.820  0.00  0.00     0.045 A 
ENDROOT
TORSDOF 0
ENDMDL
