MODEL 1
REMARK minimizedAffinity 8.16615582
REMARK minimizedRMSD -1
REMARK  0 active torsions:
REMARK  status: ('A' for Active; 'I' for Inactive)
ROOT
ATOM      1  C   UNL d   1       6.000   3.194  -2.052  0.00  0.00    -0.002 A 
ATOM      2  C1  UNL d   1       5.136   2.634  -2.983  0.00  0.00     0.010 A 
ATOM      3  C2  UNL d   1       4.031   1.888  -2.568  0.00  0.00     0.041 A 
ATOM      4  C3  UNL d   1       3.806   1.715  -1.188  0.00  0.00    -0.075 A 
ATOM      5  S   UNL d   1       2.517   0.842  -0.447  0.00  0.00     0.015 SA
ATOM      6  C4  UNL d   1       3.081   1.192   1.122  0.00  0.00     0.022 A 
ATOM      7  C5  UNL d   1       4.224   1.956   1.100  0.00  0.00     0.026 A 
ATOM      8  C6  UNL d   1       4.660   2.270  -0.232  0.00  0.00    -0.082 A 
ATOM      9  C7  UNL d   1       5.773   3.020  -0.684  0.00  0.00     0.045 A 
ENDROOT
TORSDOF 0
ENDMDL
