MODEL 1
REMARK minimizedAffinity -0.219411209
REMARK minimizedRMSD -1
REMARK  0 active torsions:
REMARK  status: ('A' for Active; 'I' for Inactive)
ROOT
ATOM      1  C   UNL d   1       2.568  -0.538   0.521  0.00  0.00    -0.002 A 
ATOM      2  C1  UNL d   1       3.114   0.733   0.630  0.00  0.00     0.010 A 
ATOM      3  C2  UNL d   1       4.180   0.977   1.498  0.00  0.00     0.041 A 
ATOM      4  C3  UNL d   1       4.695  -0.090   2.262  0.00  0.00    -0.075 A 
ATOM      5  S   UNL d   1       5.997  -0.027   3.390  0.00  0.00     0.015 SA
ATOM      6  C4  UNL d   1       5.860  -1.686   3.753  0.00  0.00     0.022 A 
ATOM      7  C5  UNL d   1       4.850  -2.289   3.041  0.00  0.00     0.026 A 
ATOM      8  C6  UNL d   1       4.162  -1.379   2.169  0.00  0.00    -0.082 A 
ATOM      9  C7  UNL d   1       3.081  -1.593   1.280  0.00  0.00     0.045 A 
ENDROOT
TORSDOF 0
ENDMDL
