MODEL 1
REMARK minimizedAffinity 11.1938343
REMARK minimizedRMSD -1
REMARK  0 active torsions:
REMARK  status: ('A' for Active; 'I' for Inactive)
ROOT
ATOM      1  C   UNL d   1       4.102  -0.353   3.501  0.00  0.00    -0.002 A 
ATOM      2  C1  UNL d   1       3.256  -1.377   3.101  0.00  0.00     0.010 A 
ATOM      3  C2  UNL d   1       2.656  -1.351   1.840  0.00  0.00     0.041 A 
ATOM      4  C3  UNL d   1       2.925  -0.269   0.980  0.00  0.00    -0.075 A 
ATOM      5  S   UNL d   1       2.303  -0.026  -0.610  0.00  0.00     0.015 SA
ATOM      6  C4  UNL d   1       3.148   1.443  -0.796  0.00  0.00     0.022 A 
ATOM      7  C5  UNL d   1       3.890   1.756   0.318  0.00  0.00     0.026 A 
ATOM      8  C6  UNL d   1       3.775   0.774   1.359  0.00  0.00    -0.082 A 
ATOM      9  C7  UNL d   1       4.367   0.719   2.644  0.00  0.00     0.045 A 
ENDROOT
TORSDOF 0
ENDMDL
