MODEL 1
REMARK minimizedAffinity 10.5485125
REMARK minimizedRMSD -1
REMARK  0 active torsions:
REMARK  status: ('A' for Active; 'I' for Inactive)
ROOT
ATOM      1  C   UNL d   1       4.892   2.558  -1.601  0.00  0.00    -0.002 A 
ATOM      2  C1  UNL d   1       5.353   2.737  -0.305  0.00  0.00     0.010 A 
ATOM      3  C2  UNL d   1       4.812   1.999   0.750  0.00  0.00     0.041 A 
ATOM      4  C3  UNL d   1       3.792   1.067   0.477  0.00  0.00    -0.075 A 
ATOM      5  S   UNL d   1       2.981   0.051   1.610  0.00  0.00     0.015 SA
ATOM      6  C4  UNL d   1       2.004  -0.646   0.399  0.00  0.00     0.022 A 
ATOM      7  C5  UNL d   1       2.276  -0.127  -0.844  0.00  0.00     0.026 A 
ATOM      8  C6  UNL d   1       3.311   0.868  -0.820  0.00  0.00    -0.082 A 
ATOM      9  C7  UNL d   1       3.879   1.632  -1.868  0.00  0.00     0.045 A 
ENDROOT
TORSDOF 0
ENDMDL
