MODEL 1
REMARK minimizedAffinity 3.34965539
REMARK minimizedRMSD -1
REMARK  0 active torsions:
REMARK  status: ('A' for Active; 'I' for Inactive)
ROOT
ATOM      1  C   UNL d   1       3.788   2.371   1.101  0.00  0.00    -0.002 A 
ATOM      2  C1  UNL d   1       2.900   1.510   0.473  0.00  0.00     0.010 A 
ATOM      3  C2  UNL d   1       3.042   1.208  -0.882  0.00  0.00     0.041 A 
ATOM      4  C3  UNL d   1       4.104   1.789  -1.603  0.00  0.00    -0.075 A 
ATOM      5  S   UNL d   1       4.476   1.563  -3.271  0.00  0.00     0.015 SA
ATOM      6  C4  UNL d   1       5.823   2.604  -3.189  0.00  0.00     0.022 A 
ATOM      7  C5  UNL d   1       6.000   3.120  -1.927  0.00  0.00     0.026 A 
ATOM      8  C6  UNL d   1       5.013   2.659  -0.992  0.00  0.00    -0.082 A 
ATOM      9  C7  UNL d   1       4.841   2.946   0.384  0.00  0.00     0.045 A 
ENDROOT
TORSDOF 0
ENDMDL
