MODEL 1
REMARK minimizedAffinity 12.2523298
REMARK minimizedRMSD -1
REMARK  0 active torsions:
REMARK  status: ('A' for Active; 'I' for Inactive)
ROOT
ATOM      1  C   UNL d   1       6.000   3.150  -1.042  0.00  0.00    -0.002 A 
ATOM      2  C1  UNL d   1       5.895   2.788  -2.378  0.00  0.00     0.010 A 
ATOM      3  C2  UNL d   1       4.908   1.894  -2.796  0.00  0.00     0.041 A 
ATOM      4  C3  UNL d   1       4.019   1.365  -1.841  0.00  0.00    -0.075 A 
ATOM      5  S   UNL d   1       2.731   0.253  -2.123  0.00  0.00     0.015 SA
ATOM      6  C4  UNL d   1       2.289   0.233  -0.477  0.00  0.00     0.022 A 
ATOM      7  C5  UNL d   1       3.093   1.048   0.284  0.00  0.00     0.026 A 
ATOM      8  C6  UNL d   1       4.103   1.714  -0.490  0.00  0.00    -0.082 A 
ATOM      9  C7  UNL d   1       5.115   2.623  -0.097  0.00  0.00     0.045 A 
ENDROOT
TORSDOF 0
ENDMDL
