MODEL 1
REMARK minimizedAffinity 17.7859459
REMARK minimizedRMSD -1
REMARK  0 active torsions:
REMARK  status: ('A' for Active; 'I' for Inactive)
ROOT
ATOM      1  C1  DEN d   1      -2.328  -2.512   2.609  0.00  0.00     0.130 A 
ATOM      2  C2  DEN d   1      -2.254  -1.741   1.371  0.00  0.00    -0.031 A 
ATOM      3  C3  DEN d   1      -1.554  -2.561   0.362  0.00  0.00     0.027 A 
ATOM      4  C4  DEN d   1      -0.587  -4.941   0.594  0.00  0.00     0.027 A 
ATOM      5  C5  DEN d   1      -0.398  -5.997   1.458  0.00  0.00    -0.003 A 
ATOM      6  C6  DEN d   1      -0.805  -5.952   2.765  0.00  0.00     0.001 A 
ATOM      7  C7  DEN d   1      -1.463  -4.846   3.234  0.00  0.00     0.017 A 
ATOM      8  C8  DEN d   1      -1.651  -3.775   2.371  0.00  0.00    -0.094 A 
ATOM      9  C9  DEN d   1      -1.243  -3.844   1.049  0.00  0.00    -0.072 A 
ENDROOT
TORSDOF 0
ENDMDL
