MODEL 1
REMARK minimizedAffinity 13.176403
REMARK minimizedRMSD -1
REMARK  0 active torsions:
REMARK  status: ('A' for Active; 'I' for Inactive)
ROOT
ATOM      1  C1  DEN d   1       6.000   0.414   2.078  0.00  0.00     0.130 A 
ATOM      2  C2  DEN d   1       5.199   0.417   3.299  0.00  0.00    -0.031 A 
ATOM      3  C3  DEN d   1       4.235   1.532   3.211  0.00  0.00     0.027 A 
ATOM      4  C4  DEN d   1       3.901   3.241   1.308  0.00  0.00     0.027 A 
ATOM      5  C5  DEN d   1       4.353   3.647   0.072  0.00  0.00    -0.003 A 
ATOM      6  C6  DEN d   1       5.399   3.030  -0.562  0.00  0.00     0.001 A 
ATOM      7  C7  DEN d   1       5.999   1.944   0.018  0.00  0.00     0.017 A 
ATOM      8  C8  DEN d   1       5.554   1.534   1.268  0.00  0.00    -0.094 A 
ATOM      9  C9  DEN d   1       4.487   2.163   1.887  0.00  0.00    -0.072 A 
ENDROOT
TORSDOF 0
ENDMDL
