MODEL 1
REMARK minimizedAffinity 5.4738183
REMARK minimizedRMSD -1
REMARK  0 active torsions:
REMARK  status: ('A' for Active; 'I' for Inactive)
ROOT
ATOM      1  C1  DEN d   1      -1.461  -4.517   0.383  0.00  0.00     0.130 A 
ATOM      2  C2  DEN d   1      -1.288  -3.077   0.559  0.00  0.00    -0.031 A 
ATOM      3  C3  DEN d   1      -2.625  -2.474   0.728  0.00  0.00     0.027 A 
ATOM      4  C4  DEN d   1      -4.934  -3.623   0.740  0.00  0.00     0.027 A 
ATOM      5  C5  DEN d   1      -5.589  -4.828   0.617  0.00  0.00    -0.003 A 
ATOM      6  C6  DEN d   1      -4.922  -6.000   0.375  0.00  0.00     0.001 A 
ATOM      7  C7  DEN d   1      -3.554  -5.998   0.294  0.00  0.00     0.017 A 
ATOM      8  C8  DEN d   1      -2.888  -4.785   0.410  0.00  0.00    -0.094 A 
ATOM      9  C9  DEN d   1      -3.579  -3.614   0.666  0.00  0.00    -0.072 A 
ENDROOT
TORSDOF 0
ENDMDL
