MODEL 1
REMARK minimizedAffinity 11.0790539
REMARK minimizedRMSD -1
REMARK  0 active torsions:
REMARK  status: ('A' for Active; 'I' for Inactive)
ROOT
ATOM      1  C1  DEN d   1       3.386   1.554   3.512  0.00  0.00     0.130 A 
ATOM      2  C2  DEN d   1       4.402   2.307   4.241  0.00  0.00    -0.031 A 
ATOM      3  C3  DEN d   1       5.052   3.234   3.292  0.00  0.00     0.027 A 
ATOM      4  C4  DEN d   1       4.581   3.576   0.779  0.00  0.00     0.027 A 
ATOM      5  C5  DEN d   1       3.817   3.156  -0.287  0.00  0.00    -0.003 A 
ATOM      6  C6  DEN d   1       2.886   2.158  -0.171  0.00  0.00     0.001 A 
ATOM      7  C7  DEN d   1       2.665   1.576   1.049  0.00  0.00     0.017 A 
ATOM      8  C8  DEN d   1       3.437   1.988   2.127  0.00  0.00    -0.094 A 
ATOM      9  C9  DEN d   1       4.364   3.008   1.992  0.00  0.00    -0.072 A 
ENDROOT
TORSDOF 0
ENDMDL
