MODEL 1
REMARK minimizedAffinity 8.598382
REMARK minimizedRMSD -1
REMARK  0 active torsions:
REMARK  status: ('A' for Active; 'I' for Inactive)
ROOT
ATOM      1  C1  DEN d   1      -2.992  -0.873  -0.821  0.00  0.00     0.130 A 
ATOM      2  C2  DEN d   1      -2.356  -1.380  -2.034  0.00  0.00    -0.031 A 
ATOM      3  C3  DEN d   1      -1.302  -2.334  -1.632  0.00  0.00     0.027 A 
ATOM      4  C4  DEN d   1      -0.600  -3.073   0.737  0.00  0.00     0.027 A 
ATOM      5  C5  DEN d   1      -0.842  -2.907   2.083  0.00  0.00    -0.003 A 
ATOM      6  C6  DEN d   1      -1.787  -2.032   2.552  0.00  0.00     0.001 A 
ATOM      7  C7  DEN d   1      -2.556  -1.324   1.667  0.00  0.00     0.017 A 
ATOM      8  C8  DEN d   1      -2.312  -1.481   0.309  0.00  0.00    -0.094 A 
ATOM      9  C9  DEN d   1      -1.362  -2.379  -0.146  0.00  0.00    -0.072 A 
ENDROOT
TORSDOF 0
ENDMDL
