MODEL 1
REMARK minimizedAffinity 12.4700136
REMARK minimizedRMSD -1
REMARK  0 active torsions:
REMARK  status: ('A' for Active; 'I' for Inactive)
ROOT
ATOM      1  C1  DEN d   1      -2.129  -1.148   2.650  0.00  0.00     0.130 A 
ATOM      2  C2  DEN d   1      -1.835  -2.162   3.659  0.00  0.00    -0.031 A 
ATOM      3  C3  DEN d   1      -1.410  -3.391   2.960  0.00  0.00     0.027 A 
ATOM      4  C4  DEN d   1      -1.178  -3.820   0.427  0.00  0.00     0.027 A 
ATOM      5  C5  DEN d   1      -1.326  -3.263  -0.824  0.00  0.00    -0.003 A 
ATOM      6  C6  DEN d   1      -1.782  -1.984  -1.004  0.00  0.00     0.001 A 
ATOM      7  C7  DEN d   1      -2.062  -1.203   0.086  0.00  0.00     0.017 A 
ATOM      8  C8  DEN d   1      -1.922  -1.760   1.350  0.00  0.00    -0.094 A 
ATOM      9  C9  DEN d   1      -1.448  -3.051   1.512  0.00  0.00    -0.072 A 
ENDROOT
TORSDOF 0
ENDMDL
