MODEL 1
REMARK minimizedAffinity 16.3258495
REMARK minimizedRMSD -1
REMARK  0 active torsions:
REMARK  status: ('A' for Active; 'I' for Inactive)
ROOT
ATOM      1  C1  DEN d   1       2.928  -0.750  -2.123  0.00  0.00     0.130 A 
ATOM      2  C2  DEN d   1       2.240   0.375  -1.496  0.00  0.00    -0.031 A 
ATOM      3  C3  DEN d   1       2.953   1.612  -1.871  0.00  0.00     0.027 A 
ATOM      4  C4  DEN d   1       5.043   1.894  -3.356  0.00  0.00     0.027 A 
ATOM      5  C5  DEN d   1       5.988   1.226  -4.103  0.00  0.00    -0.003 A 
ATOM      6  C6  DEN d   1       6.000  -0.139  -4.212  0.00  0.00     0.001 A 
ATOM      7  C7  DEN d   1       5.021  -0.878  -3.602  0.00  0.00     0.017 A 
ATOM      8  C8  DEN d   1       4.068  -0.212  -2.842  0.00  0.00    -0.094 A 
ATOM      9  C9  DEN d   1       4.066   1.170  -2.753  0.00  0.00    -0.072 A 
ENDROOT
TORSDOF 0
ENDMDL
