MODEL 1
REMARK minimizedAffinity 10.8778925
REMARK minimizedRMSD -1
REMARK  0 active torsions:
REMARK  status: ('A' for Active; 'I' for Inactive)
ROOT
ATOM      1  C1  DEN d   1       2.658  -0.762  -1.592  0.00  0.00     0.130 A 
ATOM      2  C2  DEN d   1       1.935   0.506  -1.551  0.00  0.00    -0.031 A 
ATOM      3  C3  DEN d   1       2.720   1.503  -2.306  0.00  0.00     0.027 A 
ATOM      4  C4  DEN d   1       4.971   1.207  -3.530  0.00  0.00     0.027 A 
ATOM      5  C5  DEN d   1       5.975   0.314  -3.833  0.00  0.00    -0.003 A 
ATOM      6  C6  DEN d   1       5.961  -0.980  -3.385  0.00  0.00     0.001 A 
ATOM      7  C7  DEN d   1       4.899  -1.431  -2.647  0.00  0.00     0.017 A 
ATOM      8  C8  DEN d   1       3.886  -0.535  -2.331  0.00  0.00    -0.094 A 
ATOM      9  C9  DEN d   1       3.913   0.766  -2.804  0.00  0.00    -0.072 A 
ENDROOT
TORSDOF 0
ENDMDL
