MODEL 1
REMARK minimizedAffinity 5.22694635
REMARK minimizedRMSD -1
REMARK  0 active torsions:
REMARK  status: ('A' for Active; 'I' for Inactive)
ROOT
ATOM      1  C1  DEN d   1      -3.742   5.158  -1.744  0.00  0.00     0.130 A 
ATOM      2  C2  DEN d   1      -4.828   5.995  -2.247  0.00  0.00    -0.031 A 
ATOM      3  C3  DEN d   1      -5.907   5.998  -1.239  0.00  0.00     0.027 A 
ATOM      4  C4  DEN d   1      -5.999   4.799   1.043  0.00  0.00     0.027 A 
ATOM      5  C5  DEN d   1      -5.319   3.963   1.900  0.00  0.00    -0.003 A 
ATOM      6  C6  DEN d   1      -4.090   3.444   1.591  0.00  0.00     0.001 A 
ATOM      7  C7  DEN d   1      -3.483   3.791   0.413  0.00  0.00     0.017 A 
ATOM      8  C8  DEN d   1      -4.166   4.628  -0.460  0.00  0.00    -0.094 A 
ATOM      9  C9  DEN d   1      -5.403   5.153  -0.124  0.00  0.00    -0.072 A 
ENDROOT
TORSDOF 0
ENDMDL
