MODEL 1
REMARK minimizedAffinity 19.3515167
REMARK minimizedRMSD -1
REMARK  0 active torsions:
REMARK  status: ('A' for Active; 'I' for Inactive)
ROOT
ATOM      1  C1  DEN d   1       4.123   1.218   1.151  0.00  0.00     0.130 A 
ATOM      2  C2  DEN d   1       4.162   2.664   1.352  0.00  0.00    -0.031 A 
ATOM      3  C3  DEN d   1       3.211   3.282   0.407  0.00  0.00     0.027 A 
ATOM      4  C4  DEN d   1       1.686   2.146  -1.337  0.00  0.00     0.027 A 
ATOM      5  C5  DEN d   1       1.313   0.939  -1.884  0.00  0.00    -0.003 A 
ATOM      6  C6  DEN d   1       1.870  -0.248  -1.485  0.00  0.00     0.001 A 
ATOM      7  C7  DEN d   1       2.799  -0.257  -0.479  0.00  0.00     0.017 A 
ATOM      8  C8  DEN d   1       3.186   0.957   0.073  0.00  0.00    -0.094 A 
ATOM      9  C9  DEN d   1       2.603   2.145  -0.336  0.00  0.00    -0.072 A 
ENDROOT
TORSDOF 0
ENDMDL
