MODEL 1
REMARK minimizedAffinity 11.4537296
REMARK minimizedRMSD -1
REMARK  0 active torsions:
REMARK  status: ('A' for Active; 'I' for Inactive)
ROOT
ATOM      1  C1  DEN d   1      -3.070  -1.572   2.439  0.00  0.00     0.130 A 
ATOM      2  C2  DEN d   1      -2.717  -2.393   3.594  0.00  0.00    -0.031 A 
ATOM      3  C3  DEN d   1      -1.722  -3.392   3.156  0.00  0.00     0.027 A 
ATOM      4  C4  DEN d   1      -0.694  -3.742   0.816  0.00  0.00     0.027 A 
ATOM      5  C5  DEN d   1      -0.693  -3.296  -0.487  0.00  0.00    -0.003 A 
ATOM      6  C6  DEN d   1      -1.502  -2.275  -0.910  0.00  0.00     0.001 A 
ATOM      7  C7  DEN d   1      -2.314  -1.636  -0.012  0.00  0.00     0.017 A 
ATOM      8  C8  DEN d   1      -2.327  -2.084   1.302  0.00  0.00    -0.094 A 
ATOM      9  C9  DEN d   1      -1.492  -3.110   1.714  0.00  0.00    -0.072 A 
ENDROOT
TORSDOF 0
ENDMDL
