MODEL 1
REMARK minimizedAffinity 14.7738876
REMARK minimizedRMSD -1
REMARK  0 active torsions:
REMARK  status: ('A' for Active; 'I' for Inactive)
ROOT
ATOM      1  C1  DEN d   1      -2.632  -1.014   1.072  0.00  0.00     0.130 A 
ATOM      2  C2  DEN d   1      -2.237  -0.715  -0.301  0.00  0.00    -0.031 A 
ATOM      3  C3  DEN d   1      -1.322  -1.781  -0.756  0.00  0.00     0.027 A 
ATOM      4  C4  DEN d   1      -0.486  -3.857   0.526  0.00  0.00     0.027 A 
ATOM      5  C5  DEN d   1      -0.538  -4.532   1.726  0.00  0.00    -0.003 A 
ATOM      6  C6  DEN d   1      -1.259  -4.068   2.794  0.00  0.00     0.001 A 
ATOM      7  C7  DEN d   1      -1.994  -2.918   2.669  0.00  0.00     0.017 A 
ATOM      8  C8  DEN d   1      -1.940  -2.228   1.465  0.00  0.00    -0.094 A 
ATOM      9  C9  DEN d   1      -1.215  -2.721   0.393  0.00  0.00    -0.072 A 
ENDROOT
TORSDOF 0
ENDMDL
