MODEL 1
REMARK minimizedAffinity 11.3182478
REMARK minimizedRMSD -1
REMARK  0 active torsions:
REMARK  status: ('A' for Active; 'I' for Inactive)
ROOT
ATOM      1  C1  DEN d   1      -1.238  -0.790  -0.136  0.00  0.00     0.130 A 
ATOM      2  C2  DEN d   1      -2.286  -1.598  -0.753  0.00  0.00    -0.031 A 
ATOM      3  C3  DEN d   1      -1.919  -1.820  -2.166  0.00  0.00     0.027 A 
ATOM      4  C4  DEN d   1       0.162  -0.999  -3.450  0.00  0.00     0.027 A 
ATOM      5  C5  DEN d   1       1.326  -0.270  -3.352  0.00  0.00    -0.003 A 
ATOM      6  C6  DEN d   1       1.698   0.360  -2.194  0.00  0.00     0.001 A 
ATOM      7  C7  DEN d   1       0.919   0.235  -1.073  0.00  0.00     0.017 A 
ATOM      8  C8  DEN d   1      -0.260  -0.492  -1.167  0.00  0.00    -0.094 A 
ATOM      9  C9  DEN d   1      -0.612  -1.131  -2.343  0.00  0.00    -0.072 A 
ENDROOT
TORSDOF 0
ENDMDL
