MODEL 1
REMARK minimizedAffinity 9.1416235
REMARK minimizedRMSD -1
REMARK  0 active torsions:
REMARK  status: ('A' for Active; 'I' for Inactive)
ROOT
ATOM      1  C1  DEN d   1       1.747  -1.074  -1.199  0.00  0.00     0.130 A 
ATOM      2  C2  DEN d   1       1.787  -0.198  -2.367  0.00  0.00    -0.031 A 
ATOM      3  C3  DEN d   1       0.404  -0.019  -2.851  0.00  0.00     0.027 A 
ATOM      4  C4  DEN d   1      -1.786  -1.002  -1.908  0.00  0.00     0.027 A 
ATOM      5  C5  DEN d   1      -2.324  -1.812  -0.932  0.00  0.00    -0.003 A 
ATOM      6  C6  DEN d   1      -1.546  -2.455  -0.006  0.00  0.00     0.001 A 
ATOM      7  C7  DEN d   1      -0.190  -2.263  -0.008  0.00  0.00     0.017 A 
ATOM      8  C8  DEN d   1       0.361  -1.453  -0.992  0.00  0.00    -0.094 A 
ATOM      9  C9  DEN d   1      -0.444  -0.802  -1.912  0.00  0.00    -0.072 A 
ENDROOT
TORSDOF 0
ENDMDL
