MODEL 1
REMARK minimizedAffinity 24.5199108
REMARK minimizedRMSD -1
REMARK  0 active torsions:
REMARK  status: ('A' for Active; 'I' for Inactive)
ROOT
ATOM      1  C1  DEN d   1       3.522   2.433   1.556  0.00  0.00     0.130 A 
ATOM      2  C2  DEN d   1       3.159   1.761   0.312  0.00  0.00    -0.031 A 
ATOM      3  C3  DEN d   1       3.506   2.656  -0.810  0.00  0.00     0.027 A 
ATOM      4  C4  DEN d   1       4.570   5.005  -0.741  0.00  0.00     0.027 A 
ATOM      5  C5  DEN d   1       5.045   5.998   0.087  0.00  0.00    -0.003 A 
ATOM      6  C6  DEN d   1       5.015   5.888   1.452  0.00  0.00     0.001 A 
ATOM      7  C7  DEN d   1       4.540   4.740   2.030  0.00  0.00     0.017 A 
ATOM      8  C8  DEN d   1       4.052   3.737   1.202  0.00  0.00    -0.094 A 
ATOM      9  C9  DEN d   1       4.103   3.863  -0.176  0.00  0.00    -0.072 A 
ENDROOT
TORSDOF 0
ENDMDL
