MODEL 1
REMARK minimizedAffinity 17.6600418
REMARK minimizedRMSD -1
REMARK  0 active torsions:
REMARK  status: ('A' for Active; 'I' for Inactive)
ROOT
ATOM      1  C1  DEN d   1       4.962   1.355   0.734  0.00  0.00     0.130 A 
ATOM      2  C2  DEN d   1       4.027   1.474   1.849  0.00  0.00    -0.031 A 
ATOM      3  C3  DEN d   1       3.645   2.895   1.975  0.00  0.00     0.027 A 
ATOM      4  C4  DEN d   1       4.403   4.911   0.555  0.00  0.00     0.027 A 
ATOM      5  C5  DEN d   1       5.200   5.307  -0.496  0.00  0.00    -0.003 A 
ATOM      6  C6  DEN d   1       5.992   4.427  -1.184  0.00  0.00     0.001 A 
ATOM      7  C7  DEN d   1       5.971   3.097  -0.857  0.00  0.00     0.017 A 
ATOM      8  C8  DEN d   1       5.177   2.691   0.207  0.00  0.00    -0.094 A 
ATOM      9  C9  DEN d   1       4.373   3.594   0.882  0.00  0.00    -0.072 A 
ENDROOT
TORSDOF 0
ENDMDL
