MODEL 1
REMARK minimizedAffinity 15.7237654
REMARK minimizedRMSD -1
REMARK  0 active torsions:
REMARK  status: ('A' for Active; 'I' for Inactive)
ROOT
ATOM      1  C1  DEN d   1      -0.476  -5.238   0.841  0.00  0.00     0.130 A 
ATOM      2  C2  DEN d   1      -0.178  -5.792  -0.477  0.00  0.00    -0.031 A 
ATOM      3  C3  DEN d   1      -0.553  -4.786  -1.490  0.00  0.00     0.027 A 
ATOM      4  C4  DEN d   1      -1.557  -2.435  -1.148  0.00  0.00     0.027 A 
ATOM      5  C5  DEN d   1      -1.998  -1.528  -0.210  0.00  0.00    -0.003 A 
ATOM      6  C6  DEN d   1      -1.994  -1.805   1.131  0.00  0.00     0.001 A 
ATOM      7  C7  DEN d   1      -1.498  -3.002   1.576  0.00  0.00     0.017 A 
ATOM      8  C8  DEN d   1      -1.059  -3.925   0.635  0.00  0.00    -0.094 A 
ATOM      9  C9  DEN d   1      -1.060  -3.621  -0.716  0.00  0.00    -0.072 A 
ENDROOT
TORSDOF 0
ENDMDL
