MODEL 1
REMARK minimizedAffinity 25.1768627
REMARK minimizedRMSD -1
REMARK  0 active torsions:
REMARK  status: ('A' for Active; 'I' for Inactive)
ROOT
ATOM      1  C1  DEN d   1      -2.859  -1.992   0.819  0.00  0.00     0.130 A 
ATOM      2  C2  DEN d   1      -2.295  -1.903  -0.525  0.00  0.00    -0.031 A 
ATOM      3  C3  DEN d   1      -1.153  -2.837  -0.604  0.00  0.00     0.027 A 
ATOM      4  C4  DEN d   1      -0.213  -4.406   1.214  0.00  0.00     0.027 A 
ATOM      5  C5  DEN d   1      -0.353  -4.823   2.520  0.00  0.00    -0.003 A 
ATOM      6  C6  DEN d   1      -1.309  -4.305   3.353  0.00  0.00     0.001 A 
ATOM      7  C7  DEN d   1      -2.191  -3.372   2.876  0.00  0.00     0.017 A 
ATOM      8  C8  DEN d   1      -2.052  -2.941   1.563  0.00  0.00    -0.094 A 
ATOM      9  C9  DEN d   1      -1.087  -3.486   0.733  0.00  0.00    -0.072 A 
ENDROOT
TORSDOF 0
ENDMDL
