MODEL 1
REMARK minimizedAffinity -1.10085571
REMARK minimizedRMSD -1
REMARK  0 active torsions:
REMARK  status: ('A' for Active; 'I' for Inactive)
ROOT
ATOM      1  C   UNL d   1       5.661  -2.410   5.470  0.00  0.00     0.023 A 
ATOM      2  C1  UNL d   1       5.895  -2.112   4.128  0.00  0.00     0.003 A 
ATOM      3  C2  UNL d   1       5.993  -3.141   3.189  0.00  0.00     0.048 A 
ATOM      4  C3  UNL d   1       5.855  -4.466   3.599  0.00  0.00     0.023 A 
ATOM      5  C4  UNL d   1       5.619  -4.770   4.941  0.00  0.00     0.048 A 
ATOM      6  C5  UNL d   1       5.523  -3.738   5.876  0.00  0.00     0.003 A 
ATOM      7  I   UNL d   1       6.000  -5.999   2.203  0.00  0.00    -0.146 I 
ENDROOT
TORSDOF 0
ENDMDL
