MODEL 1
REMARK minimizedAffinity -3.07406592
REMARK minimizedRMSD -1
REMARK  0 active torsions:
REMARK  status: ('A' for Active; 'I' for Inactive)
ROOT
ATOM      1  C   UNL d   1       5.973  -2.344   1.961  0.00  0.00     0.023 A 
ATOM      2  C1  UNL d   1       5.944  -1.879   3.276  0.00  0.00     0.003 A 
ATOM      3  C2  UNL d   1       5.831  -2.781   4.335  0.00  0.00     0.048 A 
ATOM      4  C3  UNL d   1       5.749  -4.148   4.073  0.00  0.00     0.023 A 
ATOM      5  C4  UNL d   1       5.780  -4.619   2.760  0.00  0.00     0.048 A 
ATOM      6  C5  UNL d   1       5.892  -3.713   1.704  0.00  0.00     0.003 A 
ATOM      7  I   UNL d   1       5.581  -5.494   5.649  0.00  0.00    -0.146 I 
ENDROOT
TORSDOF 0
ENDMDL
