MODEL 1
REMARK minimizedAffinity -2.91896868
REMARK minimizedRMSD -1
REMARK  0 active torsions:
REMARK  status: ('A' for Active; 'I' for Inactive)
ROOT
ATOM      1  C   UNL d   1       5.790  -4.820   1.010  0.00  0.00     0.023 A 
ATOM      2  C1  UNL d   1       5.539  -6.000   1.710  0.00  0.00     0.003 A 
ATOM      3  C2  UNL d   1       5.498  -5.990   3.106  0.00  0.00     0.048 A 
ATOM      4  C3  UNL d   1       5.709  -4.796   3.795  0.00  0.00     0.023 A 
ATOM      5  C4  UNL d   1       5.960  -3.613   3.099  0.00  0.00     0.048 A 
ATOM      6  C5  UNL d   1       6.000  -3.628   1.703  0.00  0.00     0.003 A 
ATOM      7  I   UNL d   1       5.650  -4.779   5.873  0.00  0.00    -0.146 I 
ENDROOT
TORSDOF 0
ENDMDL
