MODEL 1
REMARK minimizedAffinity -2.95467567
REMARK minimizedRMSD -1
REMARK  0 active torsions:
REMARK  status: ('A' for Active; 'I' for Inactive)
ROOT
ATOM      1  C   UNL d   1       6.000  -2.244   2.673  0.00  0.00     0.023 A 
ATOM      2  C1  UNL d   1       5.992  -3.579   2.268  0.00  0.00     0.003 A 
ATOM      3  C2  UNL d   1       5.977  -4.599   3.221  0.00  0.00     0.048 A 
ATOM      4  C3  UNL d   1       5.969  -4.278   4.578  0.00  0.00     0.023 A 
ATOM      5  C4  UNL d   1       5.976  -2.944   4.988  0.00  0.00     0.048 A 
ATOM      6  C5  UNL d   1       5.992  -1.927   4.032  0.00  0.00     0.003 A 
ATOM      7  I   UNL d   1       5.947  -5.795   5.998  0.00  0.00    -0.146 I 
ENDROOT
TORSDOF 0
ENDMDL
