MODEL 1
REMARK minimizedAffinity 8.66913033
REMARK minimizedRMSD -1
REMARK  0 active torsions:
REMARK  status: ('A' for Active; 'I' for Inactive)
ROOT
ATOM      1  C   UNL d   1       1.653   4.854   2.148  0.00  0.00     0.023 A 
ATOM      2  C1  UNL d   1       0.361   5.178   2.562  0.00  0.00     0.003 A 
ATOM      3  C2  UNL d   1      -0.741   4.580   1.946  0.00  0.00     0.048 A 
ATOM      4  C3  UNL d   1      -0.543   3.658   0.919  0.00  0.00     0.023 A 
ATOM      5  C4  UNL d   1       0.748   3.330   0.503  0.00  0.00     0.048 A 
ATOM      6  C5  UNL d   1       1.847   3.931   1.120  0.00  0.00     0.003 A 
ATOM      7  I   UNL d   1      -2.181   2.767   0.001  0.00  0.00    -0.146 I 
ENDROOT
TORSDOF 0
ENDMDL
