MODEL 1
REMARK minimizedAffinity 1.63980556
REMARK minimizedRMSD -1
REMARK  0 active torsions:
REMARK  status: ('A' for Active; 'I' for Inactive)
ROOT
ATOM      1  C   UNL d   1       4.976  -4.173   5.998  0.00  0.00     0.023 A 
ATOM      2  C1  UNL d   1       4.548  -5.181   5.134  0.00  0.00     0.003 A 
ATOM      3  C2  UNL d   1       4.840  -5.103   3.770  0.00  0.00     0.048 A 
ATOM      4  C3  UNL d   1       5.561  -4.015   3.279  0.00  0.00     0.023 A 
ATOM      5  C4  UNL d   1       5.992  -3.005   4.140  0.00  0.00     0.048 A 
ATOM      6  C5  UNL d   1       5.697  -3.087   5.502  0.00  0.00     0.003 A 
ATOM      7  I   UNL d   1       5.996  -3.897   1.250  0.00  0.00    -0.146 I 
ENDROOT
TORSDOF 0
ENDMDL
