MODEL 1
REMARK minimizedAffinity -2.8307128
REMARK minimizedRMSD -1
REMARK  0 active torsions:
REMARK  status: ('A' for Active; 'I' for Inactive)
ROOT
ATOM      1  C   UNL d   1       5.974  -2.612   2.370  0.00  0.00     0.023 A 
ATOM      2  C1  UNL d   1       6.000  -3.977   2.087  0.00  0.00     0.003 A 
ATOM      3  C2  UNL d   1       5.979  -4.908   3.128  0.00  0.00     0.048 A 
ATOM      4  C3  UNL d   1       5.931  -4.467   4.449  0.00  0.00     0.023 A 
ATOM      5  C4  UNL d   1       5.904  -3.101   4.738  0.00  0.00     0.048 A 
ATOM      6  C5  UNL d   1       5.926  -2.174   3.694  0.00  0.00     0.003 A 
ATOM      7  I   UNL d   1       5.898  -5.850   6.000  0.00  0.00    -0.146 I 
ENDROOT
TORSDOF 0
ENDMDL
