MODEL 1
REMARK minimizedAffinity -3.17446208
REMARK minimizedRMSD -1
REMARK  0 active torsions:
REMARK  status: ('A' for Active; 'I' for Inactive)
ROOT
ATOM      1  C   UNL d   1       5.998  -2.277   2.406  0.00  0.00     0.023 A 
ATOM      2  C1  UNL d   1       5.771  -1.951   3.743  0.00  0.00     0.003 A 
ATOM      3  C2  UNL d   1       5.542  -2.961   4.680  0.00  0.00     0.048 A 
ATOM      4  C3  UNL d   1       5.542  -4.295   4.273  0.00  0.00     0.023 A 
ATOM      5  C4  UNL d   1       5.769  -4.626   2.937  0.00  0.00     0.048 A 
ATOM      6  C5  UNL d   1       5.997  -3.613   2.003  0.00  0.00     0.003 A 
ATOM      7  I   UNL d   1       5.201  -5.799   5.666  0.00  0.00    -0.146 I 
ENDROOT
TORSDOF 0
ENDMDL
