MODEL 1
REMARK minimizedAffinity -0.587408006
REMARK minimizedRMSD -1
REMARK  0 active torsions:
REMARK  status: ('A' for Active; 'I' for Inactive)
ROOT
ATOM      1  C   UNL d   1       5.779  -2.275   2.305  0.00  0.00     0.023 A 
ATOM      2  C1  UNL d   1       4.868  -1.886   3.287  0.00  0.00     0.003 A 
ATOM      3  C2  UNL d   1       4.177  -2.851   4.022  0.00  0.00     0.048 A 
ATOM      4  C3  UNL d   1       4.401  -4.204   3.769  0.00  0.00     0.023 A 
ATOM      5  C4  UNL d   1       5.311  -4.598   2.788  0.00  0.00     0.048 A 
ATOM      6  C5  UNL d   1       6.000  -3.630   2.055  0.00  0.00     0.003 A 
ATOM      7  I   UNL d   1       3.373  -5.643   4.862  0.00  0.00    -0.146 I 
ENDROOT
TORSDOF 0
ENDMDL
