MODEL 1
REMARK minimizedAffinity -2.38148117
REMARK minimizedRMSD -1
REMARK  0 active torsions:
REMARK  status: ('A' for Active; 'I' for Inactive)
ROOT
ATOM      1  C   UNL d   1       5.684  -2.663   2.377  0.00  0.00     0.023 A 
ATOM      2  C1  UNL d   1       5.259  -2.244   3.637  0.00  0.00     0.003 A 
ATOM      3  C2  UNL d   1       5.139  -3.167   4.678  0.00  0.00     0.048 A 
ATOM      4  C3  UNL d   1       5.448  -4.508   4.452  0.00  0.00     0.023 A 
ATOM      5  C4  UNL d   1       5.875  -4.932   3.193  0.00  0.00     0.048 A 
ATOM      6  C5  UNL d   1       5.992  -4.006   2.155  0.00  0.00     0.003 A 
ATOM      7  I   UNL d   1       5.270  -5.884   6.000  0.00  0.00    -0.146 I 
ENDROOT
TORSDOF 0
ENDMDL
