MODEL 1
REMARK minimizedAffinity -0.456177145
REMARK minimizedRMSD -1
REMARK  0 active torsions:
REMARK  status: ('A' for Active; 'I' for Inactive)
ROOT
ATOM      1  C   UNL d   1       5.986  -2.367   2.511  0.00  0.00     0.023 A 
ATOM      2  C1  UNL d   1       5.973  -1.986   3.852  0.00  0.00     0.003 A 
ATOM      3  C2  UNL d   1       5.970  -2.958   4.855  0.00  0.00     0.048 A 
ATOM      4  C3  UNL d   1       5.982  -4.308   4.509  0.00  0.00     0.023 A 
ATOM      5  C4  UNL d   1       5.997  -4.694   3.168  0.00  0.00     0.048 A 
ATOM      6  C5  UNL d   1       5.998  -3.719   2.169  0.00  0.00     0.003 A 
ATOM      7  I   UNL d   1       5.979  -5.756   6.000  0.00  0.00    -0.146 I 
ENDROOT
TORSDOF 0
ENDMDL
