MODEL 1
REMARK minimizedAffinity -3.03170609
REMARK minimizedRMSD -1
REMARK  0 active torsions:
REMARK  status: ('A' for Active; 'I' for Inactive)
ROOT
ATOM      1  C   UNL d   1       4.683  -2.570   5.702  0.00  0.00     0.023 A 
ATOM      2  C1  UNL d   1       5.269  -2.205   4.489  0.00  0.00     0.003 A 
ATOM      3  C2  UNL d   1       5.648  -3.188   3.572  0.00  0.00     0.048 A 
ATOM      4  C3  UNL d   1       5.437  -4.533   3.873  0.00  0.00     0.023 A 
ATOM      5  C4  UNL d   1       4.850  -4.902   5.085  0.00  0.00     0.048 A 
ATOM      6  C5  UNL d   1       4.474  -3.917   5.999  0.00  0.00     0.003 A 
ATOM      7  I   UNL d   1       6.000  -5.997   2.510  0.00  0.00    -0.146 I 
ENDROOT
TORSDOF 0
ENDMDL
