MODEL 1
REMARK minimizedAffinity -3.02054381
REMARK minimizedRMSD -1
REMARK  0 active torsions:
REMARK  status: ('A' for Active; 'I' for Inactive)
ROOT
ATOM      1  C   UNL d   1       5.681  -3.454   1.491  0.00  0.00     0.023 A 
ATOM      2  C1  UNL d   1       5.993  -4.798   1.697  0.00  0.00     0.003 A 
ATOM      3  C2  UNL d   1       5.990  -5.327   2.989  0.00  0.00     0.048 A 
ATOM      4  C3  UNL d   1       5.673  -4.506   4.071  0.00  0.00     0.023 A 
ATOM      5  C4  UNL d   1       5.359  -3.161   3.870  0.00  0.00     0.048 A 
ATOM      6  C5  UNL d   1       5.365  -2.637   2.576  0.00  0.00     0.003 A 
ATOM      7  I   UNL d   1       5.668  -5.291   5.996  0.00  0.00    -0.146 I 
ENDROOT
TORSDOF 0
ENDMDL
