MODEL 1
REMARK minimizedAffinity -2.27345943
REMARK minimizedRMSD -1
REMARK  0 active torsions:
REMARK  status: ('A' for Active; 'I' for Inactive)
ROOT
ATOM      1  C   UNL d   1       5.987  -2.609   3.499  0.00  0.00     0.023 A 
ATOM      2  C1  UNL d   1       5.038  -3.375   2.821  0.00  0.00     0.003 A 
ATOM      3  C2  UNL d   1       4.101  -4.122   3.537  0.00  0.00     0.048 A 
ATOM      4  C3  UNL d   1       4.118  -4.098   4.931  0.00  0.00     0.023 A 
ATOM      5  C4  UNL d   1       5.064  -3.333   5.614  0.00  0.00     0.048 A 
ATOM      6  C5  UNL d   1       6.000  -2.588   4.894  0.00  0.00     0.003 A 
ATOM      7  I   UNL d   1       2.723  -5.210   6.000  0.00  0.00    -0.146 I 
ENDROOT
TORSDOF 0
ENDMDL
