MODEL 1
REMARK minimizedAffinity -1.31256521
REMARK minimizedRMSD -1
REMARK  0 active torsions:
REMARK  status: ('A' for Active; 'I' for Inactive)
ROOT
ATOM      1  C   UNL d   1       6.000  -1.664   3.775  0.00  0.00     0.023 A 
ATOM      2  C1  UNL d   1       5.936  -1.728   5.167  0.00  0.00     0.003 A 
ATOM      3  C2  UNL d   1       5.843  -2.965   5.807  0.00  0.00     0.048 A 
ATOM      4  C3  UNL d   1       5.815  -4.136   5.049  0.00  0.00     0.023 A 
ATOM      5  C4  UNL d   1       5.879  -4.077   3.656  0.00  0.00     0.048 A 
ATOM      6  C5  UNL d   1       5.971  -2.837   3.021  0.00  0.00     0.003 A 
ATOM      7  I   UNL d   1       5.677  -5.979   6.000  0.00  0.00    -0.146 I 
ENDROOT
TORSDOF 0
ENDMDL
