MODEL 1
REMARK minimizedAffinity -2.80001521
REMARK minimizedRMSD -1
REMARK  0 active torsions:
REMARK  status: ('A' for Active; 'I' for Inactive)
ROOT
ATOM      1  C   UNL d   1       6.000  -2.371   3.099  0.00  0.00     0.023 A 
ATOM      2  C1  UNL d   1       5.693  -3.619   2.556  0.00  0.00     0.003 A 
ATOM      3  C2  UNL d   1       5.276  -4.661   3.387  0.00  0.00     0.048 A 
ATOM      4  C3  UNL d   1       5.168  -4.448   4.760  0.00  0.00     0.023 A 
ATOM      5  C4  UNL d   1       5.473  -3.201   5.309  0.00  0.00     0.048 A 
ATOM      6  C5  UNL d   1       5.890  -2.163   4.474  0.00  0.00     0.003 A 
ATOM      7  I   UNL d   1       4.547  -5.997   5.999  0.00  0.00    -0.146 I 
ENDROOT
TORSDOF 0
ENDMDL
