MODEL 1
REMARK minimizedAffinity 9.03109837
REMARK minimizedRMSD -1
REMARK  1 active torsions:
REMARK  status: ('A' for Active; 'I' for Inactive)
REMARK    1  A    between atoms: C3_4  and  O_7 
ROOT
ATOM      1  C   UNL d   1       1.081   5.818  -2.778  0.00  0.00    -0.033 A 
ATOM      2  C1  UNL d   1       0.557   5.634  -1.497  0.00  0.00     0.039 A 
ATOM      3  C2  UNL d   1      -0.825   5.634  -1.300  0.00  0.00    -0.080 A 
ATOM      4  C3  UNL d   1      -1.671   5.819  -2.390  0.00  0.00     0.150 A 
ATOM      5  C4  UNL d   1      -1.156   5.999  -3.670  0.00  0.00    -0.007 A 
ATOM      6  C5  UNL d   1       0.225   5.999  -3.865  0.00  0.00     0.039 A 
ENDROOT
BRANCH   4   7
ATOM      7  O   UNL d   1      -3.027   5.832  -2.246  0.00  0.00    -0.526 OA
ATOM      8  H5  UNL d   1      -3.237   5.725  -1.304  0.00  0.00     0.418 HD
ENDBRANCH   4   7
TORSDOF 1
ENDMDL
