MODEL 1
REMARK minimizedAffinity 10.640049
REMARK minimizedRMSD -1
REMARK  1 active torsions:
REMARK  status: ('A' for Active; 'I' for Inactive)
REMARK    1  A    between atoms: C3_4  and  O_7 
ROOT
ATOM      1  C   UNL d   1       0.766  -5.261  -4.507  0.00  0.00    -0.033 A 
ATOM      2  C1  UNL d   1       0.326  -5.995  -5.610  0.00  0.00     0.039 A 
ATOM      3  C2  UNL d   1      -1.026  -5.994  -5.957  0.00  0.00    -0.080 A 
ATOM      4  C3  UNL d   1      -1.927  -5.256  -5.194  0.00  0.00     0.150 A 
ATOM      5  C4  UNL d   1      -1.495  -4.519  -4.097  0.00  0.00    -0.007 A 
ATOM      6  C5  UNL d   1      -0.144  -4.521  -3.751  0.00  0.00     0.039 A 
ENDROOT
BRANCH   4   7
ATOM      7  O   UNL d   1      -3.257  -5.228  -5.491  0.00  0.00    -0.526 OA
ATOM      8  H5  UNL d   1      -3.413  -5.806  -6.257  0.00  0.00     0.418 HD
ENDBRANCH   4   7
TORSDOF 1
ENDMDL
