MODEL 1
REMARK minimizedAffinity 9.62925816
REMARK minimizedRMSD -1
REMARK  1 active torsions:
REMARK  status: ('A' for Active; 'I' for Inactive)
REMARK    1  A    between atoms: C3_4  and  O_7 
ROOT
ATOM      1  C   UNL d   1       4.529  -1.275  -0.933  0.00  0.00    -0.033 A 
ATOM      2  C1  UNL d   1       3.716  -1.933  -0.009  0.00  0.00     0.039 A 
ATOM      3  C2  UNL d   1       4.041  -3.223   0.416  0.00  0.00    -0.080 A 
ATOM      4  C3  UNL d   1       5.180  -3.842  -0.090  0.00  0.00     0.150 A 
ATOM      5  C4  UNL d   1       5.997  -3.191  -1.008  0.00  0.00    -0.007 A 
ATOM      6  C5  UNL d   1       5.670  -1.903  -1.432  0.00  0.00     0.039 A 
ENDROOT
BRANCH   4   7
ATOM      7  O   UNL d   1       5.536  -5.102   0.291  0.00  0.00    -0.526 OA
ATOM      8  H5  UNL d   1       4.864  -5.438   0.907  0.00  0.00     0.418 HD
ENDBRANCH   4   7
TORSDOF 1
ENDMDL
