MODEL 1
REMARK minimizedAffinity 10.3220644
REMARK minimizedRMSD -1
REMARK  1 active torsions:
REMARK  status: ('A' for Active; 'I' for Inactive)
REMARK    1  A    between atoms: C3_4  and  O_7 
ROOT
ATOM      1  C   UNL d   1       5.606  -2.571  -0.849  0.00  0.00    -0.033 A 
ATOM      2  C1  UNL d   1       5.235  -3.873  -1.191  0.00  0.00     0.039 A 
ATOM      3  C2  UNL d   1       5.243  -4.274  -2.529  0.00  0.00    -0.080 A 
ATOM      4  C3  UNL d   1       5.625  -3.366  -3.512  0.00  0.00     0.150 A 
ATOM      5  C4  UNL d   1       6.000  -2.069  -3.178  0.00  0.00    -0.007 A 
ATOM      6  C5  UNL d   1       5.990  -1.670  -1.842  0.00  0.00     0.039 A 
ENDROOT
BRANCH   4   7
ATOM      7  O   UNL d   1       5.644  -3.711  -4.831  0.00  0.00    -0.526 OA
ATOM      8  H5  UNL d   1       5.334  -4.628  -4.914  0.00  0.00     0.418 HD
ENDBRANCH   4   7
TORSDOF 1
ENDMDL
