MODEL 1
REMARK minimizedAffinity 11.9050674
REMARK minimizedRMSD -1
REMARK  1 active torsions:
REMARK  status: ('A' for Active; 'I' for Inactive)
REMARK    1  A    between atoms: C3_4  and  O_7 
ROOT
ATOM      1  C   UNL d   1       1.349  -1.433   4.336  0.00  0.00    -0.033 A 
ATOM      2  C1  UNL d   1       1.014  -0.282   5.052  0.00  0.00     0.039 A 
ATOM      3  C2  UNL d   1       1.823   0.853   4.971  0.00  0.00    -0.080 A 
ATOM      4  C3  UNL d   1       2.961   0.825   4.171  0.00  0.00     0.150 A 
ATOM      5  C4  UNL d   1       3.299  -0.316   3.451  0.00  0.00    -0.007 A 
ATOM      6  C5  UNL d   1       2.491  -1.449   3.534  0.00  0.00     0.039 A 
ENDROOT
BRANCH   4   7
ATOM      7  O   UNL d   1       3.784   1.907   4.064  0.00  0.00    -0.526 OA
ATOM      8  H5  UNL d   1       3.441   2.612   4.638  0.00  0.00     0.418 HD
ENDBRANCH   4   7
TORSDOF 1
ENDMDL
