MODEL 1
REMARK minimizedAffinity 10.4347868
REMARK minimizedRMSD -1
REMARK  1 active torsions:
REMARK  status: ('A' for Active; 'I' for Inactive)
REMARK    1  A    between atoms: C3_4  and  O_7 
ROOT
ATOM      1  C   UNL d   1       5.647  -3.322  -0.499  0.00  0.00    -0.033 A 
ATOM      2  C1  UNL d   1       5.948  -2.049  -0.987  0.00  0.00     0.039 A 
ATOM      3  C2  UNL d   1       5.993  -1.819  -2.363  0.00  0.00    -0.080 A 
ATOM      4  C3  UNL d   1       5.735  -2.869  -3.240  0.00  0.00     0.150 A 
ATOM      5  C4  UNL d   1       5.432  -4.139  -2.762  0.00  0.00    -0.007 A 
ATOM      6  C5  UNL d   1       5.388  -4.367  -1.387  0.00  0.00     0.039 A 
ENDROOT
BRANCH   4   7
ATOM      7  O   UNL d   1       5.772  -2.694  -4.592  0.00  0.00    -0.526 OA
ATOM      8  H5  UNL d   1       6.023  -1.773  -4.776  0.00  0.00     0.418 HD
ENDBRANCH   4   7
TORSDOF 1
ENDMDL
