MODEL 1
REMARK minimizedAffinity 6.03005743
REMARK minimizedRMSD -1
REMARK  1 active torsions:
REMARK  status: ('A' for Active; 'I' for Inactive)
REMARK    1  A    between atoms: C3_4  and  O_7 
ROOT
ATOM      1  C   UNL d   1      -0.321   4.192  -0.201  0.00  0.00    -0.033 A 
ATOM      2  C1  UNL d   1       0.399   5.389  -0.192  0.00  0.00     0.039 A 
ATOM      3  C2  UNL d   1       1.509   5.532   0.642  0.00  0.00    -0.080 A 
ATOM      4  C3  UNL d   1       1.889   4.472   1.462  0.00  0.00     0.150 A 
ATOM      5  C4  UNL d   1       1.178   3.276   1.456  0.00  0.00    -0.007 A 
ATOM      6  C5  UNL d   1       0.070   3.136   0.622  0.00  0.00     0.039 A 
ENDROOT
BRANCH   4   7
ATOM      7  O   UNL d   1       2.962   4.567   2.297  0.00  0.00    -0.526 OA
ATOM      8  H5  UNL d   1       3.338   5.459   2.215  0.00  0.00     0.418 HD
ENDBRANCH   4   7
TORSDOF 1
ENDMDL
