MODEL 1
REMARK minimizedAffinity 8.53845406
REMARK minimizedRMSD -1
REMARK  1 active torsions:
REMARK  status: ('A' for Active; 'I' for Inactive)
REMARK    1  A    between atoms: C3_4  and  O_7 
ROOT
ATOM      1  C   UNL d   1       4.597  -1.428   0.004  0.00  0.00    -0.033 A 
ATOM      2  C1  UNL d   1       5.642  -1.116  -0.868  0.00  0.00     0.039 A 
ATOM      3  C2  UNL d   1       6.000  -2.011  -1.879  0.00  0.00    -0.080 A 
ATOM      4  C3  UNL d   1       5.305  -3.210  -2.007  0.00  0.00     0.150 A 
ATOM      5  C4  UNL d   1       4.260  -3.525  -1.144  0.00  0.00    -0.007 A 
ATOM      6  C5  UNL d   1       3.905  -2.631  -0.135  0.00  0.00     0.039 A 
ENDROOT
BRANCH   4   7
ATOM      7  O   UNL d   1       5.621  -4.116  -2.976  0.00  0.00    -0.526 OA
ATOM      8  H5  UNL d   1       6.380  -3.777  -3.478  0.00  0.00     0.418 HD
ENDBRANCH   4   7
TORSDOF 1
ENDMDL
