MODEL 1
REMARK minimizedAffinity 10.5274401
REMARK minimizedRMSD -1
REMARK  1 active torsions:
REMARK  status: ('A' for Active; 'I' for Inactive)
REMARK    1  A    between atoms: C3_4  and  O_7 
ROOT
ATOM      1  C   UNL d   1       1.993   0.979   4.205  0.00  0.00    -0.033 A 
ATOM      2  C1  UNL d   1       1.153   0.091   4.881  0.00  0.00     0.039 A 
ATOM      3  C2  UNL d   1       1.211  -1.276   4.603  0.00  0.00    -0.080 A 
ATOM      4  C3  UNL d   1       2.112  -1.742   3.650  0.00  0.00     0.150 A 
ATOM      5  C4  UNL d   1       2.954  -0.864   2.976  0.00  0.00    -0.007 A 
ATOM      6  C5  UNL d   1       2.894   0.501   3.254  0.00  0.00     0.039 A 
ENDROOT
BRANCH   4   7
ATOM      7  O   UNL d   1       2.201  -3.067   3.342  0.00  0.00    -0.526 OA
ATOM      8  H5  UNL d   1       1.540  -3.550   3.865  0.00  0.00     0.418 HD
ENDBRANCH   4   7
TORSDOF 1
ENDMDL
