MODEL 1
REMARK minimizedAffinity 4.96177578
REMARK minimizedRMSD -1
REMARK  1 active torsions:
REMARK  status: ('A' for Active; 'I' for Inactive)
REMARK    1  A    between atoms: C3_4  and  O_7 
ROOT
ATOM      1  C   UNL d   1      -0.212   3.684  -0.039  0.00  0.00    -0.033 A 
ATOM      2  C1  UNL d   1       0.467   3.102   1.033  0.00  0.00     0.039 A 
ATOM      3  C2  UNL d   1       1.579   3.740   1.586  0.00  0.00    -0.080 A 
ATOM      4  C3  UNL d   1       2.000   4.958   1.060  0.00  0.00     0.150 A 
ATOM      5  C4  UNL d   1       1.326   5.546  -0.005  0.00  0.00    -0.007 A 
ATOM      6  C5  UNL d   1       0.216   4.907  -0.557  0.00  0.00     0.039 A 
ENDROOT
BRANCH   4   7
ATOM      7  O   UNL d   1       3.083   5.615   1.564  0.00  0.00    -0.526 OA
ATOM      8  H5  UNL d   1       3.466   5.077   2.277  0.00  0.00     0.418 HD
ENDBRANCH   4   7
TORSDOF 1
ENDMDL
