MODEL 1
REMARK minimizedAffinity 9.96044922
REMARK minimizedRMSD -1
REMARK  0 active torsions:
REMARK  status: ('A' for Active; 'I' for Inactive)
ROOT
ATOM      1  C   UNL d   1       2.499  -0.523  -0.460  0.00  0.00     0.020 A 
ATOM      2  C1  UNL d   1       3.034   0.624   0.124  0.00  0.00     0.020 A 
ATOM      3  C2  UNL d   1       3.904   1.438  -0.604  0.00  0.00     0.034 A 
ATOM      4  C3  UNL d   1       4.241   1.106  -1.921  0.00  0.00     0.017 A 
ATOM      5  C4  UNL d   1       3.704  -0.045  -2.507  0.00  0.00     0.017 A 
ATOM      6  C5  UNL d   1       2.833  -0.857  -1.773  0.00  0.00     0.034 A 
ATOM      7 Cl   UNL d   1       4.074  -0.520  -4.127  0.00  0.00    -0.070 Cl
ATOM      8 Cl1  UNL d   1       5.323   2.159  -2.763  0.00  0.00    -0.070 Cl
ENDROOT
TORSDOF 0
ENDMDL
