MODEL 1
REMARK minimizedAffinity 3.71034431
REMARK minimizedRMSD -1
REMARK  0 active torsions:
REMARK  status: ('A' for Active; 'I' for Inactive)
ROOT
ATOM      1  C   UNL d   1       2.618  -0.425  -0.871  0.00  0.00     0.020 A 
ATOM      2  C1  UNL d   1       2.942  -0.317  -2.223  0.00  0.00     0.020 A 
ATOM      3  C2  UNL d   1       3.990   0.513  -2.627  0.00  0.00     0.034 A 
ATOM      4  C3  UNL d   1       4.717   1.240  -1.677  0.00  0.00     0.017 A 
ATOM      5  C4  UNL d   1       4.392   1.132  -0.321  0.00  0.00     0.017 A 
ATOM      6  C5  UNL d   1       3.342   0.298   0.078  0.00  0.00     0.034 A 
ATOM      7 Cl   UNL d   1       5.244   1.997   0.909  0.00  0.00    -0.070 Cl
ATOM      8 Cl1  UNL d   1       6.000   2.248  -2.247  0.00  0.00    -0.070 Cl
ENDROOT
TORSDOF 0
ENDMDL
