MODEL 1
REMARK minimizedAffinity 5.69526386
REMARK minimizedRMSD -1
REMARK  0 active torsions:
REMARK  status: ('A' for Active; 'I' for Inactive)
ROOT
ATOM      1  C   UNL d   1       3.890  -0.300  -0.645  0.00  0.00     0.020 A 
ATOM      2  C1  UNL d   1       3.941  -0.282  -2.038  0.00  0.00     0.020 A 
ATOM      3  C2  UNL d   1       4.505   0.810  -2.702  0.00  0.00     0.034 A 
ATOM      4  C3  UNL d   1       5.019   1.889  -1.973  0.00  0.00     0.017 A 
ATOM      5  C4  UNL d   1       4.967   1.870  -0.575  0.00  0.00     0.017 A 
ATOM      6  C5  UNL d   1       4.402   0.774   0.085  0.00  0.00     0.034 A 
ATOM      7 Cl   UNL d   1       5.581   3.163   0.393  0.00  0.00    -0.070 Cl
ATOM      8 Cl1  UNL d   1       5.701   3.205  -2.860  0.00  0.00    -0.070 Cl
ENDROOT
TORSDOF 0
ENDMDL
