MODEL 1
REMARK minimizedAffinity 1.15983403
REMARK minimizedRMSD -1
REMARK  0 active torsions:
REMARK  status: ('A' for Active; 'I' for Inactive)
ROOT
ATOM      1  C   UNL d   1      -4.533   1.519   1.100  0.00  0.00     0.020 A 
ATOM      2  C1  UNL d   1      -4.199   2.557   1.969  0.00  0.00     0.020 A 
ATOM      3  C2  UNL d   1      -3.002   3.255   1.795  0.00  0.00     0.034 A 
ATOM      4  C3  UNL d   1      -2.135   2.917   0.750  0.00  0.00     0.017 A 
ATOM      5  C4  UNL d   1      -2.472   1.875  -0.122  0.00  0.00     0.017 A 
ATOM      6  C5  UNL d   1      -3.671   1.179   0.057  0.00  0.00     0.034 A 
ATOM      7 Cl   UNL d   1      -1.453   1.400  -1.435  0.00  0.00    -0.070 Cl
ATOM      8 Cl1  UNL d   1      -0.672   3.823   0.594  0.00  0.00    -0.070 Cl
ENDROOT
TORSDOF 0
ENDMDL
