MODEL 1
REMARK minimizedAffinity 10.3232727
REMARK minimizedRMSD -1
REMARK  0 active torsions:
REMARK  status: ('A' for Active; 'I' for Inactive)
ROOT
ATOM      1  C   UNL d   1       2.496  -0.411  -1.114  0.00  0.00     0.020 A 
ATOM      2  C1  UNL d   1       3.043   0.712  -0.494  0.00  0.00     0.020 A 
ATOM      3  C2  UNL d   1       4.119   1.379  -1.082  0.00  0.00     0.034 A 
ATOM      4  C3  UNL d   1       4.653   0.924  -2.293  0.00  0.00     0.017 A 
ATOM      5  C4  UNL d   1       4.104  -0.203  -2.915  0.00  0.00     0.017 A 
ATOM      6  C5  UNL d   1       3.025  -0.868  -2.322  0.00  0.00     0.034 A 
ATOM      7 Cl   UNL d   1       4.708  -0.824  -4.410  0.00  0.00    -0.070 Cl
ATOM      8 Cl1  UNL d   1       5.984   1.798  -2.964  0.00  0.00    -0.070 Cl
ENDROOT
TORSDOF 0
ENDMDL
