MODEL 1
REMARK minimizedAffinity 4.81803703
REMARK minimizedRMSD -1
REMARK  0 active torsions:
REMARK  status: ('A' for Active; 'I' for Inactive)
ROOT
ATOM      1  C   UNL d   1       3.837   0.701  -0.158  0.00  0.00     0.020 A 
ATOM      2  C1  UNL d   1       4.895   0.996  -1.016  0.00  0.00     0.020 A 
ATOM      3  C2  UNL d   1       4.962   0.393  -2.274  0.00  0.00     0.034 A 
ATOM      4  C3  UNL d   1       3.969  -0.507  -2.677  0.00  0.00     0.017 A 
ATOM      5  C4  UNL d   1       2.907  -0.802  -1.815  0.00  0.00     0.017 A 
ATOM      6  C5  UNL d   1       2.845  -0.196  -0.556  0.00  0.00     0.034 A 
ATOM      7 Cl   UNL d   1       1.645  -1.902  -2.242  0.00  0.00    -0.070 Cl
ATOM      8 Cl1  UNL d   1       4.116  -1.215  -4.246  0.00  0.00    -0.070 Cl
ENDROOT
TORSDOF 0
ENDMDL
