MODEL 1
REMARK minimizedAffinity 12.5660534
REMARK minimizedRMSD -1
REMARK  0 active torsions:
REMARK  status: ('A' for Active; 'I' for Inactive)
ROOT
ATOM      1  C   UNL d   1       4.333   5.494   5.429  0.00  0.00     0.020 A 
ATOM      2  C1  UNL d   1       5.043   4.295   5.474  0.00  0.00     0.020 A 
ATOM      3  C2  UNL d   1       5.307   3.595   4.294  0.00  0.00     0.034 A 
ATOM      4  C3  UNL d   1       4.862   4.095   3.065  0.00  0.00     0.017 A 
ATOM      5  C4  UNL d   1       4.150   5.299   3.021  0.00  0.00     0.017 A 
ATOM      6  C5  UNL d   1       3.888   5.995   4.205  0.00  0.00     0.034 A 
ATOM      7 Cl   UNL d   1       3.569   5.978   1.542  0.00  0.00    -0.070 Cl
ATOM      8 Cl1  UNL d   1       5.225   3.178   1.646  0.00  0.00    -0.070 Cl
ENDROOT
TORSDOF 0
ENDMDL
