MODEL 1
REMARK minimizedAffinity 13.250329
REMARK minimizedRMSD -1
REMARK  0 active torsions:
REMARK  status: ('A' for Active; 'I' for Inactive)
ROOT
ATOM      1  C   UNL d   1      -3.755   1.612  -5.826  0.00  0.00     0.020 A 
ATOM      2  C1  UNL d   1      -3.754   2.649  -4.894  0.00  0.00     0.020 A 
ATOM      3  C2  UNL d   1      -4.453   2.509  -3.693  0.00  0.00     0.034 A 
ATOM      4  C3  UNL d   1      -5.155   1.330  -3.421  0.00  0.00     0.017 A 
ATOM      5  C4  UNL d   1      -5.156   0.289  -4.357  0.00  0.00     0.017 A 
ATOM      6  C5  UNL d   1      -4.454   0.434  -5.558  0.00  0.00     0.034 A 
ATOM      7 Cl   UNL d   1      -5.999  -1.196  -4.091  0.00  0.00    -0.070 Cl
ATOM      8 Cl1  UNL d   1      -5.997   1.225  -1.915  0.00  0.00    -0.070 Cl
ENDROOT
TORSDOF 0
ENDMDL
