MODEL 1
REMARK minimizedAffinity 3.99400473
REMARK minimizedRMSD -1
REMARK  0 active torsions:
REMARK  status: ('A' for Active; 'I' for Inactive)
ROOT
ATOM      1  C   UNL d   1       1.395  -2.195  -0.510  0.00  0.00     0.020 A 
ATOM      2  C1  UNL d   1       0.027  -1.928  -0.516  0.00  0.00     0.020 A 
ATOM      3  C2  UNL d   1      -0.427  -0.608  -0.472  0.00  0.00     0.034 A 
ATOM      4  C3  UNL d   1       0.488   0.450  -0.422  0.00  0.00     0.017 A 
ATOM      5  C4  UNL d   1       1.861   0.181  -0.416  0.00  0.00     0.017 A 
ATOM      6  C5  UNL d   1       2.311  -1.143  -0.460  0.00  0.00     0.034 A 
ATOM      7 Cl   UNL d   1       3.051   1.433  -0.355  0.00  0.00    -0.070 Cl
ATOM      8 Cl1  UNL d   1      -0.144   2.057  -0.370  0.00  0.00    -0.070 Cl
ENDROOT
TORSDOF 0
ENDMDL
