MODEL 1
REMARK minimizedAffinity 4.31561279
REMARK minimizedRMSD -1
REMARK  0 active torsions:
REMARK  status: ('A' for Active; 'I' for Inactive)
ROOT
ATOM      1  C   UNL d   1       0.868   2.312   0.157  0.00  0.00     0.020 A 
ATOM      2  C1  UNL d   1       0.294   2.165   1.419  0.00  0.00     0.020 A 
ATOM      3  C2  UNL d   1      -0.378   0.986   1.748  0.00  0.00     0.034 A 
ATOM      4  C3  UNL d   1      -0.477  -0.051   0.814  0.00  0.00     0.017 A 
ATOM      5  C4  UNL d   1       0.100   0.096  -0.453  0.00  0.00     0.017 A 
ATOM      6  C5  UNL d   1       0.771   1.279  -0.777  0.00  0.00     0.034 A 
ATOM      7 Cl   UNL d   1       0.019  -1.140  -1.658  0.00  0.00    -0.070 Cl
ATOM      8 Cl1  UNL d   1      -1.322  -1.482   1.289  0.00  0.00    -0.070 Cl
ENDROOT
TORSDOF 0
ENDMDL
