MODEL 1
REMARK minimizedAffinity 5.03045273
REMARK minimizedRMSD -1
REMARK  0 active torsions:
REMARK  status: ('A' for Active; 'I' for Inactive)
ROOT
ATOM      1  C   UNL d   1       0.310  -2.271   0.036  0.00  0.00     0.020 A 
ATOM      2  C1  UNL d   1       0.144  -0.950   0.448  0.00  0.00     0.020 A 
ATOM      3  C2  UNL d   1      -0.308   0.012  -0.458  0.00  0.00     0.034 A 
ATOM      4  C3  UNL d   1      -0.595  -0.346  -1.780  0.00  0.00     0.017 A 
ATOM      5  C4  UNL d   1      -0.428  -1.673  -2.193  0.00  0.00     0.017 A 
ATOM      6  C5  UNL d   1       0.025  -2.632  -1.281  0.00  0.00     0.034 A 
ATOM      7 Cl   UNL d   1      -0.761  -2.191  -3.808  0.00  0.00    -0.070 Cl
ATOM      8 Cl1  UNL d   1      -1.151   0.895  -2.847  0.00  0.00    -0.070 Cl
ENDROOT
TORSDOF 0
ENDMDL
