MODEL 1
REMARK minimizedAffinity -3.92812681
REMARK minimizedRMSD -1
REMARK  0 active torsions:
REMARK  status: ('A' for Active; 'I' for Inactive)
ROOT
ATOM      1  C   UNL d   1      -1.266   2.634   1.135  0.00  0.00     0.023 A 
ATOM      2  C1  UNL d   1      -1.387   1.360   1.691  0.00  0.00     0.003 A 
ATOM      3  C2  UNL d   1      -0.804   0.262   1.056  0.00  0.00     0.048 A 
ATOM      4  C3  UNL d   1      -0.100   0.444  -0.134  0.00  0.00     0.023 A 
ATOM      5  C4  UNL d   1       0.025   1.717  -0.693  0.00  0.00     0.048 A 
ATOM      6  C5  UNL d   1      -0.560   2.812  -0.055  0.00  0.00     0.003 A 
ATOM      7  I   UNL d   1       0.770  -1.189  -1.081  0.00  0.00    -0.146 I 
ENDROOT
TORSDOF 0
ENDMDL
