MODEL 1
REMARK minimizedAffinity -3.89726996
REMARK minimizedRMSD -1
REMARK  0 active torsions:
REMARK  status: ('A' for Active; 'I' for Inactive)
ROOT
ATOM      1  C   UNL d   1      -1.501   1.465   1.687  0.00  0.00     0.023 A 
ATOM      2  C1  UNL d   1      -1.356   0.120   2.027  0.00  0.00     0.003 A 
ATOM      3  C2  UNL d   1      -0.746  -0.765   1.135  0.00  0.00     0.048 A 
ATOM      4  C3  UNL d   1      -0.283  -0.298  -0.094  0.00  0.00     0.023 A 
ATOM      5  C4  UNL d   1      -0.425   1.048  -0.438  0.00  0.00     0.048 A 
ATOM      6  C5  UNL d   1      -1.036   1.928   0.456  0.00  0.00     0.003 A 
ATOM      7  I   UNL d   1       0.626  -1.613  -1.423  0.00  0.00    -0.146 I 
ENDROOT
TORSDOF 0
ENDMDL
