MODEL 1
REMARK minimizedAffinity -2.26701427
REMARK minimizedRMSD -1
REMARK  0 active torsions:
REMARK  status: ('A' for Active; 'I' for Inactive)
ROOT
ATOM      1  C   UNL d   1      -0.494   2.876  -0.933  0.00  0.00     0.023 A 
ATOM      2  C1  UNL d   1       0.443   1.882  -1.218  0.00  0.00     0.003 A 
ATOM      3  C2  UNL d   1       0.546   0.760  -0.393  0.00  0.00     0.048 A 
ATOM      4  C3  UNL d   1      -0.292   0.637   0.714  0.00  0.00     0.023 A 
ATOM      5  C4  UNL d   1      -1.232   1.628   1.003  0.00  0.00     0.048 A 
ATOM      6  C5  UNL d   1      -1.330   2.749   0.176  0.00  0.00     0.003 A 
ATOM      7  I   UNL d   1      -0.141  -1.032   1.944  0.00  0.00    -0.146 I 
ENDROOT
TORSDOF 0
ENDMDL
