MODEL 1
REMARK minimizedAffinity -1.52583218
REMARK minimizedRMSD -1
REMARK  0 active torsions:
REMARK  status: ('A' for Active; 'I' for Inactive)
ROOT
ATOM      1  C   UNL d   1       1.248  -1.720   0.493  0.00  0.00     0.023 A 
ATOM      2  C1  UNL d   1       0.899  -0.996  -0.647  0.00  0.00     0.003 A 
ATOM      3  C2  UNL d   1       0.054   0.110  -0.541  0.00  0.00     0.048 A 
ATOM      4  C3  UNL d   1      -0.438   0.488   0.708  0.00  0.00     0.023 A 
ATOM      5  C4  UNL d   1      -0.090  -0.233   1.852  0.00  0.00     0.048 A 
ATOM      6  C5  UNL d   1       0.755  -1.339   1.741  0.00  0.00     0.003 A 
ATOM      7  I   UNL d   1      -1.696   2.135   0.869  0.00  0.00    -0.146 I 
ENDROOT
TORSDOF 0
ENDMDL
