MODEL 1
REMARK minimizedAffinity -2.27492094
REMARK minimizedRMSD -1
REMARK  0 active torsions:
REMARK  status: ('A' for Active; 'I' for Inactive)
ROOT
ATOM      1  C   UNL d   1      -1.698   2.500   0.811  0.00  0.00     0.023 A 
ATOM      2  C1  UNL d   1      -1.009   2.594  -0.398  0.00  0.00     0.003 A 
ATOM      3  C2  UNL d   1      -0.266   1.509  -0.867  0.00  0.00     0.048 A 
ATOM      4  C3  UNL d   1      -0.217   0.331  -0.122  0.00  0.00     0.023 A 
ATOM      5  C4  UNL d   1      -0.905   0.232   1.089  0.00  0.00     0.048 A 
ATOM      6  C5  UNL d   1      -1.646   1.320   1.553  0.00  0.00     0.003 A 
ATOM      7  I   UNL d   1       0.888  -1.286  -0.817  0.00  0.00    -0.146 I 
ENDROOT
TORSDOF 0
ENDMDL
