MODEL 1
REMARK minimizedAffinity -1.96988738
REMARK minimizedRMSD -1
REMARK  0 active torsions:
REMARK  status: ('A' for Active; 'I' for Inactive)
ROOT
ATOM      1  C   UNL d   1      -0.538   1.335   1.069  0.00  0.00     0.023 A 
ATOM      2  C1  UNL d   1      -0.376   0.073   1.642  0.00  0.00     0.003 A 
ATOM      3  C2  UNL d   1       0.037  -1.004   0.856  0.00  0.00     0.048 A 
ATOM      4  C3  UNL d   1       0.288  -0.813  -0.502  0.00  0.00     0.023 A 
ATOM      5  C4  UNL d   1       0.128   0.447  -1.080  0.00  0.00     0.048 A 
ATOM      6  C5  UNL d   1      -0.286   1.521  -0.291  0.00  0.00     0.003 A 
ATOM      7  I   UNL d   1       0.903  -2.416  -1.674  0.00  0.00    -0.146 I 
ENDROOT
TORSDOF 0
ENDMDL
