MODEL 1
REMARK minimizedAffinity -3.97707725
REMARK minimizedRMSD -1
REMARK  0 active torsions:
REMARK  status: ('A' for Active; 'I' for Inactive)
ROOT
ATOM      1  C   UNL d   1      -1.449   1.504   1.763  0.00  0.00     0.023 A 
ATOM      2  C1  UNL d   1      -1.458   1.777   0.395  0.00  0.00     0.003 A 
ATOM      3  C2  UNL d   1      -0.726   0.974  -0.482  0.00  0.00     0.048 A 
ATOM      4  C3  UNL d   1       0.010  -0.101   0.015  0.00  0.00     0.023 A 
ATOM      5  C4  UNL d   1       0.021  -0.378   1.383  0.00  0.00     0.048 A 
ATOM      6  C5  UNL d   1      -0.711   0.428   2.256  0.00  0.00     0.003 A 
ATOM      7  I   UNL d   1       1.099  -1.298  -1.290  0.00  0.00    -0.146 I 
ENDROOT
TORSDOF 0
ENDMDL
