MODEL 1
REMARK minimizedAffinity -2.2479496
REMARK minimizedRMSD -1
REMARK  0 active torsions:
REMARK  status: ('A' for Active; 'I' for Inactive)
ROOT
ATOM      1  C   UNL d   1       1.004  -3.454  -1.975  0.00  0.00     0.023 A 
ATOM      2  C1  UNL d   1       0.050  -2.817  -2.769  0.00  0.00     0.003 A 
ATOM      3  C2  UNL d   1      -0.382  -1.529  -2.446  0.00  0.00     0.048 A 
ATOM      4  C3  UNL d   1       0.145  -0.884  -1.327  0.00  0.00     0.023 A 
ATOM      5  C4  UNL d   1       1.100  -1.517  -0.530  0.00  0.00     0.048 A 
ATOM      6  C5  UNL d   1       1.528  -2.805  -0.857  0.00  0.00     0.003 A 
ATOM      7  I   UNL d   1      -0.496   1.033  -0.844  0.00  0.00    -0.146 I 
ENDROOT
TORSDOF 0
ENDMDL
