MODEL 1
REMARK minimizedAffinity -0.212675199
REMARK minimizedRMSD -1
REMARK  0 active torsions:
REMARK  status: ('A' for Active; 'I' for Inactive)
ROOT
ATOM      1  C   UNL d   1      -2.362   2.126   1.813  0.00  0.00     0.023 A 
ATOM      2  C1  UNL d   1      -2.784   1.520   0.630  0.00  0.00     0.003 A 
ATOM      3  C2  UNL d   1      -1.949   0.617  -0.030  0.00  0.00     0.048 A 
ATOM      4  C3  UNL d   1      -0.692   0.324   0.498  0.00  0.00     0.023 A 
ATOM      5  C4  UNL d   1      -0.265   0.927   1.682  0.00  0.00     0.048 A 
ATOM      6  C5  UNL d   1      -1.104   1.830   2.339  0.00  0.00     0.003 A 
ATOM      7  I   UNL d   1       0.553  -1.020  -0.483  0.00  0.00    -0.146 I 
ENDROOT
TORSDOF 0
ENDMDL
