MODEL 1
REMARK minimizedAffinity -2.42440271
REMARK minimizedRMSD -1
REMARK  0 active torsions:
REMARK  status: ('A' for Active; 'I' for Inactive)
ROOT
ATOM      1  C   UNL d   1      -1.346   1.622   1.446  0.00  0.00     0.023 A 
ATOM      2  C1  UNL d   1      -1.176   1.688   0.063  0.00  0.00     0.003 A 
ATOM      3  C2  UNL d   1      -0.572   0.629  -0.619  0.00  0.00     0.048 A 
ATOM      4  C3  UNL d   1      -0.142  -0.493   0.088  0.00  0.00     0.023 A 
ATOM      5  C4  UNL d   1      -0.311  -0.564   1.472  0.00  0.00     0.048 A 
ATOM      6  C5  UNL d   1      -0.914   0.498   2.149  0.00  0.00     0.003 A 
ATOM      7  I   UNL d   1       0.756  -2.071  -0.924  0.00  0.00    -0.146 I 
ENDROOT
TORSDOF 0
ENDMDL
