MODEL 1
REMARK minimizedAffinity -4.59099674
REMARK minimizedRMSD -1
REMARK  0 active torsions:
REMARK  status: ('A' for Active; 'I' for Inactive)
ROOT
ATOM      1  C   UNL d   1      -1.760   2.260   1.531  0.00  0.00     0.023 A 
ATOM      2  C1  UNL d   1      -1.120   1.196   2.166  0.00  0.00     0.003 A 
ATOM      3  C2  UNL d   1      -0.458   0.226   1.410  0.00  0.00     0.048 A 
ATOM      4  C3  UNL d   1      -0.439   0.328   0.019  0.00  0.00     0.023 A 
ATOM      5  C4  UNL d   1      -1.077   1.392  -0.620  0.00  0.00     0.048 A 
ATOM      6  C5  UNL d   1      -1.738   2.358   0.140  0.00  0.00     0.003 A 
ATOM      7  I   UNL d   1       0.545  -1.114  -1.108  0.00  0.00    -0.146 I 
ENDROOT
TORSDOF 0
ENDMDL
