MODEL 1
REMARK minimizedAffinity -3.0455761
REMARK minimizedRMSD -1
REMARK  0 active torsions:
REMARK  status: ('A' for Active; 'I' for Inactive)
ROOT
ATOM      1  C   UNL d   1      -1.838   2.465   1.519  0.00  0.00     0.023 A 
ATOM      2  C1  UNL d   1      -1.875   2.327   0.131  0.00  0.00     0.003 A 
ATOM      3  C2  UNL d   1      -1.208   1.265  -0.484  0.00  0.00     0.048 A 
ATOM      4  C3  UNL d   1      -0.506   0.346   0.294  0.00  0.00     0.023 A 
ATOM      5  C4  UNL d   1      -0.467   0.480   1.683  0.00  0.00     0.048 A 
ATOM      6  C5  UNL d   1      -1.135   1.543   2.294  0.00  0.00     0.003 A 
ATOM      7  I   UNL d   1       0.488  -1.235  -0.619  0.00  0.00    -0.146 I 
ENDROOT
TORSDOF 0
ENDMDL
