MODEL 1
REMARK minimizedAffinity 1.48912203
REMARK minimizedRMSD -1
REMARK  0 active torsions:
REMARK  status: ('A' for Active; 'I' for Inactive)
ROOT
ATOM      1  C   UNL d   1       0.336   0.443   0.750  0.00  0.00     0.023 A 
ATOM      2  C1  UNL d   1      -0.478   0.634  -0.367  0.00  0.00     0.003 A 
ATOM      3  C2  UNL d   1      -0.574  -0.363  -1.341  0.00  0.00     0.048 A 
ATOM      4  C3  UNL d   1       0.145  -1.548  -1.190  0.00  0.00     0.023 A 
ATOM      5  C4  UNL d   1       0.959  -1.744  -0.074  0.00  0.00     0.048 A 
ATOM      6  C5  UNL d   1       1.053  -0.744   0.897  0.00  0.00     0.003 A 
ATOM      7  I   UNL d   1       0.003  -3.033  -2.638  0.00  0.00    -0.146 I 
ENDROOT
TORSDOF 0
ENDMDL
