MODEL 1
REMARK minimizedAffinity 0.322271347
REMARK minimizedRMSD -1
REMARK  0 active torsions:
REMARK  status: ('A' for Active; 'I' for Inactive)
ROOT
ATOM      1  C   UNL d   1      -1.351   3.222  -1.213  0.00  0.00     0.023 A 
ATOM      2  C1  UNL d   1       0.021   2.995  -1.325  0.00  0.00     0.003 A 
ATOM      3  C2  UNL d   1       0.556   1.754  -0.975  0.00  0.00     0.048 A 
ATOM      4  C3  UNL d   1      -0.287   0.743  -0.514  0.00  0.00     0.023 A 
ATOM      5  C4  UNL d   1      -1.661   0.965  -0.400  0.00  0.00     0.048 A 
ATOM      6  C5  UNL d   1      -2.191   2.208  -0.751  0.00  0.00     0.003 A 
ATOM      7  I   UNL d   1       0.506  -1.106   0.008  0.00  0.00    -0.146 I 
ENDROOT
TORSDOF 0
ENDMDL
