MODEL 1
REMARK minimizedAffinity -2.3794558
REMARK minimizedRMSD -1
REMARK  0 active torsions:
REMARK  status: ('A' for Active; 'I' for Inactive)
ROOT
ATOM      1  C   UNL d   1      -0.853   2.179   0.022  0.00  0.00     0.023 A 
ATOM      2  C1  UNL d   1      -1.148   1.005   0.715  0.00  0.00     0.003 A 
ATOM      3  C2  UNL d   1      -0.518  -0.191   0.364  0.00  0.00     0.048 A 
ATOM      4  C3  UNL d   1       0.405  -0.206  -0.681  0.00  0.00     0.023 A 
ATOM      5  C4  UNL d   1       0.703   0.967  -1.377  0.00  0.00     0.048 A 
ATOM      6  C5  UNL d   1       0.071   2.160  -1.023  0.00  0.00     0.003 A 
ATOM      7  I   UNL d   1       1.344  -1.984  -1.205  0.00  0.00    -0.146 I 
ENDROOT
TORSDOF 0
ENDMDL
