MODEL 1
REMARK minimizedAffinity -1.9294672
REMARK minimizedRMSD -1
REMARK  0 active torsions:
REMARK  status: ('A' for Active; 'I' for Inactive)
ROOT
ATOM      1  C   UNL d   1      -0.816   2.660  -1.097  0.00  0.00     0.023 A 
ATOM      2  C1  UNL d   1      -1.767   1.836  -0.495  0.00  0.00     0.003 A 
ATOM      3  C2  UNL d   1      -1.434   0.528  -0.138  0.00  0.00     0.048 A 
ATOM      4  C3  UNL d   1      -0.148   0.050  -0.386  0.00  0.00     0.023 A 
ATOM      5  C4  UNL d   1       0.807   0.871  -0.988  0.00  0.00     0.048 A 
ATOM      6  C5  UNL d   1       0.470   2.178  -1.343  0.00  0.00     0.003 A 
ATOM      7  I   UNL d   1       0.351  -1.897   0.144  0.00  0.00    -0.146 I 
ENDROOT
TORSDOF 0
ENDMDL
