MODEL 1
REMARK minimizedAffinity 13.1289625
REMARK minimizedRMSD -1
REMARK  0 active torsions:
REMARK  status: ('A' for Active; 'I' for Inactive)
ROOT
ATOM      1  C   UNL d   1      -0.765  -0.921   1.977  0.00  0.00     0.124 A 
ATOM      2  C1  UNL d   1       0.562  -0.588   1.741  0.00  0.00     0.062 A 
ATOM      3  C2  UNL d   1       1.558  -1.019   2.612  0.00  0.00     0.162 A 
ATOM      4  C3  UNL d   1       1.231  -1.791   3.727  0.00  0.00    -0.034 A 
ATOM      5  C4  UNL d   1      -0.105  -2.122   3.958  0.00  0.00     0.162 A 
ATOM      6  C5  UNL d   1      -1.097  -1.688   3.085  0.00  0.00     0.062 A 
ATOM      7  F   UNL d   1      -2.378  -2.011   3.314  0.00  0.00    -0.097 F 
ATOM      8  F1  UNL d   1      -0.454  -2.862   5.021  0.00  0.00    -0.096 F 
ATOM      9  I   UNL d   1       2.718  -2.439   5.032  0.00  0.00    -0.060 I 
ATOM     10  F2  UNL d   1       2.831  -0.682   2.359  0.00  0.00    -0.096 F 
ATOM     11  F3  UNL d   1       0.885   0.154   0.671  0.00  0.00    -0.097 F 
ATOM     12  F4  UNL d   1      -1.721  -0.504   1.137  0.00  0.00    -0.092 F 
ENDROOT
TORSDOF 0
ENDMDL
