MODEL 1
REMARK minimizedAffinity 7.32586145
REMARK minimizedRMSD -1
REMARK  0 active torsions:
REMARK  status: ('A' for Active; 'I' for Inactive)
ROOT
ATOM      1  C   UNL d   1       1.437  -1.587   3.606  0.00  0.00     0.124 A 
ATOM      2  C1  UNL d   1       1.711  -0.562   2.711  0.00  0.00     0.062 A 
ATOM      3  C2  UNL d   1       0.698  -0.041   1.912  0.00  0.00     0.162 A 
ATOM      4  C3  UNL d   1      -0.600  -0.543   2.004  0.00  0.00    -0.034 A 
ATOM      5  C4  UNL d   1      -0.868  -1.575   2.905  0.00  0.00     0.162 A 
ATOM      6  C5  UNL d   1       0.148  -2.092   3.702  0.00  0.00     0.062 A 
ATOM      7  F   UNL d   1      -0.118  -3.083   4.566  0.00  0.00    -0.097 F 
ATOM      8  F1  UNL d   1      -2.104  -2.082   3.019  0.00  0.00    -0.096 F 
ATOM      9  I   UNL d   1      -2.118   0.233   0.810  0.00  0.00    -0.060 I 
ATOM     10  F2  UNL d   1       0.991   0.950   1.056  0.00  0.00    -0.096 F 
ATOM     11  F3  UNL d   1       2.956  -0.072   2.615  0.00  0.00    -0.097 F 
ATOM     12  F4  UNL d   1       2.414  -2.087   4.373  0.00  0.00    -0.092 F 
ENDROOT
TORSDOF 0
ENDMDL
