MODEL 1
REMARK minimizedAffinity 7.50424671
REMARK minimizedRMSD -1
REMARK  0 active torsions:
REMARK  status: ('A' for Active; 'I' for Inactive)
ROOT
ATOM      1  C   UNL d   1      -1.436  -0.064   1.534  0.00  0.00     0.124 A 
ATOM      2  C1  UNL d   1      -0.202   0.573   1.516  0.00  0.00     0.062 A 
ATOM      3  C2  UNL d   1       0.877   0.027   2.205  0.00  0.00     0.162 A 
ATOM      4  C3  UNL d   1       0.729  -1.163   2.917  0.00  0.00    -0.034 A 
ATOM      5  C4  UNL d   1      -0.515  -1.797   2.930  0.00  0.00     0.162 A 
ATOM      6  C5  UNL d   1      -1.591  -1.248   2.240  0.00  0.00     0.062 A 
ATOM      7  F   UNL d   1      -2.781  -1.865   2.258  0.00  0.00    -0.097 F 
ATOM      8  F1  UNL d   1      -0.693  -2.943   3.604  0.00  0.00    -0.096 F 
ATOM      9  I   UNL d   1       2.340  -1.982   3.948  0.00  0.00    -0.060 I 
ATOM     10  F2  UNL d   1       2.057   0.664   2.171  0.00  0.00    -0.096 F 
ATOM     11  F3  UNL d   1      -0.050   1.718   0.835  0.00  0.00    -0.097 F 
ATOM     12  F4  UNL d   1      -2.473   0.464   0.871  0.00  0.00    -0.092 F 
ENDROOT
TORSDOF 0
ENDMDL
