MODEL 1
REMARK minimizedAffinity -0.748895526
REMARK minimizedRMSD -1
REMARK  0 active torsions:
REMARK  status: ('A' for Active; 'I' for Inactive)
ROOT
ATOM      1  C   UNL d   1       0.039  -2.631   3.894  0.00  0.00     0.124 A 
ATOM      2  C1  UNL d   1       1.015  -1.921   3.208  0.00  0.00     0.062 A 
ATOM      3  C2  UNL d   1       0.655  -0.874   2.365  0.00  0.00     0.162 A 
ATOM      4  C3  UNL d   1      -0.687  -0.529   2.203  0.00  0.00    -0.034 A 
ATOM      5  C4  UNL d   1      -1.663  -1.249   2.895  0.00  0.00     0.162 A 
ATOM      6  C5  UNL d   1      -1.298  -2.295   3.737  0.00  0.00     0.062 A 
ATOM      7  F   UNL d   1      -2.242  -2.980   4.399  0.00  0.00    -0.097 F 
ATOM      8  F1  UNL d   1      -2.962  -0.945   2.763  0.00  0.00    -0.096 F 
ATOM      9  I   UNL d   1      -1.229   1.036   0.943  0.00  0.00    -0.060 I 
ATOM     10  F2  UNL d   1       1.618  -0.204   1.715  0.00  0.00    -0.096 F 
ATOM     11  F3  UNL d   1       2.307  -2.244   3.357  0.00  0.00    -0.097 F 
ATOM     12  F4  UNL d   1       0.388  -3.639   4.704  0.00  0.00    -0.092 F 
ENDROOT
TORSDOF 0
ENDMDL
