MODEL 1
REMARK minimizedAffinity 9.46014404
REMARK minimizedRMSD -1
REMARK  0 active torsions:
REMARK  status: ('A' for Active; 'I' for Inactive)
ROOT
ATOM      1  C   UNL d   1       2.026  -4.916  -2.455  0.00  0.00     0.124 A 
ATOM      2  C1  UNL d   1       2.469  -5.318  -3.708  0.00  0.00     0.062 A 
ATOM      3  C2  UNL d   1       1.552  -5.609  -4.714  0.00  0.00     0.162 A 
ATOM      4  C3  UNL d   1       0.183  -5.498  -4.473  0.00  0.00    -0.034 A 
ATOM      5  C4  UNL d   1      -0.255  -5.094  -3.210  0.00  0.00     0.162 A 
ATOM      6  C5  UNL d   1       0.665  -4.804  -2.208  0.00  0.00     0.062 A 
ATOM      7  F   UNL d   1       0.235  -4.416  -0.999  0.00  0.00    -0.097 F 
ATOM      8  F1  UNL d   1      -1.564  -4.977  -2.944  0.00  0.00    -0.096 F 
ATOM      9  I   UNL d   1      -1.190  -5.933  -5.975  0.00  0.00    -0.060 I 
ATOM     10  F2  UNL d   1       2.009  -5.996  -5.915  0.00  0.00    -0.096 F 
ATOM     11  F3  UNL d   1       3.783  -5.428  -3.949  0.00  0.00    -0.097 F 
ATOM     12  F4  UNL d   1       2.910  -4.637  -1.489  0.00  0.00    -0.092 F 
ENDROOT
TORSDOF 0
ENDMDL
