MODEL 1
REMARK minimizedAffinity -2.93002558
REMARK minimizedRMSD -1
REMARK  0 active torsions:
REMARK  status: ('A' for Active; 'I' for Inactive)
ROOT
ATOM      1  C   UNL d   1      -0.971  -0.657   2.838  0.00  0.00     0.124 A 
ATOM      2  C1  UNL d   1       0.293  -0.397   2.324  0.00  0.00     0.062 A 
ATOM      3  C2  UNL d   1       1.428  -0.748   3.048  0.00  0.00     0.162 A 
ATOM      4  C3  UNL d   1       1.306  -1.364   4.294  0.00  0.00    -0.034 A 
ATOM      5  C4  UNL d   1       0.033  -1.621   4.804  0.00  0.00     0.162 A 
ATOM      6  C5  UNL d   1      -1.099  -1.268   4.077  0.00  0.00     0.062 A 
ATOM      7  F   UNL d   1      -2.319  -1.519   4.575  0.00  0.00    -0.097 F 
ATOM      8  F1  UNL d   1      -0.121  -2.211   5.999  0.00  0.00    -0.096 F 
ATOM      9  I   UNL d   1       3.002  -1.890   5.380  0.00  0.00    -0.060 I 
ATOM     10  F2  UNL d   1       2.636  -0.486   2.527  0.00  0.00    -0.096 F 
ATOM     11  F3  UNL d   1       0.420   0.194   1.128  0.00  0.00    -0.097 F 
ATOM     12  F4  UNL d   1      -2.062  -0.317   2.139  0.00  0.00    -0.092 F 
ENDROOT
TORSDOF 0
ENDMDL
