MODEL 1
REMARK minimizedAffinity -0.750059903
REMARK minimizedRMSD -1
REMARK  0 active torsions:
REMARK  status: ('A' for Active; 'I' for Inactive)
ROOT
ATOM      1  C   UNL d   1      -1.118  -1.445   3.602  0.00  0.00     0.124 A 
ATOM      2  C1  UNL d   1      -1.117  -0.755   2.397  0.00  0.00     0.062 A 
ATOM      3  C2  UNL d   1       0.086  -0.433   1.776  0.00  0.00     0.162 A 
ATOM      4  C3  UNL d   1       1.299  -0.800   2.358  0.00  0.00    -0.034 A 
ATOM      5  C4  UNL d   1       1.290  -1.493   3.571  0.00  0.00     0.162 A 
ATOM      6  C5  UNL d   1       0.085  -1.813   4.187  0.00  0.00     0.062 A 
ATOM      7  F   UNL d   1       0.086  -2.479   5.351  0.00  0.00    -0.097 F 
ATOM      8  F1  UNL d   1       2.438  -1.862   4.158  0.00  0.00    -0.096 F 
ATOM      9  I   UNL d   1       3.101  -0.320   1.433  0.00  0.00    -0.060 I 
ATOM     10  F2  UNL d   1       0.057   0.234   0.613  0.00  0.00    -0.096 F 
ATOM     11  F3  UNL d   1      -2.278  -0.398   1.830  0.00  0.00    -0.097 F 
ATOM     12  F4  UNL d   1      -2.278  -1.752   4.197  0.00  0.00    -0.092 F 
ENDROOT
TORSDOF 0
ENDMDL
