MODEL 1
REMARK minimizedAffinity 12.8296289
REMARK minimizedRMSD -1
REMARK  0 active torsions:
REMARK  status: ('A' for Active; 'I' for Inactive)
ROOT
ATOM      1  C   UNL d   1      -0.632  -0.678   2.058  0.00  0.00     0.124 A 
ATOM      2  C1  UNL d   1       0.684  -0.243   1.990  0.00  0.00     0.062 A 
ATOM      3  C2  UNL d   1       1.607  -0.650   2.949  0.00  0.00     0.162 A 
ATOM      4  C3  UNL d   1       1.217  -1.498   3.985  0.00  0.00    -0.034 A 
ATOM      5  C4  UNL d   1      -0.108  -1.931   4.048  0.00  0.00     0.162 A 
ATOM      6  C5  UNL d   1      -1.027  -1.521   3.087  0.00  0.00     0.062 A 
ATOM      7  F   UNL d   1      -2.298  -1.942   3.156  0.00  0.00    -0.097 F 
ATOM      8  F1  UNL d   1      -0.517  -2.746   5.032  0.00  0.00    -0.096 F 
ATOM      9  I   UNL d   1       2.594  -2.109   5.422  0.00  0.00    -0.060 I 
ATOM     10  F2  UNL d   1       2.872  -0.214   2.858  0.00  0.00    -0.096 F 
ATOM     11  F3  UNL d   1       1.068   0.573   0.997  0.00  0.00    -0.097 F 
ATOM     12  F4  UNL d   1      -1.518  -0.284   1.135  0.00  0.00    -0.092 F 
ENDROOT
TORSDOF 0
ENDMDL
