MODEL 1
REMARK minimizedAffinity -0.369881898
REMARK minimizedRMSD -1
REMARK  0 active torsions:
REMARK  status: ('A' for Active; 'I' for Inactive)
ROOT
ATOM      1  C   UNL d   1      -0.053  -1.404   4.108  0.00  0.00     0.124 A 
ATOM      2  C1  UNL d   1       0.854  -0.916   3.178  0.00  0.00     0.062 A 
ATOM      3  C2  UNL d   1       0.436  -0.615   1.885  0.00  0.00     0.162 A 
ATOM      4  C3  UNL d   1      -0.896  -0.800   1.514  0.00  0.00    -0.034 A 
ATOM      5  C4  UNL d   1      -1.802  -1.293   2.455  0.00  0.00     0.162 A 
ATOM      6  C5  UNL d   1      -1.379  -1.593   3.747  0.00  0.00     0.062 A 
ATOM      7  F   UNL d   1      -2.257  -2.065   4.644  0.00  0.00    -0.097 F 
ATOM      8  F1  UNL d   1      -3.090  -1.483   2.133  0.00  0.00    -0.096 F 
ATOM      9  I   UNL d   1      -1.525  -0.351  -0.418  0.00  0.00    -0.060 I 
ATOM     10  F2  UNL d   1       1.334  -0.144   1.006  0.00  0.00    -0.096 F 
ATOM     11  F3  UNL d   1       2.136  -0.734   3.525  0.00  0.00    -0.097 F 
ATOM     12  F4  UNL d   1       0.352  -1.694   5.352  0.00  0.00    -0.092 F 
ENDROOT
TORSDOF 0
ENDMDL
