MODEL 1
REMARK minimizedAffinity 17.8155975
REMARK minimizedRMSD -1
REMARK  0 active torsions:
REMARK  status: ('A' for Active; 'I' for Inactive)
ROOT
ATOM      1  C   UNL d   1       0.322   1.821   0.823  0.00  0.00     0.124 A 
ATOM      2  C1  UNL d   1       1.659   1.741   1.185  0.00  0.00     0.062 A 
ATOM      3  C2  UNL d   1       2.093   0.738   2.046  0.00  0.00     0.162 A 
ATOM      4  C3  UNL d   1       1.187  -0.195   2.552  0.00  0.00    -0.034 A 
ATOM      5  C4  UNL d   1      -0.157  -0.107   2.184  0.00  0.00     0.162 A 
ATOM      6  C5  UNL d   1      -0.585   0.897   1.323  0.00  0.00     0.062 A 
ATOM      7  F   UNL d   1      -1.878   0.973   0.974  0.00  0.00    -0.097 F 
ATOM      8  F1  UNL d   1      -1.054  -0.988   2.652  0.00  0.00    -0.096 F 
ATOM      9  I   UNL d   1       1.831  -1.697   3.841  0.00  0.00    -0.060 I 
ATOM     10  F2  UNL d   1       3.391   0.685   2.379  0.00  0.00    -0.096 F 
ATOM     11  F3  UNL d   1       2.537   2.634   0.703  0.00  0.00    -0.097 F 
ATOM     12  F4  UNL d   1      -0.093   2.789  -0.006  0.00  0.00    -0.092 F 
ENDROOT
TORSDOF 0
ENDMDL
