MODEL 1
REMARK minimizedAffinity -6.23390007
REMARK minimizedRMSD -1
REMARK  3 active torsions:
REMARK  status: ('A' for Active; 'I' for Inactive)
REMARK    1  A    between atoms: C3'_2  and  C2'_3 
REMARK    2  A    between atoms: C2'_3  and  C1'_4 
REMARK    3  A    between atoms: C1'_4  and  C1_5 
ROOT
ATOM      1  C1  N4B d   1      -0.077   0.316  -0.076  0.00  0.00    -0.075 A 
ATOM      2  C2  N4B d   1       1.207   0.355   0.510  0.00  0.00     0.002 A 
ATOM      3  C3  N4B d   1       1.372  -0.001   1.826  0.00  0.00     0.002 A 
ATOM      4  C4  N4B d   1       0.270  -0.380   2.578  0.00  0.00    -0.004 A 
ATOM      5  C5  N4B d   1      -0.963  -0.439   1.997  0.00  0.00     0.002 A 
ATOM      6  C6  N4B d   1      -1.143  -0.088   0.675  0.00  0.00     0.002 A 
ENDROOT
BRANCH   1   7
ATOM      7  C1' N4B d   1      -0.320   0.778  -1.486  0.00  0.00     0.057 C 
BRANCH   7   8
ATOM      8  C2' N4B d   1       0.798   0.258  -2.384  0.00  0.00     0.009 C 
BRANCH   8   9
ATOM      9  C3' N4B d   1       0.393  -1.007  -3.122  0.00  0.00     0.004 C 
ATOM     10  C4' N4B d   1       1.477  -2.043  -3.138  0.00  0.00     0.003 C 
ENDBRANCH   8   9
ENDBRANCH   7   8
ENDBRANCH   1   7
TORSDOF 3
ENDMDL
