MODEL 1
REMARK minimizedAffinity -5.16307211
REMARK minimizedRMSD -1
REMARK  3 active torsions:
REMARK  status: ('A' for Active; 'I' for Inactive)
REMARK    1  A    between atoms: C3'_2  and  C2'_3 
REMARK    2  A    between atoms: C2'_3  and  C1'_4 
REMARK    3  A    between atoms: C1'_4  and  C1_5 
ROOT
ATOM      1  C1  N4B d   1      -0.308   0.026   0.863  0.00  0.00    -0.075 A 
ATOM      2  C2  N4B d   1       0.070  -0.113   2.217  0.00  0.00     0.002 A 
ATOM      3  C3  N4B d   1      -0.892  -0.192   3.194  0.00  0.00     0.002 A 
ATOM      4  C4  N4B d   1      -2.232  -0.116   2.845  0.00  0.00    -0.004 A 
ATOM      5  C5  N4B d   1      -2.590  -0.008   1.533  0.00  0.00     0.002 A 
ATOM      6  C6  N4B d   1      -1.634   0.069   0.540  0.00  0.00     0.002 A 
ENDROOT
BRANCH   1   7
ATOM      7  C1' N4B d   1       0.708   0.203  -0.231  0.00  0.00     0.057 C 
BRANCH   7   8
ATOM      8  C2' N4B d   1      -0.001   0.179  -1.582  0.00  0.00     0.009 C 
BRANCH   8   9
ATOM      9  C3' N4B d   1       0.891  -0.367  -2.683  0.00  0.00     0.004 C 
ATOM     10  C4' N4B d   1       0.236  -1.460  -3.474  0.00  0.00     0.003 C 
ENDBRANCH   8   9
ENDBRANCH   7   8
ENDBRANCH   1   7
TORSDOF 3
ENDMDL
