MODEL 1
REMARK minimizedAffinity -6.77700186
REMARK minimizedRMSD -1
REMARK  3 active torsions:
REMARK  status: ('A' for Active; 'I' for Inactive)
REMARK    1  A    between atoms: C3'_2  and  C2'_3 
REMARK    2  A    between atoms: C2'_3  and  C1'_4 
REMARK    3  A    between atoms: C1'_4  and  C1_5 
ROOT
ATOM      1  C1  N4B d   1      -0.430  -0.068   0.835  0.00  0.00    -0.075 A 
ATOM      2  C2  N4B d   1      -0.022  -0.351   2.157  0.00  0.00     0.002 A 
ATOM      3  C3  N4B d   1      -0.962  -0.582   3.132  0.00  0.00     0.002 A 
ATOM      4  C4  N4B d   1      -2.310  -0.517   2.813  0.00  0.00    -0.004 A 
ATOM      5  C5  N4B d   1      -2.695  -0.269   1.528  0.00  0.00     0.002 A 
ATOM      6  C6  N4B d   1      -1.762  -0.038   0.538  0.00  0.00     0.002 A 
ENDROOT
BRANCH   1   7
ATOM      7  C1' N4B d   1       0.559   0.277  -0.244  0.00  0.00     0.057 C 
BRANCH   7   8
ATOM      8  C2' N4B d   1      -0.167   0.349  -1.584  0.00  0.00     0.009 C 
BRANCH   8   9
ATOM      9  C3' N4B d   1       0.713  -0.112  -2.734  0.00  0.00     0.004 C 
ATOM     10  C4' N4B d   1       0.453  -1.534  -3.130  0.00  0.00     0.003 C 
ENDBRANCH   8   9
ENDBRANCH   7   8
ENDBRANCH   1   7
TORSDOF 3
ENDMDL
