MODEL 1
REMARK minimizedAffinity -2.52035761
REMARK minimizedRMSD -1
REMARK  3 active torsions:
REMARK  status: ('A' for Active; 'I' for Inactive)
REMARK    1  A    between atoms: C3'_2  and  C2'_3 
REMARK    2  A    between atoms: C2'_3  and  C1'_4 
REMARK    3  A    between atoms: C1'_4  and  C1_5 
ROOT
ATOM      1  C1  N4B d   1       0.630   0.333   0.183  0.00  0.00    -0.075 A 
ATOM      2  C2  N4B d   1      -0.323   0.840   1.093  0.00  0.00     0.002 A 
ATOM      3  C3  N4B d   1      -0.120   0.708   2.445  0.00  0.00     0.002 A 
ATOM      4  C4  N4B d   1       1.015   0.058   2.907  0.00  0.00    -0.004 A 
ATOM      5  C5  N4B d   1       1.943  -0.406   2.022  0.00  0.00     0.002 A 
ATOM      6  C6  N4B d   1       1.754  -0.277   0.661  0.00  0.00     0.002 A 
ENDROOT
BRANCH   1   7
ATOM      7  C1' N4B d   1       0.410   0.378  -1.305  0.00  0.00     0.057 C 
BRANCH   7   8
ATOM      8  C2' N4B d   1       0.107  -1.030  -1.809  0.00  0.00     0.009 C 
BRANCH   8   9
ATOM      9  C3' N4B d   1       0.905  -1.371  -3.056  0.00  0.00     0.004 C 
ATOM     10  C4' N4B d   1       1.344  -2.804  -3.091  0.00  0.00     0.003 C 
ENDBRANCH   8   9
ENDBRANCH   7   8
ENDBRANCH   1   7
TORSDOF 3
ENDMDL
