MODEL 1
REMARK minimizedAffinity -6.38890314
REMARK minimizedRMSD -1
REMARK  3 active torsions:
REMARK  status: ('A' for Active; 'I' for Inactive)
REMARK    1  A    between atoms: C3'_2  and  C2'_3 
REMARK    2  A    between atoms: C2'_3  and  C1'_4 
REMARK    3  A    between atoms: C1'_4  and  C1_5 
ROOT
ATOM      1  C1  N4B d   1       0.051  -0.024   0.384  0.00  0.00    -0.075 A 
ATOM      2  C2  N4B d   1       0.934   0.177   1.468  0.00  0.00     0.002 A 
ATOM      3  C3  N4B d   1       0.496  -0.020   2.754  0.00  0.00     0.002 A 
ATOM      4  C4  N4B d   1      -0.819  -0.396   2.982  0.00  0.00    -0.004 A 
ATOM      5  C5  N4B d   1      -1.658  -0.613   1.928  0.00  0.00     0.002 A 
ATOM      6  C6  N4B d   1      -1.231  -0.423   0.629  0.00  0.00     0.002 A 
ENDROOT
BRANCH   1   7
ATOM      7  C1' N4B d   1       0.459   0.262  -1.036  0.00  0.00     0.057 C 
BRANCH   7   8
ATOM      8  C2' N4B d   1      -0.298  -0.675  -1.973  0.00  0.00     0.009 C 
BRANCH   8   9
ATOM      9  C3' N4B d   1       0.606  -1.747  -2.557  0.00  0.00     0.004 C 
ATOM     10  C4' N4B d   1       1.494  -1.227  -3.647  0.00  0.00     0.003 C 
ENDBRANCH   8   9
ENDBRANCH   7   8
ENDBRANCH   1   7
TORSDOF 3
ENDMDL
