MODEL 1
REMARK minimizedAffinity -4.83488607
REMARK minimizedRMSD -1
REMARK  3 active torsions:
REMARK  status: ('A' for Active; 'I' for Inactive)
REMARK    1  A    between atoms: C3'_2  and  C2'_3 
REMARK    2  A    between atoms: C2'_3  and  C1'_4 
REMARK    3  A    between atoms: C1'_4  and  C1_5 
ROOT
ATOM      1  C1  N4B d   1       0.599  -0.240  -1.203  0.00  0.00    -0.075 A 
ATOM      2  C2  N4B d   1       1.272  -1.329  -1.799  0.00  0.00     0.002 A 
ATOM      3  C3  N4B d   1       0.938  -1.730  -3.069  0.00  0.00     0.002 A 
ATOM      4  C4  N4B d   1      -0.073  -1.073  -3.753  0.00  0.00    -0.004 A 
ATOM      5  C5  N4B d   1      -0.701  -0.005  -3.180  0.00  0.00     0.002 A 
ATOM      6  C6  N4B d   1      -0.374   0.411  -1.905  0.00  0.00     0.002 A 
ENDROOT
BRANCH   1   7
ATOM      7  C1' N4B d   1       0.869   0.181   0.216  0.00  0.00     0.057 C 
BRANCH   7   8
ATOM      8  C2' N4B d   1      -0.339  -0.168   1.081  0.00  0.00     0.009 C 
BRANCH   8   9
ATOM      9  C3' N4B d   1       0.049  -0.399   2.531  0.00  0.00     0.004 C 
ATOM     10  C4' N4B d   1      -0.650  -1.580   3.138  0.00  0.00     0.003 C 
ENDBRANCH   8   9
ENDBRANCH   7   8
ENDBRANCH   1   7
TORSDOF 3
ENDMDL
