MODEL 1
REMARK minimizedAffinity -4.9213748
REMARK minimizedRMSD -1
REMARK  3 active torsions:
REMARK  status: ('A' for Active; 'I' for Inactive)
REMARK    1  A    between atoms: C3'_2  and  C2'_3 
REMARK    2  A    between atoms: C2'_3  and  C1'_4 
REMARK    3  A    between atoms: C1'_4  and  C1_5 
ROOT
ATOM      1  C1  N4B d   1      -0.622  -0.058   0.512  0.00  0.00    -0.075 A 
ATOM      2  C2  N4B d   1      -1.918   0.275   0.061  0.00  0.00     0.002 A 
ATOM      3  C3  N4B d   1      -2.947   0.403   0.961  0.00  0.00     0.002 A 
ATOM      4  C4  N4B d   1      -2.709   0.185   2.310  0.00  0.00    -0.004 A 
ATOM      5  C5  N4B d   1      -1.448  -0.111   2.741  0.00  0.00     0.002 A 
ATOM      6  C6  N4B d   1      -0.404  -0.239   1.847  0.00  0.00     0.002 A 
ENDROOT
BRANCH   1   7
ATOM      7  C1' N4B d   1       0.516  -0.293  -0.444  0.00  0.00     0.057 C 
BRANCH   7   8
ATOM      8  C2' N4B d   1       0.035  -0.035  -1.868  0.00  0.00     0.009 C 
BRANCH   8   9
ATOM      9  C3' N4B d   1       0.967  -0.643  -2.902  0.00  0.00     0.004 C 
ATOM     10  C4' N4B d   1       0.291  -1.669  -3.762  0.00  0.00     0.003 C 
ENDBRANCH   8   9
ENDBRANCH   7   8
ENDBRANCH   1   7
TORSDOF 3
ENDMDL
