MODEL 1
REMARK minimizedAffinity -6.28942394
REMARK minimizedRMSD -1
REMARK  3 active torsions:
REMARK  status: ('A' for Active; 'I' for Inactive)
REMARK    1  A    between atoms: C3'_2  and  C2'_3 
REMARK    2  A    between atoms: C2'_3  and  C1'_4 
REMARK    3  A    between atoms: C1'_4  and  C1_5 
ROOT
ATOM      1  C1  N4B d   1      -0.286   0.015   0.727  0.00  0.00    -0.075 A 
ATOM      2  C2  N4B d   1      -0.024  -0.229   2.093  0.00  0.00     0.002 A 
ATOM      3  C3  N4B d   1      -1.065  -0.344   2.982  0.00  0.00     0.002 A 
ATOM      4  C4  N4B d   1      -2.369  -0.200   2.533  0.00  0.00    -0.004 A 
ATOM      5  C5  N4B d   1      -2.615   0.011   1.208  0.00  0.00     0.002 A 
ATOM      6  C6  N4B d   1      -1.579   0.124   0.303  0.00  0.00     0.002 A 
ENDROOT
BRANCH   1   7
ATOM      7  C1' N4B d   1       0.821   0.233  -0.268  0.00  0.00     0.057 C 
BRANCH   7   8
ATOM      8  C2' N4B d   1       0.249   0.151  -1.680  0.00  0.00     0.009 C 
BRANCH   8   9
ATOM      9  C3' N4B d   1       1.274  -0.357  -2.679  0.00  0.00     0.004 C 
ATOM     10  C4' N4B d   1       0.832  -1.607  -3.379  0.00  0.00     0.003 C 
ENDBRANCH   8   9
ENDBRANCH   7   8
ENDBRANCH   1   7
TORSDOF 3
ENDMDL
