MODEL 1
REMARK minimizedAffinity -3.4156661
REMARK minimizedRMSD -1
REMARK  1 active torsions:
REMARK  status: ('A' for Active; 'I' for Inactive)
REMARK    1  A    between atoms: N_2  and  C1_3 
ROOT
ATOM      1  C1  UNL d   1      -0.044   0.675   0.036  0.00  0.00     0.143 A 
ATOM      2  C2  UNL d   1      -0.106   0.503   1.423  0.00  0.00    -0.057 A 
ATOM      3  C3  UNL d   1      -1.277   0.784   2.138  0.00  0.00     0.033 A 
ATOM      4  C4  UNL d   1      -2.401   1.271   1.479  0.00  0.00    -0.042 A 
ATOM      5  C5  UNL d   1      -2.354   1.473   0.104  0.00  0.00     0.033 A 
ATOM      6  C6  UNL d   1      -1.184   1.184  -0.605  0.00  0.00    -0.057 A 
ENDROOT
BRANCH   1   7
ATOM      7  N   UNL d   1       1.120   0.507  -0.717  0.00  0.00    -0.732 N 
ATOM      8  C   UNL d   1       1.529   1.510  -1.677  0.00  0.00     0.284 C 
ATOM      9  H3  UNL d   1       1.885   0.120  -0.169  0.00  0.00     0.395 HD
ENDBRANCH   1   7
TORSDOF 1
ENDMDL
