MODEL 1
REMARK minimizedAffinity -4.29386568
REMARK minimizedRMSD -1
REMARK  1 active torsions:
REMARK  status: ('A' for Active; 'I' for Inactive)
REMARK    1  A    between atoms: N_2  and  C1_3 
ROOT
ATOM      1  C1  UNL d   1      -0.064  -0.035  -0.008  0.00  0.00     0.143 A 
ATOM      2  C2  UNL d   1      -0.017  -0.071   1.390  0.00  0.00    -0.057 A 
ATOM      3  C3  UNL d   1      -0.743   0.843   2.164  0.00  0.00     0.033 A 
ATOM      4  C4  UNL d   1      -1.508   1.830   1.552  0.00  0.00    -0.042 A 
ATOM      5  C5  UNL d   1      -1.549   1.900   0.164  0.00  0.00     0.033 A 
ATOM      6  C6  UNL d   1      -0.827   0.980  -0.604  0.00  0.00    -0.057 A 
ENDROOT
BRANCH   1   7
ATOM      7  N   UNL d   1       0.712  -0.853  -0.833  0.00  0.00    -0.732 N 
ATOM      8  C   UNL d   1       0.098  -1.629  -1.889  0.00  0.00     0.284 C 
ATOM      9  H3  UNL d   1       1.592  -0.415  -1.096  0.00  0.00     0.395 HD
ENDBRANCH   1   7
TORSDOF 1
ENDMDL
