MODEL 1
REMARK minimizedAffinity -4.83969784
REMARK minimizedRMSD -1
REMARK  1 active torsions:
REMARK  status: ('A' for Active; 'I' for Inactive)
REMARK    1  A    between atoms: N_2  and  C1_3 
ROOT
ATOM      1  C1  UNL d   1       0.299   0.352  -0.245  0.00  0.00     0.143 A 
ATOM      2  C2  UNL d   1      -0.535   1.437  -0.538  0.00  0.00    -0.057 A 
ATOM      3  C3  UNL d   1      -1.440   1.932   0.408  0.00  0.00     0.033 A 
ATOM      4  C4  UNL d   1      -1.549   1.331   1.657  0.00  0.00    -0.042 A 
ATOM      5  C5  UNL d   1      -0.749   0.235   1.961  0.00  0.00     0.033 A 
ATOM      6  C6  UNL d   1       0.158  -0.251   1.015  0.00  0.00    -0.057 A 
ENDROOT
BRANCH   1   7
ATOM      7  N   UNL d   1       1.149  -0.249  -1.177  0.00  0.00    -0.732 N 
ATOM      8  C   UNL d   1       1.135  -1.683  -1.370  0.00  0.00     0.284 C 
ATOM      9  H3  UNL d   1       1.221   0.286  -2.039  0.00  0.00     0.395 HD
ENDBRANCH   1   7
TORSDOF 1
ENDMDL
