MODEL 1
REMARK minimizedAffinity 0.0264510587
REMARK minimizedRMSD -1
REMARK  1 active torsions:
REMARK  status: ('A' for Active; 'I' for Inactive)
REMARK    1  A    between atoms: N_2  and  C1_3 
ROOT
ATOM      1  C1  UNL d   1       0.119  -0.365  -0.187  0.00  0.00     0.143 A 
ATOM      2  C2  UNL d   1      -1.109   0.025   0.359  0.00  0.00    -0.057 A 
ATOM      3  C3  UNL d   1      -1.736   1.212  -0.039  0.00  0.00     0.033 A 
ATOM      4  C4  UNL d   1      -1.130   2.047  -0.971  0.00  0.00    -0.042 A 
ATOM      5  C5  UNL d   1       0.102   1.692  -1.508  0.00  0.00     0.033 A 
ATOM      6  C6  UNL d   1       0.720   0.502  -1.112  0.00  0.00    -0.057 A 
ENDROOT
BRANCH   1   7
ATOM      7  N   UNL d   1       0.839  -1.484   0.239  0.00  0.00    -0.732 N 
ATOM      8  C   UNL d   1       1.005  -2.629  -0.630  0.00  0.00     0.284 C 
ATOM      9  H3  UNL d   1       1.677  -1.231   0.758  0.00  0.00     0.395 HD
ENDBRANCH   1   7
TORSDOF 1
ENDMDL
