MODEL 1
REMARK minimizedAffinity -5.0780549
REMARK minimizedRMSD -1
REMARK  1 active torsions:
REMARK  status: ('A' for Active; 'I' for Inactive)
REMARK    1  A    between atoms: N_2  and  C1_3 
ROOT
ATOM      1  C1  UNL d   1      -0.011  -0.126  -0.086  0.00  0.00     0.143 A 
ATOM      2  C2  UNL d   1      -0.053  -0.333   1.297  0.00  0.00    -0.057 A 
ATOM      3  C3  UNL d   1      -0.814   0.493   2.133  0.00  0.00     0.033 A 
ATOM      4  C4  UNL d   1      -1.527   1.563   1.601  0.00  0.00    -0.042 A 
ATOM      5  C5  UNL d   1      -1.480   1.803   0.232  0.00  0.00     0.033 A 
ATOM      6  C6  UNL d   1      -0.723   0.970  -0.598  0.00  0.00    -0.057 A 
ENDROOT
BRANCH   1   7
ATOM      7  N   UNL d   1       0.805  -0.852  -0.956  0.00  0.00    -0.732 N 
ATOM      8  C   UNL d   1       0.380  -2.139  -1.464  0.00  0.00     0.284 C 
ATOM      9  H3  UNL d   1       1.257  -0.260  -1.650  0.00  0.00     0.395 HD
ENDBRANCH   1   7
TORSDOF 1
ENDMDL
