MODEL 1
REMARK minimizedAffinity -4.10752106
REMARK minimizedRMSD -1
REMARK  1 active torsions:
REMARK  status: ('A' for Active; 'I' for Inactive)
REMARK    1  A    between atoms: N_2  and  C1_3 
ROOT
ATOM      1  C1  UNL d   1      -0.984   2.255  -0.281  0.00  0.00     0.143 A 
ATOM      2  C2  UNL d   1      -0.486   0.977  -0.554  0.00  0.00    -0.057 A 
ATOM      3  C3  UNL d   1      -0.261   0.050   0.471  0.00  0.00     0.033 A 
ATOM      4  C4  UNL d   1      -0.504   0.398   1.796  0.00  0.00    -0.042 A 
ATOM      5  C5  UNL d   1      -0.976   1.671   2.094  0.00  0.00     0.033 A 
ATOM      6  C6  UNL d   1      -1.205   2.590   1.064  0.00  0.00    -0.057 A 
ENDROOT
BRANCH   1   7
ATOM      7  N   UNL d   1      -1.136   3.253  -1.246  0.00  0.00    -0.732 N 
ATOM      8  C   UNL d   1      -0.008   3.683  -2.045  0.00  0.00     0.284 C 
ATOM      9  H3  UNL d   1      -2.004   3.160  -1.768  0.00  0.00     0.395 HD
ENDBRANCH   1   7
TORSDOF 1
ENDMDL
