MODEL 1
REMARK minimizedAffinity -4.86520243
REMARK minimizedRMSD -1
REMARK  1 active torsions:
REMARK  status: ('A' for Active; 'I' for Inactive)
REMARK    1  A    between atoms: N_2  and  C1_3 
ROOT
ATOM      1  C1  UNL d   1      -0.812   1.257  -0.077  0.00  0.00     0.143 A 
ATOM      2  C2  UNL d   1      -0.118   2.039  -1.006  0.00  0.00    -0.057 A 
ATOM      3  C3  UNL d   1       1.084   1.598  -1.572  0.00  0.00     0.033 A 
ATOM      4  C4  UNL d   1       1.630   0.375  -1.197  0.00  0.00    -0.042 A 
ATOM      5  C5  UNL d   1       0.970  -0.408  -0.257  0.00  0.00     0.033 A 
ATOM      6  C6  UNL d   1      -0.234   0.035   0.300  0.00  0.00    -0.057 A 
ENDROOT
BRANCH   1   7
ATOM      7  N   UNL d   1      -1.961   1.682   0.595  0.00  0.00    -0.732 N 
ATOM      8  C   UNL d   1      -1.859   2.380   1.859  0.00  0.00     0.284 C 
ATOM      9  H3  UNL d   1      -2.661   2.065  -0.036  0.00  0.00     0.395 HD
ENDBRANCH   1   7
TORSDOF 1
ENDMDL
