MODEL 1
REMARK minimizedAffinity -3.84461951
REMARK minimizedRMSD -1
REMARK  1 active torsions:
REMARK  status: ('A' for Active; 'I' for Inactive)
REMARK    1  A    between atoms: N_2  and  C1_3 
ROOT
ATOM      1  C1  UNL d   1      -0.341  -0.238  -0.101  0.00  0.00     0.143 A 
ATOM      2  C2  UNL d   1       0.435  -0.871   0.876  0.00  0.00    -0.057 A 
ATOM      3  C3  UNL d   1       0.384  -0.470   2.216  0.00  0.00     0.033 A 
ATOM      4  C4  UNL d   1      -0.425   0.595   2.599  0.00  0.00    -0.042 A 
ATOM      5  C5  UNL d   1      -1.185   1.255   1.641  0.00  0.00     0.033 A 
ATOM      6  C6  UNL d   1      -1.135   0.845   0.305  0.00  0.00    -0.057 A 
ENDROOT
BRANCH   1   7
ATOM      7  N   UNL d   1      -0.260  -0.526  -1.466  0.00  0.00    -0.732 N 
ATOM      8  C   UNL d   1       0.175  -1.830  -1.919  0.00  0.00     0.284 C 
ATOM      9  H3  UNL d   1      -1.043  -0.144  -1.991  0.00  0.00     0.395 HD
ENDBRANCH   1   7
TORSDOF 1
ENDMDL
