MODEL 1
REMARK minimizedAffinity -4.79234457
REMARK minimizedRMSD -1
REMARK  1 active torsions:
REMARK  status: ('A' for Active; 'I' for Inactive)
REMARK    1  A    between atoms: N_2  and  C1_3 
ROOT
ATOM      1  C1  UNL d   1      -0.126   0.193   0.227  0.00  0.00     0.143 A 
ATOM      2  C2  UNL d   1       0.063   0.638   1.539  0.00  0.00    -0.057 A 
ATOM      3  C3  UNL d   1      -0.793   1.584   2.116  0.00  0.00     0.033 A 
ATOM      4  C4  UNL d   1      -1.839   2.125   1.377  0.00  0.00    -0.042 A 
ATOM      5  C5  UNL d   1      -2.031   1.717   0.062  0.00  0.00     0.033 A 
ATOM      6  C6  UNL d   1      -1.177   0.767  -0.506  0.00  0.00    -0.057 A 
ENDROOT
BRANCH   1   7
ATOM      7  N   UNL d   1       0.749  -0.672  -0.435  0.00  0.00    -0.732 N 
ATOM      8  C   UNL d   1       0.271  -1.540  -1.490  0.00  0.00     0.284 C 
ATOM      9  H3  UNL d   1       1.650  -0.239  -0.630  0.00  0.00     0.395 HD
ENDBRANCH   1   7
TORSDOF 1
ENDMDL
