MODEL 1
REMARK minimizedAffinity -3.29884577
REMARK minimizedRMSD -1
REMARK  1 active torsions:
REMARK  status: ('A' for Active; 'I' for Inactive)
REMARK    1  A    between atoms: N_2  and  C1_3 
ROOT
ATOM      1  C1  UNL d   1       0.239  -0.080   0.140  0.00  0.00     0.143 A 
ATOM      2  C2  UNL d   1       0.272   0.309   1.483  0.00  0.00    -0.057 A 
ATOM      3  C3  UNL d   1      -0.727   1.126   2.026  0.00  0.00     0.033 A 
ATOM      4  C4  UNL d   1      -1.764   1.593   1.226  0.00  0.00    -0.042 A 
ATOM      5  C5  UNL d   1      -1.803   1.239  -0.118  0.00  0.00     0.033 A 
ATOM      6  C6  UNL d   1      -0.806   0.418  -0.654  0.00  0.00    -0.057 A 
ENDROOT
BRANCH   1   7
ATOM      7  N   UNL d   1       1.255  -0.810  -0.483  0.00  0.00    -0.732 N 
ATOM      8  C   UNL d   1       0.936  -1.878  -1.405  0.00  0.00     0.284 C 
ATOM      9  H3  UNL d   1       2.029  -0.221  -0.782  0.00  0.00     0.395 HD
ENDBRANCH   1   7
TORSDOF 1
ENDMDL
