MODEL 1
REMARK minimizedAffinity -4.72863674
REMARK minimizedRMSD -1
REMARK  1 active torsions:
REMARK  status: ('A' for Active; 'I' for Inactive)
REMARK    1  A    between atoms: N_2  and  C1_3 
ROOT
ATOM      1  C1  UNL d   1      -0.189  -0.023   0.754  0.00  0.00     0.143 A 
ATOM      2  C2  UNL d   1       0.004   0.415   2.069  0.00  0.00    -0.057 A 
ATOM      3  C3  UNL d   1      -0.733   1.483   2.594  0.00  0.00     0.033 A 
ATOM      4  C4  UNL d   1      -1.660   2.153   1.802  0.00  0.00    -0.042 A 
ATOM      5  C5  UNL d   1      -1.851   1.751   0.485  0.00  0.00     0.033 A 
ATOM      6  C6  UNL d   1      -1.116   0.679  -0.032  0.00  0.00    -0.057 A 
ENDROOT
BRANCH   1   7
ATOM      7  N   UNL d   1       0.582  -1.015   0.143  0.00  0.00    -0.732 N 
ATOM      8  C   UNL d   1       0.096  -1.709  -1.030  0.00  0.00     0.284 C 
ATOM      9  H3  UNL d   1       1.569  -0.769   0.102  0.00  0.00     0.395 HD
ENDBRANCH   1   7
TORSDOF 1
ENDMDL
