MODEL 1
REMARK minimizedAffinity -4.186203
REMARK minimizedRMSD -1
REMARK  1 active torsions:
REMARK  status: ('A' for Active; 'I' for Inactive)
REMARK    1  A    between atoms: N_2  and  C1_3 
ROOT
ATOM      1  C1  UNL d   1       0.122   0.925   0.144  0.00  0.00     0.143 A 
ATOM      2  C2  UNL d   1      -0.585   0.238   1.137  0.00  0.00    -0.057 A 
ATOM      3  C3  UNL d   1      -1.402   0.917   2.049  0.00  0.00     0.033 A 
ATOM      4  C4  UNL d   1      -1.504   2.303   2.002  0.00  0.00    -0.042 A 
ATOM      5  C5  UNL d   1      -0.791   3.009   1.039  0.00  0.00     0.033 A 
ATOM      6  C6  UNL d   1       0.018   2.325   0.127  0.00  0.00    -0.057 A 
ENDROOT
BRANCH   1   7
ATOM      7  N   UNL d   1       1.027   0.316  -0.729  0.00  0.00    -0.732 N 
ATOM      8  C   UNL d   1       1.016  -1.118  -0.920  0.00  0.00     0.284 C 
ATOM      9  H3  UNL d   1       1.159   0.849  -1.585  0.00  0.00     0.395 HD
ENDBRANCH   1   7
TORSDOF 1
ENDMDL
