MODEL 1
REMARK minimizedAffinity -3.72845364
REMARK minimizedRMSD -1
REMARK  1 active torsions:
REMARK  status: ('A' for Active; 'I' for Inactive)
REMARK    1  A    between atoms: N_2  and  C1_3 
ROOT
ATOM      1  C1  UNL d   1       0.858  -2.005  -1.535  0.00  0.00     0.143 A 
ATOM      2  C2  UNL d   1       1.299  -3.325  -1.393  0.00  0.00    -0.057 A 
ATOM      3  C3  UNL d   1       1.114  -4.265  -2.414  0.00  0.00     0.033 A 
ATOM      4  C4  UNL d   1       0.456  -3.908  -3.586  0.00  0.00    -0.042 A 
ATOM      5  C5  UNL d   1      -0.012  -2.608  -3.739  0.00  0.00     0.033 A 
ATOM      6  C6  UNL d   1       0.181  -1.672  -2.719  0.00  0.00    -0.057 A 
ENDROOT
BRANCH   1   7
ATOM      7  N   UNL d   1       0.924  -1.049  -0.518  0.00  0.00    -0.732 N 
ATOM      8  C   UNL d   1      -0.211  -0.199  -0.229  0.00  0.00     0.284 C 
ATOM      9  H3  UNL d   1       1.405  -1.395   0.309  0.00  0.00     0.395 HD
ENDBRANCH   1   7
TORSDOF 1
ENDMDL
