MODEL 1
REMARK minimizedAffinity 10.886261
REMARK minimizedRMSD -1
REMARK  0 active torsions:
REMARK  status: ('A' for Active; 'I' for Inactive)
ROOT
ATOM      1  C   UNL d   1      -2.002  -3.231  -2.977  0.00  0.00     0.023 A 
ATOM      2  C1  UNL d   1      -1.886  -4.621  -2.953  0.00  0.00     0.003 A 
ATOM      3  C2  UNL d   1      -3.033  -5.417  -2.906  0.00  0.00     0.048 A 
ATOM      4  C3  UNL d   1      -4.291  -4.817  -2.886  0.00  0.00     0.023 A 
ATOM      5  C4  UNL d   1      -4.411  -3.427  -2.911  0.00  0.00     0.048 A 
ATOM      6  C5  UNL d   1      -3.262  -2.635  -2.957  0.00  0.00     0.003 A 
ATOM      7  I   UNL d   1      -5.999  -6.000  -2.817  0.00  0.00    -0.146 I 
ENDROOT
TORSDOF 0
ENDMDL
