MODEL 1
REMARK minimizedAffinity 12.8598719
REMARK minimizedRMSD -1
REMARK  0 active torsions:
REMARK  status: ('A' for Active; 'I' for Inactive)
ROOT
ATOM      1  C   UNL d   1       2.363   0.608   3.611  0.00  0.00     0.023 A 
ATOM      2  C1  UNL d   1       1.355   1.267   2.907  0.00  0.00     0.003 A 
ATOM      3  C2  UNL d   1       1.516   1.540   1.547  0.00  0.00     0.048 A 
ATOM      4  C3  UNL d   1       2.686   1.149   0.897  0.00  0.00     0.023 A 
ATOM      5  C4  UNL d   1       3.697   0.489   1.597  0.00  0.00     0.048 A 
ATOM      6  C5  UNL d   1       3.532   0.220   2.957  0.00  0.00     0.003 A 
ATOM      7  I   UNL d   1       2.927   1.553  -1.128  0.00  0.00    -0.146 I 
ENDROOT
TORSDOF 0
ENDMDL
