MODEL 1
REMARK minimizedAffinity 9.57884121
REMARK minimizedRMSD -1
REMARK  0 active torsions:
REMARK  status: ('A' for Active; 'I' for Inactive)
ROOT
ATOM      1  C   UNL d   1      -1.817  -3.649  -2.997  0.00  0.00     0.023 A 
ATOM      2  C1  UNL d   1      -3.004  -2.930  -2.859  0.00  0.00     0.003 A 
ATOM      3  C2  UNL d   1      -4.206  -3.603  -2.629  0.00  0.00     0.048 A 
ATOM      4  C3  UNL d   1      -4.213  -4.995  -2.538  0.00  0.00     0.023 A 
ATOM      5  C4  UNL d   1      -3.026  -5.718  -2.675  0.00  0.00     0.048 A 
ATOM      6  C5  UNL d   1      -1.828  -5.041  -2.905  0.00  0.00     0.003 A 
ATOM      7  I   UNL d   1      -6.000  -5.999  -2.195  0.00  0.00    -0.146 I 
ENDROOT
TORSDOF 0
ENDMDL
