MODEL 1
REMARK minimizedAffinity 9.62770844
REMARK minimizedRMSD -1
REMARK  0 active torsions:
REMARK  status: ('A' for Active; 'I' for Inactive)
ROOT
ATOM      1  C   UNL d   1      -5.478   2.991   5.946  0.00  0.00     0.023 A 
ATOM      2  C1  UNL d   1      -6.000   1.698   6.000  0.00  0.00     0.003 A 
ATOM      3  C2  UNL d   1      -5.731   0.792   4.972  0.00  0.00     0.048 A 
ATOM      4  C3  UNL d   1      -4.940   1.185   3.893  0.00  0.00     0.023 A 
ATOM      5  C4  UNL d   1      -4.416   2.477   3.835  0.00  0.00     0.048 A 
ATOM      6  C5  UNL d   1      -4.687   3.380   4.865  0.00  0.00     0.003 A 
ATOM      7  I   UNL d   1      -4.539  -0.162   2.362  0.00  0.00    -0.146 I 
ENDROOT
TORSDOF 0
ENDMDL
