MODEL 1
REMARK minimizedAffinity 12.7202034
REMARK minimizedRMSD -1
REMARK  0 active torsions:
REMARK  status: ('A' for Active; 'I' for Inactive)
ROOT
ATOM      1  C   UNL d   1      -1.124  -2.761  -4.438  0.00  0.00     0.023 A 
ATOM      2  C1  UNL d   1      -2.247  -2.347  -3.721  0.00  0.00     0.003 A 
ATOM      3  C2  UNL d   1      -2.993  -3.275  -2.993  0.00  0.00     0.048 A 
ATOM      4  C3  UNL d   1      -2.611  -4.616  -2.985  0.00  0.00     0.023 A 
ATOM      5  C4  UNL d   1      -1.487  -5.035  -3.699  0.00  0.00     0.048 A 
ATOM      6  C5  UNL d   1      -0.745  -4.103  -4.427  0.00  0.00     0.003 A 
ATOM      7  I   UNL d   1      -3.720  -6.000  -1.901  0.00  0.00    -0.146 I 
ENDROOT
TORSDOF 0
ENDMDL
