MODEL 1
REMARK minimizedAffinity 13.6003113
REMARK minimizedRMSD -1
REMARK  0 active torsions:
REMARK  status: ('A' for Active; 'I' for Inactive)
ROOT
ATOM      1  C   UNL d   1      -2.080  -3.101  -2.856  0.00  0.00     0.023 A 
ATOM      2  C1  UNL d   1      -1.932  -4.469  -2.624  0.00  0.00     0.003 A 
ATOM      3  C2  UNL d   1      -3.056  -5.296  -2.577  0.00  0.00     0.048 A 
ATOM      4  C3  UNL d   1      -4.325  -4.749  -2.764  0.00  0.00     0.023 A 
ATOM      5  C4  UNL d   1      -4.478  -3.381  -2.997  0.00  0.00     0.048 A 
ATOM      6  C5  UNL d   1      -3.351  -2.558  -3.042  0.00  0.00     0.003 A 
ATOM      7  I   UNL d   1      -6.000  -5.978  -2.695  0.00  0.00    -0.146 I 
ENDROOT
TORSDOF 0
ENDMDL
