MODEL 1
REMARK minimizedAffinity 6.93649149
REMARK minimizedRMSD -1
REMARK  0 active torsions:
REMARK  status: ('A' for Active; 'I' for Inactive)
ROOT
ATOM      1  C   UNL d   1       5.190   1.084  -0.388  0.00  0.00     0.023 A 
ATOM      2  C1  UNL d   1       4.156   2.014  -0.498  0.00  0.00     0.003 A 
ATOM      3  C2  UNL d   1       2.975   1.836   0.226  0.00  0.00     0.048 A 
ATOM      4  C3  UNL d   1       2.835   0.726   1.058  0.00  0.00     0.023 A 
ATOM      5  C4  UNL d   1       3.867  -0.207   1.171  0.00  0.00     0.048 A 
ATOM      6  C5  UNL d   1       5.046  -0.026   0.445  0.00  0.00     0.003 A 
ATOM      7  I   UNL d   1       1.079   0.458   2.137  0.00  0.00    -0.146 I 
ENDROOT
TORSDOF 0
ENDMDL
