MODEL 1
REMARK minimizedAffinity 13.6761465
REMARK minimizedRMSD -1
REMARK  0 active torsions:
REMARK  status: ('A' for Active; 'I' for Inactive)
ROOT
ATOM      1  C   UNL d   1      -5.947  -5.590  -2.601  0.00  0.00     0.023 A 
ATOM      2  C1  UNL d   1      -5.998  -4.346  -3.230  0.00  0.00     0.003 A 
ATOM      3  C2  UNL d   1      -4.912  -3.473  -3.141  0.00  0.00     0.048 A 
ATOM      4  C3  UNL d   1      -3.778  -3.850  -2.424  0.00  0.00     0.023 A 
ATOM      5  C4  UNL d   1      -3.722  -5.095  -1.793  0.00  0.00     0.048 A 
ATOM      6  C5  UNL d   1      -4.811  -5.964  -1.884  0.00  0.00     0.003 A 
ATOM      7  I   UNL d   1      -2.160  -2.552  -2.291  0.00  0.00    -0.146 I 
ENDROOT
TORSDOF 0
ENDMDL
