MODEL 1
REMARK minimizedAffinity 10.4895401
REMARK minimizedRMSD -1
REMARK  0 active torsions:
REMARK  status: ('A' for Active; 'I' for Inactive)
ROOT
ATOM      1  C   UNL d   1      -4.670   3.396   3.996  0.00  0.00     0.023 A 
ATOM      2  C1  UNL d   1      -5.002   3.339   5.350  0.00  0.00     0.003 A 
ATOM      3  C2  UNL d   1      -5.385   2.126   5.926  0.00  0.00     0.048 A 
ATOM      4  C3  UNL d   1      -5.431   0.973   5.143  0.00  0.00     0.023 A 
ATOM      5  C4  UNL d   1      -5.099   1.025   3.788  0.00  0.00     0.048 A 
ATOM      6  C5  UNL d   1      -4.719   2.240   3.216  0.00  0.00     0.003 A 
ATOM      7  I   UNL d   1      -6.000  -0.834   5.998  0.00  0.00    -0.146 I 
ENDROOT
TORSDOF 0
ENDMDL
