MODEL 1
REMARK minimizedAffinity 14.5360126
REMARK minimizedRMSD -1
REMARK  0 active torsions:
REMARK  status: ('A' for Active; 'I' for Inactive)
ROOT
ATOM      1  C   UNL d   1       0.659  -0.073   3.239  0.00  0.00     0.023 A 
ATOM      2  C1  UNL d   1      -0.272  -1.029   3.646  0.00  0.00     0.003 A 
ATOM      3  C2  UNL d   1      -1.090  -1.655   2.704  0.00  0.00     0.048 A 
ATOM      4  C3  UNL d   1      -0.970  -1.322   1.355  0.00  0.00     0.023 A 
ATOM      5  C4  UNL d   1      -0.040  -0.367   0.942  0.00  0.00     0.048 A 
ATOM      6  C5  UNL d   1       0.775   0.258   1.889  0.00  0.00     0.003 A 
ATOM      7  I   UNL d   1      -2.186  -2.253  -0.050  0.00  0.00    -0.146 I 
ENDROOT
TORSDOF 0
ENDMDL
