MODEL 1
REMARK minimizedAffinity 22.9226494
REMARK minimizedRMSD -1
REMARK  0 active torsions:
REMARK  status: ('A' for Active; 'I' for Inactive)
ROOT
ATOM      1  C   UNL d   1      -4.034  -5.794  -1.808  0.00  0.00     0.023 A 
ATOM      2  C1  UNL d   1      -5.264  -5.995  -2.436  0.00  0.00     0.003 A 
ATOM      3  C2  UNL d   1      -5.830  -4.977  -3.207  0.00  0.00     0.048 A 
ATOM      4  C3  UNL d   1      -5.160  -3.762  -3.347  0.00  0.00     0.023 A 
ATOM      5  C4  UNL d   1      -3.929  -3.557  -2.721  0.00  0.00     0.048 A 
ATOM      6  C5  UNL d   1      -3.368  -4.577  -1.951  0.00  0.00     0.003 A 
ATOM      7  I   UNL d   1      -6.000  -2.246  -4.494  0.00  0.00    -0.146 I 
ENDROOT
TORSDOF 0
ENDMDL
