MODEL 1
REMARK minimizedAffinity 12.2065268
REMARK minimizedRMSD -1
REMARK  0 active torsions:
REMARK  status: ('A' for Active; 'I' for Inactive)
ROOT
ATOM      1  C   UNL d   1       1.890  -0.056   3.641  0.00  0.00     0.023 A 
ATOM      2  C1  UNL d   1       1.401   0.410   2.421  0.00  0.00     0.003 A 
ATOM      3  C2  UNL d   1       2.183   0.308   1.269  0.00  0.00     0.048 A 
ATOM      4  C3  UNL d   1       3.453  -0.264   1.344  0.00  0.00     0.023 A 
ATOM      5  C4  UNL d   1       3.946  -0.733   2.562  0.00  0.00     0.048 A 
ATOM      6  C5  UNL d   1       3.161  -0.627   3.712  0.00  0.00     0.003 A 
ATOM      7  I   UNL d   1       4.618  -0.418  -0.370  0.00  0.00    -0.146 I 
ENDROOT
TORSDOF 0
ENDMDL
