MODEL 1
REMARK minimizedAffinity 15.6469736
REMARK minimizedRMSD -1
REMARK  0 active torsions:
REMARK  status: ('A' for Active; 'I' for Inactive)
ROOT
ATOM      1  C   UNL d   1       2.024   0.238   1.761  0.00  0.00     0.023 A 
ATOM      2  C1  UNL d   1       1.415   1.442   1.404  0.00  0.00     0.003 A 
ATOM      3  C2  UNL d   1       1.824   2.117   0.252  0.00  0.00     0.048 A 
ATOM      4  C3  UNL d   1       2.842   1.584  -0.538  0.00  0.00     0.023 A 
ATOM      5  C4  UNL d   1       3.453   0.380  -0.185  0.00  0.00     0.048 A 
ATOM      6  C5  UNL d   1       3.042  -0.292   0.968  0.00  0.00     0.003 A 
ATOM      7  I   UNL d   1       3.452   2.588  -2.252  0.00  0.00    -0.146 I 
ENDROOT
TORSDOF 0
ENDMDL
