MODEL 1
REMARK minimizedAffinity 12.6264601
REMARK minimizedRMSD -1
REMARK  0 active torsions:
REMARK  status: ('A' for Active; 'I' for Inactive)
ROOT
ATOM      1  C   UNL d   1      -5.999   5.999   3.842  0.00  0.00     0.023 A 
ATOM      2  C1  UNL d   1      -5.458   5.451   5.005  0.00  0.00     0.003 A 
ATOM      3  C2  UNL d   1      -4.917   4.164   4.986  0.00  0.00     0.048 A 
ATOM      4  C3  UNL d   1      -4.920   3.430   3.800  0.00  0.00     0.023 A 
ATOM      5  C4  UNL d   1      -5.460   3.975   2.634  0.00  0.00     0.048 A 
ATOM      6  C5  UNL d   1      -6.000   5.262   2.658  0.00  0.00     0.003 A 
ATOM      7  I   UNL d   1      -4.115   1.514   3.769  0.00  0.00    -0.146 I 
ENDROOT
TORSDOF 0
ENDMDL
