MODEL 1
REMARK minimizedAffinity 22.2165241
REMARK minimizedRMSD -1
REMARK  0 active torsions:
REMARK  status: ('A' for Active; 'I' for Inactive)
ROOT
ATOM      1  C   UNL d   1      -4.101  -5.964  -1.692  0.00  0.00     0.023 A 
ATOM      2  C1  UNL d   1      -3.313  -4.845  -1.965  0.00  0.00     0.003 A 
ATOM      3  C2  UNL d   1      -3.856  -3.758  -2.653  0.00  0.00     0.048 A 
ATOM      4  C3  UNL d   1      -5.188  -3.796  -3.064  0.00  0.00     0.023 A 
ATOM      5  C4  UNL d   1      -5.980  -4.912  -2.792  0.00  0.00     0.048 A 
ATOM      6  C5  UNL d   1      -5.433  -5.997  -2.105  0.00  0.00     0.003 A 
ATOM      7  I   UNL d   1      -5.999  -2.179  -4.087  0.00  0.00    -0.146 I 
ENDROOT
TORSDOF 0
ENDMDL
