MODEL 1
REMARK minimizedAffinity 5.70807171
REMARK minimizedRMSD -1
REMARK  0 active torsions:
REMARK  status: ('A' for Active; 'I' for Inactive)
ROOT
ATOM      1  C   UNL d   1       2.712   1.135  -0.191  0.00  0.00     0.020 A 
ATOM      2  C1  UNL d   1       1.335   0.979  -0.037  0.00  0.00     0.020 A 
ATOM      3  C2  UNL d   1       0.468   1.393  -1.050  0.00  0.00     0.034 A 
ATOM      4  C3  UNL d   1       0.977   1.964  -2.222  0.00  0.00     0.017 A 
ATOM      5  C4  UNL d   1       2.359   2.120  -2.376  0.00  0.00     0.017 A 
ATOM      6  C5  UNL d   1       3.223   1.704  -1.358  0.00  0.00     0.034 A 
ATOM      7 Cl   UNL d   1       3.061   2.817  -3.793  0.00  0.00    -0.070 Cl
ATOM      8 Cl1  UNL d   1      -0.154   2.453  -3.434  0.00  0.00    -0.070 Cl
ENDROOT
TORSDOF 0
ENDMDL
