MODEL 1
REMARK minimizedAffinity 9.12116146
REMARK minimizedRMSD -1
REMARK  0 active torsions:
REMARK  status: ('A' for Active; 'I' for Inactive)
ROOT
ATOM      1  C   UNL d   1      -1.925   5.647  -5.507  0.00  0.00     0.020 A 
ATOM      2  C1  UNL d   1      -1.806   4.888  -4.343  0.00  0.00     0.020 A 
ATOM      3  C2  UNL d   1      -2.951   4.455  -3.671  0.00  0.00     0.034 A 
ATOM      4  C3  UNL d   1      -4.221   4.780  -4.163  0.00  0.00     0.017 A 
ATOM      5  C4  UNL d   1      -4.339   5.541  -5.331  0.00  0.00     0.017 A 
ATOM      6  C5  UNL d   1      -3.189   5.973  -6.000  0.00  0.00     0.034 A 
ATOM      7 Cl   UNL d   1      -5.871   5.982  -5.999  0.00  0.00    -0.070 Cl
ATOM      8 Cl1  UNL d   1      -5.593   4.210  -3.282  0.00  0.00    -0.070 Cl
ENDROOT
TORSDOF 0
ENDMDL
