MODEL 1
REMARK minimizedAffinity 11.5020285
REMARK minimizedRMSD -1
REMARK  0 active torsions:
REMARK  status: ('A' for Active; 'I' for Inactive)
ROOT
ATOM      1  C   UNL d   1       6.000   5.013  -2.940  0.00  0.00     0.020 A 
ATOM      2  C1  UNL d   1       5.078   4.991  -1.895  0.00  0.00     0.020 A 
ATOM      3  C2  UNL d   1       3.850   4.347  -2.060  0.00  0.00     0.034 A 
ATOM      4  C3  UNL d   1       3.540   3.723  -3.274  0.00  0.00     0.017 A 
ATOM      5  C4  UNL d   1       4.467   3.745  -4.323  0.00  0.00     0.017 A 
ATOM      6  C5  UNL d   1       5.695   4.391  -4.152  0.00  0.00     0.034 A 
ATOM      7 Cl   UNL d   1       4.157   2.997  -5.850  0.00  0.00    -0.070 Cl
ATOM      8 Cl1  UNL d   1       2.003   2.945  -3.409  0.00  0.00    -0.070 Cl
ENDROOT
TORSDOF 0
ENDMDL
