MODEL 1
REMARK minimizedAffinity 15.6263456
REMARK minimizedRMSD -1
REMARK  0 active torsions:
REMARK  status: ('A' for Active; 'I' for Inactive)
ROOT
ATOM      1  C   UNL d   1      -4.382   5.796  -5.981  0.00  0.00     0.020 A 
ATOM      2  C1  UNL d   1      -3.003   6.000  -5.999  0.00  0.00     0.020 A 
ATOM      3  C2  UNL d   1      -2.278   5.979  -4.806  0.00  0.00     0.034 A 
ATOM      4  C3  UNL d   1      -2.932   5.755  -3.589  0.00  0.00     0.017 A 
ATOM      5  C4  UNL d   1      -4.317   5.551  -3.571  0.00  0.00     0.017 A 
ATOM      6  C5  UNL d   1      -5.037   5.572  -4.770  0.00  0.00     0.034 A 
ATOM      7 Cl   UNL d   1      -5.194   5.268  -2.109  0.00  0.00    -0.070 Cl
ATOM      8 Cl1  UNL d   1      -1.973   5.743  -2.152  0.00  0.00    -0.070 Cl
ENDROOT
TORSDOF 0
ENDMDL
