MODEL 1
REMARK minimizedAffinity 12.9923449
REMARK minimizedRMSD -1
REMARK  0 active torsions:
REMARK  status: ('A' for Active; 'I' for Inactive)
ROOT
ATOM      1  C   UNL d   1       4.633   2.273   3.027  0.00  0.00     0.020 A 
ATOM      2  C1  UNL d   1       5.613   3.258   2.912  0.00  0.00     0.020 A 
ATOM      3  C2  UNL d   1       5.999   3.716   1.650  0.00  0.00     0.034 A 
ATOM      4  C3  UNL d   1       5.404   3.188   0.498  0.00  0.00     0.017 A 
ATOM      5  C4  UNL d   1       4.420   2.199   0.614  0.00  0.00     0.017 A 
ATOM      6  C5  UNL d   1       4.038   1.745   1.880  0.00  0.00     0.034 A 
ATOM      7 Cl   UNL d   1       3.641   1.501  -0.761  0.00  0.00    -0.070 Cl
ATOM      8 Cl1  UNL d   1       5.929   3.801  -1.030  0.00  0.00    -0.070 Cl
ENDROOT
TORSDOF 0
ENDMDL
