MODEL 1
REMARK minimizedAffinity 16.1028614
REMARK minimizedRMSD -1
REMARK  0 active torsions:
REMARK  status: ('A' for Active; 'I' for Inactive)
ROOT
ATOM      1  C   UNL d   1      -0.336  -1.816   2.416  0.00  0.00     0.020 A 
ATOM      2  C1  UNL d   1      -1.082  -2.481   1.444  0.00  0.00     0.020 A 
ATOM      3  C2  UNL d   1      -2.256  -1.908   0.950  0.00  0.00     0.034 A 
ATOM      4  C3  UNL d   1      -2.687  -0.665   1.430  0.00  0.00     0.017 A 
ATOM      5  C4  UNL d   1      -1.938   0.001   2.406  0.00  0.00     0.017 A 
ATOM      6  C5  UNL d   1      -0.763  -0.578   2.896  0.00  0.00     0.034 A 
ATOM      7 Cl   UNL d   1      -2.407   1.537   3.045  0.00  0.00    -0.070 Cl
ATOM      8 Cl1  UNL d   1      -4.148  -0.015   0.775  0.00  0.00    -0.070 Cl
ENDROOT
TORSDOF 0
ENDMDL
