MODEL 1
REMARK minimizedAffinity 13.5111113
REMARK minimizedRMSD -1
REMARK  0 active torsions:
REMARK  status: ('A' for Active; 'I' for Inactive)
ROOT
ATOM      1  C   UNL d   1       1.528   1.873  -0.992  0.00  0.00     0.020 A 
ATOM      2  C1  UNL d   1       2.850   1.606  -1.346  0.00  0.00     0.020 A 
ATOM      3  C2  UNL d   1       3.365   2.103  -2.545  0.00  0.00     0.034 A 
ATOM      4  C3  UNL d   1       2.559   2.868  -3.394  0.00  0.00     0.017 A 
ATOM      5  C4  UNL d   1       1.232   3.135  -3.039  0.00  0.00     0.017 A 
ATOM      6  C5  UNL d   1       0.721   2.636  -1.837  0.00  0.00     0.034 A 
ATOM      7 Cl   UNL d   1       0.175   4.072  -4.035  0.00  0.00    -0.070 Cl
ATOM      8 Cl1  UNL d   1       3.262   3.450  -4.861  0.00  0.00    -0.070 Cl
ENDROOT
TORSDOF 0
ENDMDL
