MODEL 1
REMARK minimizedAffinity 14.4533911
REMARK minimizedRMSD -1
REMARK  0 active torsions:
REMARK  status: ('A' for Active; 'I' for Inactive)
ROOT
ATOM      1  C   UNL d   1      -1.471  -2.843   1.360  0.00  0.00     0.020 A 
ATOM      2  C1  UNL d   1      -0.465  -2.032   1.884  0.00  0.00     0.020 A 
ATOM      3  C2  UNL d   1      -0.793  -0.967   2.726  0.00  0.00     0.034 A 
ATOM      4  C3  UNL d   1      -2.131  -0.710   3.046  0.00  0.00     0.017 A 
ATOM      5  C4  UNL d   1      -3.141  -1.524   2.520  0.00  0.00     0.017 A 
ATOM      6  C5  UNL d   1      -2.806  -2.589   1.678  0.00  0.00     0.034 A 
ATOM      7 Cl   UNL d   1      -4.814  -1.269   2.870  0.00  0.00    -0.070 Cl
ATOM      8 Cl1  UNL d   1      -2.465   0.624   4.093  0.00  0.00    -0.070 Cl
ENDROOT
TORSDOF 0
ENDMDL
