MODEL 1
REMARK minimizedAffinity 7.53764677
REMARK minimizedRMSD -1
REMARK  0 active torsions:
REMARK  status: ('A' for Active; 'I' for Inactive)
ROOT
ATOM      1  C   UNL d   1      -1.958   4.948  -0.974  0.00  0.00     0.020 A 
ATOM      2  C1  UNL d   1      -3.026   5.171  -1.843  0.00  0.00     0.020 A 
ATOM      3  C2  UNL d   1      -2.821   5.136  -3.223  0.00  0.00     0.034 A 
ATOM      4  C3  UNL d   1      -1.546   4.877  -3.740  0.00  0.00     0.017 A 
ATOM      5  C4  UNL d   1      -0.476   4.653  -2.867  0.00  0.00     0.017 A 
ATOM      6  C5  UNL d   1      -0.686   4.689  -1.485  0.00  0.00     0.034 A 
ATOM      7 Cl   UNL d   1       1.126   4.328  -3.429  0.00  0.00    -0.070 Cl
ATOM      8 Cl1  UNL d   1      -1.366   4.848  -5.458  0.00  0.00    -0.070 Cl
ENDROOT
TORSDOF 0
ENDMDL
