MODEL 1
REMARK minimizedAffinity 19.3007812
REMARK minimizedRMSD -1
REMARK  0 active torsions:
REMARK  status: ('A' for Active; 'I' for Inactive)
ROOT
ATOM      1  C   UNL d   1       5.615   5.512  -0.988  0.00  0.00     0.020 A 
ATOM      2  C1  UNL d   1       6.000   5.973  -2.247  0.00  0.00     0.020 A 
ATOM      3  C2  UNL d   1       5.621   5.271  -3.393  0.00  0.00     0.034 A 
ATOM      4  C3  UNL d   1       4.855   4.105  -3.283  0.00  0.00     0.017 A 
ATOM      5  C4  UNL d   1       4.470   3.643  -2.020  0.00  0.00     0.017 A 
ATOM      6  C5  UNL d   1       4.852   4.350  -0.875  0.00  0.00     0.034 A 
ATOM      7 Cl   UNL d   1       3.525   2.212  -1.804  0.00  0.00    -0.070 Cl
ATOM      8 Cl1  UNL d   1       4.422   3.288  -4.743  0.00  0.00    -0.070 Cl
ENDROOT
TORSDOF 0
ENDMDL
