MODEL 1
REMARK minimizedAffinity 15.181901
REMARK minimizedRMSD -1
REMARK  0 active torsions:
REMARK  status: ('A' for Active; 'I' for Inactive)
ROOT
ATOM      1  C   UNL d   1      -1.421  -3.177   0.752  0.00  0.00     0.020 A 
ATOM      2  C1  UNL d   1      -0.127  -3.678   0.887  0.00  0.00     0.020 A 
ATOM      3  C2  UNL d   1       0.728  -3.151   1.857  0.00  0.00     0.034 A 
ATOM      4  C3  UNL d   1       0.290  -2.121   2.697  0.00  0.00     0.017 A 
ATOM      5  C4  UNL d   1      -1.009  -1.618   2.561  0.00  0.00     0.017 A 
ATOM      6  C5  UNL d   1      -1.861  -2.149   1.587  0.00  0.00     0.034 A 
ATOM      7 Cl   UNL d   1      -1.621  -0.347   3.560  0.00  0.00    -0.070 Cl
ATOM      8 Cl1  UNL d   1       1.401  -1.517   3.875  0.00  0.00    -0.070 Cl
ENDROOT
TORSDOF 0
ENDMDL
