MODEL 1
REMARK minimizedAffinity 15.7145119
REMARK minimizedRMSD -1
REMARK  0 active torsions:
REMARK  status: ('A' for Active; 'I' for Inactive)
ROOT
ATOM      1  C   UNL d   1       6.000   5.258  -3.520  0.00  0.00     0.020 A 
ATOM      2  C1  UNL d   1       5.483   4.972  -2.257  0.00  0.00     0.020 A 
ATOM      3  C2  UNL d   1       4.400   4.100  -2.127  0.00  0.00     0.034 A 
ATOM      4  C3  UNL d   1       3.830   3.511  -3.262  0.00  0.00     0.017 A 
ATOM      5  C4  UNL d   1       4.350   3.799  -4.529  0.00  0.00     0.017 A 
ATOM      6  C5  UNL d   1       5.435   4.673  -4.653  0.00  0.00     0.034 A 
ATOM      7 Cl   UNL d   1       3.701   3.111  -5.976  0.00  0.00    -0.070 Cl
ATOM      8 Cl1  UNL d   1       2.493   2.442  -3.028  0.00  0.00    -0.070 Cl
ENDROOT
TORSDOF 0
ENDMDL
