MODEL 1
REMARK minimizedAffinity 13.675148
REMARK minimizedRMSD -1
REMARK  0 active torsions:
REMARK  status: ('A' for Active; 'I' for Inactive)
ROOT
ATOM      1  C   UNL d   1       5.158   5.309  -1.804  0.00  0.00     0.020 A 
ATOM      2  C1  UNL d   1       6.000   5.633  -2.868  0.00  0.00     0.020 A 
ATOM      3  C2  UNL d   1       5.790   5.060  -4.124  0.00  0.00     0.034 A 
ATOM      4  C3  UNL d   1       4.735   4.161  -4.320  0.00  0.00     0.017 A 
ATOM      5  C4  UNL d   1       3.891   3.837  -3.252  0.00  0.00     0.017 A 
ATOM      6  C5  UNL d   1       4.105   4.413  -1.996  0.00  0.00     0.034 A 
ATOM      7 Cl   UNL d   1       2.568   2.736  -3.417  0.00  0.00    -0.070 Cl
ATOM      8 Cl1  UNL d   1       4.534   3.491  -5.900  0.00  0.00    -0.070 Cl
ENDROOT
TORSDOF 0
ENDMDL
