MODEL 1
REMARK minimizedAffinity 14.1104412
REMARK minimizedRMSD -1
REMARK  0 active torsions:
REMARK  status: ('A' for Active; 'I' for Inactive)
ROOT
ATOM      1  C   UNL d   1       2.389   1.746   0.790  0.00  0.00     0.020 A 
ATOM      2  C1  UNL d   1       3.135   1.522  -0.366  0.00  0.00     0.020 A 
ATOM      3  C2  UNL d   1       4.244   2.323  -0.647  0.00  0.00     0.034 A 
ATOM      4  C3  UNL d   1       4.609   3.352   0.228  0.00  0.00     0.017 A 
ATOM      5  C4  UNL d   1       3.859   3.576   1.388  0.00  0.00     0.017 A 
ATOM      6  C5  UNL d   1       2.750   2.771   1.665  0.00  0.00     0.034 A 
ATOM      7 Cl   UNL d   1       4.247   4.827   2.517  0.00  0.00    -0.070 Cl
ATOM      8 Cl1  UNL d   1       5.991   4.304  -0.182  0.00  0.00    -0.070 Cl
ENDROOT
TORSDOF 0
ENDMDL
