MODEL 1
REMARK minimizedAffinity 10.0383711
REMARK minimizedRMSD -1
REMARK  0 active torsions:
REMARK  status: ('A' for Active; 'I' for Inactive)
ROOT
ATOM      1  C   UNL d   1      -6.000   0.400  -4.512  0.00  0.00     0.020 A 
ATOM      2  C1  UNL d   1      -5.999  -0.897  -3.999  0.00  0.00     0.020 A 
ATOM      3  C2  UNL d   1      -5.883  -1.104  -2.623  0.00  0.00     0.034 A 
ATOM      4  C3  UNL d   1      -5.767  -0.012  -1.755  0.00  0.00     0.017 A 
ATOM      5  C4  UNL d   1      -5.768   1.289  -2.270  0.00  0.00     0.017 A 
ATOM      6  C5  UNL d   1      -5.885   1.491  -3.649  0.00  0.00     0.034 A 
ATOM      7 Cl   UNL d   1      -5.630   2.686  -1.261  0.00  0.00    -0.070 Cl
ATOM      8 Cl1  UNL d   1      -5.628  -0.342  -0.064  0.00  0.00    -0.070 Cl
ENDROOT
TORSDOF 0
ENDMDL
