MODEL 1
REMARK minimizedAffinity 10.0267124
REMARK minimizedRMSD -1
REMARK  0 active torsions:
REMARK  status: ('A' for Active; 'I' for Inactive)
ROOT
ATOM      1  C   UNL d   1      -1.560   5.993  -5.246  0.00  0.00     0.020 A 
ATOM      2  C1  UNL d   1      -0.827   5.077  -5.999  0.00  0.00     0.020 A 
ATOM      3  C2  UNL d   1       0.015   4.164  -5.361  0.00  0.00     0.034 A 
ATOM      4  C3  UNL d   1       0.127   4.165  -3.966  0.00  0.00     0.017 A 
ATOM      5  C4  UNL d   1      -0.609   5.086  -3.211  0.00  0.00     0.017 A 
ATOM      6  C5  UNL d   1      -1.451   5.998  -3.855  0.00  0.00     0.034 A 
ATOM      7 Cl   UNL d   1      -0.523   5.149  -1.486  0.00  0.00    -0.070 Cl
ATOM      8 Cl1  UNL d   1       1.188   3.008  -3.244  0.00  0.00    -0.070 Cl
ENDROOT
TORSDOF 0
ENDMDL
