MODEL 1
REMARK minimizedAffinity 13.3847475
REMARK minimizedRMSD -1
REMARK  0 active torsions:
REMARK  status: ('A' for Active; 'I' for Inactive)
ROOT
ATOM      1  C   UNL d   1      -2.695   0.825   4.064  0.00  0.00     0.020 A 
ATOM      2  C1  UNL d   1      -3.962   1.264   3.684  0.00  0.00     0.020 A 
ATOM      3  C2  UNL d   1      -4.602   0.685   2.586  0.00  0.00     0.034 A 
ATOM      4  C3  UNL d   1      -3.974  -0.337   1.864  0.00  0.00     0.017 A 
ATOM      5  C4  UNL d   1      -2.701  -0.777   2.246  0.00  0.00     0.017 A 
ATOM      6  C5  UNL d   1      -2.066  -0.193   3.347  0.00  0.00     0.034 A 
ATOM      7 Cl   UNL d   1      -1.863  -2.032   1.405  0.00  0.00    -0.070 Cl
ATOM      8 Cl1  UNL d   1      -4.823  -1.008   0.517  0.00  0.00    -0.070 Cl
ENDROOT
TORSDOF 0
ENDMDL
