MODEL 1
REMARK minimizedAffinity 8.21450329
REMARK minimizedRMSD -1
REMARK  0 active torsions:
REMARK  status: ('A' for Active; 'I' for Inactive)
ROOT
ATOM      1  C   UNL d   1      -5.761  -5.873   5.515  0.00  0.00     0.020 A 
ATOM      2  C1  UNL d   1      -4.945  -4.850   5.996  0.00  0.00     0.020 A 
ATOM      3  C2  UNL d   1      -4.351  -3.953   5.105  0.00  0.00     0.034 A 
ATOM      4  C3  UNL d   1      -4.572  -4.077   3.729  0.00  0.00     0.017 A 
ATOM      5  C4  UNL d   1      -5.392  -5.105   3.247  0.00  0.00     0.017 A 
ATOM      6  C5  UNL d   1      -5.983  -6.000   4.143  0.00  0.00     0.034 A 
ATOM      7 Cl   UNL d   1      -5.711  -5.322   1.562  0.00  0.00    -0.070 Cl
ATOM      8 Cl1  UNL d   1      -3.807  -2.933   2.685  0.00  0.00    -0.070 Cl
ENDROOT
TORSDOF 0
ENDMDL
