MODEL 1
REMARK minimizedAffinity -2.87601566
REMARK minimizedRMSD -1
REMARK  0 active torsions:
REMARK  status: ('A' for Active; 'I' for Inactive)
ROOT
ATOM      1  O1  BZF d   1       1.511  -0.020   0.444  0.00  0.00    -0.204 OA
ATOM      2  C2  BZF d   1       0.272  -0.256  -0.121  0.00  0.00     0.174 A 
ATOM      3  C3  BZF d   1      -0.462   0.876  -0.152  0.00  0.00    -0.012 A 
ATOM      4  C3A BZF d   1       0.405   1.900   0.344  0.00  0.00    -0.107 A 
ATOM      5  C4  BZF d   1       0.255   3.244   0.538  0.00  0.00     0.055 A 
ATOM      6  C5  BZF d   1       1.269   3.946   1.108  0.00  0.00    -0.016 A 
ATOM      7  C6  BZF d   1       2.443   3.337   1.500  0.00  0.00     0.022 A 
ATOM      8  C7  BZF d   1       2.640   2.007   1.323  0.00  0.00     0.029 A 
ATOM      9  C7A BZF d   1       1.630   1.301   0.718  0.00  0.00     0.058 A 
ENDROOT
TORSDOF 0
ENDMDL
