MODEL 1
REMARK minimizedAffinity -3.01545882
REMARK minimizedRMSD -1
REMARK  0 active torsions:
REMARK  status: ('A' for Active; 'I' for Inactive)
ROOT
ATOM      1  O1  BZF d   1       1.299   0.163   0.434  0.00  0.00    -0.204 OA
ATOM      2  C2  BZF d   1       0.052   0.248  -0.156  0.00  0.00     0.174 A 
ATOM      3  C3  BZF d   1      -0.371   1.528  -0.197  0.00  0.00    -0.012 A 
ATOM      4  C3A BZF d   1       0.715   2.300   0.322  0.00  0.00    -0.107 A 
ATOM      5  C4  BZF d   1       0.906   3.638   0.519  0.00  0.00     0.055 A 
ATOM      6  C5  BZF d   1       2.053   4.061   1.113  0.00  0.00    -0.016 A 
ATOM      7  C6  BZF d   1       3.027   3.176   1.525  0.00  0.00     0.022 A 
ATOM      8  C7  BZF d   1       2.885   1.840   1.346  0.00  0.00     0.029 A 
ATOM      9  C7A BZF d   1       1.742   1.411   0.717  0.00  0.00     0.058 A 
ENDROOT
TORSDOF 0
ENDMDL
