MODEL 1
REMARK minimizedAffinity 9.57541752
REMARK minimizedRMSD -1
REMARK  0 active torsions:
REMARK  status: ('A' for Active; 'I' for Inactive)
ROOT
ATOM      1  O1  BZF d   1       1.620   2.260   1.595  0.00  0.00    -0.204 OA
ATOM      2  C2  BZF d   1       0.893   3.339   2.058  0.00  0.00     0.174 A 
ATOM      3  C3  BZF d   1       1.395   4.495   1.578  0.00  0.00    -0.012 A 
ATOM      4  C3A BZF d   1       2.448   4.108   0.690  0.00  0.00    -0.107 A 
ATOM      5  C4  BZF d   1       3.312   4.808  -0.103  0.00  0.00     0.055 A 
ATOM      6  C5  BZF d   1       4.270   4.134  -0.792  0.00  0.00    -0.016 A 
ATOM      7  C6  BZF d   1       4.395   2.763  -0.708  0.00  0.00     0.022 A 
ATOM      8  C7  BZF d   1       3.557   2.025   0.061  0.00  0.00     0.029 A 
ATOM      9  C7A BZF d   1       2.568   2.700   0.733  0.00  0.00     0.058 A 
ENDROOT
TORSDOF 0
ENDMDL
