MODEL 1
REMARK minimizedAffinity -1.49107373
REMARK minimizedRMSD -1
REMARK  0 active torsions:
REMARK  status: ('A' for Active; 'I' for Inactive)
ROOT
ATOM      1  O1  BZF d   1      -0.920  -0.999   1.661  0.00  0.00    -0.204 OA
ATOM      2  C2  BZF d   1      -0.827  -2.356   1.421  0.00  0.00     0.174 A 
ATOM      3  C3  BZF d   1      -0.451  -2.592   0.148  0.00  0.00    -0.012 A 
ATOM      4  C3A BZF d   1      -0.211  -1.300  -0.419  0.00  0.00    -0.107 A 
ATOM      5  C4  BZF d   1       0.202  -0.877  -1.650  0.00  0.00     0.055 A 
ATOM      6  C5  BZF d   1       0.265   0.456  -1.903  0.00  0.00    -0.016 A 
ATOM      7  C6  BZF d   1      -0.081   1.393  -0.952  0.00  0.00     0.022 A 
ATOM      8  C7  BZF d   1      -0.491   1.022   0.285  0.00  0.00     0.029 A 
ATOM      9  C7A BZF d   1      -0.525  -0.324   0.555  0.00  0.00     0.058 A 
ENDROOT
TORSDOF 0
ENDMDL
