MODEL 1
REMARK minimizedAffinity 3.46675301
REMARK minimizedRMSD -1
REMARK  0 active torsions:
REMARK  status: ('A' for Active; 'I' for Inactive)
ROOT
ATOM      1  O1  BZF d   1      -2.153  -0.288   0.696  0.00  0.00    -0.204 OA
ATOM      2  C2  BZF d   1      -2.375   1.054   0.455  0.00  0.00     0.174 A 
ATOM      3  C3  BZF d   1      -1.443   1.550  -0.383  0.00  0.00    -0.012 A 
ATOM      4  C3A BZF d   1      -0.637   0.428  -0.757  0.00  0.00    -0.107 A 
ATOM      5  C4  BZF d   1       0.441   0.280  -1.582  0.00  0.00     0.055 A 
ATOM      6  C5  BZF d   1       1.040  -0.936  -1.672  0.00  0.00    -0.016 A 
ATOM      7  C6  BZF d   1       0.592  -2.023  -0.950  0.00  0.00     0.022 A 
ATOM      8  C7  BZF d   1      -0.477  -1.925  -0.122  0.00  0.00     0.029 A 
ATOM      9  C7A BZF d   1      -1.105  -0.706  -0.054  0.00  0.00     0.058 A 
ENDROOT
TORSDOF 0
ENDMDL
