MODEL 1
REMARK minimizedAffinity 6.58589649
REMARK minimizedRMSD -1
REMARK  0 active torsions:
REMARK  status: ('A' for Active; 'I' for Inactive)
ROOT
ATOM      1  O1  BZF d   1      -0.382  -1.976  -2.233  0.00  0.00    -0.204 OA
ATOM      2  C2  BZF d   1      -1.206  -3.015  -2.618  0.00  0.00     0.174 A 
ATOM      3  C3  BZF d   1      -1.938  -3.457  -1.575  0.00  0.00    -0.012 A 
ATOM      4  C3A BZF d   1      -1.614  -2.582  -0.491  0.00  0.00    -0.107 A 
ATOM      5  C4  BZF d   1      -2.032  -2.500   0.807  0.00  0.00     0.055 A 
ATOM      6  C5  BZF d   1      -1.465  -1.575   1.626  0.00  0.00    -0.016 A 
ATOM      7  C6  BZF d   1      -0.477  -0.721   1.183  0.00  0.00     0.022 A 
ATOM      8  C7  BZF d   1      -0.034  -0.761  -0.097  0.00  0.00     0.029 A 
ATOM      9  C7A BZF d   1      -0.627  -1.672  -0.936  0.00  0.00     0.058 A 
ENDROOT
TORSDOF 0
ENDMDL
