MODEL 1
REMARK minimizedAffinity -0.76835829
REMARK minimizedRMSD -1
REMARK  0 active torsions:
REMARK  status: ('A' for Active; 'I' for Inactive)
ROOT
ATOM      1  O1  BZF d   1       1.170   0.108  -0.419  0.00  0.00    -0.204 OA
ATOM      2  C2  BZF d   1      -0.158  -0.182  -0.169  0.00  0.00     0.174 A 
ATOM      3  C3  BZF d   1      -0.704   0.742   0.647  0.00  0.00    -0.012 A 
ATOM      4  C3A BZF d   1       0.322   1.719   0.850  0.00  0.00    -0.107 A 
ATOM      5  C4  BZF d   1       0.380   2.887   1.555  0.00  0.00     0.055 A 
ATOM      6  C5  BZF d   1       1.555   3.568   1.608  0.00  0.00    -0.016 A 
ATOM      7  C6  BZF d   1       2.690   3.109   0.974  0.00  0.00     0.022 A 
ATOM      8  C7  BZF d   1       2.680   1.958   0.258  0.00  0.00     0.029 A 
ATOM      9  C7A BZF d   1       1.486   1.284   0.175  0.00  0.00     0.058 A 
ENDROOT
TORSDOF 0
ENDMDL
