MODEL 1
REMARK minimizedAffinity -3.97053337
REMARK minimizedRMSD -1
REMARK  0 active torsions:
REMARK  status: ('A' for Active; 'I' for Inactive)
ROOT
ATOM      1  O1  BZF d   1      -1.273  -0.944   0.749  0.00  0.00    -0.204 OA
ATOM      2  C2  BZF d   1      -0.447  -0.014   0.147  0.00  0.00     0.174 A 
ATOM      3  C3  BZF d   1       0.305  -0.592  -0.812  0.00  0.00    -0.012 A 
ATOM      4  C3A BZF d   1      -0.140  -1.951  -0.872  0.00  0.00    -0.107 A 
ATOM      5  C4  BZF d   1       0.215  -3.022  -1.640  0.00  0.00     0.055 A 
ATOM      6  C5  BZF d   1      -0.361  -4.229  -1.399  0.00  0.00    -0.016 A 
ATOM      7  C6  BZF d   1      -1.291  -4.401  -0.394  0.00  0.00     0.022 A 
ATOM      8  C7  BZF d   1      -1.679  -3.366   0.391  0.00  0.00     0.029 A 
ATOM      9  C7A BZF d   1      -1.123  -2.139   0.127  0.00  0.00     0.058 A 
ENDROOT
TORSDOF 0
ENDMDL
