MODEL 1
REMARK minimizedAffinity -1.40584207
REMARK minimizedRMSD -1
REMARK  0 active torsions:
REMARK  status: ('A' for Active; 'I' for Inactive)
ROOT
ATOM      1  O1  BZF d   1       0.808   0.782  -0.818  0.00  0.00    -0.204 OA
ATOM      2  C2  BZF d   1       0.684   1.781   0.129  0.00  0.00     0.174 A 
ATOM      3  C3  BZF d   1      -0.093   1.374   1.154  0.00  0.00    -0.012 A 
ATOM      4  C3A BZF d   1      -0.402   0.006   0.872  0.00  0.00    -0.107 A 
ATOM      5  C4  BZF d   1      -1.127  -0.947   1.529  0.00  0.00     0.055 A 
ATOM      6  C5  BZF d   1      -1.297  -2.164   0.949  0.00  0.00    -0.016 A 
ATOM      7  C6  BZF d   1      -0.761  -2.460  -0.288  0.00  0.00     0.022 A 
ATOM      8  C7  BZF d   1      -0.031  -1.549  -0.975  0.00  0.00     0.029 A 
ATOM      9  C7A BZF d   1       0.170  -0.329  -0.377  0.00  0.00     0.058 A 
ENDROOT
TORSDOF 0
ENDMDL
