MODEL 1
REMARK minimizedAffinity -0.912160456
REMARK minimizedRMSD -1
REMARK  0 active torsions:
REMARK  status: ('A' for Active; 'I' for Inactive)
ROOT
ATOM      1  O1  BZF d   1       0.255   0.561  -1.558  0.00  0.00    -0.204 OA
ATOM      2  C2  BZF d   1       0.321  -0.333  -2.609  0.00  0.00     0.174 A 
ATOM      3  C3  BZF d   1      -0.046  -1.568  -2.209  0.00  0.00    -0.012 A 
ATOM      4  C3A BZF d   1      -0.450  -1.418  -0.845  0.00  0.00    -0.107 A 
ATOM      5  C4  BZF d   1      -0.932  -2.285   0.093  0.00  0.00     0.055 A 
ATOM      6  C5  BZF d   1      -1.160  -1.835   1.355  0.00  0.00    -0.016 A 
ATOM      7  C6  BZF d   1      -0.912  -0.527   1.714  0.00  0.00     0.022 A 
ATOM      8  C7  BZF d   1      -0.438   0.372   0.818  0.00  0.00     0.029 A 
ATOM      9  C7A BZF d   1      -0.238  -0.072  -0.467  0.00  0.00     0.058 A 
ENDROOT
TORSDOF 0
ENDMDL
