MODEL 1
REMARK minimizedAffinity -2.36991286
REMARK minimizedRMSD -1
REMARK  0 active torsions:
REMARK  status: ('A' for Active; 'I' for Inactive)
ROOT
ATOM      1  O1  BZF d   1      -0.056   1.119   1.312  0.00  0.00    -0.204 OA
ATOM      2  C2  BZF d   1       0.499   1.831   0.265  0.00  0.00     0.174 A 
ATOM      3  C3  BZF d   1       0.632   1.050  -0.827  0.00  0.00    -0.012 A 
ATOM      4  C3A BZF d   1       0.044  -0.203  -0.467  0.00  0.00    -0.107 A 
ATOM      5  C4  BZF d   1      -0.142  -1.379  -1.136  0.00  0.00     0.055 A 
ATOM      6  C5  BZF d   1      -0.684  -2.436  -0.476  0.00  0.00    -0.016 A 
ATOM      7  C6  BZF d   1      -1.044  -2.355   0.853  0.00  0.00     0.022 A 
ATOM      8  C7  BZF d   1      -0.884  -1.208   1.558  0.00  0.00     0.029 A 
ATOM      9  C7A BZF d   1      -0.367  -0.128   0.884  0.00  0.00     0.058 A 
ENDROOT
TORSDOF 0
ENDMDL
