MODEL 1
REMARK minimizedAffinity -2.13908601
REMARK minimizedRMSD -1
REMARK  0 active torsions:
REMARK  status: ('A' for Active; 'I' for Inactive)
ROOT
ATOM      1  O1  BZF d   1      -0.248  -1.104  -2.788  0.00  0.00    -0.204 OA
ATOM      2  C2  BZF d   1      -0.510  -2.435  -3.048  0.00  0.00     0.174 A 
ATOM      3  C3  BZF d   1      -0.828  -3.090  -1.913  0.00  0.00    -0.012 A 
ATOM      4  C3A BZF d   1      -0.850  -2.087  -0.893  0.00  0.00    -0.107 A 
ATOM      5  C4  BZF d   1      -1.117  -2.115   0.446  0.00  0.00     0.055 A 
ATOM      6  C5  BZF d   1      -0.980  -0.974   1.171  0.00  0.00    -0.016 A 
ATOM      7  C6  BZF d   1      -0.574   0.210   0.591  0.00  0.00     0.022 A 
ATOM      8  C7  BZF d   1      -0.303   0.288  -0.734  0.00  0.00     0.029 A 
ATOM      9  C7A BZF d   1      -0.472  -0.855  -1.476  0.00  0.00     0.058 A 
ENDROOT
TORSDOF 0
ENDMDL
