MODEL 1
REMARK minimizedAffinity -5.96689415
REMARK minimizedRMSD -1
REMARK  0 active torsions:
REMARK  status: ('A' for Active; 'I' for Inactive)
ROOT
ATOM      1  O1  BZF d   1      -0.032  -0.124  -1.293  0.00  0.00    -0.204 OA
ATOM      2  C2  BZF d   1      -0.180   0.380  -0.015  0.00  0.00     0.174 A 
ATOM      3  C3  BZF d   1      -0.248  -0.620   0.888  0.00  0.00    -0.012 A 
ATOM      4  C3A BZF d   1      -0.043  -1.820   0.137  0.00  0.00    -0.107 A 
ATOM      5  C4  BZF d   1       0.015  -3.142   0.476  0.00  0.00     0.055 A 
ATOM      6  C5  BZF d   1       0.156  -4.070  -0.506  0.00  0.00    -0.016 A 
ATOM      7  C6  BZF d   1       0.236  -3.713  -1.836  0.00  0.00     0.022 A 
ATOM      8  C7  BZF d   1       0.188  -2.415  -2.221  0.00  0.00     0.029 A 
ATOM      9  C7A BZF d   1       0.079  -1.472  -1.228  0.00  0.00     0.058 A 
ENDROOT
TORSDOF 0
ENDMDL
