MODEL 1
REMARK minimizedAffinity -3.26745105
REMARK minimizedRMSD -1
REMARK  0 active torsions:
REMARK  status: ('A' for Active; 'I' for Inactive)
ROOT
ATOM      1  O1  BZF d   1       0.680   1.406   1.069  0.00  0.00    -0.204 OA
ATOM      2  C2  BZF d   1       0.346   1.945  -0.158  0.00  0.00     0.174 A 
ATOM      3  C3  BZF d   1      -0.509   1.138  -0.819  0.00  0.00    -0.012 A 
ATOM      4  C3A BZF d   1      -0.794   0.069   0.088  0.00  0.00    -0.107 A 
ATOM      5  C4  BZF d   1      -1.590  -1.038   0.013  0.00  0.00     0.055 A 
ATOM      6  C5  BZF d   1      -1.589  -1.923   1.045  0.00  0.00    -0.016 A 
ATOM      7  C6  BZF d   1      -0.803  -1.734   2.162  0.00  0.00     0.022 A 
ATOM      8  C7  BZF d   1      -0.000  -0.649   2.284  0.00  0.00     0.029 A 
ATOM      9  C7A BZF d   1      -0.024   0.264   1.258  0.00  0.00     0.058 A 
ENDROOT
TORSDOF 0
ENDMDL
