MODEL 1
REMARK minimizedAffinity -6.35524273
REMARK minimizedRMSD -1
REMARK  0 active torsions:
REMARK  status: ('A' for Active; 'I' for Inactive)
ROOT
ATOM      1  O1  BZF d   1      -0.046   0.128  -1.813  0.00  0.00    -0.204 OA
ATOM      2  C2  BZF d   1      -0.145   0.882  -0.659  0.00  0.00     0.174 A 
ATOM      3  C3  BZF d   1      -0.273   0.087   0.422  0.00  0.00    -0.012 A 
ATOM      4  C3A BZF d   1      -0.160  -1.249  -0.077  0.00  0.00    -0.107 A 
ATOM      5  C4  BZF d   1      -0.189  -2.479   0.516  0.00  0.00     0.055 A 
ATOM      6  C5  BZF d   1      -0.124  -3.590  -0.263  0.00  0.00    -0.016 A 
ATOM      7  C6  BZF d   1      -0.033  -3.508  -1.638  0.00  0.00     0.022 A 
ATOM      8  C7  BZF d   1       0.005  -2.311  -2.271  0.00  0.00     0.029 A 
ATOM      9  C7A BZF d   1      -0.028  -1.186  -1.483  0.00  0.00     0.058 A 
ENDROOT
TORSDOF 0
ENDMDL
