MODEL 1
REMARK minimizedAffinity -2.38958192
REMARK minimizedRMSD -1
REMARK  0 active torsions:
REMARK  status: ('A' for Active; 'I' for Inactive)
ROOT
ATOM      1  O1  BZF d   1       0.039   0.466  -1.115  0.00  0.00    -0.204 OA
ATOM      2  C2  BZF d   1      -0.111   1.587  -0.321  0.00  0.00     0.174 A 
ATOM      3  C3  BZF d   1      -0.650   1.261   0.871  0.00  0.00    -0.012 A 
ATOM      4  C3A BZF d   1      -0.763  -0.165   0.855  0.00  0.00    -0.107 A 
ATOM      5  C4  BZF d   1      -1.213  -1.082   1.762  0.00  0.00     0.055 A 
ATOM      6  C5  BZF d   1      -1.260  -2.393   1.409  0.00  0.00    -0.016 A 
ATOM      7  C6  BZF d   1      -0.869  -2.822   0.157  0.00  0.00     0.022 A 
ATOM      8  C7  BZF d   1      -0.411  -1.951  -0.774  0.00  0.00     0.029 A 
ATOM      9  C7A BZF d   1      -0.332  -0.629  -0.409  0.00  0.00     0.058 A 
ENDROOT
TORSDOF 0
ENDMDL
