MODEL 1
REMARK minimizedAffinity -4.02322674
REMARK minimizedRMSD -1
REMARK  0 active torsions:
REMARK  status: ('A' for Active; 'I' for Inactive)
ROOT
ATOM      1  O1  BZF d   1       0.000  -1.345  -2.442  0.00  0.00    -0.204 OA
ATOM      2  C2  BZF d   1      -0.356  -2.625  -2.822  0.00  0.00     0.174 A 
ATOM      3  C3  BZF d   1      -0.750  -3.349  -1.754  0.00  0.00    -0.012 A 
ATOM      4  C3A BZF d   1      -0.721  -2.438  -0.651  0.00  0.00    -0.107 A 
ATOM      5  C4  BZF d   1      -1.022  -2.560   0.676  0.00  0.00     0.055 A 
ATOM      6  C5  BZF d   1      -0.816  -1.500   1.500  0.00  0.00    -0.016 A 
ATOM      7  C6  BZF d   1      -0.307  -0.306   1.034  0.00  0.00     0.022 A 
ATOM      8  C7  BZF d   1       0.001  -0.135  -0.275  0.00  0.00     0.029 A 
ATOM      9  C7A BZF d   1      -0.236  -1.194  -1.117  0.00  0.00     0.058 A 
ENDROOT
TORSDOF 0
ENDMDL
