MODEL 1
REMARK minimizedAffinity -3.72067523
REMARK minimizedRMSD -1
REMARK  0 active torsions:
REMARK  status: ('A' for Active; 'I' for Inactive)
ROOT
ATOM      1  O1  BZF d   1      -0.132  -0.959  -2.342  0.00  0.00    -0.204 OA
ATOM      2  C2  BZF d   1      -0.492  -2.136  -2.969  0.00  0.00     0.174 A 
ATOM      3  C3  BZF d   1      -0.847  -3.070  -2.063  0.00  0.00    -0.012 A 
ATOM      4  C3A BZF d   1      -0.788  -2.408  -0.796  0.00  0.00    -0.107 A 
ATOM      5  C4  BZF d   1      -1.046  -2.807   0.484  0.00  0.00     0.055 A 
ATOM      6  C5  BZF d   1      -0.820  -1.938   1.504  0.00  0.00    -0.016 A 
ATOM      7  C6  BZF d   1      -0.334  -0.667   1.281  0.00  0.00     0.022 A 
ATOM      8  C7  BZF d   1      -0.068  -0.224   0.028  0.00  0.00     0.029 A 
ATOM      9  C7A BZF d   1      -0.326  -1.089  -1.008  0.00  0.00     0.058 A 
ENDROOT
TORSDOF 0
ENDMDL
