MODEL 1
REMARK minimizedAffinity -2.53273153
REMARK minimizedRMSD -1
REMARK  0 active torsions:
REMARK  status: ('A' for Active; 'I' for Inactive)
ROOT
ATOM      1  O1  BZF d   1       1.500   2.219   2.339  0.00  0.00    -0.204 OA
ATOM      2  C2  BZF d   1       2.112   3.301   1.736  0.00  0.00     0.174 A 
ATOM      3  C3  BZF d   1       1.842   3.328   0.415  0.00  0.00    -0.012 A 
ATOM      4  C3A BZF d   1       0.935   2.244   0.194  0.00  0.00    -0.107 A 
ATOM      5  C4  BZF d   1       0.294   1.767  -0.914  0.00  0.00     0.055 A 
ATOM      6  C5  BZF d   1      -0.467   0.646  -0.805  0.00  0.00    -0.016 A 
ATOM      7  C6  BZF d   1      -0.605  -0.025   0.393  0.00  0.00     0.022 A 
ATOM      8  C7  BZF d   1       0.007   0.413   1.519  0.00  0.00     0.029 A 
ATOM      9  C7A BZF d   1       0.750   1.564   1.420  0.00  0.00     0.058 A 
ENDROOT
TORSDOF 0
ENDMDL
