MODEL 1
REMARK minimizedAffinity -1.01244092
REMARK minimizedRMSD -1
REMARK  1 active torsions:
REMARK  status: ('A' for Active; 'I' for Inactive)
REMARK    1  A    between atoms: C3_4  and  O_7 
ROOT
ATOM      1  C   UNL d   1       4.983   5.116   1.968  0.00  0.00    -0.033 A 
ATOM      2  C1  UNL d   1       4.291   4.280   2.846  0.00  0.00     0.039 A 
ATOM      3  C2  UNL d   1       4.009   2.962   2.481  0.00  0.00    -0.080 A 
ATOM      4  C3  UNL d   1       4.425   2.493   1.238  0.00  0.00     0.150 A 
ATOM      5  C4  UNL d   1       5.119   3.319   0.360  0.00  0.00    -0.007 A 
ATOM      6  C5  UNL d   1       5.398   4.635   0.726  0.00  0.00     0.039 A 
ENDROOT
BRANCH   4   7
ATOM      7  O   UNL d   1       4.169   1.215   0.836  0.00  0.00    -0.526 OA
ATOM      8  H5  UNL d   1       3.658   0.770   1.533  0.00  0.00     0.418 HD
ENDBRANCH   4   7
TORSDOF 1
ENDMDL
