MODEL 1
REMARK minimizedAffinity 5.71864843
REMARK minimizedRMSD -1
REMARK  1 active torsions:
REMARK  status: ('A' for Active; 'I' for Inactive)
REMARK    1  A    between atoms: C3_4  and  O_7 
ROOT
ATOM      1  C   UNL d   1      -2.765   0.029   0.260  0.00  0.00    -0.033 A 
ATOM      2  C1  UNL d   1      -1.817   0.487   1.177  0.00  0.00     0.039 A 
ATOM      3  C2  UNL d   1      -0.720  -0.310   1.507  0.00  0.00    -0.080 A 
ATOM      4  C3  UNL d   1      -0.580  -1.561   0.912  0.00  0.00     0.150 A 
ATOM      5  C4  UNL d   1      -1.518  -2.022  -0.006  0.00  0.00    -0.007 A 
ATOM      6  C5  UNL d   1      -2.614  -1.225  -0.333  0.00  0.00     0.039 A 
ENDROOT
BRANCH   4   7
ATOM      7  O   UNL d   1       0.472  -2.377   1.206  0.00  0.00    -0.526 OA
ATOM      8  H5  UNL d   1       1.023  -1.939   1.877  0.00  0.00     0.418 HD
ENDBRANCH   4   7
TORSDOF 1
ENDMDL
