MODEL 1
REMARK minimizedAffinity -1.1642164
REMARK minimizedRMSD -1
REMARK  1 active torsions:
REMARK  status: ('A' for Active; 'I' for Inactive)
REMARK    1  A    between atoms: C3_4  and  O_7 
ROOT
ATOM      1  C   UNL d   1      -0.246   0.093   1.014  0.00  0.00    -0.033 A 
ATOM      2  C1  UNL d   1       0.061   1.329   0.442  0.00  0.00     0.039 A 
ATOM      3  C2  UNL d   1      -0.614   1.760  -0.701  0.00  0.00    -0.080 A 
ATOM      4  C3  UNL d   1      -1.594   0.946  -1.263  0.00  0.00     0.150 A 
ATOM      5  C4  UNL d   1      -1.908  -0.285  -0.697  0.00  0.00    -0.007 A 
ATOM      6  C5  UNL d   1      -1.232  -0.714   0.445  0.00  0.00     0.039 A 
ENDROOT
BRANCH   4   7
ATOM      7  O   UNL d   1      -2.276   1.321  -2.382  0.00  0.00    -0.526 OA
ATOM      8  H5  UNL d   1      -1.933   2.180  -2.678  0.00  0.00     0.418 HD
ENDBRANCH   4   7
TORSDOF 1
ENDMDL
