MODEL 1
REMARK minimizedAffinity 3.30663633
REMARK minimizedRMSD -1
REMARK  1 active torsions:
REMARK  status: ('A' for Active; 'I' for Inactive)
REMARK    1  A    between atoms: C3_4  and  O_7 
ROOT
ATOM      1  C   UNL d   1      -2.077  -1.013   0.420  0.00  0.00    -0.033 A 
ATOM      2  C1  UNL d   1      -1.642  -2.280   0.027  0.00  0.00     0.039 A 
ATOM      3  C2  UNL d   1      -0.291  -2.619   0.127  0.00  0.00    -0.080 A 
ATOM      4  C3  UNL d   1       0.613  -1.683   0.620  0.00  0.00     0.150 A 
ATOM      5  C4  UNL d   1       0.187  -0.420   1.017  0.00  0.00    -0.007 A 
ATOM      6  C5  UNL d   1      -1.162  -0.083   0.916  0.00  0.00     0.039 A 
ENDROOT
BRANCH   4   7
ATOM      7  O   UNL d   1       1.942  -1.966   0.731  0.00  0.00    -0.526 OA
ATOM      8  H5  UNL d   1       2.095  -2.864   0.393  0.00  0.00     0.418 HD
ENDBRANCH   4   7
TORSDOF 1
ENDMDL
