MODEL 1
REMARK minimizedAffinity 4.55949593
REMARK minimizedRMSD -1
REMARK  1 active torsions:
REMARK  status: ('A' for Active; 'I' for Inactive)
REMARK    1  A    between atoms: C3_4  and  O_7 
ROOT
ATOM      1  C   UNL d   1      -2.751  -0.662   0.610  0.00  0.00    -0.033 A 
ATOM      2  C1  UNL d   1      -2.383  -1.979   0.325  0.00  0.00     0.039 A 
ATOM      3  C2  UNL d   1      -1.184  -2.493   0.821  0.00  0.00    -0.080 A 
ATOM      4  C3  UNL d   1      -0.363  -1.683   1.601  0.00  0.00     0.150 A 
ATOM      5  C4  UNL d   1      -0.725  -0.372   1.892  0.00  0.00    -0.007 A 
ATOM      6  C5  UNL d   1      -1.922   0.141   1.395  0.00  0.00     0.039 A 
ENDROOT
BRANCH   4   7
ATOM      7  O   UNL d   1       0.819  -2.140   2.103  0.00  0.00    -0.526 OA
ATOM      8  H5  UNL d   1       0.952  -3.053   1.797  0.00  0.00     0.418 HD
ENDBRANCH   4   7
TORSDOF 1
ENDMDL
