MODEL 1
REMARK minimizedAffinity 8.81481266
REMARK minimizedRMSD -1
REMARK  1 active torsions:
REMARK  status: ('A' for Active; 'I' for Inactive)
REMARK    1  A    between atoms: C3_4  and  O_7 
ROOT
ATOM      1  C   UNL d   1      -3.216  -1.376   0.469  0.00  0.00    -0.033 A 
ATOM      2  C1  UNL d   1      -2.227  -2.327   0.212  0.00  0.00     0.039 A 
ATOM      3  C2  UNL d   1      -0.993  -2.246   0.860  0.00  0.00    -0.080 A 
ATOM      4  C3  UNL d   1      -0.761  -1.211   1.762  0.00  0.00     0.150 A 
ATOM      5  C4  UNL d   1      -1.743  -0.262   2.025  0.00  0.00    -0.007 A 
ATOM      6  C5  UNL d   1      -2.975  -0.344   1.377  0.00  0.00     0.039 A 
ENDROOT
BRANCH   4   7
ATOM      7  O   UNL d   1       0.430  -1.088   2.414  0.00  0.00    -0.526 OA
ATOM      8  H5  UNL d   1       1.022  -1.797   2.111  0.00  0.00     0.418 HD
ENDBRANCH   4   7
TORSDOF 1
ENDMDL
