MODEL 1
REMARK minimizedAffinity 8.78693104
REMARK minimizedRMSD -1
REMARK  1 active torsions:
REMARK  status: ('A' for Active; 'I' for Inactive)
REMARK    1  A    between atoms: C3_4  and  O_7 
ROOT
ATOM      1  C   UNL d   1       4.541   0.852  -2.551  0.00  0.00    -0.033 A 
ATOM      2  C1  UNL d   1       3.679  -0.005  -3.238  0.00  0.00     0.039 A 
ATOM      3  C2  UNL d   1       2.771   0.512  -4.165  0.00  0.00    -0.080 A 
ATOM      4  C3  UNL d   1       2.737   1.884  -4.396  0.00  0.00     0.150 A 
ATOM      5  C4  UNL d   1       3.595   2.743  -3.717  0.00  0.00    -0.007 A 
ATOM      6  C5  UNL d   1       4.500   2.225  -2.791  0.00  0.00     0.039 A 
ENDROOT
BRANCH   4   7
ATOM      7  O   UNL d   1       1.865   2.435  -5.288  0.00  0.00    -0.526 OA
ATOM      8  H5  UNL d   1       1.316   1.725  -5.659  0.00  0.00     0.418 HD
ENDBRANCH   4   7
TORSDOF 1
ENDMDL
