MODEL 1
REMARK minimizedAffinity 7.17678928
REMARK minimizedRMSD -1
REMARK  1 active torsions:
REMARK  status: ('A' for Active; 'I' for Inactive)
REMARK    1  A    between atoms: C3_4  and  O_7 
ROOT
ATOM      1  C   UNL d   1      -5.091  -2.264  -5.180  0.00  0.00    -0.033 A 
ATOM      2  C1  UNL d   1      -4.296  -1.181  -5.560  0.00  0.00     0.039 A 
ATOM      3  C2  UNL d   1      -4.352   0.015  -4.841  0.00  0.00    -0.080 A 
ATOM      4  C3  UNL d   1      -5.204   0.114  -3.744  0.00  0.00     0.150 A 
ATOM      5  C4  UNL d   1      -5.996  -0.962  -3.358  0.00  0.00    -0.007 A 
ATOM      6  C5  UNL d   1      -5.940  -2.155  -4.078  0.00  0.00     0.039 A 
ENDROOT
BRANCH   4   7
ATOM      7  O   UNL d   1      -5.296   1.262  -3.015  0.00  0.00    -0.526 OA
ATOM      8  H5  UNL d   1      -4.713   1.928  -3.415  0.00  0.00     0.418 HD
ENDBRANCH   4   7
TORSDOF 1
ENDMDL
