MODEL 1
REMARK minimizedAffinity 2.29127192
REMARK minimizedRMSD -1
REMARK  1 active torsions:
REMARK  status: ('A' for Active; 'I' for Inactive)
REMARK    1  A    between atoms: C3_4  and  O_7 
ROOT
ATOM      1  C   UNL d   1       4.181   2.114  -0.063  0.00  0.00    -0.033 A 
ATOM      2  C1  UNL d   1       4.590   2.547  -1.326  0.00  0.00     0.039 A 
ATOM      3  C2  UNL d   1       4.001   2.011  -2.473  0.00  0.00    -0.080 A 
ATOM      4  C3  UNL d   1       3.006   1.047  -2.343  0.00  0.00     0.150 A 
ATOM      5  C4  UNL d   1       2.591   0.614  -1.088  0.00  0.00    -0.007 A 
ATOM      6  C5  UNL d   1       3.181   1.149   0.056  0.00  0.00     0.039 A 
ENDROOT
BRANCH   4   7
ATOM      7  O   UNL d   1       2.405   0.491  -3.434  0.00  0.00    -0.526 OA
ATOM      8  H5  UNL d   1       2.812   0.865  -4.233  0.00  0.00     0.418 HD
ENDBRANCH   4   7
TORSDOF 1
ENDMDL
