MODEL 1
REMARK minimizedAffinity 15.9435549
REMARK minimizedRMSD -1
REMARK  1 active torsions:
REMARK  status: ('A' for Active; 'I' for Inactive)
REMARK    1  A    between atoms: C3_4  and  O_7 
ROOT
ATOM      1  C   UNL d   1       2.218   1.174   0.424  0.00  0.00    -0.033 A 
ATOM      2  C1  UNL d   1       3.555   1.473   0.690  0.00  0.00     0.039 A 
ATOM      3  C2  UNL d   1       4.507   0.453   0.728  0.00  0.00    -0.080 A 
ATOM      4  C3  UNL d   1       4.109  -0.862   0.498  0.00  0.00     0.150 A 
ATOM      5  C4  UNL d   1       2.779  -1.167   0.228  0.00  0.00    -0.007 A 
ATOM      6  C5  UNL d   1       1.830  -0.146   0.192  0.00  0.00     0.039 A 
ENDROOT
BRANCH   4   7
ATOM      7  O   UNL d   1       5.001  -1.892   0.529  0.00  0.00    -0.526 OA
ATOM      8  H5  UNL d   1       5.876  -1.535   0.755  0.00  0.00     0.418 HD
ENDBRANCH   4   7
TORSDOF 1
ENDMDL
