MODEL 1
REMARK minimizedAffinity -0.172091305
REMARK minimizedRMSD -1
REMARK  1 active torsions:
REMARK  status: ('A' for Active; 'I' for Inactive)
REMARK    1  A    between atoms: C3_4  and  O_7 
ROOT
ATOM      1  C   UNL d   1       0.044   1.027  -0.023  0.00  0.00    -0.033 A 
ATOM      2  C1  UNL d   1      -1.034   0.545   0.723  0.00  0.00     0.039 A 
ATOM      3  C2  UNL d   1      -1.011  -0.757   1.224  0.00  0.00    -0.080 A 
ATOM      4  C3  UNL d   1       0.093  -1.567   0.975  0.00  0.00     0.150 A 
ATOM      5  C4  UNL d   1       1.172  -1.093   0.236  0.00  0.00    -0.007 A 
ATOM      6  C5  UNL d   1       1.148   0.208  -0.265  0.00  0.00     0.039 A 
ENDROOT
BRANCH   4   7
ATOM      7  O   UNL d   1       0.158  -2.847   1.440  0.00  0.00    -0.526 OA
ATOM      8  H5  UNL d   1      -0.669  -3.047   1.908  0.00  0.00     0.418 HD
ENDBRANCH   4   7
TORSDOF 1
ENDMDL
