MODEL 1
REMARK minimizedAffinity 3.4316113
REMARK minimizedRMSD -1
REMARK  1 active torsions:
REMARK  status: ('A' for Active; 'I' for Inactive)
REMARK    1  A    between atoms: C3_4  and  O_7 
ROOT
ATOM      1  C   UNL d   1      -2.213  -0.295   0.705  0.00  0.00    -0.033 A 
ATOM      2  C1  UNL d   1      -1.048   0.109   1.359  0.00  0.00     0.039 A 
ATOM      3  C2  UNL d   1       0.059  -0.740   1.407  0.00  0.00    -0.080 A 
ATOM      4  C3  UNL d   1      -0.012  -1.989   0.796  0.00  0.00     0.150 A 
ATOM      5  C4  UNL d   1      -1.168  -2.397   0.139  0.00  0.00    -0.007 A 
ATOM      6  C5  UNL d   1      -2.273  -1.548   0.093  0.00  0.00     0.039 A 
ENDROOT
BRANCH   4   7
ATOM      7  O   UNL d   1       1.042  -2.854   0.819  0.00  0.00    -0.526 OA
ATOM      8  H5  UNL d   1       1.761  -2.450   1.333  0.00  0.00     0.418 HD
ENDBRANCH   4   7
TORSDOF 1
ENDMDL
