MODEL 1
REMARK minimizedAffinity 0.890382111
REMARK minimizedRMSD -1
REMARK  1 active torsions:
REMARK  status: ('A' for Active; 'I' for Inactive)
REMARK    1  A    between atoms: C3_4  and  O_7 
ROOT
ATOM      1  C   UNL d   1      -0.667  -0.897   0.777  0.00  0.00    -0.033 A 
ATOM      2  C1  UNL d   1      -0.306  -0.765   2.120  0.00  0.00     0.039 A 
ATOM      3  C2  UNL d   1      -1.154  -0.105   3.011  0.00  0.00    -0.080 A 
ATOM      4  C3  UNL d   1      -2.359   0.417   2.549  0.00  0.00     0.150 A 
ATOM      5  C4  UNL d   1      -2.727   0.286   1.214  0.00  0.00    -0.007 A 
ATOM      6  C5  UNL d   1      -1.878  -0.372   0.325  0.00  0.00     0.039 A 
ENDROOT
BRANCH   4   7
ATOM      7  O   UNL d   1      -3.217   1.073   3.380  0.00  0.00    -0.526 OA
ATOM      8  H5  UNL d   1      -2.818   1.112   4.266  0.00  0.00     0.418 HD
ENDBRANCH   4   7
TORSDOF 1
ENDMDL
