MODEL 1
REMARK minimizedAffinity 6.3881073
REMARK minimizedRMSD -1
REMARK  1 active torsions:
REMARK  status: ('A' for Active; 'I' for Inactive)
REMARK    1  A    between atoms: C3_4  and  O_7 
ROOT
ATOM      1  C   UNL d   1       2.854   0.006   0.467  0.00  0.00    -0.033 A 
ATOM      2  C1  UNL d   1       1.812  -0.898   0.249  0.00  0.00     0.039 A 
ATOM      3  C2  UNL d   1       2.091  -2.251   0.047  0.00  0.00    -0.080 A 
ATOM      4  C3  UNL d   1       3.412  -2.687   0.067  0.00  0.00     0.150 A 
ATOM      5  C4  UNL d   1       4.455  -1.793   0.287  0.00  0.00    -0.007 A 
ATOM      6  C5  UNL d   1       4.175  -0.442   0.488  0.00  0.00     0.039 A 
ENDROOT
BRANCH   4   7
ATOM      7  O   UNL d   1       3.734  -3.998  -0.130  0.00  0.00    -0.526 OA
ATOM      8  H5  UNL d   1       2.915  -4.493  -0.299  0.00  0.00     0.418 HD
ENDBRANCH   4   7
TORSDOF 1
ENDMDL
