MODEL 1
REMARK minimizedAffinity 1.34541988
REMARK minimizedRMSD -1
REMARK  1 active torsions:
REMARK  status: ('A' for Active; 'I' for Inactive)
REMARK    1  A    between atoms: C3_4  and  O_7 
ROOT
ATOM      1  C   UNL d   1      -0.759   0.833   1.463  0.00  0.00    -0.033 A 
ATOM      2  C1  UNL d   1      -2.115   0.763   1.139  0.00  0.00     0.039 A 
ATOM      3  C2  UNL d   1      -2.689  -0.460   0.788  0.00  0.00    -0.080 A 
ATOM      4  C3  UNL d   1      -1.898  -1.605   0.767  0.00  0.00     0.150 A 
ATOM      5  C4  UNL d   1      -0.547  -1.544   1.093  0.00  0.00    -0.007 A 
ATOM      6  C5  UNL d   1       0.025  -0.321   1.442  0.00  0.00     0.039 A 
ENDROOT
BRANCH   4   7
ATOM      7  O   UNL d   1      -2.412  -2.821   0.427  0.00  0.00    -0.526 OA
ATOM      8  H5  UNL d   1      -3.350  -2.705   0.199  0.00  0.00     0.418 HD
ENDBRANCH   4   7
TORSDOF 1
ENDMDL
