MODEL 1
REMARK minimizedAffinity 5.57490873
REMARK minimizedRMSD -1
REMARK  1 active torsions:
REMARK  status: ('A' for Active; 'I' for Inactive)
REMARK    1  A    between atoms: C3_4  and  O_7 
ROOT
ATOM      1  C   UNL d   1      -4.788  -1.956  -4.385  0.00  0.00    -0.033 A 
ATOM      2  C1  UNL d   1      -5.997  -1.316  -4.108  0.00  0.00     0.039 A 
ATOM      3  C2  UNL d   1      -6.000  -0.038  -3.545  0.00  0.00    -0.080 A 
ATOM      4  C3  UNL d   1      -4.788   0.588  -3.266  0.00  0.00     0.150 A 
ATOM      5  C4  UNL d   1      -3.580  -0.043  -3.544  0.00  0.00    -0.007 A 
ATOM      6  C5  UNL d   1      -3.579  -1.319  -4.105  0.00  0.00     0.039 A 
ENDROOT
BRANCH   4   7
ATOM      7  O   UNL d   1      -4.740   1.833  -2.713  0.00  0.00    -0.526 OA
ATOM      8  H5  UNL d   1      -5.650   2.132  -2.550  0.00  0.00     0.418 HD
ENDBRANCH   4   7
TORSDOF 1
ENDMDL
