MODEL 1
REMARK minimizedAffinity -1.48365259
REMARK minimizedRMSD -1
REMARK  1 active torsions:
REMARK  status: ('A' for Active; 'I' for Inactive)
REMARK    1  A    between atoms: C3_4  and  O_7 
ROOT
ATOM      1  C   UNL d   1      -4.569  -2.029  -5.349  0.00  0.00    -0.033 A 
ATOM      2  C1  UNL d   1      -3.543  -1.126  -5.062  0.00  0.00     0.039 A 
ATOM      3  C2  UNL d   1      -3.745  -0.112  -4.124  0.00  0.00    -0.080 A 
ATOM      4  C3  UNL d   1      -4.975  -0.013  -3.480  0.00  0.00     0.150 A 
ATOM      5  C4  UNL d   1      -6.000  -0.911  -3.758  0.00  0.00    -0.007 A 
ATOM      6  C5  UNL d   1      -5.797  -1.923  -4.695  0.00  0.00     0.039 A 
ENDROOT
BRANCH   4   7
ATOM      7  O   UNL d   1      -5.221   0.963  -2.560  0.00  0.00    -0.526 OA
ATOM      8  H5  UNL d   1      -4.432   1.527  -2.492  0.00  0.00     0.418 HD
ENDBRANCH   4   7
TORSDOF 1
ENDMDL
