MODEL 1
REMARK minimizedAffinity 4.86317348
REMARK minimizedRMSD -1
REMARK  1 active torsions:
REMARK  status: ('A' for Active; 'I' for Inactive)
REMARK    1  A    between atoms: C1_2  and  C2_3 
ROOT
ATOM      1  C2  UNL d   1       4.759  -2.865   4.713  0.00  0.00    -0.076 A 
ATOM      2  C3  UNL d   1       5.211  -3.384   3.487  0.00  0.00     0.004 A 
ATOM      3  C4  UNL d   1       4.525  -3.124   2.301  0.00  0.00    -0.003 A 
ATOM      4  C5  UNL d   1       3.378  -2.339   2.322  0.00  0.00     0.000 A 
ATOM      5  C6  UNL d   1       2.926  -1.801   3.527  0.00  0.00     0.000 A 
ATOM      6  C7  UNL d   1       3.614  -2.041   4.729  0.00  0.00    -0.073 A 
ATOM      7  C8  UNL d   1       3.078  -1.441   5.999  0.00  0.00     0.078 C 
ENDROOT
BRANCH   1   8
ATOM      8  C1  UNL d   1       5.528  -3.204   5.970  0.00  0.00     0.053 C 
ATOM      9  C   UNL d   1       5.997  -4.650   5.994  0.00  0.00     0.018 C 
ENDBRANCH   1   8
TORSDOF 1
ENDMDL
