MODEL 1
REMARK minimizedAffinity 7.04399824
REMARK minimizedRMSD -1
REMARK  1 active torsions:
REMARK  status: ('A' for Active; 'I' for Inactive)
REMARK    1  A    between atoms: C1_2  and  C2_3 
ROOT
ATOM      1  C2  UNL d   1       1.032  -3.313  -3.295  0.00  0.00    -0.076 A 
ATOM      2  C3  UNL d   1       1.121  -4.417  -4.161  0.00  0.00     0.004 A 
ATOM      3  C4  UNL d   1       0.355  -5.561  -3.946  0.00  0.00    -0.003 A 
ATOM      4  C5  UNL d   1      -0.513  -5.621  -2.862  0.00  0.00     0.000 A 
ATOM      5  C6  UNL d   1      -0.628  -4.528  -2.003  0.00  0.00     0.000 A 
ATOM      6  C7  UNL d   1       0.125  -3.360  -2.215  0.00  0.00    -0.073 A 
ATOM      7  C8  UNL d   1      -0.034  -2.215  -1.253  0.00  0.00     0.078 C 
ENDROOT
BRANCH   1   8
ATOM      8  C1  UNL d   1       1.907  -2.109  -3.563  0.00  0.00     0.053 C 
ATOM      9  C   UNL d   1       3.365  -2.360  -3.212  0.00  0.00     0.018 C 
ENDBRANCH   1   8
TORSDOF 1
ENDMDL
