MODEL 1
REMARK minimizedAffinity 4.40628052
REMARK minimizedRMSD -1
REMARK  1 active torsions:
REMARK  status: ('A' for Active; 'I' for Inactive)
REMARK    1  A    between atoms: C1_2  and  C2_3 
ROOT
ATOM      1  C2  UNL d   1       4.035   4.732  -2.451  0.00  0.00    -0.076 A 
ATOM      2  C3  UNL d   1       3.439   4.376  -3.673  0.00  0.00     0.004 A 
ATOM      3  C4  UNL d   1       4.025   4.728  -4.887  0.00  0.00    -0.003 A 
ATOM      4  C5  UNL d   1       5.218   5.442  -4.899  0.00  0.00     0.000 A 
ATOM      5  C6  UNL d   1       5.833   5.789  -3.697  0.00  0.00     0.000 A 
ATOM      6  C7  UNL d   1       5.263   5.427  -2.464  0.00  0.00    -0.073 A 
ATOM      7  C8  UNL d   1       5.966   5.832  -1.197  0.00  0.00     0.078 C 
ENDROOT
BRANCH   1   8
ATOM      8  C1  UNL d   1       3.339   4.346  -1.166  0.00  0.00     0.053 C 
ATOM      9  C   UNL d   1       1.845   4.133  -1.354  0.00  0.00     0.018 C 
ENDBRANCH   1   8
TORSDOF 1
ENDMDL
