MODEL 1
REMARK minimizedAffinity 10.30019
REMARK minimizedRMSD -1
REMARK  1 active torsions:
REMARK  status: ('A' for Active; 'I' for Inactive)
REMARK    1  A    between atoms: C1_2  and  C2_3 
ROOT
ATOM      1  C2  UNL d   1       3.261   4.965  -2.573  0.00  0.00    -0.076 A 
ATOM      2  C3  UNL d   1       4.103   5.972  -2.070  0.00  0.00     0.004 A 
ATOM      3  C4  UNL d   1       5.460   5.996  -2.384  0.00  0.00    -0.003 A 
ATOM      4  C5  UNL d   1       5.999   5.013  -3.207  0.00  0.00     0.000 A 
ATOM      5  C6  UNL d   1       5.176   4.016  -3.729  0.00  0.00     0.000 A 
ATOM      6  C7  UNL d   1       3.801   3.986  -3.435  0.00  0.00    -0.073 A 
ATOM      7  C8  UNL d   1       2.961   2.884  -4.020  0.00  0.00     0.078 C 
ENDROOT
BRANCH   1   8
ATOM      8  C1  UNL d   1       1.802   4.974  -2.176  0.00  0.00     0.053 C 
ATOM      9  C   UNL d   1       1.573   4.401  -0.786  0.00  0.00     0.018 C 
ENDBRANCH   1   8
TORSDOF 1
ENDMDL
