MODEL 1
REMARK minimizedAffinity 2.09960437
REMARK minimizedRMSD -1
REMARK  1 active torsions:
REMARK  status: ('A' for Active; 'I' for Inactive)
REMARK    1  A    between atoms: C1_2  and  C2_3 
ROOT
ATOM      1  C2  UNL d   1       4.261  -3.621   3.297  0.00  0.00    -0.076 A 
ATOM      2  C3  UNL d   1       5.588  -3.926   3.649  0.00  0.00     0.004 A 
ATOM      3  C4  UNL d   1       5.995  -3.922   4.982  0.00  0.00    -0.003 A 
ATOM      4  C5  UNL d   1       5.082  -3.613   5.985  0.00  0.00     0.000 A 
ATOM      5  C6  UNL d   1       3.758  -3.325   5.655  0.00  0.00     0.000 A 
ATOM      6  C7  UNL d   1       3.327  -3.341   4.317  0.00  0.00    -0.073 A 
ATOM      7  C8  UNL d   1       1.889  -3.016   4.018  0.00  0.00     0.078 C 
ENDROOT
BRANCH   1   8
ATOM      8  C1  UNL d   1       3.884  -3.614   1.833  0.00  0.00     0.053 C 
ATOM      9  C   UNL d   1       4.160  -2.276   1.166  0.00  0.00     0.018 C 
ENDBRANCH   1   8
TORSDOF 1
ENDMDL
