MODEL 1
REMARK minimizedAffinity 11.037075
REMARK minimizedRMSD -1
REMARK  1 active torsions:
REMARK  status: ('A' for Active; 'I' for Inactive)
REMARK    1  A    between atoms: C1_2  and  C2_3 
ROOT
ATOM      1  C2  UNL d   1      -1.229  -2.457  -0.441  0.00  0.00    -0.076 A 
ATOM      2  C3  UNL d   1      -2.147  -2.868  -1.424  0.00  0.00     0.004 A 
ATOM      3  C4  UNL d   1      -3.281  -3.603  -1.084  0.00  0.00    -0.003 A 
ATOM      4  C5  UNL d   1      -3.517  -3.939   0.245  0.00  0.00     0.000 A 
ATOM      5  C6  UNL d   1      -2.626  -3.525   1.235  0.00  0.00     0.000 A 
ATOM      6  C7  UNL d   1      -1.486  -2.769   0.911  0.00  0.00    -0.073 A 
ATOM      7  C8  UNL d   1      -0.556  -2.354   2.018  0.00  0.00     0.078 C 
ENDROOT
BRANCH   1   8
ATOM      8  C1  UNL d   1      -0.003  -1.685  -0.873  0.00  0.00     0.053 C 
ATOM      9  C   UNL d   1       0.274  -1.817  -2.363  0.00  0.00     0.018 C 
ENDBRANCH   1   8
TORSDOF 1
ENDMDL
