MODEL 1
REMARK minimizedAffinity 22.571022
REMARK minimizedRMSD -1
REMARK  1 active torsions:
REMARK  status: ('A' for Active; 'I' for Inactive)
REMARK    1  A    between atoms: C1_2  and  C2_3 
ROOT
ATOM      1  C2  UNL d   1       4.131  -2.298   5.029  0.00  0.00    -0.076 A 
ATOM      2  C3  UNL d   1       4.877  -2.989   6.000  0.00  0.00     0.004 A 
ATOM      3  C4  UNL d   1       5.549  -4.169   5.683  0.00  0.00    -0.003 A 
ATOM      4  C5  UNL d   1       5.486  -4.676   4.390  0.00  0.00     0.000 A 
ATOM      5  C6  UNL d   1       4.766  -3.994   3.410  0.00  0.00     0.000 A 
ATOM      6  C7  UNL d   1       4.096  -2.795   3.709  0.00  0.00    -0.073 A 
ATOM      7  C8  UNL d   1       3.329  -2.105   2.615  0.00  0.00     0.078 C 
ENDROOT
BRANCH   1   8
ATOM      8  C1  UNL d   1       3.401  -1.039   5.438  0.00  0.00     0.053 C 
ATOM      9  C   UNL d   1       2.017  -1.324   6.000  0.00  0.00     0.018 C 
ENDBRANCH   1   8
TORSDOF 1
ENDMDL
