MODEL 1
REMARK minimizedAffinity 7.01071358
REMARK minimizedRMSD -1
REMARK  1 active torsions:
REMARK  status: ('A' for Active; 'I' for Inactive)
REMARK    1  A    between atoms: C1_2  and  C2_3 
ROOT
ATOM      1  C2  UNL d   1       4.925   5.160  -3.293  0.00  0.00    -0.076 A 
ATOM      2  C3  UNL d   1       5.701   5.986  -4.126  0.00  0.00     0.004 A 
ATOM      3  C4  UNL d   1       6.000   5.607  -5.433  0.00  0.00    -0.003 A 
ATOM      4  C5  UNL d   1       5.526   4.398  -5.930  0.00  0.00     0.000 A 
ATOM      5  C6  UNL d   1       4.741   3.575  -5.124  0.00  0.00     0.000 A 
ATOM      6  C7  UNL d   1       4.417   3.949  -3.809  0.00  0.00    -0.073 A 
ATOM      7  C8  UNL d   1       3.571   3.020  -2.982  0.00  0.00     0.078 C 
ENDROOT
BRANCH   1   8
ATOM      8  C1  UNL d   1       4.656   5.610  -1.875  0.00  0.00     0.053 C 
ATOM      9  C   UNL d   1       5.934   5.914  -1.108  0.00  0.00     0.018 C 
ENDBRANCH   1   8
TORSDOF 1
ENDMDL
