MODEL 1
REMARK minimizedAffinity 9.70789433
REMARK minimizedRMSD -1
REMARK  1 active torsions:
REMARK  status: ('A' for Active; 'I' for Inactive)
REMARK    1  A    between atoms: C1_2  and  C2_3 
ROOT
ATOM      1  C2  UNL d   1       0.280  -3.579  -3.526  0.00  0.00    -0.076 A 
ATOM      2  C3  UNL d   1      -0.726  -3.130  -2.653  0.00  0.00     0.004 A 
ATOM      3  C4  UNL d   1      -0.488  -2.084  -1.763  0.00  0.00    -0.003 A 
ATOM      4  C5  UNL d   1       0.759  -1.470  -1.732  0.00  0.00     0.000 A 
ATOM      5  C6  UNL d   1       1.763  -1.891  -2.603  0.00  0.00     0.000 A 
ATOM      6  C7  UNL d   1       1.535  -2.933  -3.518  0.00  0.00    -0.073 A 
ATOM      7  C8  UNL d   1       2.656  -3.351  -4.430  0.00  0.00     0.078 C 
ENDROOT
BRANCH   1   8
ATOM      8  C1  UNL d   1      -0.027  -4.736  -4.451  0.00  0.00     0.053 C 
ATOM      9  C   UNL d   1      -0.407  -6.000  -3.696  0.00  0.00     0.018 C 
ENDBRANCH   1   8
TORSDOF 1
ENDMDL
