MODEL 1
REMARK minimizedAffinity 6.32441521
REMARK minimizedRMSD -1
REMARK  1 active torsions:
REMARK  status: ('A' for Active; 'I' for Inactive)
REMARK    1  A    between atoms: C1_2  and  C2_3 
ROOT
ATOM      1  C2  UNL d   1      -0.007  -2.904  -3.462  0.00  0.00    -0.076 A 
ATOM      2  C3  UNL d   1      -0.239  -2.087  -4.582  0.00  0.00     0.004 A 
ATOM      3  C4  UNL d   1      -0.461  -2.643  -5.841  0.00  0.00    -0.003 A 
ATOM      4  C5  UNL d   1      -0.455  -4.024  -6.000  0.00  0.00     0.000 A 
ATOM      5  C6  UNL d   1      -0.244  -4.850  -4.896  0.00  0.00     0.000 A 
ATOM      6  C7  UNL d   1      -0.035  -4.306  -3.617  0.00  0.00    -0.073 A 
ATOM      7  C8  UNL d   1       0.194  -5.243  -2.463  0.00  0.00     0.078 C 
ENDROOT
BRANCH   1   8
ATOM      8  C1  UNL d   1       0.254  -2.244  -2.127  0.00  0.00     0.053 C 
ATOM      9  C   UNL d   1      -1.026  -1.801  -1.435  0.00  0.00     0.018 C 
ENDBRANCH   1   8
TORSDOF 1
ENDMDL
