MODEL 1
REMARK minimizedAffinity 7.24292946
REMARK minimizedRMSD -1
REMARK  1 active torsions:
REMARK  status: ('A' for Active; 'I' for Inactive)
REMARK    1  A    between atoms: C1_2  and  C2_3 
ROOT
ATOM      1  C2  UNL d   1      -0.131  -3.388  -3.289  0.00  0.00    -0.076 A 
ATOM      2  C3  UNL d   1      -0.332  -4.638  -2.679  0.00  0.00     0.004 A 
ATOM      3  C4  UNL d   1      -0.690  -5.755  -3.433  0.00  0.00    -0.003 A 
ATOM      4  C5  UNL d   1      -0.851  -5.640  -4.809  0.00  0.00     0.000 A 
ATOM      5  C6  UNL d   1      -0.638  -4.411  -5.433  0.00  0.00     0.000 A 
ATOM      6  C7  UNL d   1      -0.262  -3.279  -4.690  0.00  0.00    -0.073 A 
ATOM      7  C8  UNL d   1      -0.051  -1.977  -5.414  0.00  0.00     0.078 C 
ENDROOT
BRANCH   1   8
ATOM      8  C1  UNL d   1       0.228  -2.206  -2.417  0.00  0.00     0.053 C 
ATOM      9  C   UNL d   1      -0.240  -2.378  -0.981  0.00  0.00     0.018 C 
ENDBRANCH   1   8
TORSDOF 1
ENDMDL
