MODEL 1
REMARK minimizedAffinity 1.63514113
REMARK minimizedRMSD -1
REMARK  1 active torsions:
REMARK  status: ('A' for Active; 'I' for Inactive)
REMARK    1  A    between atoms: C1_2  and  C2_3 
ROOT
ATOM      1  C2  UNL d   1      -1.981  -1.537   1.297  0.00  0.00    -0.076 A 
ATOM      2  C3  UNL d   1      -0.780  -1.070   0.735  0.00  0.00     0.004 A 
ATOM      3  C4  UNL d   1      -0.398  -1.441  -0.553  0.00  0.00    -0.003 A 
ATOM      4  C5  UNL d   1      -1.212  -2.286  -1.300  0.00  0.00     0.000 A 
ATOM      5  C6  UNL d   1      -2.415  -2.745  -0.765  0.00  0.00     0.000 A 
ATOM      6  C7  UNL d   1      -2.822  -2.367   0.526  0.00  0.00    -0.073 A 
ATOM      7  C8  UNL d   1      -4.127  -2.896   1.055  0.00  0.00     0.078 C 
ENDROOT
BRANCH   1   8
ATOM      8  C1  UNL d   1      -2.330  -1.122   2.709  0.00  0.00     0.053 C 
ATOM      9  C   UNL d   1      -1.946   0.320   3.004  0.00  0.00     0.018 C 
ENDBRANCH   1   8
TORSDOF 1
ENDMDL
