MODEL 1
REMARK minimizedAffinity 5.2762022
REMARK minimizedRMSD -1
REMARK  1 active torsions:
REMARK  status: ('A' for Active; 'I' for Inactive)
REMARK    1  A    between atoms: C1_2  and  C2_3 
ROOT
ATOM      1  C2  UNL d   1       1.603  -1.930  -1.727  0.00  0.00    -0.076 A 
ATOM      2  C3  UNL d   1       1.753  -1.797  -0.335  0.00  0.00     0.004 A 
ATOM      3  C4  UNL d   1       3.014  -1.842   0.257  0.00  0.00    -0.003 A 
ATOM      4  C5  UNL d   1       4.145  -2.019  -0.532  0.00  0.00     0.000 A 
ATOM      5  C6  UNL d   1       4.016  -2.134  -1.916  0.00  0.00     0.000 A 
ATOM      6  C7  UNL d   1       2.753  -2.075  -2.531  0.00  0.00    -0.073 A 
ATOM      7  C8  UNL d   1       2.672  -2.211  -4.027  0.00  0.00     0.078 C 
ENDROOT
BRANCH   1   8
ATOM      8  C1  UNL d   1       0.208  -1.901  -2.310  0.00  0.00     0.053 C 
ATOM      9  C   UNL d   1      -0.829  -2.494  -1.370  0.00  0.00     0.018 C 
ENDBRANCH   1   8
TORSDOF 1
ENDMDL
