MODEL 1
REMARK minimizedAffinity 2.42999291
REMARK minimizedRMSD -1
REMARK  1 active torsions:
REMARK  status: ('A' for Active; 'I' for Inactive)
REMARK    1  A    between atoms: C1_2  and  C2_3 
ROOT
ATOM      1  C2  UNL d   1       3.847   5.175  -3.850  0.00  0.00    -0.076 A 
ATOM      2  C3  UNL d   1       3.856   4.736  -5.185  0.00  0.00     0.004 A 
ATOM      3  C4  UNL d   1       4.923   3.995  -5.690  0.00  0.00    -0.003 A 
ATOM      4  C5  UNL d   1       6.000   3.681  -4.868  0.00  0.00     0.000 A 
ATOM      5  C6  UNL d   1       6.000   4.093  -3.536  0.00  0.00     0.000 A 
ATOM      6  C7  UNL d   1       4.924   4.826  -3.006  0.00  0.00    -0.073 A 
ATOM      7  C8  UNL d   1       4.979   5.250  -1.564  0.00  0.00     0.078 C 
ENDROOT
BRANCH   1   8
ATOM      8  C1  UNL d   1       2.675   5.997  -3.365  0.00  0.00     0.053 C 
ATOM      9  C   UNL d   1       1.759   5.216  -2.436  0.00  0.00     0.018 C 
ENDBRANCH   1   8
TORSDOF 1
ENDMDL
