MODEL 1
REMARK minimizedAffinity 6.33371305
REMARK minimizedRMSD -1
REMARK  1 active torsions:
REMARK  status: ('A' for Active; 'I' for Inactive)
REMARK    1  A    between atoms: C1_2  and  C2_3 
ROOT
ATOM      1  C2  UNL d   1      -1.213  -2.698  -0.430  0.00  0.00    -0.076 A 
ATOM      2  C3  UNL d   1      -2.412  -2.366  -1.084  0.00  0.00     0.004 A 
ATOM      3  C4  UNL d   1      -3.633  -2.420  -0.414  0.00  0.00    -0.003 A 
ATOM      4  C5  UNL d   1      -3.675  -2.806   0.921  0.00  0.00     0.000 A 
ATOM      5  C6  UNL d   1      -2.493  -3.122   1.591  0.00  0.00     0.000 A 
ATOM      6  C7  UNL d   1      -1.252  -3.057   0.935  0.00  0.00    -0.073 A 
ATOM      7  C8  UNL d   1      -0.009  -3.415   1.703  0.00  0.00     0.078 C 
ENDROOT
BRANCH   1   8
ATOM      8  C1  UNL d   1       0.078  -2.648  -1.215  0.00  0.00     0.053 C 
ATOM      9  C   UNL d   1      -0.074  -1.919  -2.541  0.00  0.00     0.018 C 
ENDBRANCH   1   8
TORSDOF 1
ENDMDL
