MODEL 1
REMARK minimizedAffinity 8.00541592
REMARK minimizedRMSD -1
REMARK  1 active torsions:
REMARK  status: ('A' for Active; 'I' for Inactive)
REMARK    1  A    between atoms: C1_2  and  C2_3 
ROOT
ATOM      1  C2  UNL d   1       1.064  -2.345  -2.752  0.00  0.00    -0.076 A 
ATOM      2  C3  UNL d   1       0.777  -1.389  -1.762  0.00  0.00     0.004 A 
ATOM      3  C4  UNL d   1      -0.369  -1.492  -0.976  0.00  0.00    -0.003 A 
ATOM      4  C5  UNL d   1      -1.248  -2.552  -1.167  0.00  0.00     0.000 A 
ATOM      5  C6  UNL d   1      -0.970  -3.520  -2.132  0.00  0.00     0.000 A 
ATOM      6  C7  UNL d   1       0.190  -3.440  -2.922  0.00  0.00    -0.073 A 
ATOM      7  C8  UNL d   1       0.436  -4.508  -3.952  0.00  0.00     0.078 C 
ENDROOT
BRANCH   1   8
ATOM      8  C1  UNL d   1       2.308  -2.168  -3.592  0.00  0.00     0.053 C 
ATOM      9  C   UNL d   1       3.517  -1.758  -2.765  0.00  0.00     0.018 C 
ENDBRANCH   1   8
TORSDOF 1
ENDMDL
