MODEL 1
REMARK minimizedAffinity 7.2414484
REMARK minimizedRMSD -1
REMARK  1 active torsions:
REMARK  status: ('A' for Active; 'I' for Inactive)
REMARK    1  A    between atoms: C1_2  and  C2_3 
ROOT
ATOM      1  C2  UNL d   1      -0.330  -3.320  -3.382  0.00  0.00    -0.076 A 
ATOM      2  C3  UNL d   1      -1.343  -3.884  -2.586  0.00  0.00     0.004 A 
ATOM      3  C4  UNL d   1      -1.577  -3.424  -1.292  0.00  0.00    -0.003 A 
ATOM      4  C5  UNL d   1      -0.804  -2.391  -0.772  0.00  0.00     0.000 A 
ATOM      5  C6  UNL d   1       0.193  -1.809  -1.554  0.00  0.00     0.000 A 
ATOM      6  C7  UNL d   1       0.432  -2.250  -2.867  0.00  0.00    -0.073 A 
ATOM      7  C8  UNL d   1       1.523  -1.589  -3.663  0.00  0.00     0.078 C 
ENDROOT
BRANCH   1   8
ATOM      8  C1  UNL d   1      -0.104  -3.879  -4.769  0.00  0.00     0.053 C 
ATOM      9  C   UNL d   1      -0.979  -5.089  -5.060  0.00  0.00     0.018 C 
ENDBRANCH   1   8
TORSDOF 1
ENDMDL
