MODEL 1
REMARK minimizedAffinity -2.49976182
REMARK minimizedRMSD -1
REMARK  0 active torsions:
REMARK  status: ('A' for Active; 'I' for Inactive)
ROOT
ATOM      1  C1  DEN d   1       1.306   0.268  -0.807  0.00  0.00     0.130 A 
ATOM      2  C2  DEN d   1       0.641   0.076  -2.093  0.00  0.00    -0.031 A 
ATOM      3  C3  DEN d   1      -0.816   0.155  -1.870  0.00  0.00     0.027 A 
ATOM      4  C4  DEN d   1      -2.102   0.558   0.329  0.00  0.00     0.027 A 
ATOM      5  C5  DEN d   1      -1.970   0.766   1.685  0.00  0.00    -0.003 A 
ATOM      6  C6  DEN d   1      -0.749   0.788   2.305  0.00  0.00     0.001 A 
ATOM      7  C7  DEN d   1       0.393   0.644   1.561  0.00  0.00     0.017 A 
ATOM      8  C8  DEN d   1       0.267   0.427   0.195  0.00  0.00    -0.094 A 
ATOM      9  C9  DEN d   1      -0.975   0.420  -0.415  0.00  0.00    -0.072 A 
ENDROOT
TORSDOF 0
ENDMDL
