MODEL 1
REMARK minimizedAffinity -0.967974782
REMARK minimizedRMSD -1
REMARK  0 active torsions:
REMARK  status: ('A' for Active; 'I' for Inactive)
ROOT
ATOM      1  C1  DEN d   1       0.377   1.917   0.243  0.00  0.00     0.130 A 
ATOM      2  C2  DEN d   1       0.182   1.098   1.436  0.00  0.00    -0.031 A 
ATOM      3  C3  DEN d   1       0.192  -0.320   1.024  0.00  0.00     0.027 A 
ATOM      4  C4  DEN d   1       0.492  -1.322  -1.334  0.00  0.00     0.027 A 
ATOM      5  C5  DEN d   1       0.678  -1.023  -2.666  0.00  0.00    -0.003 A 
ATOM      6  C6  DEN d   1       0.741   0.267  -3.122  0.00  0.00     0.001 A 
ATOM      7  C7  DEN d   1       0.664   1.306  -2.233  0.00  0.00     0.017 A 
ATOM      8  C8  DEN d   1       0.469   1.013  -0.890  0.00  0.00    -0.094 A 
ATOM      9  C9  DEN d   1       0.420  -0.298  -0.446  0.00  0.00    -0.072 A 
ENDROOT
TORSDOF 0
ENDMDL
