MODEL 1
REMARK minimizedAffinity -5.71031332
REMARK minimizedRMSD -1
REMARK  0 active torsions:
REMARK  status: ('A' for Active; 'I' for Inactive)
ROOT
ATOM      1  C1  DEN d   1       0.955  -0.768  -3.155  0.00  0.00     0.130 A 
ATOM      2  C2  DEN d   1       1.406   0.347  -3.984  0.00  0.00    -0.031 A 
ATOM      3  C3  DEN d   1       1.392   1.568  -3.153  0.00  0.00     0.027 A 
ATOM      4  C4  DEN d   1       0.724   1.838  -0.677  0.00  0.00     0.027 A 
ATOM      5  C5  DEN d   1       0.262   1.177   0.440  0.00  0.00    -0.003 A 
ATOM      6  C6  DEN d   1      -0.031  -0.161   0.427  0.00  0.00     0.001 A 
ATOM      7  C7  DEN d   1       0.177  -0.890  -0.713  0.00  0.00     0.017 A 
ATOM      8  C8  DEN d   1       0.636  -0.229  -1.845  0.00  0.00    -0.094 A 
ATOM      9  C9  DEN d   1       0.938   1.121  -1.809  0.00  0.00    -0.072 A 
ENDROOT
TORSDOF 0
ENDMDL
