MODEL 1
REMARK minimizedAffinity 0.773769438
REMARK minimizedRMSD -1
REMARK  0 active torsions:
REMARK  status: ('A' for Active; 'I' for Inactive)
ROOT
ATOM      1  C1  DEN d   1      -0.858   1.628  -5.041  0.00  0.00     0.130 A 
ATOM      2  C2  DEN d   1      -2.010   0.745  -4.873  0.00  0.00    -0.031 A 
ATOM      3  C3  DEN d   1      -1.562  -0.640  -5.118  0.00  0.00     0.027 A 
ATOM      4  C4  DEN d   1       0.790  -1.501  -5.734  0.00  0.00     0.027 A 
ATOM      5  C5  DEN d   1       2.088  -1.126  -6.000  0.00  0.00    -0.003 A 
ATOM      6  C6  DEN d   1       2.485   0.185  -5.998  0.00  0.00     0.001 A 
ATOM      7  C7  DEN d   1       1.583   1.166  -5.680  0.00  0.00     0.017 A 
ATOM      8  C8  DEN d   1       0.270   0.797  -5.419  0.00  0.00    -0.094 A 
ATOM      9  C9  DEN d   1      -0.108  -0.535  -5.413  0.00  0.00    -0.072 A 
ENDROOT
TORSDOF 0
ENDMDL
