MODEL 1
REMARK minimizedAffinity -6.41938591
REMARK minimizedRMSD -1
REMARK  0 active torsions:
REMARK  status: ('A' for Active; 'I' for Inactive)
ROOT
ATOM      1  C1  DEN d   1       1.666  -0.422   1.662  0.00  0.00     0.130 A 
ATOM      2  C2  DEN d   1       1.747  -1.145   0.396  0.00  0.00    -0.031 A 
ATOM      3  C3  DEN d   1       0.458  -0.979  -0.307  0.00  0.00     0.027 A 
ATOM      4  C4  DEN d   1      -1.640   0.323   0.437  0.00  0.00     0.027 A 
ATOM      5  C5  DEN d   1      -2.188   1.088   1.443  0.00  0.00    -0.003 A 
ATOM      6  C6  DEN d   1      -1.508   1.373   2.597  0.00  0.00     0.001 A 
ATOM      7  C7  DEN d   1      -0.223   0.927   2.755  0.00  0.00     0.017 A 
ATOM      8  C8  DEN d   1       0.334   0.148   1.749  0.00  0.00    -0.094 A 
ATOM      9  C9  DEN d   1      -0.365  -0.119   0.584  0.00  0.00    -0.072 A 
ENDROOT
TORSDOF 0
ENDMDL
