MODEL 1
REMARK minimizedAffinity -4.76128817
REMARK minimizedRMSD -1
REMARK  0 active torsions:
REMARK  status: ('A' for Active; 'I' for Inactive)
ROOT
ATOM      1  C1  DEN d   1       1.446  -1.051   0.119  0.00  0.00     0.130 A 
ATOM      2  C2  DEN d   1       0.901  -0.689  -1.186  0.00  0.00    -0.031 A 
ATOM      3  C3  DEN d   1      -0.394  -0.013  -0.968  0.00  0.00     0.027 A 
ATOM      4  C4  DEN d   1      -1.597   0.510   1.253  0.00  0.00     0.027 A 
ATOM      5  C5  DEN d   1      -1.529   0.385   2.623  0.00  0.00    -0.003 A 
ATOM      6  C6  DEN d   1      -0.489  -0.252   3.247  0.00  0.00     0.001 A 
ATOM      7  C7  DEN d   1       0.547  -0.749   2.503  0.00  0.00     0.017 A 
ATOM      8  C8  DEN d   1       0.482  -0.634   1.120  0.00  0.00    -0.094 A 
ATOM      9  C9  DEN d   1      -0.571   0.024   0.509  0.00  0.00    -0.072 A 
ENDROOT
TORSDOF 0
ENDMDL
