MODEL 1
REMARK minimizedAffinity -5.30605507
REMARK minimizedRMSD -1
REMARK  0 active torsions:
REMARK  status: ('A' for Active; 'I' for Inactive)
ROOT
ATOM      1  C1  DEN d   1       0.286   1.740   2.599  0.00  0.00     0.130 A 
ATOM      2  C2  DEN d   1      -0.846   1.333   3.427  0.00  0.00    -0.031 A 
ATOM      3  C3  DEN d   1      -1.703   0.439   2.622  0.00  0.00     0.027 A 
ATOM      4  C4  DEN d   1      -1.385  -0.354   0.189  0.00  0.00     0.027 A 
ATOM      5  C5  DEN d   1      -0.579  -0.266  -0.925  0.00  0.00    -0.003 A 
ATOM      6  C6  DEN d   1       0.544   0.518  -0.953  0.00  0.00     0.001 A 
ATOM      7  C7  DEN d   1       0.917   1.209   0.169  0.00  0.00     0.017 A 
ATOM      8  C8  DEN d   1       0.106   1.131   1.293  0.00  0.00    -0.094 A 
ATOM      9  C9  DEN d   1      -1.019   0.323   1.306  0.00  0.00    -0.072 A 
ENDROOT
TORSDOF 0
ENDMDL
