MODEL 1
REMARK minimizedAffinity -0.933492541
REMARK minimizedRMSD -1
REMARK  0 active torsions:
REMARK  status: ('A' for Active; 'I' for Inactive)
ROOT
ATOM      1  N1  IND d   1      -2.227  -1.165   0.324  0.00  0.00    -0.196 N 
ATOM      2  C2  IND d   1      -2.824  -0.881  -0.873  0.00  0.00     0.054 A 
ATOM      3  C3  IND d   1      -1.957  -0.243  -1.691  0.00  0.00    -0.031 A 
ATOM      4  C4  IND d   1       0.520   0.345  -1.311  0.00  0.00     0.051 A 
ATOM      5  C5  IND d   1       1.500   0.318  -0.358  0.00  0.00    -0.031 A 
ATOM      6  C6  IND d   1       1.283  -0.217   0.896  0.00  0.00     0.015 A 
ATOM      7  C7  IND d   1       0.077  -0.759   1.240  0.00  0.00    -0.016 A 
ATOM      8  C8  IND d   1      -0.921  -0.728   0.277  0.00  0.00    -0.047 A 
ATOM      9  C9  IND d   1      -0.721  -0.147  -0.982  0.00  0.00    -0.096 A 
ATOM     10  HN1 IND d   1      -2.603  -1.552   0.993  0.00  0.00     0.298 HD
ENDROOT
TORSDOF 0
ENDMDL
