MODEL 1
REMARK minimizedAffinity -1.63818121
REMARK minimizedRMSD -1
REMARK  0 active torsions:
REMARK  status: ('A' for Active; 'I' for Inactive)
ROOT
ATOM      1  N1  IND d   1      -2.269   0.490  -1.096  0.00  0.00    -0.196 N 
ATOM      2  C2  IND d   1      -3.190  -0.238  -0.394  0.00  0.00     0.054 A 
ATOM      3  C3  IND d   1      -2.569  -1.129   0.411  0.00  0.00    -0.031 A 
ATOM      4  C4  IND d   1      -0.053  -1.496   0.814  0.00  0.00     0.051 A 
ATOM      5  C5  IND d   1       1.177  -1.094   0.376  0.00  0.00    -0.031 A 
ATOM      6  C6  IND d   1       1.325  -0.123  -0.593  0.00  0.00     0.015 A 
ATOM      7  C7  IND d   1       0.243   0.494  -1.154  0.00  0.00    -0.016 A 
ATOM      8  C8  IND d   1      -1.008   0.084  -0.716  0.00  0.00    -0.047 A 
ATOM      9  C9  IND d   1      -1.166  -0.931   0.236  0.00  0.00    -0.096 A 
ATOM     10  HN1 IND d   1      -2.448   1.098  -1.676  0.00  0.00     0.298 HD
ENDROOT
TORSDOF 0
ENDMDL
