MODEL 1
REMARK minimizedAffinity -3.42824244
REMARK minimizedRMSD -1
REMARK  0 active torsions:
REMARK  status: ('A' for Active; 'I' for Inactive)
ROOT
ATOM      1  N1  IND d   1      -3.342  -0.472   0.490  0.00  0.00    -0.196 N 
ATOM      2  C2  IND d   1      -3.910  -0.824  -0.703  0.00  0.00     0.054 A 
ATOM      3  C3  IND d   1      -2.986  -0.803  -1.689  0.00  0.00    -0.031 A 
ATOM      4  C4  IND d   1      -0.461  -0.318  -1.553  0.00  0.00     0.051 A 
ATOM      5  C5  IND d   1       0.513   0.087  -0.684  0.00  0.00    -0.031 A 
ATOM      6  C6  IND d   1       0.247   0.329   0.648  0.00  0.00     0.015 A 
ATOM      7  C7  IND d   1      -1.007   0.163   1.166  0.00  0.00    -0.016 A 
ATOM      8  C8  IND d   1      -2.000  -0.242   0.285  0.00  0.00    -0.047 A 
ATOM      9  C9  IND d   1      -1.744  -0.448  -1.077  0.00  0.00    -0.096 A 
ATOM     10  HN1 IND d   1      -3.754  -0.405   1.242  0.00  0.00     0.298 HD
ENDROOT
TORSDOF 0
ENDMDL
