MODEL 1
REMARK minimizedAffinity -5.2068038
REMARK minimizedRMSD -1
REMARK  0 active torsions:
REMARK  status: ('A' for Active; 'I' for Inactive)
ROOT
ATOM      1  N1  IND d   1       0.622  -1.050   0.374  0.00  0.00    -0.196 N 
ATOM      2  C2  IND d   1       0.660  -0.124  -0.631  0.00  0.00     0.054 A 
ATOM      3  C3  IND d   1      -0.591   0.154  -1.062  0.00  0.00    -0.031 A 
ATOM      4  C4  IND d   1      -2.852  -0.716  -0.192  0.00  0.00     0.051 A 
ATOM      5  C5  IND d   1      -3.396  -1.607   0.690  0.00  0.00    -0.031 A 
ATOM      6  C6  IND d   1      -2.613  -2.371   1.531  0.00  0.00     0.015 A 
ATOM      7  C7  IND d   1      -1.251  -2.264   1.529  0.00  0.00    -0.016 A 
ATOM      8  C8  IND d   1      -0.695  -1.366   0.629  0.00  0.00    -0.047 A 
ATOM      9  C9  IND d   1      -1.482  -0.619  -0.256  0.00  0.00    -0.096 A 
ATOM     10  HN1 IND d   1       1.305  -1.379   0.779  0.00  0.00     0.298 HD
ENDROOT
TORSDOF 0
ENDMDL
