MODEL 1
REMARK minimizedAffinity -5.23018026
REMARK minimizedRMSD -1
REMARK  0 active torsions:
REMARK  status: ('A' for Active; 'I' for Inactive)
ROOT
ATOM      1  N1  IND d   1       0.502  -1.211   0.846  0.00  0.00    -0.196 N 
ATOM      2  C2  IND d   1       0.956  -0.314  -0.080  0.00  0.00     0.054 A 
ATOM      3  C3  IND d   1      -0.031   0.010  -0.945  0.00  0.00    -0.031 A 
ATOM      4  C4  IND d   1      -2.496  -0.733  -0.965  0.00  0.00     0.051 A 
ATOM      5  C5  IND d   1      -3.372  -1.575  -0.339  0.00  0.00    -0.031 A 
ATOM      6  C6  IND d   1      -2.995  -2.352   0.737  0.00  0.00     0.015 A 
ATOM      7  C7  IND d   1      -1.725  -2.308   1.237  0.00  0.00    -0.016 A 
ATOM      8  C8  IND d   1      -0.830  -1.459   0.600  0.00  0.00    -0.047 A 
ATOM      9  C9  IND d   1      -1.196  -0.700  -0.519  0.00  0.00    -0.096 A 
ATOM     10  HN1 IND d   1       0.970  -1.561   1.477  0.00  0.00     0.298 HD
ENDROOT
TORSDOF 0
ENDMDL
