MODEL 1
REMARK minimizedAffinity -4.65386295
REMARK minimizedRMSD -1
REMARK  0 active torsions:
REMARK  status: ('A' for Active; 'I' for Inactive)
ROOT
ATOM      1  N1  IND d   1       0.837   0.828   0.044  0.00  0.00    -0.196 N 
ATOM      2  C2  IND d   1       1.494   0.500  -1.109  0.00  0.00     0.054 A 
ATOM      3  C3  IND d   1       0.677  -0.189  -1.937  0.00  0.00    -0.031 A 
ATOM      4  C4  IND d   1      -1.806  -0.801  -1.647  0.00  0.00     0.051 A 
ATOM      5  C5  IND d   1      -2.830  -0.748  -0.744  0.00  0.00    -0.031 A 
ATOM      6  C6  IND d   1      -2.682  -0.153   0.492  0.00  0.00     0.015 A 
ATOM      7  C7  IND d   1      -1.503   0.425   0.868  0.00  0.00    -0.016 A 
ATOM      8  C8  IND d   1      -0.458   0.367  -0.044  0.00  0.00    -0.047 A 
ATOM      9  C9  IND d   1      -0.590  -0.274  -1.283  0.00  0.00    -0.096 A 
ATOM     10  HN1 IND d   1       1.175   1.252   0.711  0.00  0.00     0.298 HD
ENDROOT
TORSDOF 0
ENDMDL
