MODEL 1
REMARK minimizedAffinity -4.39670324
REMARK minimizedRMSD -1
REMARK  0 active torsions:
REMARK  status: ('A' for Active; 'I' for Inactive)
ROOT
ATOM      1  N1  IND d   1       0.837  -0.694   0.973  0.00  0.00    -0.196 N 
ATOM      2  C2  IND d   1       1.553   0.048   0.075  0.00  0.00     0.054 A 
ATOM      3  C3  IND d   1       0.749   0.490  -0.917  0.00  0.00    -0.031 A 
ATOM      4  C4  IND d   1      -1.792   0.202  -1.215  0.00  0.00     0.051 A 
ATOM      5  C5  IND d   1      -2.876  -0.429  -0.670  0.00  0.00    -0.031 A 
ATOM      6  C6  IND d   1      -2.776  -1.193   0.474  0.00  0.00     0.015 A 
ATOM      7  C7  IND d   1      -1.585  -1.347   1.126  0.00  0.00    -0.016 A 
ATOM      8  C8  IND d   1      -0.481  -0.714   0.573  0.00  0.00    -0.047 A 
ATOM      9  C9  IND d   1      -0.569   0.028  -0.612  0.00  0.00    -0.096 A 
ATOM     10  HN1 IND d   1       1.156  -1.083   1.670  0.00  0.00     0.298 HD
ENDROOT
TORSDOF 0
ENDMDL
