MODEL 1
REMARK minimizedAffinity 1.08112991
REMARK minimizedRMSD -1
REMARK  0 active torsions:
REMARK  status: ('A' for Active; 'I' for Inactive)
ROOT
ATOM      1  N1  IND d   1       0.017  -1.405   1.352  0.00  0.00    -0.196 N 
ATOM      2  C2  IND d   1       1.247  -0.818   1.459  0.00  0.00     0.054 A 
ATOM      3  C3  IND d   1       1.451   0.037   0.431  0.00  0.00    -0.031 A 
ATOM      4  C4  IND d   1      -0.137   0.704  -1.481  0.00  0.00     0.051 A 
ATOM      5  C5  IND d   1      -1.357   0.408  -2.021  0.00  0.00    -0.031 A 
ATOM      6  C6  IND d   1      -2.200  -0.525  -1.452  0.00  0.00     0.015 A 
ATOM      7  C7  IND d   1      -1.857  -1.190  -0.309  0.00  0.00    -0.016 A 
ATOM      8  C8  IND d   1      -0.616  -0.897   0.238  0.00  0.00    -0.047 A 
ATOM      9  C9  IND d   1       0.261   0.017  -0.359  0.00  0.00    -0.096 A 
ATOM     10  HN1 IND d   1      -0.308  -1.992   1.890  0.00  0.00     0.298 HD
ENDROOT
TORSDOF 0
ENDMDL
