MODEL 1
REMARK minimizedAffinity 0.848412693
REMARK minimizedRMSD -1
REMARK  0 active torsions:
REMARK  status: ('A' for Active; 'I' for Inactive)
ROOT
ATOM      1  N1  IND d   1       2.098  -1.478   0.099  0.00  0.00    -0.196 N 
ATOM      2  C2  IND d   1       2.514  -0.434  -0.680  0.00  0.00     0.054 A 
ATOM      3  C3  IND d   1       1.623   0.581  -0.620  0.00  0.00    -0.031 A 
ATOM      4  C4  IND d   1      -0.535   0.784   0.770  0.00  0.00     0.051 A 
ATOM      5  C5  IND d   1      -1.349   0.072   1.606  0.00  0.00    -0.031 A 
ATOM      6  C6  IND d   1      -1.048  -1.218   1.992  0.00  0.00     0.015 A 
ATOM      7  C7  IND d   1       0.089  -1.843   1.564  0.00  0.00    -0.016 A 
ATOM      8  C8  IND d   1       0.914  -1.126   0.709  0.00  0.00    -0.047 A 
ATOM      9  C9  IND d   1       0.593   0.168   0.280  0.00  0.00    -0.096 A 
ATOM     10  HN1 IND d   1       2.506  -2.229   0.191  0.00  0.00     0.298 HD
ENDROOT
TORSDOF 0
ENDMDL
