MODEL 1
REMARK minimizedAffinity -5.94331408
REMARK minimizedRMSD -1
REMARK  0 active torsions:
REMARK  status: ('A' for Active; 'I' for Inactive)
ROOT
ATOM      1  N1  IND d   1       0.480  -1.093   0.764  0.00  0.00    -0.196 N 
ATOM      2  C2  IND d   1       0.782   0.000   0.000  0.00  0.00     0.054 A 
ATOM      3  C3  IND d   1      -0.276   0.343  -0.769  0.00  0.00    -0.031 A 
ATOM      4  C4  IND d   1      -2.633  -0.687  -0.862  0.00  0.00     0.051 A 
ATOM      5  C5  IND d   1      -3.374  -1.727  -0.375  0.00  0.00    -0.031 A 
ATOM      6  C6  IND d   1      -2.859  -2.625   0.537  0.00  0.00     0.015 A 
ATOM      7  C7  IND d   1      -1.581  -2.510   1.007  0.00  0.00    -0.016 A 
ATOM      8  C8  IND d   1      -0.824  -1.459   0.509  0.00  0.00    -0.047 A 
ATOM      9  C9  IND d   1      -1.327  -0.570  -0.449  0.00  0.00    -0.096 A 
ATOM     10  HN1 IND d   1       1.014  -1.486   1.311  0.00  0.00     0.298 HD
ENDROOT
TORSDOF 0
ENDMDL
