MODEL 1
REMARK minimizedAffinity -2.79649305
REMARK minimizedRMSD -1
REMARK  0 active torsions:
REMARK  status: ('A' for Active; 'I' for Inactive)
ROOT
ATOM      1  N1  IND d   1       0.834   0.307  -0.558  0.00  0.00    -0.196 N 
ATOM      2  C2  IND d   1       1.229   0.077   0.730  0.00  0.00     0.054 A 
ATOM      3  C3  IND d   1       0.190  -0.378   1.466  0.00  0.00    -0.031 A 
ATOM      4  C4  IND d   1      -2.220  -0.915   0.738  0.00  0.00     0.051 A 
ATOM      5  C5  IND d   1      -3.066  -0.831  -0.332  0.00  0.00    -0.031 A 
ATOM      6  C6  IND d   1      -2.646  -0.357  -1.558  0.00  0.00     0.015 A 
ATOM      7  C7  IND d   1      -1.355   0.042  -1.763  0.00  0.00    -0.016 A 
ATOM      8  C8  IND d   1      -0.496  -0.034  -0.677  0.00  0.00    -0.047 A 
ATOM      9  C9  IND d   1      -0.927  -0.474   0.581  0.00  0.00    -0.096 A 
ATOM     10  HN1 IND d   1       1.332   0.614  -1.188  0.00  0.00     0.298 HD
ENDROOT
TORSDOF 0
ENDMDL
