MODEL 1
REMARK minimizedAffinity -3.54907656
REMARK minimizedRMSD -1
REMARK  0 active torsions:
REMARK  status: ('A' for Active; 'I' for Inactive)
ROOT
ATOM      1  N1  IND d   1      -2.175  -1.151   0.713  0.00  0.00    -0.196 N 
ATOM      2  C2  IND d   1      -3.001  -1.047  -0.371  0.00  0.00     0.054 A 
ATOM      3  C3  IND d   1      -2.367  -0.419  -1.387  0.00  0.00    -0.031 A 
ATOM      4  C4  IND d   1       0.059   0.431  -1.524  0.00  0.00     0.051 A 
ATOM      5  C5  IND d   1       1.188   0.593  -0.771  0.00  0.00    -0.031 A 
ATOM      6  C6  IND d   1       1.256   0.170   0.541  0.00  0.00     0.015 A 
ATOM      7  C7  IND d   1       0.197  -0.442   1.148  0.00  0.00    -0.016 A 
ATOM      8  C8  IND d   1      -0.954  -0.602   0.389  0.00  0.00    -0.047 A 
ATOM      9  C9  IND d   1      -1.043  -0.137  -0.930  0.00  0.00    -0.096 A 
ATOM     10  HN1 IND d   1      -2.383  -1.501   1.471  0.00  0.00     0.298 HD
ENDROOT
TORSDOF 0
ENDMDL
