MODEL 1
REMARK minimizedAffinity -4.39776707
REMARK minimizedRMSD -1
REMARK  0 active torsions:
REMARK  status: ('A' for Active; 'I' for Inactive)
ROOT
ATOM      1  N1  IND d   1       0.002  -0.159   0.486  0.00  0.00    -0.196 N 
ATOM      2  C2  IND d   1       0.300   0.753  -0.487  0.00  0.00     0.054 A 
ATOM      3  C3  IND d   1      -0.649   0.741  -1.450  0.00  0.00    -0.031 A 
ATOM      4  C4  IND d   1      -2.829  -0.621  -1.581  0.00  0.00     0.051 A 
ATOM      5  C5  IND d   1      -3.519  -1.613  -0.944  0.00  0.00    -0.031 A 
ATOM      6  C6  IND d   1      -3.063  -2.181   0.228  0.00  0.00     0.015 A 
ATOM      7  C7  IND d   1      -1.900  -1.768   0.815  0.00  0.00    -0.016 A 
ATOM      8  C8  IND d   1      -1.193  -0.766   0.166  0.00  0.00    -0.047 A 
ATOM      9  C9  IND d   1      -1.630  -0.215  -1.046  0.00  0.00    -0.096 A 
ATOM     10  HN1 IND d   1       0.480  -0.326   1.181  0.00  0.00     0.298 HD
ENDROOT
TORSDOF 0
ENDMDL
