MODEL 1
REMARK minimizedAffinity -4.29324532
REMARK minimizedRMSD -1
REMARK  0 active torsions:
REMARK  status: ('A' for Active; 'I' for Inactive)
ROOT
ATOM      1  N1  IND d   1       0.177   0.204  -1.142  0.00  0.00    -0.196 N 
ATOM      2  C2  IND d   1       1.142   0.268  -0.175  0.00  0.00     0.054 A 
ATOM      3  C3  IND d   1       0.644  -0.141   1.014  0.00  0.00    -0.031 A 
ATOM      4  C4  IND d   1      -1.695  -1.055   1.580  0.00  0.00     0.051 A 
ATOM      5  C5  IND d   1      -2.930  -1.267   1.034  0.00  0.00    -0.031 A 
ATOM      6  C6  IND d   1      -3.196  -0.997  -0.293  0.00  0.00     0.015 A 
ATOM      7  C7  IND d   1      -2.231  -0.513  -1.129  0.00  0.00    -0.016 A 
ATOM      8  C8  IND d   1      -0.978  -0.289  -0.576  0.00  0.00    -0.047 A 
ATOM      9  C9  IND d   1      -0.713  -0.522   0.779  0.00  0.00    -0.096 A 
ATOM     10  HN1 IND d   1       0.276   0.434  -1.964  0.00  0.00     0.298 HD
ENDROOT
TORSDOF 0
ENDMDL
