MODEL 1
REMARK minimizedAffinity -2.55403304
REMARK minimizedRMSD -1
REMARK  0 active torsions:
REMARK  status: ('A' for Active; 'I' for Inactive)
ROOT
ATOM      1  N1  IND d   1       1.521  -0.268  -0.901  0.00  0.00    -0.196 N 
ATOM      2  C2  IND d   1       1.804   0.471   0.214  0.00  0.00     0.054 A 
ATOM      3  C3  IND d   1       0.662   0.840   0.836  0.00  0.00    -0.031 A 
ATOM      4  C4  IND d   1      -1.777   0.257   0.257  0.00  0.00     0.051 A 
ATOM      5  C5  IND d   1      -2.541  -0.363  -0.692  0.00  0.00    -0.031 A 
ATOM      6  C6  IND d   1      -1.977  -0.999  -1.780  0.00  0.00     0.015 A 
ATOM      7  C7  IND d   1      -0.623  -1.048  -1.954  0.00  0.00    -0.016 A 
ATOM      8  C8  IND d   1       0.155  -0.413  -0.996  0.00  0.00    -0.047 A 
ATOM      9  C9  IND d   1      -0.413   0.270   0.088  0.00  0.00    -0.096 A 
ATOM     10  HN1 IND d   1       2.100  -0.589  -1.450  0.00  0.00     0.298 HD
ENDROOT
TORSDOF 0
ENDMDL
