MODEL 1
REMARK minimizedAffinity -3.02158427
REMARK minimizedRMSD -1
REMARK  0 active torsions:
REMARK  status: ('A' for Active; 'I' for Inactive)
ROOT
ATOM      1  N1  IND d   1       0.715  -0.680   0.951  0.00  0.00    -0.196 N 
ATOM      2  C2  IND d   1       1.350   0.110   0.033  0.00  0.00     0.054 A 
ATOM      3  C3  IND d   1       0.496   0.461  -0.955  0.00  0.00    -0.031 A 
ATOM      4  C4  IND d   1      -2.011  -0.061  -1.213  0.00  0.00     0.051 A 
ATOM      5  C5  IND d   1      -3.026  -0.779  -0.644  0.00  0.00    -0.031 A 
ATOM      6  C6  IND d   1      -2.843  -1.512   0.510  0.00  0.00     0.015 A 
ATOM      7  C7  IND d   1      -1.635  -1.547   1.147  0.00  0.00    -0.016 A 
ATOM      8  C8  IND d   1      -0.600  -0.825   0.569  0.00  0.00    -0.047 A 
ATOM      9  C9  IND d   1      -0.770  -0.113  -0.625  0.00  0.00    -0.096 A 
ATOM     10  HN1 IND d   1       1.077  -1.027   1.649  0.00  0.00     0.298 HD
ENDROOT
TORSDOF 0
ENDMDL
