MODEL 1
REMARK minimizedAffinity -2.85604191
REMARK minimizedRMSD -1
REMARK  0 active torsions:
REMARK  status: ('A' for Active; 'I' for Inactive)
ROOT
ATOM      1  C1  BNZ d   1       0.556  -0.729  -0.731  0.00  0.00     0.000 A 
ATOM      2  C2  BNZ d   1       1.682  -1.037  -0.015  0.00  0.00     0.000 A 
ATOM      3  C3  BNZ d   1       2.282  -0.102   0.782  0.00  0.00     0.000 A 
ATOM      4  C4  BNZ d   1       1.779   1.148   0.831  0.00  0.00     0.000 A 
ATOM      5  C5  BNZ d   1       0.650   1.477   0.108  0.00  0.00     0.000 A 
ATOM      6  C6  BNZ d   1       0.026   0.523  -0.663  0.00  0.00     0.000 A 
ENDROOT
TORSDOF 0
ENDMDL
