MODEL 1
REMARK minimizedAffinity -1.0919894
REMARK minimizedRMSD -1
REMARK  0 active torsions:
REMARK  status: ('A' for Active; 'I' for Inactive)
ROOT
ATOM      1  C1  BNZ d   1      -0.020   0.190  -0.842  0.00  0.00     0.000 A 
ATOM      2  C2  BNZ d   1      -0.029   0.428   0.507  0.00  0.00     0.000 A 
ATOM      3  C3  BNZ d   1       1.045   0.095   1.284  0.00  0.00     0.000 A 
ATOM      4  C4  BNZ d   1       2.109  -0.511   0.719  0.00  0.00     0.000 A 
ATOM      5  C5  BNZ d   1       2.130  -0.767  -0.638  0.00  0.00     0.000 A 
ATOM      6  C6  BNZ d   1       1.063  -0.395  -1.423  0.00  0.00     0.000 A 
ENDROOT
TORSDOF 0
ENDMDL
