MODEL 1
REMARK minimizedAffinity -4.16611433
REMARK minimizedRMSD -1
REMARK  0 active torsions:
REMARK  status: ('A' for Active; 'I' for Inactive)
ROOT
ATOM      1  C1  BNZ d   1      -0.530  -0.667   2.310  0.00  0.00     0.000 A 
ATOM      2  C2  BNZ d   1       0.758  -0.379   2.673  0.00  0.00     0.000 A 
ATOM      3  C3  BNZ d   1       1.638   0.149   1.770  0.00  0.00     0.000 A 
ATOM      4  C4  BNZ d   1       1.240   0.351   0.497  0.00  0.00     0.000 A 
ATOM      5  C5  BNZ d   1      -0.053   0.057   0.114  0.00  0.00     0.000 A 
ATOM      6  C6  BNZ d   1      -0.947  -0.438   1.035  0.00  0.00     0.000 A 
ENDROOT
TORSDOF 0
ENDMDL
