MODEL 1
REMARK minimizedAffinity -1.00485027
REMARK minimizedRMSD -1
REMARK  0 active torsions:
REMARK  status: ('A' for Active; 'I' for Inactive)
ROOT
ATOM      1  C1  BNZ d   1       1.469  -1.097  -0.491  0.00  0.00     0.000 A 
ATOM      2  C2  BNZ d   1       0.403  -0.329  -0.876  0.00  0.00     0.000 A 
ATOM      3  C3  BNZ d   1       0.073   0.805  -0.188  0.00  0.00     0.000 A 
ATOM      4  C4  BNZ d   1       0.784   1.147   0.906  0.00  0.00     0.000 A 
ATOM      5  C5  BNZ d   1       1.855   0.378   1.312  0.00  0.00     0.000 A 
ATOM      6  C6  BNZ d   1       2.208  -0.742   0.595  0.00  0.00     0.000 A 
ENDROOT
TORSDOF 0
ENDMDL
