MODEL 1
REMARK minimizedAffinity -3.57295322
REMARK minimizedRMSD -1
REMARK  0 active torsions:
REMARK  status: ('A' for Active; 'I' for Inactive)
ROOT
ATOM      1  C1  BNZ d   1       2.103  -0.546   0.103  0.00  0.00     0.000 A 
ATOM      2  C2  BNZ d   1       0.967  -0.522  -0.661  0.00  0.00     0.000 A 
ATOM      3  C3  BNZ d   1      -0.257  -0.317  -0.088  0.00  0.00     0.000 A 
ATOM      4  C4  BNZ d   1      -0.348  -0.176   1.250  0.00  0.00     0.000 A 
ATOM      5  C5  BNZ d   1       0.788  -0.207   2.034  0.00  0.00     0.000 A 
ATOM      6  C6  BNZ d   1       2.022  -0.375   1.450  0.00  0.00     0.000 A 
ENDROOT
TORSDOF 0
ENDMDL
