MODEL 1
REMARK minimizedAffinity -0.312208474
REMARK minimizedRMSD -1
REMARK  0 active torsions:
REMARK  status: ('A' for Active; 'I' for Inactive)
ROOT
ATOM      1  C1  BNZ d   1       0.567  -0.339  -1.519  0.00  0.00     0.000 A 
ATOM      2  C2  BNZ d   1       1.714  -1.065  -1.333  0.00  0.00     0.000 A 
ATOM      3  C3  BNZ d   1       2.312  -1.126  -0.106  0.00  0.00     0.000 A 
ATOM      4  C4  BNZ d   1       1.787  -0.430   0.923  0.00  0.00     0.000 A 
ATOM      5  C5  BNZ d   1       0.637   0.313   0.750  0.00  0.00     0.000 A 
ATOM      6  C6  BNZ d   1       0.016   0.341  -0.478  0.00  0.00     0.000 A 
ENDROOT
TORSDOF 0
ENDMDL
