MODEL 1
REMARK minimizedAffinity -0.29553026
REMARK minimizedRMSD -1
REMARK  0 active torsions:
REMARK  status: ('A' for Active; 'I' for Inactive)
ROOT
ATOM      1  C1  BNZ d   1      -0.108   0.061  -0.773  0.00  0.00     0.000 A 
ATOM      2  C2  BNZ d   1       0.890  -0.420  -1.577  0.00  0.00     0.000 A 
ATOM      3  C3  BNZ d   1       1.964  -1.075  -1.044  0.00  0.00     0.000 A 
ATOM      4  C4  BNZ d   1       2.059  -1.213   0.295  0.00  0.00     0.000 A 
ATOM      5  C5  BNZ d   1       1.065  -0.726   1.120  0.00  0.00     0.000 A 
ATOM      6  C6  BNZ d   1      -0.034  -0.101   0.576  0.00  0.00     0.000 A 
ENDROOT
TORSDOF 0
ENDMDL
