MODEL 1
REMARK minimizedAffinity -5.16235161
REMARK minimizedRMSD -1
REMARK  3 active torsions:
REMARK  status: ('A' for Active; 'I' for Inactive)
REMARK    1  A    between atoms: C3'_2  and  C2'_3 
REMARK    2  A    between atoms: C2'_3  and  C1'_4 
REMARK    3  A    between atoms: C1'_4  and  C1_5 
ROOT
ATOM      1  C1  N4B d   1       0.345  -0.795   0.548  0.00  0.00    -0.075 A 
ATOM      2  C2  N4B d   1      -0.996  -0.680   0.120  0.00  0.00     0.002 A 
ATOM      3  C3  N4B d   1      -1.941  -1.565   0.579  0.00  0.00     0.002 A 
ATOM      4  C4  N4B d   1      -1.566  -2.579   1.447  0.00  0.00    -0.004 A 
ATOM      5  C5  N4B d   1      -0.274  -2.668   1.875  0.00  0.00     0.002 A 
ATOM      6  C6  N4B d   1       0.685  -1.783   1.426  0.00  0.00     0.002 A 
ENDROOT
BRANCH   1   7
ATOM      7  C1' N4B d   1       1.430   0.096   0.007  0.00  0.00     0.057 C 
BRANCH   7   8
ATOM      8  C2' N4B d   1       0.800   1.366  -0.557  0.00  0.00     0.009 C 
BRANCH   8   9
ATOM      9  C3' N4B d   1       1.597   1.927  -1.722  0.00  0.00     0.004 C 
ATOM     10  C4' N4B d   1       0.727   2.523  -2.788  0.00  0.00     0.003 C 
ENDBRANCH   8   9
ENDBRANCH   7   8
ENDBRANCH   1   7
TORSDOF 3
ENDMDL
