MODEL 1
REMARK minimizedAffinity -6.25311899
REMARK minimizedRMSD -1
REMARK  3 active torsions:
REMARK  status: ('A' for Active; 'I' for Inactive)
REMARK    1  A    between atoms: C3'_2  and  C2'_3 
REMARK    2  A    between atoms: C2'_3  and  C1'_4 
REMARK    3  A    between atoms: C1'_4  and  C1_5 
ROOT
ATOM      1  C1  N4B d   1      -0.505   0.211   0.218  0.00  0.00    -0.075 A 
ATOM      2  C2  N4B d   1       0.489  -0.780   0.372  0.00  0.00     0.002 A 
ATOM      3  C3  N4B d   1       0.130  -2.070   0.679  0.00  0.00     0.002 A 
ATOM      4  C4  N4B d   1      -1.209  -2.386   0.853  0.00  0.00    -0.004 A 
ATOM      5  C5  N4B d   1      -2.164  -1.429   0.677  0.00  0.00     0.002 A 
ATOM      6  C6  N4B d   1      -1.818  -0.129   0.365  0.00  0.00     0.002 A 
ENDROOT
BRANCH   1   7
ATOM      7  C1' N4B d   1      -0.156   1.653  -0.033  0.00  0.00     0.057 C 
BRANCH   7   8
ATOM      8  C2' N4B d   1       0.996   1.723  -1.031  0.00  0.00     0.009 C 
BRANCH   8   9
ATOM      9  C3' N4B d   1       0.534   2.196  -2.399  0.00  0.00     0.004 C 
ATOM     10  C4' N4B d   1       1.491   1.829  -3.494  0.00  0.00     0.003 C 
ENDBRANCH   8   9
ENDBRANCH   7   8
ENDBRANCH   1   7
TORSDOF 3
ENDMDL
