MODEL 1
REMARK minimizedAffinity -3.21004128
REMARK minimizedRMSD -1
REMARK  3 active torsions:
REMARK  status: ('A' for Active; 'I' for Inactive)
REMARK    1  A    between atoms: C3'_2  and  C2'_3 
REMARK    2  A    between atoms: C2'_3  and  C1'_4 
REMARK    3  A    between atoms: C1'_4  and  C1_5 
ROOT
ATOM      1  C1  N4B d   1       1.756   1.529  -1.542  0.00  0.00    -0.075 A 
ATOM      2  C2  N4B d   1       2.941   1.123  -2.194  0.00  0.00     0.002 A 
ATOM      3  C3  N4B d   1       3.104   1.366  -3.536  0.00  0.00     0.002 A 
ATOM      4  C4  N4B d   1       2.093   1.994  -4.247  0.00  0.00    -0.004 A 
ATOM      5  C5  N4B d   1       0.962   2.407  -3.604  0.00  0.00     0.002 A 
ATOM      6  C6  N4B d   1       0.787   2.172  -2.255  0.00  0.00     0.002 A 
ENDROOT
BRANCH   1   7
ATOM      7  C1' N4B d   1       1.496   1.209  -0.095  0.00  0.00     0.057 C 
BRANCH   7   8
ATOM      8  C2' N4B d   1       0.125   0.551   0.033  0.00  0.00     0.009 C 
BRANCH   8   9
ATOM      9  C3' N4B d   1       0.234  -0.929   0.359  0.00  0.00     0.004 C 
ATOM     10  C4' N4B d   1      -1.093  -1.554   0.670  0.00  0.00     0.003 C 
ENDBRANCH   8   9
ENDBRANCH   7   8
ENDBRANCH   1   7
TORSDOF 3
ENDMDL
