MODEL 1
REMARK minimizedAffinity -3.8674984
REMARK minimizedRMSD -1
REMARK  3 active torsions:
REMARK  status: ('A' for Active; 'I' for Inactive)
REMARK    1  A    between atoms: C3'_2  and  C2'_3 
REMARK    2  A    between atoms: C2'_3  and  C1'_4 
REMARK    3  A    between atoms: C1'_4  and  C1_5 
ROOT
ATOM      1  C1  N4B d   1       0.335  -0.107  -0.005  0.00  0.00    -0.075 A 
ATOM      2  C2  N4B d   1       0.948  -1.314   0.398  0.00  0.00     0.002 A 
ATOM      3  C3  N4B d   1       0.175  -2.375   0.801  0.00  0.00     0.002 A 
ATOM      4  C4  N4B d   1      -1.206  -2.248   0.826  0.00  0.00    -0.004 A 
ATOM      5  C5  N4B d   1      -1.791  -1.088   0.411  0.00  0.00     0.002 A 
ATOM      6  C6  N4B d   1      -1.027  -0.014  -0.000  0.00  0.00     0.002 A 
ENDROOT
BRANCH   1   7
ATOM      7  C1' N4B d   1       1.141   1.109  -0.371  0.00  0.00     0.057 C 
BRANCH   7   8
ATOM      8  C2' N4B d   1       0.763   1.554  -1.781  0.00  0.00     0.009 C 
BRANCH   8   9
ATOM      9  C3' N4B d   1       1.935   2.190  -2.509  0.00  0.00     0.004 C 
ATOM     10  C4' N4B d   1       1.612   2.547  -3.929  0.00  0.00     0.003 C 
ENDBRANCH   8   9
ENDBRANCH   7   8
ENDBRANCH   1   7
TORSDOF 3
ENDMDL
