MODEL 1
REMARK minimizedAffinity -4.59701777
REMARK minimizedRMSD -1
REMARK  3 active torsions:
REMARK  status: ('A' for Active; 'I' for Inactive)
REMARK    1  A    between atoms: C3'_2  and  C2'_3 
REMARK    2  A    between atoms: C2'_3  and  C1'_4 
REMARK    3  A    between atoms: C1'_4  and  C1_5 
ROOT
ATOM      1  C1  N4B d   1       0.733   1.239  -1.436  0.00  0.00    -0.075 A 
ATOM      2  C2  N4B d   1      -0.202   1.514  -2.458  0.00  0.00     0.002 A 
ATOM      3  C3  N4B d   1       0.221   2.049  -3.650  0.00  0.00     0.002 A 
ATOM      4  C4  N4B d   1       1.566   2.333  -3.835  0.00  0.00    -0.004 A 
ATOM      5  C5  N4B d   1       2.466   2.041  -2.852  0.00  0.00     0.002 A 
ATOM      6  C6  N4B d   1       2.055   1.500  -1.651  0.00  0.00     0.002 A 
ENDROOT
BRANCH   1   7
ATOM      7  C1' N4B d   1       0.307   0.735  -0.084  0.00  0.00     0.057 C 
BRANCH   7   8
ATOM      8  C2' N4B d   1       0.406  -0.788  -0.063  0.00  0.00     0.009 C 
BRANCH   8   9
ATOM      9  C3' N4B d   1      -0.854  -1.432   0.489  0.00  0.00     0.004 C 
ATOM     10  C4' N4B d   1      -0.564  -2.493   1.508  0.00  0.00     0.003 C 
ENDBRANCH   8   9
ENDBRANCH   7   8
ENDBRANCH   1   7
TORSDOF 3
ENDMDL
