MODEL 1
REMARK minimizedAffinity -3.12604523
REMARK minimizedRMSD -1
REMARK  3 active torsions:
REMARK  status: ('A' for Active; 'I' for Inactive)
REMARK    1  A    between atoms: C3'_2  and  C2'_3 
REMARK    2  A    between atoms: C2'_3  and  C1'_4 
REMARK    3  A    between atoms: C1'_4  and  C1_5 
ROOT
ATOM      1  C1  N4B d   1       1.183   1.548  -1.399  0.00  0.00    -0.075 A 
ATOM      2  C2  N4B d   1       0.250   2.149  -2.271  0.00  0.00     0.002 A 
ATOM      3  C3  N4B d   1       0.687   2.826  -3.383  0.00  0.00     0.002 A 
ATOM      4  C4  N4B d   1       2.047   2.930  -3.632  0.00  0.00    -0.004 A 
ATOM      5  C5  N4B d   1       2.941   2.324  -2.798  0.00  0.00     0.002 A 
ATOM      6  C6  N4B d   1       2.516   1.638  -1.679  0.00  0.00     0.002 A 
ENDROOT
BRANCH   1   7
ATOM      7  C1' N4B d   1       0.757   0.871  -0.125  0.00  0.00     0.057 C 
BRANCH   7   8
ATOM      8  C2' N4B d   1      -0.491   1.562   0.417  0.00  0.00     0.009 C 
BRANCH   8   9
ATOM      9  C3' N4B d   1      -1.701   0.644   0.400  0.00  0.00     0.004 C 
ATOM     10  C4' N4B d   1      -1.344  -0.784   0.115  0.00  0.00     0.003 C 
ENDBRANCH   8   9
ENDBRANCH   7   8
ENDBRANCH   1   7
TORSDOF 3
ENDMDL
