MODEL 1
REMARK minimizedAffinity -6.2238512
REMARK minimizedRMSD -1
REMARK  3 active torsions:
REMARK  status: ('A' for Active; 'I' for Inactive)
REMARK    1  A    between atoms: C3'_2  and  C2'_3 
REMARK    2  A    between atoms: C2'_3  and  C1'_4 
REMARK    3  A    between atoms: C1'_4  and  C1_5 
ROOT
ATOM      1  C1  N4B d   1       0.145  -0.748   0.275  0.00  0.00    -0.075 A 
ATOM      2  C2  N4B d   1      -1.249  -0.539   0.360  0.00  0.00     0.002 A 
ATOM      3  C3  N4B d   1      -2.010  -1.311   1.204  0.00  0.00     0.002 A 
ATOM      4  C4  N4B d   1      -1.404  -2.307   1.955  0.00  0.00    -0.004 A 
ATOM      5  C5  N4B d   1      -0.053  -2.486   1.886  0.00  0.00     0.002 A 
ATOM      6  C6  N4B d   1       0.724  -1.715   1.046  0.00  0.00     0.002 A 
ENDROOT
BRANCH   1   7
ATOM      7  C1' N4B d   1       1.005   0.013  -0.696  0.00  0.00     0.057 C 
BRANCH   7   8
ATOM      8  C2' N4B d   1       0.441   1.420  -0.868  0.00  0.00     0.009 C 
BRANCH   8   9
ATOM      9  C3' N4B d   1       1.234   2.230  -1.879  0.00  0.00     0.004 C 
ATOM     10  C4' N4B d   1       0.526   2.371  -3.193  0.00  0.00     0.003 C 
ENDBRANCH   8   9
ENDBRANCH   7   8
ENDBRANCH   1   7
TORSDOF 3
ENDMDL
