MODEL 1
REMARK minimizedAffinity -4.4189024
REMARK minimizedRMSD -1
REMARK  3 active torsions:
REMARK  status: ('A' for Active; 'I' for Inactive)
REMARK    1  A    between atoms: C3'_2  and  C2'_3 
REMARK    2  A    between atoms: C2'_3  and  C1'_4 
REMARK    3  A    between atoms: C1'_4  and  C1_5 
ROOT
ATOM      1  C1  N4B d   1      -0.064  -0.192   0.390  0.00  0.00    -0.075 A 
ATOM      2  C2  N4B d   1      -1.464  -0.002   0.375  0.00  0.00     0.002 A 
ATOM      3  C3  N4B d   1      -2.302  -1.053   0.656  0.00  0.00     0.002 A 
ATOM      4  C4  N4B d   1      -1.767  -2.302   0.933  0.00  0.00    -0.004 A 
ATOM      5  C5  N4B d   1      -0.414  -2.471   0.970  0.00  0.00     0.002 A 
ATOM      6  C6  N4B d   1       0.441  -1.423   0.695  0.00  0.00     0.002 A 
ENDROOT
BRANCH   1   7
ATOM      7  C1' N4B d   1       0.890   0.906   0.006  0.00  0.00     0.057 C 
BRANCH   7   8
ATOM      8  C2' N4B d   1       0.451   1.508  -1.326  0.00  0.00     0.009 C 
BRANCH   8   9
ATOM      9  C3' N4B d   1       1.519   1.362  -2.396  0.00  0.00     0.004 C 
ATOM     10  C4' N4B d   1       1.079   1.885  -3.730  0.00  0.00     0.003 C 
ENDBRANCH   8   9
ENDBRANCH   7   8
ENDBRANCH   1   7
TORSDOF 3
ENDMDL
