MODEL 1
REMARK minimizedAffinity -5.11308479
REMARK minimizedRMSD -1
REMARK  3 active torsions:
REMARK  status: ('A' for Active; 'I' for Inactive)
REMARK    1  A    between atoms: C3'_2  and  C2'_3 
REMARK    2  A    between atoms: C2'_3  and  C1'_4 
REMARK    3  A    between atoms: C1'_4  and  C1_5 
ROOT
ATOM      1  C1  N4B d   1      -0.526  -0.501   0.648  0.00  0.00    -0.075 A 
ATOM      2  C2  N4B d   1      -0.842  -1.844   0.951  0.00  0.00     0.002 A 
ATOM      3  C3  N4B d   1      -2.001  -2.141   1.625  0.00  0.00     0.002 A 
ATOM      4  C4  N4B d   1      -2.846  -1.115   2.021  0.00  0.00    -0.004 A 
ATOM      5  C5  N4B d   1      -2.546   0.177   1.703  0.00  0.00     0.002 A 
ATOM      6  C6  N4B d   1      -1.386   0.490   1.022  0.00  0.00     0.002 A 
ENDROOT
BRANCH   1   7
ATOM      7  C1' N4B d   1       0.772  -0.120  -0.011  0.00  0.00     0.057 C 
BRANCH   7   8
ATOM      8  C2' N4B d   1       0.683   1.325  -0.493  0.00  0.00     0.009 C 
BRANCH   8   9
ATOM      9  C3' N4B d   1       1.703   1.626  -1.577  0.00  0.00     0.004 C 
ATOM     10  C4' N4B d   1       1.133   2.437  -2.702  0.00  0.00     0.003 C 
ENDBRANCH   8   9
ENDBRANCH   7   8
ENDBRANCH   1   7
TORSDOF 3
ENDMDL
