MODEL 1
REMARK minimizedAffinity -2.56301641
REMARK minimizedRMSD -1
REMARK  0 active torsions:
REMARK  status: ('A' for Active; 'I' for Inactive)
ROOT
ATOM      1  C   UNL d   1       0.742   0.007  -1.286  0.00  0.00     0.172 C 
ATOM      2  N   UNL d   1      -0.035   0.930  -2.080  0.00  0.00    -0.070 N 
ATOM      3  C1  UNL d   1       0.449   2.050  -2.703  0.00  0.00    -0.004 A 
ATOM      4  C2  UNL d   1      -0.603   2.657  -3.355  0.00  0.00    -0.047 A 
ATOM      5  C3  UNL d   1      -1.758   1.876  -3.115  0.00  0.00    -0.047 A 
ATOM      6  C4  UNL d   1      -1.378   0.813  -2.323  0.00  0.00    -0.004 A 
ENDROOT
TORSDOF 0
ENDMDL
