MODEL 1
REMARK minimizedAffinity -3.25203443
REMARK minimizedRMSD -1
REMARK  0 active torsions:
REMARK  status: ('A' for Active; 'I' for Inactive)
ROOT
ATOM      1  C   UNL d   1      -1.850  -0.175   1.361  0.00  0.00     0.172 C 
ATOM      2  N   UNL d   1      -0.535  -0.435   1.897  0.00  0.00    -0.070 N 
ATOM      3  C1  UNL d   1       0.648  -0.021   1.345  0.00  0.00    -0.004 A 
ATOM      4  C2  UNL d   1       1.671  -0.469   2.154  0.00  0.00    -0.047 A 
ATOM      5  C3  UNL d   1       1.082  -1.176   3.228  0.00  0.00    -0.047 A 
ATOM      6  C4  UNL d   1      -0.284  -1.140   3.044  0.00  0.00    -0.004 A 
ENDROOT
TORSDOF 0
ENDMDL
