MODEL 1
REMARK minimizedAffinity -2.15104342
REMARK minimizedRMSD -1
REMARK  0 active torsions:
REMARK  status: ('A' for Active; 'I' for Inactive)
ROOT
ATOM      1  C   UNL d   1      -0.460  -2.179   3.231  0.00  0.00     0.172 C 
ATOM      2  N   UNL d   1       0.450  -1.286   2.554  0.00  0.00    -0.070 N 
ATOM      3  C1  UNL d   1       1.634  -0.819   3.060  0.00  0.00    -0.004 A 
ATOM      4  C2  UNL d   1       2.204   0.002   2.111  0.00  0.00    -0.047 A 
ATOM      5  C3  UNL d   1       1.332   0.031   0.997  0.00  0.00    -0.047 A 
ATOM      6  C4  UNL d   1       0.254  -0.776   1.298  0.00  0.00    -0.004 A 
ENDROOT
TORSDOF 0
ENDMDL
