MODEL 1
REMARK minimizedAffinity -3.9966321
REMARK minimizedRMSD -1
REMARK  0 active torsions:
REMARK  status: ('A' for Active; 'I' for Inactive)
ROOT
ATOM      1  C   UNL d   1       0.062   0.177  -0.503  0.00  0.00     0.172 C 
ATOM      2  N   UNL d   1       0.245  -0.287   0.852  0.00  0.00    -0.070 N 
ATOM      3  C1  UNL d   1      -0.624  -1.086   1.547  0.00  0.00    -0.004 A 
ATOM      4  C2  UNL d   1      -0.089  -1.301   2.799  0.00  0.00    -0.047 A 
ATOM      5  C3  UNL d   1       1.143  -0.607   2.859  0.00  0.00    -0.047 A 
ATOM      6  C4  UNL d   1       1.325   0.012   1.640  0.00  0.00    -0.004 A 
ENDROOT
TORSDOF 0
ENDMDL
