MODEL 1
REMARK minimizedAffinity -2.66799831
REMARK minimizedRMSD -1
REMARK  0 active torsions:
REMARK  status: ('A' for Active; 'I' for Inactive)
ROOT
ATOM      1  C   UNL d   1      -0.098  -0.094  -0.630  0.00  0.00     0.172 C 
ATOM      2  N   UNL d   1       0.005  -0.417   0.774  0.00  0.00    -0.070 N 
ATOM      3  C1  UNL d   1       1.143  -0.337   1.531  0.00  0.00    -0.004 A 
ATOM      4  C2  UNL d   1       0.826  -0.728   2.813  0.00  0.00    -0.047 A 
ATOM      5  C3  UNL d   1      -0.550  -1.055   2.828  0.00  0.00    -0.047 A 
ATOM      6  C4  UNL d   1      -1.034  -0.854   1.553  0.00  0.00    -0.004 A 
ENDROOT
TORSDOF 0
ENDMDL
