MODEL 1
REMARK minimizedAffinity 21.5722218
REMARK minimizedRMSD -1
REMARK  1 active torsions:
REMARK  status: ('A' for Active; 'I' for Inactive)
REMARK    1  A    between atoms: C1_2  and  C2_3 
ROOT
ATOM      1  C2  UNL d   1       3.806  -0.700  -4.442  0.00  0.00    -0.076 A 
ATOM      2  C3  UNL d   1       4.571  -1.635  -5.160  0.00  0.00     0.004 A 
ATOM      3  C4  UNL d   1       5.659  -1.229  -5.932  0.00  0.00    -0.003 A 
ATOM      4  C5  UNL d   1       5.999   0.117  -5.997  0.00  0.00     0.000 A 
ATOM      5  C6  UNL d   1       5.261   1.056  -5.277  0.00  0.00     0.000 A 
ATOM      6  C7  UNL d   1       4.172   0.662  -4.481  0.00  0.00    -0.073 A 
ATOM      7  C8  UNL d   1       3.408   1.718  -3.730  0.00  0.00     0.078 C 
ENDROOT
BRANCH   1   8
ATOM      8  C1  UNL d   1       2.621  -1.195  -3.643  0.00  0.00     0.053 C 
ATOM      9  C   UNL d   1       2.956  -1.411  -2.176  0.00  0.00     0.018 C 
ENDBRANCH   1   8
TORSDOF 1
ENDMDL
