MODEL 1
REMARK minimizedAffinity 11.5909147
REMARK minimizedRMSD -1
REMARK  1 active torsions:
REMARK  status: ('A' for Active; 'I' for Inactive)
REMARK    1  A    between atoms: C1_2  and  C2_3 
ROOT
ATOM      1  C2  UNL d   1       1.060  -2.179   0.726  0.00  0.00    -0.076 A 
ATOM      2  C3  UNL d   1       0.132  -2.548   1.716  0.00  0.00     0.004 A 
ATOM      3  C4  UNL d   1       0.311  -2.167   3.045  0.00  0.00    -0.003 A 
ATOM      4  C5  UNL d   1       1.421  -1.411   3.405  0.00  0.00     0.000 A 
ATOM      5  C6  UNL d   1       2.343  -1.022   2.434  0.00  0.00     0.000 A 
ATOM      6  C7  UNL d   1       2.168  -1.383   1.087  0.00  0.00    -0.073 A 
ATOM      7  C8  UNL d   1       3.197  -0.941   0.082  0.00  0.00     0.078 C 
ENDROOT
BRANCH   1   8
ATOM      8  C1  UNL d   1       0.828  -2.644  -0.694  0.00  0.00     0.053 C 
ATOM      9  C   UNL d   1       0.297  -4.067  -0.761  0.00  0.00     0.018 C 
ENDBRANCH   1   8
TORSDOF 1
ENDMDL
