MODEL 1
REMARK minimizedAffinity 10.2176228
REMARK minimizedRMSD -1
REMARK  1 active torsions:
REMARK  status: ('A' for Active; 'I' for Inactive)
REMARK    1  A    between atoms: C1_2  and  C2_3 
ROOT
ATOM      1  C2  UNL d   1       1.067  -3.528   1.168  0.00  0.00    -0.076 A 
ATOM      2  C3  UNL d   1       1.958  -2.631   0.554  0.00  0.00     0.004 A 
ATOM      3  C4  UNL d   1       2.329  -1.444   1.185  0.00  0.00    -0.003 A 
ATOM      4  C5  UNL d   1       1.815  -1.137   2.440  0.00  0.00     0.000 A 
ATOM      5  C6  UNL d   1       0.944  -2.024   3.071  0.00  0.00     0.000 A 
ATOM      6  C7  UNL d   1       0.573  -3.232   2.456  0.00  0.00    -0.073 A 
ATOM      7  C8  UNL d   1      -0.375  -4.149   3.179  0.00  0.00     0.078 C 
ENDROOT
BRANCH   1   8
ATOM      8  C1  UNL d   1       0.680  -4.787   0.424  0.00  0.00     0.053 C 
ATOM      9  C   UNL d   1       0.992  -4.704  -1.063  0.00  0.00     0.018 C 
ENDBRANCH   1   8
TORSDOF 1
ENDMDL
