MODEL 1
REMARK minimizedAffinity -0.0143276164
REMARK minimizedRMSD -1
REMARK  1 active torsions:
REMARK  status: ('A' for Active; 'I' for Inactive)
REMARK    1  A    between atoms: C1_2  and  C2_3 
ROOT
ATOM      1  C2  UNL d   1       3.964   4.921  -2.909  0.00  0.00    -0.076 A 
ATOM      2  C3  UNL d   1       3.371   4.342  -4.044  0.00  0.00     0.004 A 
ATOM      3  C4  UNL d   1       4.068   4.247  -5.248  0.00  0.00    -0.003 A 
ATOM      4  C5  UNL d   1       5.369   4.729  -5.335  0.00  0.00     0.000 A 
ATOM      5  C6  UNL d   1       5.979   5.291  -4.213  0.00  0.00     0.000 A 
ATOM      6  C7  UNL d   1       5.296   5.379  -2.988  0.00  0.00    -0.073 A 
ATOM      7  C8  UNL d   1       6.000   5.999  -1.812  0.00  0.00     0.078 C 
ENDROOT
BRANCH   1   8
ATOM      8  C1  UNL d   1       3.149   5.021  -1.638  0.00  0.00     0.053 C 
ATOM      9  C   UNL d   1       1.745   4.460  -1.801  0.00  0.00     0.018 C 
ENDBRANCH   1   8
TORSDOF 1
ENDMDL
