MODEL 1
REMARK minimizedAffinity 0.617280424
REMARK minimizedRMSD -1
REMARK  1 active torsions:
REMARK  status: ('A' for Active; 'I' for Inactive)
REMARK    1  A    between atoms: C1_2  and  C2_3 
ROOT
ATOM      1  C2  UNL d   1       3.225  -3.439   3.043  0.00  0.00    -0.076 A 
ATOM      2  C3  UNL d   1       3.023  -2.294   2.254  0.00  0.00     0.004 A 
ATOM      3  C4  UNL d   1       1.800  -1.625   2.260  0.00  0.00    -0.003 A 
ATOM      4  C5  UNL d   1       0.759  -2.090   3.056  0.00  0.00     0.000 A 
ATOM      5  C6  UNL d   1       0.948  -3.214   3.859  0.00  0.00     0.000 A 
ATOM      6  C7  UNL d   1       2.180  -3.891   3.877  0.00  0.00    -0.073 A 
ATOM      7  C8  UNL d   1       2.326  -5.102   4.758  0.00  0.00     0.078 C 
ENDROOT
BRANCH   1   8
ATOM      8  C1  UNL d   1       4.563  -4.139   2.975  0.00  0.00     0.053 C 
ATOM      9  C   UNL d   1       5.684  -3.211   2.532  0.00  0.00     0.018 C 
ENDBRANCH   1   8
TORSDOF 1
ENDMDL
