MODEL 1
REMARK minimizedAffinity 10.9329586
REMARK minimizedRMSD -1
REMARK  1 active torsions:
REMARK  status: ('A' for Active; 'I' for Inactive)
REMARK    1  A    between atoms: C1_2  and  C2_3 
ROOT
ATOM      1  C2  UNL d   1       2.015  -3.514   4.034  0.00  0.00    -0.076 A 
ATOM      2  C3  UNL d   1       0.747  -4.105   4.169  0.00  0.00     0.004 A 
ATOM      3  C4  UNL d   1       0.506  -5.073   5.144  0.00  0.00    -0.003 A 
ATOM      4  C5  UNL d   1       1.530  -5.464   6.000  0.00  0.00     0.000 A 
ATOM      5  C6  UNL d   1       2.789  -4.875   5.892  0.00  0.00     0.000 A 
ATOM      6  C7  UNL d   1       3.044  -3.886   4.925  0.00  0.00    -0.073 A 
ATOM      7  C8  UNL d   1       4.422  -3.289   4.849  0.00  0.00     0.078 C 
ENDROOT
BRANCH   1   8
ATOM      8  C1  UNL d   1       2.224  -2.490   2.941  0.00  0.00     0.053 C 
ATOM      9  C   UNL d   1       1.054  -1.526   2.815  0.00  0.00     0.018 C 
ENDBRANCH   1   8
TORSDOF 1
ENDMDL
