MODEL 1
REMARK minimizedAffinity -4.43080282
REMARK minimizedRMSD -1
REMARK  1 active torsions:
REMARK  status: ('A' for Active; 'I' for Inactive)
REMARK    1  A    between atoms: C1_2  and  C2_3 
ROOT
ATOM      1  C2  UNL d   1      -0.090  -0.401  -1.896  0.00  0.00    -0.081 A 
ATOM      2  C3  UNL d   1      -1.475  -0.455  -1.691  0.00  0.00     0.006 A 
ATOM      3  C4  UNL d   1      -2.007  -0.311  -0.407  0.00  0.00     0.002 A 
ATOM      4  C5  UNL d   1      -1.165  -0.102   0.691  0.00  0.00    -0.080 A 
ATOM      5  C6  UNL d   1      -1.725   0.085   2.070  0.00  0.00     0.076 C 
ATOM      6  C7  UNL d   1       0.219  -0.066   0.489  0.00  0.00     0.002 A 
ATOM      7  C8  UNL d   1       0.751  -0.211  -0.794  0.00  0.00     0.006 A 
ENDROOT
BRANCH   1   8
ATOM      8  C1  UNL d   1       0.482  -0.492  -3.287  0.00  0.00     0.054 C 
ATOM      9  C   UNL d   1       1.211   0.788  -3.670  0.00  0.00     0.018 C 
ENDBRANCH   1   8
TORSDOF 1
ENDMDL
