MODEL 1
REMARK minimizedAffinity -1.4269594
REMARK minimizedRMSD -1
REMARK  1 active torsions:
REMARK  status: ('A' for Active; 'I' for Inactive)
REMARK    1  A    between atoms: C1_2  and  C2_3 
ROOT
ATOM      1  C2  UNL d   1       0.591  -0.300   2.042  0.00  0.00    -0.081 A 
ATOM      2  C3  UNL d   1      -0.561   0.126   2.714  0.00  0.00     0.006 A 
ATOM      3  C4  UNL d   1      -1.731   0.407   2.005  0.00  0.00     0.002 A 
ATOM      4  C5  UNL d   1      -1.772   0.259   0.615  0.00  0.00    -0.080 A 
ATOM      5  C6  UNL d   1      -3.031   0.527  -0.155  0.00  0.00     0.076 C 
ATOM      6  C7  UNL d   1      -0.616  -0.150  -0.059  0.00  0.00     0.002 A 
ATOM      7  C8  UNL d   1       0.555  -0.430   0.650  0.00  0.00     0.006 A 
ENDROOT
BRANCH   1   8
ATOM      8  C1  UNL d   1       1.836  -0.665   2.810  0.00  0.00     0.054 C 
ATOM      9  C   UNL d   1       1.494  -1.389   4.105  0.00  0.00     0.018 C 
ENDBRANCH   1   8
TORSDOF 1
ENDMDL
