MODEL 1
REMARK minimizedAffinity -2.78454828
REMARK minimizedRMSD -1
REMARK  1 active torsions:
REMARK  status: ('A' for Active; 'I' for Inactive)
REMARK    1  A    between atoms: C1_2  and  C2_3 
ROOT
ATOM      1  C2  UNL d   1       0.270  -0.239  -1.411  0.00  0.00    -0.081 A 
ATOM      2  C3  UNL d   1       0.857  -0.881  -0.314  0.00  0.00     0.006 A 
ATOM      3  C4  UNL d   1       0.314  -0.739   0.964  0.00  0.00     0.002 A 
ATOM      4  C5  UNL d   1      -0.831   0.040   1.166  0.00  0.00    -0.080 A 
ATOM      5  C6  UNL d   1      -1.442   0.176   2.529  0.00  0.00     0.076 C 
ATOM      6  C7  UNL d   1      -1.408   0.696   0.074  0.00  0.00     0.002 A 
ATOM      7  C8  UNL d   1      -0.864   0.555  -1.205  0.00  0.00     0.006 A 
ENDROOT
BRANCH   1   8
ATOM      8  C1  UNL d   1       0.816  -0.443  -2.801  0.00  0.00     0.054 C 
ATOM      9  C   UNL d   1       1.305   0.868  -3.401  0.00  0.00     0.018 C 
ENDBRANCH   1   8
TORSDOF 1
ENDMDL
