MODEL 1
REMARK minimizedAffinity -1.17893505
REMARK minimizedRMSD -1
REMARK  1 active torsions:
REMARK  status: ('A' for Active; 'I' for Inactive)
REMARK    1  A    between atoms: C1_2  and  C2_3 
ROOT
ATOM      1  C2  UNL d   1       0.124  -0.316  -1.443  0.00  0.00    -0.081 A 
ATOM      2  C3  UNL d   1      -1.199   0.127  -1.323  0.00  0.00     0.006 A 
ATOM      3  C4  UNL d   1      -1.746   0.391  -0.065  0.00  0.00     0.002 A 
ATOM      4  C5  UNL d   1      -0.978   0.224   1.092  0.00  0.00    -0.080 A 
ATOM      5  C6  UNL d   1      -1.544   0.532   2.446  0.00  0.00     0.076 C 
ATOM      6  C7  UNL d   1       0.338  -0.235   0.974  0.00  0.00     0.002 A 
ATOM      7  C8  UNL d   1       0.886  -0.499  -0.283  0.00  0.00     0.006 A 
ENDROOT
BRANCH   1   8
ATOM      8  C1  UNL d   1       0.738  -0.539  -2.801  0.00  0.00     0.054 C 
ATOM      9  C   UNL d   1       1.229   0.768  -3.408  0.00  0.00     0.018 C 
ENDBRANCH   1   8
TORSDOF 1
ENDMDL
