MODEL 1
REMARK minimizedAffinity 3.68943691
REMARK minimizedRMSD -1
REMARK  1 active torsions:
REMARK  status: ('A' for Active; 'I' for Inactive)
REMARK    1  A    between atoms: C1_2  and  C2_3 
ROOT
ATOM      1  C2  UNL d   1      -0.011  -0.053  -1.365  0.00  0.00    -0.081 A 
ATOM      2  C3  UNL d   1      -1.201  -0.770  -1.187  0.00  0.00     0.006 A 
ATOM      3  C4  UNL d   1      -1.804  -0.840   0.071  0.00  0.00     0.002 A 
ATOM      4  C5  UNL d   1      -1.232  -0.189   1.170  0.00  0.00    -0.080 A 
ATOM      5  C6  UNL d   1      -1.886  -0.232   2.519  0.00  0.00     0.076 C 
ATOM      6  C7  UNL d   1      -0.035   0.512   0.996  0.00  0.00     0.002 A 
ATOM      7  C8  UNL d   1       0.569   0.582  -0.262  0.00  0.00     0.006 A 
ENDROOT
BRANCH   1   8
ATOM      8  C1  UNL d   1       0.607   0.079  -2.733  0.00  0.00     0.054 C 
ATOM      9  C   UNL d   1       2.009   0.665  -2.653  0.00  0.00     0.018 C 
ENDBRANCH   1   8
TORSDOF 1
ENDMDL
