MODEL 1
REMARK minimizedAffinity -0.407594204
REMARK minimizedRMSD -1
REMARK  1 active torsions:
REMARK  status: ('A' for Active; 'I' for Inactive)
REMARK    1  A    between atoms: C1_2  and  C2_3 
ROOT
ATOM      1  C2  UNL d   1       0.057  -0.337   3.061  0.00  0.00    -0.081 A 
ATOM      2  C3  UNL d   1       0.855  -0.734   1.982  0.00  0.00     0.006 A 
ATOM      3  C4  UNL d   1       0.368  -0.657   0.675  0.00  0.00     0.002 A 
ATOM      4  C5  UNL d   1      -0.920  -0.173   0.425  0.00  0.00    -0.080 A 
ATOM      5  C6  UNL d   1      -1.444  -0.056  -0.976  0.00  0.00     0.076 C 
ATOM      6  C7  UNL d   1      -1.724   0.208   1.505  0.00  0.00     0.002 A 
ATOM      7  C8  UNL d   1      -1.238   0.130   2.812  0.00  0.00     0.006 A 
ENDROOT
BRANCH   1   8
ATOM      8  C1  UNL d   1       0.602  -0.358   4.466  0.00  0.00     0.054 C 
ATOM      9  C   UNL d   1       1.205  -1.714   4.805  0.00  0.00     0.018 C 
ENDBRANCH   1   8
TORSDOF 1
ENDMDL
