MODEL 1
REMARK minimizedAffinity -2.25874138
REMARK minimizedRMSD -1
REMARK  1 active torsions:
REMARK  status: ('A' for Active; 'I' for Inactive)
REMARK    1  A    between atoms: C1_2  and  C2_3 
ROOT
ATOM      1  C2  UNL d   1      -0.393   0.802  -1.736  0.00  0.00    -0.077 A 
ATOM      2  C3  UNL d   1       0.676   1.577  -2.208  0.00  0.00     0.002 A 
ATOM      3  C4  UNL d   1       0.439   2.683  -3.026  0.00  0.00     0.002 A 
ATOM      4  C5  UNL d   1      -0.866   3.026  -3.376  0.00  0.00    -0.004 A 
ATOM      5  C6  UNL d   1      -1.935   2.261  -2.913  0.00  0.00     0.002 A 
ATOM      6  C7  UNL d   1      -1.700   1.154  -2.096  0.00  0.00     0.002 A 
ENDROOT
BRANCH   1   7
ATOM      7  C1  UNL d   1      -0.142  -0.362  -0.813  0.00  0.00     0.055 C 
ATOM      8  C   UNL d   1      -0.574  -0.042   0.611  0.00  0.00     0.019 C 
ENDBRANCH   1   7
TORSDOF 1
ENDMDL
