MODEL 1
REMARK minimizedAffinity -4.74801731
REMARK minimizedRMSD -1
REMARK  1 active torsions:
REMARK  status: ('A' for Active; 'I' for Inactive)
REMARK    1  A    between atoms: C1_2  and  C2_3 
ROOT
ATOM      1  C2  UNL d   1      -0.040  -0.354  -0.360  0.00  0.00    -0.077 A 
ATOM      2  C3  UNL d   1      -0.941  -0.099   0.683  0.00  0.00     0.002 A 
ATOM      3  C4  UNL d   1      -0.677  -0.561   1.973  0.00  0.00     0.002 A 
ATOM      4  C5  UNL d   1       0.490  -1.277   2.233  0.00  0.00    -0.004 A 
ATOM      5  C6  UNL d   1       1.392  -1.536   1.202  0.00  0.00     0.002 A 
ATOM      6  C7  UNL d   1       1.129  -1.076  -0.089  0.00  0.00     0.002 A 
ENDROOT
BRANCH   1   7
ATOM      7  C1  UNL d   1      -0.300   0.186  -1.743  0.00  0.00     0.055 C 
ATOM      8  C   UNL d   1      -1.335   1.302  -1.715  0.00  0.00     0.019 C 
ENDBRANCH   1   7
TORSDOF 1
ENDMDL
