MODEL 1
REMARK minimizedAffinity -3.49489284
REMARK minimizedRMSD -1
REMARK  1 active torsions:
REMARK  status: ('A' for Active; 'I' for Inactive)
REMARK    1  A    between atoms: C1_2  and  C2_3 
ROOT
ATOM      1  C2  UNL d   1      -3.651   2.515  -2.707  0.00  0.00    -0.077 A 
ATOM      2  C3  UNL d   1      -3.379   3.875  -2.910  0.00  0.00     0.002 A 
ATOM      3  C4  UNL d   1      -2.071   4.306  -3.144  0.00  0.00     0.002 A 
ATOM      4  C5  UNL d   1      -1.028   3.384  -3.181  0.00  0.00    -0.004 A 
ATOM      5  C6  UNL d   1      -1.288   2.029  -2.978  0.00  0.00     0.002 A 
ATOM      6  C7  UNL d   1      -2.594   1.596  -2.743  0.00  0.00     0.002 A 
ENDROOT
BRANCH   1   7
ATOM      7  C1  UNL d   1      -5.067   2.042  -2.504  0.00  0.00     0.055 C 
ATOM      8  C   UNL d   1      -5.807   1.925  -3.829  0.00  0.00     0.019 C 
ENDBRANCH   1   7
TORSDOF 1
ENDMDL
