MODEL 1
REMARK minimizedAffinity -5.20267868
REMARK minimizedRMSD -1
REMARK  1 active torsions:
REMARK  status: ('A' for Active; 'I' for Inactive)
REMARK    1  A    between atoms: C1_2  and  C2_3 
ROOT
ATOM      1  C2  UNL d   1       0.165   0.655   0.026  0.00  0.00    -0.077 A 
ATOM      2  C3  UNL d   1      -0.554  -0.539   0.174  0.00  0.00     0.002 A 
ATOM      3  C4  UNL d   1      -0.558  -1.214   1.397  0.00  0.00     0.002 A 
ATOM      4  C5  UNL d   1       0.151  -0.700   2.481  0.00  0.00    -0.004 A 
ATOM      5  C6  UNL d   1       0.871   0.486   2.342  0.00  0.00     0.002 A 
ATOM      6  C7  UNL d   1       0.878   1.161   1.120  0.00  0.00     0.002 A 
ENDROOT
BRANCH   1   7
ATOM      7  C1  UNL d   1       0.131   1.409  -1.278  0.00  0.00     0.055 C 
ATOM      8  C   UNL d   1      -1.236   2.033  -1.521  0.00  0.00     0.019 C 
ENDBRANCH   1   7
TORSDOF 1
ENDMDL
