MODEL 1
REMARK minimizedAffinity 0.0615787506
REMARK minimizedRMSD -1
REMARK  1 active torsions:
REMARK  status: ('A' for Active; 'I' for Inactive)
REMARK    1  A    between atoms: C1_2  and  C2_3 
ROOT
ATOM      1  C2  UNL d   1       1.398  -0.382   0.505  0.00  0.00    -0.077 A 
ATOM      2  C3  UNL d   1       2.006  -0.508   1.762  0.00  0.00     0.002 A 
ATOM      3  C4  UNL d   1       1.245  -0.836   2.886  0.00  0.00     0.002 A 
ATOM      4  C5  UNL d   1      -0.127  -1.043   2.764  0.00  0.00    -0.004 A 
ATOM      5  C6  UNL d   1      -0.742  -0.918   1.519  0.00  0.00     0.002 A 
ATOM      6  C7  UNL d   1       0.017  -0.590   0.394  0.00  0.00     0.002 A 
ENDROOT
BRANCH   1   7
ATOM      7  C1  UNL d   1       2.224  -0.078  -0.716  0.00  0.00     0.055 C 
ATOM      8  C   UNL d   1       2.264  -1.265  -1.668  0.00  0.00     0.019 C 
ENDBRANCH   1   7
TORSDOF 1
ENDMDL
