MODEL 1
REMARK minimizedAffinity -4.19844389
REMARK minimizedRMSD -1
REMARK  1 active torsions:
REMARK  status: ('A' for Active; 'I' for Inactive)
REMARK    1  A    between atoms: C1_2  and  C2_3 
ROOT
ATOM      1  C2  UNL d   1       0.982  -0.995  -0.140  0.00  0.00    -0.077 A 
ATOM      2  C3  UNL d   1       1.737  -0.679   0.998  0.00  0.00     0.002 A 
ATOM      3  C4  UNL d   1       1.102  -0.345   2.196  0.00  0.00     0.002 A 
ATOM      4  C5  UNL d   1      -0.289  -0.327   2.268  0.00  0.00    -0.004 A 
ATOM      5  C6  UNL d   1      -1.049  -0.638   1.140  0.00  0.00     0.002 A 
ATOM      6  C7  UNL d   1      -0.416  -0.972  -0.058  0.00  0.00     0.002 A 
ENDROOT
BRANCH   1   7
ATOM      7  C1  UNL d   1       1.665  -1.404  -1.419  0.00  0.00     0.055 C 
ATOM      8  C   UNL d   1       2.965  -2.145  -1.141  0.00  0.00     0.019 C 
ENDBRANCH   1   7
TORSDOF 1
ENDMDL
