MODEL 1
REMARK minimizedAffinity -3.23782372
REMARK minimizedRMSD -1
REMARK  1 active torsions:
REMARK  status: ('A' for Active; 'I' for Inactive)
REMARK    1  A    between atoms: C1_2  and  C2_3 
ROOT
ATOM      1  C2  UNL d   1      -0.090  -0.373   0.533  0.00  0.00    -0.077 A 
ATOM      2  C3  UNL d   1      -0.725  -0.392   1.783  0.00  0.00     0.002 A 
ATOM      3  C4  UNL d   1       0.027  -0.487   2.956  0.00  0.00     0.002 A 
ATOM      4  C5  UNL d   1       1.417  -0.560   2.890  0.00  0.00    -0.004 A 
ATOM      5  C6  UNL d   1       2.057  -0.543   1.652  0.00  0.00     0.002 A 
ATOM      6  C7  UNL d   1       1.307  -0.449   0.479  0.00  0.00     0.002 A 
ENDROOT
BRANCH   1   7
ATOM      7  C1  UNL d   1      -0.897  -0.220  -0.730  0.00  0.00     0.055 C 
ATOM      8  C   UNL d   1      -0.934   1.229  -1.191  0.00  0.00     0.019 C 
ENDBRANCH   1   7
TORSDOF 1
ENDMDL
