MODEL 1
REMARK minimizedAffinity 2.85820818
REMARK minimizedRMSD -1
REMARK  1 active torsions:
REMARK  status: ('A' for Active; 'I' for Inactive)
REMARK    1  A    between atoms: C1_2  and  C2_3 
ROOT
ATOM      1  C2  UNL d   1      -0.687   3.391  -3.456  0.00  0.00    -0.077 A 
ATOM      2  C3  UNL d   1      -1.149   4.636  -3.007  0.00  0.00     0.002 A 
ATOM      3  C4  UNL d   1      -2.324   4.724  -2.257  0.00  0.00     0.002 A 
ATOM      4  C5  UNL d   1      -3.042   3.571  -1.946  0.00  0.00    -0.004 A 
ATOM      5  C6  UNL d   1      -2.591   2.329  -2.389  0.00  0.00     0.002 A 
ATOM      6  C7  UNL d   1      -1.418   2.239  -3.140  0.00  0.00     0.002 A 
ENDROOT
BRANCH   1   7
ATOM      7  C1  UNL d   1       0.606   3.288  -4.223  0.00  0.00     0.055 C 
ATOM      8  C   UNL d   1       1.805   3.255  -3.287  0.00  0.00     0.019 C 
ENDBRANCH   1   7
TORSDOF 1
ENDMDL
