MODEL 1
REMARK minimizedAffinity -3.33532381
REMARK minimizedRMSD -1
REMARK  0 active torsions:
REMARK  status: ('A' for Active; 'I' for Inactive)
ROOT
ATOM      1  C   UNL d   1       0.421   1.766  -0.612  0.00  0.00     0.078 C 
ATOM      2  C1  UNL d   1       0.651   2.276  -2.003  0.00  0.00    -0.077 A 
ATOM      3  C2  UNL d   1       1.753   1.850  -2.754  0.00  0.00    -0.001 A 
ATOM      4  C3  UNL d   1       1.961   2.340  -4.044  0.00  0.00     0.003 A 
ATOM      5  C4  UNL d   1       1.071   3.260  -4.595  0.00  0.00    -0.005 A 
ATOM      6  C5  UNL d   1      -0.028   3.692  -3.854  0.00  0.00     0.003 A 
ATOM      7  C6  UNL d   1      -0.237   3.203  -2.564  0.00  0.00    -0.001 A 
ENDROOT
TORSDOF 0
ENDMDL
