MODEL 1
REMARK minimizedAffinity -1.29536784
REMARK minimizedRMSD -1
REMARK  0 active torsions:
REMARK  status: ('A' for Active; 'I' for Inactive)
ROOT
ATOM      1  C   UNL d   1      -0.170   1.086  -0.443  0.00  0.00     0.078 C 
ATOM      2  C1  UNL d   1       1.148   0.756   0.191  0.00  0.00    -0.077 A 
ATOM      3  C2  UNL d   1       2.020   1.768   0.611  0.00  0.00    -0.001 A 
ATOM      4  C3  UNL d   1       3.248   1.446   1.191  0.00  0.00     0.003 A 
ATOM      5  C4  UNL d   1       3.616   0.112   1.356  0.00  0.00    -0.005 A 
ATOM      6  C5  UNL d   1       2.756  -0.902   0.939  0.00  0.00     0.003 A 
ATOM      7  C6  UNL d   1       1.528  -0.582   0.359  0.00  0.00    -0.001 A 
ENDROOT
TORSDOF 0
ENDMDL
