MODEL 1
REMARK minimizedAffinity -1.89495754
REMARK minimizedRMSD -1
REMARK  0 active torsions:
REMARK  status: ('A' for Active; 'I' for Inactive)
ROOT
ATOM      1  C   UNL d   1       0.514   0.790   0.159  0.00  0.00     0.078 C 
ATOM      2  C1  UNL d   1       1.831   0.774   0.877  0.00  0.00    -0.077 A 
ATOM      3  C2  UNL d   1       2.352  -0.416   1.399  0.00  0.00    -0.001 A 
ATOM      4  C3  UNL d   1       3.574  -0.415   2.074  0.00  0.00     0.003 A 
ATOM      5  C4  UNL d   1       4.284   0.773   2.233  0.00  0.00    -0.005 A 
ATOM      6  C5  UNL d   1       3.772   1.963   1.719  0.00  0.00     0.003 A 
ATOM      7  C6  UNL d   1       2.550   1.963   1.044  0.00  0.00    -0.001 A 
ENDROOT
TORSDOF 0
ENDMDL
