MODEL 1
REMARK minimizedAffinity 0.731392443
REMARK minimizedRMSD -1
REMARK  0 active torsions:
REMARK  status: ('A' for Active; 'I' for Inactive)
ROOT
ATOM      1  C   UNL d   1       4.119   6.000   0.392  0.00  0.00     0.078 C 
ATOM      2  C1  UNL d   1       3.961   4.559   0.775  0.00  0.00    -0.077 A 
ATOM      3  C2  UNL d   1       3.739   3.574  -0.196  0.00  0.00    -0.001 A 
ATOM      4  C3  UNL d   1       3.585   2.238   0.176  0.00  0.00     0.003 A 
ATOM      5  C4  UNL d   1       3.650   1.873   1.519  0.00  0.00    -0.005 A 
ATOM      6  C5  UNL d   1       3.869   2.846   2.493  0.00  0.00     0.003 A 
ATOM      7  C6  UNL d   1       4.023   4.183   2.123  0.00  0.00    -0.001 A 
ENDROOT
TORSDOF 0
ENDMDL
