MODEL 1
REMARK minimizedAffinity -0.612708271
REMARK minimizedRMSD -1
REMARK  0 active torsions:
REMARK  status: ('A' for Active; 'I' for Inactive)
ROOT
ATOM      1  C   UNL d   1      -0.130   0.027  -0.429  0.00  0.00     0.078 C 
ATOM      2  C1  UNL d   1       1.173   0.361   0.234  0.00  0.00    -0.077 A 
ATOM      3  C2  UNL d   1       1.530   1.690   0.494  0.00  0.00    -0.001 A 
ATOM      4  C3  UNL d   1       2.750   1.987   1.102  0.00  0.00     0.003 A 
ATOM      5  C4  UNL d   1       3.624   0.961   1.455  0.00  0.00    -0.005 A 
ATOM      6  C5  UNL d   1       3.279  -0.364   1.198  0.00  0.00     0.003 A 
ATOM      7  C6  UNL d   1       2.059  -0.663   0.589  0.00  0.00    -0.001 A 
ENDROOT
TORSDOF 0
ENDMDL
