MODEL 1
REMARK minimizedAffinity -4.77487087
REMARK minimizedRMSD -1
REMARK  0 active torsions:
REMARK  status: ('A' for Active; 'I' for Inactive)
ROOT
ATOM      1  C   UNL d   1      -1.759  -2.540   0.963  0.00  0.00     0.078 C 
ATOM      2  C1  UNL d   1      -1.194  -1.193   0.624  0.00  0.00    -0.077 A 
ATOM      3  C2  UNL d   1       0.082  -1.067   0.061  0.00  0.00    -0.001 A 
ATOM      4  C3  UNL d   1       0.599   0.194  -0.241  0.00  0.00     0.003 A 
ATOM      5  C4  UNL d   1      -0.153   1.338   0.017  0.00  0.00    -0.005 A 
ATOM      6  C5  UNL d   1      -1.423   1.223   0.579  0.00  0.00     0.003 A 
ATOM      7  C6  UNL d   1      -1.941  -0.037   0.882  0.00  0.00    -0.001 A 
ENDROOT
TORSDOF 0
ENDMDL
