MODEL 1
REMARK minimizedAffinity -4.7361331
REMARK minimizedRMSD -1
REMARK  0 active torsions:
REMARK  status: ('A' for Active; 'I' for Inactive)
ROOT
ATOM      1  C   UNL d   1       0.390   0.899  -0.025  0.00  0.00     0.078 C 
ATOM      2  C1  UNL d   1      -0.181  -0.423   0.390  0.00  0.00    -0.077 A 
ATOM      3  C2  UNL d   1      -1.490  -0.783   0.046  0.00  0.00    -0.001 A 
ATOM      4  C3  UNL d   1      -2.013  -2.014   0.447  0.00  0.00     0.003 A 
ATOM      5  C4  UNL d   1      -1.234  -2.894   1.196  0.00  0.00    -0.005 A 
ATOM      6  C5  UNL d   1       0.069  -2.543   1.546  0.00  0.00     0.003 A 
ATOM      7  C6  UNL d   1       0.593  -1.313   1.145  0.00  0.00    -0.001 A 
ENDROOT
TORSDOF 0
ENDMDL
