MODEL 1
REMARK minimizedAffinity -4.47714186
REMARK minimizedRMSD -1
REMARK  0 active torsions:
REMARK  status: ('A' for Active; 'I' for Inactive)
ROOT
ATOM      1  C   UNL d   1      -1.345  -2.925   0.412  0.00  0.00     0.078 C 
ATOM      2  C1  UNL d   1      -1.041  -1.457   0.446  0.00  0.00    -0.077 A 
ATOM      3  C2  UNL d   1       0.252  -0.982   0.197  0.00  0.00    -0.001 A 
ATOM      4  C3  UNL d   1       0.522   0.387   0.241  0.00  0.00     0.003 A 
ATOM      5  C4  UNL d   1      -0.497   1.292   0.536  0.00  0.00    -0.005 A 
ATOM      6  C5  UNL d   1      -1.786   0.828   0.788  0.00  0.00     0.003 A 
ATOM      7  C6  UNL d   1      -2.058  -0.541   0.744  0.00  0.00    -0.001 A 
ENDROOT
TORSDOF 0
ENDMDL
