MODEL 1
REMARK minimizedAffinity -2.07989907
REMARK minimizedRMSD -1
REMARK  0 active torsions:
REMARK  status: ('A' for Active; 'I' for Inactive)
ROOT
ATOM      1  C   UNL d   1       3.495   0.509   1.603  0.00  0.00     0.078 C 
ATOM      2  C1  UNL d   1       2.202   0.215   0.903  0.00  0.00    -0.077 A 
ATOM      3  C2  UNL d   1       1.503   1.223   0.227  0.00  0.00    -0.001 A 
ATOM      4  C3  UNL d   1       0.296   0.938  -0.413  0.00  0.00     0.003 A 
ATOM      5  C4  UNL d   1      -0.223  -0.355  -0.382  0.00  0.00    -0.005 A 
ATOM      6  C5  UNL d   1       0.464  -1.364   0.289  0.00  0.00     0.003 A 
ATOM      7  C6  UNL d   1       1.671  -1.080   0.930  0.00  0.00    -0.001 A 
ENDROOT
TORSDOF 0
ENDMDL
