MODEL 1
REMARK minimizedAffinity -5.07898188
REMARK minimizedRMSD -1
REMARK  0 active torsions:
REMARK  status: ('A' for Active; 'I' for Inactive)
ROOT
ATOM      1  C   UNL d   1       2.240  -0.388   1.004  0.00  0.00     0.078 C 
ATOM      2  C1  UNL d   1       0.824  -0.830   0.783  0.00  0.00    -0.077 A 
ATOM      3  C2  UNL d   1       0.002  -0.178  -0.145  0.00  0.00    -0.001 A 
ATOM      4  C3  UNL d   1      -1.317  -0.594  -0.334  0.00  0.00     0.003 A 
ATOM      5  C4  UNL d   1      -1.826  -1.661   0.403  0.00  0.00    -0.005 A 
ATOM      6  C5  UNL d   1      -1.017  -2.314   1.330  0.00  0.00     0.003 A 
ATOM      7  C6  UNL d   1       0.303  -1.900   1.520  0.00  0.00    -0.001 A 
ENDROOT
TORSDOF 0
ENDMDL
