MODEL 1
REMARK minimizedAffinity -5.21777582
REMARK minimizedRMSD -1
REMARK  0 active torsions:
REMARK  status: ('A' for Active; 'I' for Inactive)
ROOT
ATOM      1  C   UNL d   1      -1.807  -2.909   0.908  0.00  0.00     0.078 C 
ATOM      2  C1  UNL d   1      -0.799  -1.801   0.835  0.00  0.00    -0.077 A 
ATOM      3  C2  UNL d   1      -1.185  -0.495   0.508  0.00  0.00    -0.001 A 
ATOM      4  C3  UNL d   1      -0.234   0.524   0.434  0.00  0.00     0.003 A 
ATOM      5  C4  UNL d   1       1.108   0.248   0.685  0.00  0.00    -0.005 A 
ATOM      6  C5  UNL d   1       1.502  -1.048   1.009  0.00  0.00     0.003 A 
ATOM      7  C6  UNL d   1       0.553  -2.069   1.083  0.00  0.00    -0.001 A 
ENDROOT
TORSDOF 0
ENDMDL
