MODEL 1
REMARK minimizedAffinity -0.273004532
REMARK minimizedRMSD -1
REMARK  0 active torsions:
REMARK  status: ('A' for Active; 'I' for Inactive)
ROOT
ATOM      1  C   UNL d   1      -4.475   5.973   1.876  0.00  0.00     0.078 C 
ATOM      2  C1  UNL d   1      -3.754   5.989   3.190  0.00  0.00    -0.077 A 
ATOM      3  C2  UNL d   1      -2.355   5.994   3.246  0.00  0.00    -0.001 A 
ATOM      4  C3  UNL d   1      -1.697   5.999   4.477  0.00  0.00     0.003 A 
ATOM      5  C4  UNL d   1      -2.430   5.997   5.662  0.00  0.00    -0.005 A 
ATOM      6  C5  UNL d   1      -3.822   5.989   5.617  0.00  0.00     0.003 A 
ATOM      7  C6  UNL d   1      -4.482   5.985   4.387  0.00  0.00    -0.001 A 
ENDROOT
TORSDOF 0
ENDMDL
