MODEL 1
REMARK minimizedAffinity -2.57416654
REMARK minimizedRMSD -1
REMARK  0 active torsions:
REMARK  status: ('A' for Active; 'I' for Inactive)
ROOT
ATOM      1  C   UNL d   1      -2.994   5.994   5.999  0.00  0.00     0.078 C 
ATOM      2  C1  UNL d   1      -3.349   5.890   4.546  0.00  0.00    -0.077 A 
ATOM      3  C2  UNL d   1      -2.367   6.000   3.554  0.00  0.00    -0.001 A 
ATOM      4  C3  UNL d   1      -2.713   5.910   2.205  0.00  0.00     0.003 A 
ATOM      5  C4  UNL d   1      -4.041   5.711   1.835  0.00  0.00    -0.005 A 
ATOM      6  C5  UNL d   1      -5.026   5.602   2.815  0.00  0.00     0.003 A 
ATOM      7  C6  UNL d   1      -4.682   5.691   4.164  0.00  0.00    -0.001 A 
ENDROOT
TORSDOF 0
ENDMDL
