MODEL 1
REMARK minimizedAffinity -1.3465085
REMARK minimizedRMSD -1
REMARK  0 active torsions:
REMARK  status: ('A' for Active; 'I' for Inactive)
ROOT
ATOM      1  C   UNL d   1      -5.897   5.975   1.885  0.00  0.00     0.078 C 
ATOM      2  C1  UNL d   1      -4.816   5.968   2.924  0.00  0.00    -0.077 A 
ATOM      3  C2  UNL d   1      -5.128   5.985   4.289  0.00  0.00    -0.001 A 
ATOM      4  C3  UNL d   1      -4.111   5.988   5.245  0.00  0.00     0.003 A 
ATOM      5  C4  UNL d   1      -2.776   5.976   4.847  0.00  0.00    -0.005 A 
ATOM      6  C5  UNL d   1      -2.456   5.962   3.491  0.00  0.00     0.003 A 
ATOM      7  C6  UNL d   1      -3.471   5.959   2.533  0.00  0.00    -0.001 A 
ENDROOT
TORSDOF 0
ENDMDL
