MODEL 1
REMARK minimizedAffinity -3.02031159
REMARK minimizedRMSD -1
REMARK  0 active torsions:
REMARK  status: ('A' for Active; 'I' for Inactive)
ROOT
ATOM      1  C   UNL d   1      -3.766   5.625   5.371  0.00  0.00     0.078 C 
ATOM      2  C1  UNL d   1      -4.016   5.630   3.892  0.00  0.00    -0.077 A 
ATOM      3  C2  UNL d   1      -3.006   5.990   2.992  0.00  0.00    -0.001 A 
ATOM      4  C3  UNL d   1      -3.256   6.000   1.618  0.00  0.00     0.003 A 
ATOM      5  C4  UNL d   1      -4.515   5.650   1.134  0.00  0.00    -0.005 A 
ATOM      6  C5  UNL d   1      -5.526   5.292   2.022  0.00  0.00     0.003 A 
ATOM      7  C6  UNL d   1      -5.278   5.282   3.396  0.00  0.00    -0.001 A 
ENDROOT
TORSDOF 0
ENDMDL
