MODEL 1
REMARK minimizedAffinity -2.17532325
REMARK minimizedRMSD -1
REMARK  0 active torsions:
REMARK  status: ('A' for Active; 'I' for Inactive)
ROOT
ATOM      1  C   UNL d   1      -2.676   5.998   5.617  0.00  0.00     0.078 C 
ATOM      2  C1  UNL d   1      -3.352   5.991   4.279  0.00  0.00    -0.077 A 
ATOM      3  C2  UNL d   1      -2.606   5.994   3.094  0.00  0.00    -0.001 A 
ATOM      4  C3  UNL d   1      -3.249   5.997   1.855  0.00  0.00     0.003 A 
ATOM      5  C4  UNL d   1      -4.641   5.999   1.789  0.00  0.00    -0.005 A 
ATOM      6  C5  UNL d   1      -5.392   5.999   2.963  0.00  0.00     0.003 A 
ATOM      7  C6  UNL d   1      -4.750   5.996   4.203  0.00  0.00    -0.001 A 
ENDROOT
TORSDOF 0
ENDMDL
