MODEL 1
REMARK minimizedAffinity -3.52438879
REMARK minimizedRMSD -1
REMARK  0 active torsions:
REMARK  status: ('A' for Active; 'I' for Inactive)
ROOT
ATOM      1  C   UNL d   1      -3.404   6.000   1.508  0.00  0.00     0.078 C 
ATOM      2  C1  UNL d   1      -3.802   5.599   2.897  0.00  0.00    -0.077 A 
ATOM      3  C2  UNL d   1      -4.953   4.836   3.126  0.00  0.00    -0.001 A 
ATOM      4  C3  UNL d   1      -5.316   4.478   4.425  0.00  0.00     0.003 A 
ATOM      5  C4  UNL d   1      -4.533   4.879   5.506  0.00  0.00    -0.005 A 
ATOM      6  C5  UNL d   1      -3.387   5.641   5.288  0.00  0.00     0.003 A 
ATOM      7  C6  UNL d   1      -3.023   6.000   3.989  0.00  0.00    -0.001 A 
ENDROOT
TORSDOF 0
ENDMDL
