MODEL 1
REMARK minimizedAffinity -4.04055595
REMARK minimizedRMSD -1
REMARK  0 active torsions:
REMARK  status: ('A' for Active; 'I' for Inactive)
ROOT
ATOM      1  C   UNL d   1      -4.174   5.978   5.753  0.00  0.00     0.078 C 
ATOM      2  C1  UNL d   1      -3.917   5.993   4.275  0.00  0.00    -0.077 A 
ATOM      3  C2  UNL d   1      -4.976   5.991   3.359  0.00  0.00    -0.001 A 
ATOM      4  C3  UNL d   1      -4.721   5.996   1.986  0.00  0.00     0.003 A 
ATOM      5  C4  UNL d   1      -3.409   6.000   1.518  0.00  0.00    -0.005 A 
ATOM      6  C5  UNL d   1      -2.349   5.999   2.423  0.00  0.00     0.003 A 
ATOM      7  C6  UNL d   1      -2.601   5.995   3.795  0.00  0.00    -0.001 A 
ENDROOT
TORSDOF 0
ENDMDL
