MODEL 1
REMARK minimizedAffinity -2.59834504
REMARK minimizedRMSD -1
REMARK  0 active torsions:
REMARK  status: ('A' for Active; 'I' for Inactive)
ROOT
ATOM      1  C   UNL d   1      -3.047   5.982   5.471  0.00  0.00     0.078 C 
ATOM      2  C1  UNL d   1      -3.507   5.995   4.043  0.00  0.00    -0.077 A 
ATOM      3  C2  UNL d   1      -4.871   5.997   3.725  0.00  0.00    -0.001 A 
ATOM      4  C3  UNL d   1      -5.284   6.000   2.392  0.00  0.00     0.003 A 
ATOM      5  C4  UNL d   1      -4.341   6.000   1.367  0.00  0.00    -0.005 A 
ATOM      6  C5  UNL d   1      -2.982   5.996   1.674  0.00  0.00     0.003 A 
ATOM      7  C6  UNL d   1      -2.566   5.993   3.006  0.00  0.00    -0.001 A 
ENDROOT
TORSDOF 0
ENDMDL
