MODEL 1
REMARK minimizedAffinity -2.63299656
REMARK minimizedRMSD -1
REMARK  0 active torsions:
REMARK  status: ('A' for Active; 'I' for Inactive)
ROOT
ATOM      1  C   UNL d   1      -4.580   5.999   1.910  0.00  0.00     0.078 C 
ATOM      2  C1  UNL d   1      -4.134   5.304   3.162  0.00  0.00    -0.077 A 
ATOM      3  C2  UNL d   1      -3.737   3.961   3.139  0.00  0.00    -0.001 A 
ATOM      4  C3  UNL d   1      -3.334   3.325   4.314  0.00  0.00     0.003 A 
ATOM      5  C4  UNL d   1      -3.325   4.022   5.520  0.00  0.00    -0.005 A 
ATOM      6  C5  UNL d   1      -3.720   5.358   5.553  0.00  0.00     0.003 A 
ATOM      7  C6  UNL d   1      -4.124   5.996   4.380  0.00  0.00    -0.001 A 
ENDROOT
TORSDOF 0
ENDMDL
