MODEL 1
REMARK minimizedAffinity -2.39206338
REMARK minimizedRMSD -1
REMARK  0 active torsions:
REMARK  status: ('A' for Active; 'I' for Inactive)
ROOT
ATOM      1  C   UNL d   1      -3.741   5.693   5.944  0.00  0.00     0.078 C 
ATOM      2  C1  UNL d   1      -4.006   5.688   4.468  0.00  0.00    -0.077 A 
ATOM      3  C2  UNL d   1      -5.271   5.364   3.963  0.00  0.00    -0.001 A 
ATOM      4  C3  UNL d   1      -5.501   5.354   2.586  0.00  0.00     0.003 A 
ATOM      5  C4  UNL d   1      -4.469   5.667   1.703  0.00  0.00    -0.005 A 
ATOM      6  C5  UNL d   1      -3.206   5.989   2.196  0.00  0.00     0.003 A 
ATOM      7  C6  UNL d   1      -2.975   5.999   3.572  0.00  0.00    -0.001 A 
ENDROOT
TORSDOF 0
ENDMDL
