MODEL 1
REMARK minimizedAffinity -2.11552691
REMARK minimizedRMSD -1
REMARK  0 active torsions:
REMARK  status: ('A' for Active; 'I' for Inactive)
ROOT
ATOM      1  C   UNL d   1      -2.769   1.969   3.009  0.00  0.00     0.078 C 
ATOM      2  C1  UNL d   1      -3.196   3.372   3.319  0.00  0.00    -0.077 A 
ATOM      3  C2  UNL d   1      -3.761   4.189   2.332  0.00  0.00    -0.001 A 
ATOM      4  C3  UNL d   1      -4.145   5.497   2.632  0.00  0.00     0.003 A 
ATOM      5  C4  UNL d   1      -3.967   6.000   3.920  0.00  0.00    -0.005 A 
ATOM      6  C5  UNL d   1      -3.405   5.195   4.908  0.00  0.00     0.003 A 
ATOM      7  C6  UNL d   1      -3.020   3.887   4.610  0.00  0.00    -0.001 A 
ENDROOT
TORSDOF 0
ENDMDL
