MODEL 1
REMARK minimizedAffinity 0.54089123
REMARK minimizedRMSD -1
REMARK  0 active torsions:
REMARK  status: ('A' for Active; 'I' for Inactive)
ROOT
ATOM      1  C   UNL d   1      -2.655   5.991   5.484  0.00  0.00     0.078 C 
ATOM      2  C1  UNL d   1      -3.020   5.271   4.220  0.00  0.00    -0.077 A 
ATOM      3  C2  UNL d   1      -2.984   3.873   4.150  0.00  0.00    -0.001 A 
ATOM      4  C3  UNL d   1      -3.317   3.217   2.965  0.00  0.00     0.003 A 
ATOM      5  C4  UNL d   1      -3.688   3.950   1.839  0.00  0.00    -0.005 A 
ATOM      6  C5  UNL d   1      -3.724   5.342   1.898  0.00  0.00     0.003 A 
ATOM      7  C6  UNL d   1      -3.391   6.000   3.083  0.00  0.00    -0.001 A 
ENDROOT
TORSDOF 0
ENDMDL
