MODEL 1
REMARK minimizedAffinity 0.26316306
REMARK minimizedRMSD -1
REMARK  0 active torsions:
REMARK  status: ('A' for Active; 'I' for Inactive)
ROOT
ATOM      1  C   UNL d   1       5.256   0.752  -5.999  0.00  0.00     0.078 C 
ATOM      2  C1  UNL d   1       3.945   0.900  -5.287  0.00  0.00    -0.077 A 
ATOM      3  C2  UNL d   1       2.742   0.977  -6.000  0.00  0.00    -0.001 A 
ATOM      4  C3  UNL d   1       1.529   1.125  -5.325  0.00  0.00     0.003 A 
ATOM      5  C4  UNL d   1       1.508   1.199  -3.933  0.00  0.00    -0.005 A 
ATOM      6  C5  UNL d   1       2.700   1.126  -3.216  0.00  0.00     0.003 A 
ATOM      7  C6  UNL d   1       3.913   0.978  -3.889  0.00  0.00    -0.001 A 
ENDROOT
TORSDOF 0
ENDMDL
