MODEL 1
REMARK minimizedAffinity 1.00369513
REMARK minimizedRMSD -1
REMARK  0 active torsions:
REMARK  status: ('A' for Active; 'I' for Inactive)
ROOT
ATOM      1  C   UNL d   1      -2.738   1.545   2.563  0.00  0.00     0.078 C 
ATOM      2  C1  UNL d   1      -2.884   3.037   2.606  0.00  0.00    -0.077 A 
ATOM      3  C2  UNL d   1      -3.345   3.749   1.492  0.00  0.00    -0.001 A 
ATOM      4  C3  UNL d   1      -3.466   5.139   1.543  0.00  0.00     0.003 A 
ATOM      5  C4  UNL d   1      -3.128   5.828   2.706  0.00  0.00    -0.005 A 
ATOM      6  C5  UNL d   1      -2.667   5.128   3.819  0.00  0.00     0.003 A 
ATOM      7  C6  UNL d   1      -2.544   3.739   3.769  0.00  0.00    -0.001 A 
ENDROOT
TORSDOF 0
ENDMDL
