MODEL 1
REMARK minimizedAffinity -2.33578491
REMARK minimizedRMSD -1
REMARK  0 active torsions:
REMARK  status: ('A' for Active; 'I' for Inactive)
ROOT
ATOM      1  C   UNL d   1       5.622   4.879   3.846  0.00  0.00     0.078 C 
ATOM      2  C1  UNL d   1       5.249   5.034   2.402  0.00  0.00    -0.077 A 
ATOM      3  C2  UNL d   1       5.995   5.857   1.549  0.00  0.00    -0.001 A 
ATOM      4  C3  UNL d   1       5.630   6.000   0.209  0.00  0.00     0.003 A 
ATOM      5  C4  UNL d   1       4.519   5.324  -0.289  0.00  0.00    -0.005 A 
ATOM      6  C5  UNL d   1       3.769   4.504   0.553  0.00  0.00     0.003 A 
ATOM      7  C6  UNL d   1       4.132   4.360   1.893  0.00  0.00    -0.001 A 
ENDROOT
TORSDOF 0
ENDMDL
