MODEL 1
REMARK minimizedAffinity -1.23238266
REMARK minimizedRMSD -1
REMARK  0 active torsions:
REMARK  status: ('A' for Active; 'I' for Inactive)
ROOT
ATOM      1  C   UNL d   1      -4.739   5.998   2.206  0.00  0.00     0.078 C 
ATOM      2  C1  UNL d   1      -4.040   5.991   3.533  0.00  0.00    -0.077 A 
ATOM      3  C2  UNL d   1      -4.765   5.995   4.730  0.00  0.00    -0.001 A 
ATOM      4  C3  UNL d   1      -4.101   5.998   5.958  0.00  0.00     0.003 A 
ATOM      5  C4  UNL d   1      -2.708   5.999   6.000  0.00  0.00    -0.005 A 
ATOM      6  C5  UNL d   1      -1.977   5.998   4.813  0.00  0.00     0.003 A 
ATOM      7  C6  UNL d   1      -2.640   5.994   3.585  0.00  0.00    -0.001 A 
ENDROOT
TORSDOF 0
ENDMDL
