MODEL 1
REMARK minimizedAffinity -0.624771655
REMARK minimizedRMSD -1
REMARK  0 active torsions:
REMARK  status: ('A' for Active; 'I' for Inactive)
ROOT
ATOM      1  C   UNL d   1       1.561   1.488  -3.402  0.00  0.00     0.078 C 
ATOM      2  C1  UNL d   1       1.756   2.772  -4.151  0.00  0.00    -0.077 A 
ATOM      3  C2  UNL d   1       1.018   3.052  -5.307  0.00  0.00    -0.001 A 
ATOM      4  C3  UNL d   1       1.217   4.248  -6.000  0.00  0.00     0.003 A 
ATOM      5  C4  UNL d   1       2.155   5.172  -5.544  0.00  0.00    -0.005 A 
ATOM      6  C5  UNL d   1       2.896   4.902  -4.395  0.00  0.00     0.003 A 
ATOM      7  C6  UNL d   1       2.698   3.707  -3.702  0.00  0.00    -0.001 A 
ENDROOT
TORSDOF 0
ENDMDL
