MODEL 1
REMARK minimizedAffinity -1.13296318
REMARK minimizedRMSD -1
REMARK  0 active torsions:
REMARK  status: ('A' for Active; 'I' for Inactive)
ROOT
ATOM      1  C   UNL d   1      -3.785   5.993   1.482  0.00  0.00     0.078 C 
ATOM      2  C1  UNL d   1      -3.590   5.987   2.969  0.00  0.00    -0.077 A 
ATOM      3  C2  UNL d   1      -4.686   5.995   3.840  0.00  0.00    -0.001 A 
ATOM      4  C3  UNL d   1      -4.489   5.999   5.222  0.00  0.00     0.003 A 
ATOM      5  C4  UNL d   1      -3.197   5.995   5.745  0.00  0.00    -0.005 A 
ATOM      6  C5  UNL d   1      -2.100   5.989   4.885  0.00  0.00     0.003 A 
ATOM      7  C6  UNL d   1      -2.295   5.985   3.503  0.00  0.00    -0.001 A 
ENDROOT
TORSDOF 0
ENDMDL
