MODEL 1
REMARK minimizedAffinity -0.727699518
REMARK minimizedRMSD -1
REMARK  0 active torsions:
REMARK  status: ('A' for Active; 'I' for Inactive)
ROOT
ATOM      1  C   UNL d   1      -4.561   5.986   2.294  0.00  0.00     0.078 C 
ATOM      2  C1  UNL d   1      -3.691   5.997   3.515  0.00  0.00    -0.077 A 
ATOM      3  C2  UNL d   1      -2.295   5.999   3.405  0.00  0.00    -0.001 A 
ATOM      4  C3  UNL d   1      -1.497   5.998   4.550  0.00  0.00     0.003 A 
ATOM      5  C4  UNL d   1      -2.086   5.995   5.813  0.00  0.00    -0.005 A 
ATOM      6  C5  UNL d   1      -3.474   5.990   5.932  0.00  0.00     0.003 A 
ATOM      7  C6  UNL d   1      -4.273   5.991   4.788  0.00  0.00    -0.001 A 
ENDROOT
TORSDOF 0
ENDMDL
