MODEL 1
REMARK minimizedAffinity 0.0909673944
REMARK minimizedRMSD -1
REMARK  1 active torsions:
REMARK  status: ('A' for Active; 'I' for Inactive)
REMARK    1  A    between atoms: C1_2  and  C2_3 
ROOT
ATOM      1  C2  UNL d   1       0.917  -1.954   1.531  0.00  0.00    -0.081 A 
ATOM      2  C3  UNL d   1      -0.070  -1.047   1.937  0.00  0.00     0.006 A 
ATOM      3  C4  UNL d   1      -0.528  -0.061   1.060  0.00  0.00     0.002 A 
ATOM      4  C5  UNL d   1      -0.014   0.029  -0.238  0.00  0.00    -0.080 A 
ATOM      5  C6  UNL d   1      -0.520   1.064  -1.199  0.00  0.00     0.076 C 
ATOM      6  C7  UNL d   1       0.984  -0.865  -0.637  0.00  0.00     0.002 A 
ATOM      7  C8  UNL d   1       1.444  -1.851   0.239  0.00  0.00     0.006 A 
ENDROOT
BRANCH   1   8
ATOM      8  C1  UNL d   1       1.368  -3.059   2.453  0.00  0.00     0.054 C 
ATOM      9  C   UNL d   1       1.812  -4.286   1.669  0.00  0.00     0.018 C 
ENDBRANCH   1   8
TORSDOF 1
ENDMDL
