MODEL 1
REMARK minimizedAffinity -1.37485516
REMARK minimizedRMSD -1
REMARK  1 active torsions:
REMARK  status: ('A' for Active; 'I' for Inactive)
REMARK    1  A    between atoms: C1_2  and  C2_3 
ROOT
ATOM      1  C2  UNL d   1      -1.157   0.084  -0.460  0.00  0.00    -0.081 A 
ATOM      2  C3  UNL d   1      -0.037  -0.311  -1.202  0.00  0.00     0.006 A 
ATOM      3  C4  UNL d   1       0.336   0.391  -2.350  0.00  0.00     0.002 A 
ATOM      4  C5  UNL d   1      -0.400   1.503  -2.773  0.00  0.00    -0.080 A 
ATOM      5  C6  UNL d   1       0.007   2.284  -3.987  0.00  0.00     0.076 C 
ATOM      6  C7  UNL d   1      -1.530   1.887  -2.042  0.00  0.00     0.002 A 
ATOM      7  C8  UNL d   1      -1.903   1.186  -0.894  0.00  0.00     0.006 A 
ENDROOT
BRANCH   1   8
ATOM      8  C1  UNL d   1      -1.524  -0.631   0.815  0.00  0.00     0.054 C 
ATOM      9  C   UNL d   1      -0.388  -0.577   1.826  0.00  0.00     0.018 C 
ENDBRANCH   1   8
TORSDOF 1
ENDMDL
