MODEL 1
REMARK minimizedAffinity -4.13497972
REMARK minimizedRMSD -1
REMARK  1 active torsions:
REMARK  status: ('A' for Active; 'I' for Inactive)
REMARK    1  A    between atoms: C1_2  and  C2_3 
ROOT
ATOM      1  C2  UNL d   1      -0.508   0.775  -1.051  0.00  0.00    -0.081 A 
ATOM      2  C3  UNL d   1      -0.924   1.035   0.261  0.00  0.00     0.006 A 
ATOM      3  C4  UNL d   1      -0.327   0.374   1.337  0.00  0.00     0.002 A 
ATOM      4  C5  UNL d   1       0.700  -0.550   1.121  0.00  0.00    -0.080 A 
ATOM      5  C6  UNL d   1       1.370  -1.244   2.270  0.00  0.00     0.076 C 
ATOM      6  C7  UNL d   1       1.105  -0.823  -0.190  0.00  0.00     0.002 A 
ATOM      7  C8  UNL d   1       0.508  -0.163  -1.267  0.00  0.00     0.006 A 
ENDROOT
BRANCH   1   8
ATOM      8  C1  UNL d   1      -1.105   1.533  -2.209  0.00  0.00     0.054 C 
ATOM      9  C   UNL d   1      -0.036   2.292  -2.983  0.00  0.00     0.018 C 
ENDBRANCH   1   8
TORSDOF 1
ENDMDL
