MODEL 1
REMARK minimizedAffinity -4.11273384
REMARK minimizedRMSD -1
REMARK  1 active torsions:
REMARK  status: ('A' for Active; 'I' for Inactive)
REMARK    1  A    between atoms: C1_2  and  C2_3 
ROOT
ATOM      1  C2  UNL d   1      -0.911   1.353  -0.768  0.00  0.00    -0.081 A 
ATOM      2  C3  UNL d   1      -1.339   1.914   0.442  0.00  0.00     0.006 A 
ATOM      3  C4  UNL d   1      -1.183   1.214   1.641  0.00  0.00     0.002 A 
ATOM      4  C5  UNL d   1      -0.590  -0.053   1.651  0.00  0.00    -0.080 A 
ATOM      5  C6  UNL d   1      -0.389  -0.802   2.935  0.00  0.00     0.076 C 
ATOM      6  C7  UNL d   1      -0.179  -0.621   0.440  0.00  0.00     0.002 A 
ATOM      7  C8  UNL d   1      -0.335   0.078  -0.759  0.00  0.00     0.006 A 
ENDROOT
BRANCH   1   8
ATOM      8  C1  UNL d   1      -1.020   2.132  -2.054  0.00  0.00     0.054 C 
ATOM      9  C   UNL d   1      -1.825   3.409  -1.861  0.00  0.00     0.018 C 
ENDBRANCH   1   8
TORSDOF 1
ENDMDL
