MODEL 1
REMARK minimizedAffinity -2.88470078
REMARK minimizedRMSD -1
REMARK  1 active torsions:
REMARK  status: ('A' for Active; 'I' for Inactive)
REMARK    1  A    between atoms: C1_2  and  C2_3 
ROOT
ATOM      1  C2  UNL d   1      -0.907   0.396  -1.109  0.00  0.00    -0.081 A 
ATOM      2  C3  UNL d   1      -1.515   0.457   0.151  0.00  0.00     0.006 A 
ATOM      3  C4  UNL d   1      -1.011  -0.292   1.218  0.00  0.00     0.002 A 
ATOM      4  C5  UNL d   1       0.113  -1.107   1.045  0.00  0.00    -0.080 A 
ATOM      5  C6  UNL d   1       0.681  -1.892   2.189  0.00  0.00     0.076 C 
ATOM      6  C7  UNL d   1       0.710  -1.182  -0.218  0.00  0.00     0.002 A 
ATOM      7  C8  UNL d   1       0.206  -0.434  -1.285  0.00  0.00     0.006 A 
ENDROOT
BRANCH   1   8
ATOM      8  C1  UNL d   1      -1.408   1.251  -2.244  0.00  0.00     0.054 C 
ATOM      9  C   UNL d   1      -0.622   2.550  -2.347  0.00  0.00     0.018 C 
ENDBRANCH   1   8
TORSDOF 1
ENDMDL
