MODEL 1
REMARK minimizedAffinity 8.37001133
REMARK minimizedRMSD -1
REMARK  0 active torsions:
REMARK  status: ('A' for Active; 'I' for Inactive)
ROOT
ATOM      1  C   UNL d   1       1.968   1.644  -1.846  0.00  0.00     0.124 A 
ATOM      2  C1  UNL d   1       1.371   1.157  -3.001  0.00  0.00     0.062 A 
ATOM      3  C2  UNL d   1       1.310   1.947  -4.145  0.00  0.00     0.162 A 
ATOM      4  C3  UNL d   1       1.848   3.234  -4.141  0.00  0.00    -0.034 A 
ATOM      5  C4  UNL d   1       2.446   3.718  -2.976  0.00  0.00     0.162 A 
ATOM      6  C5  UNL d   1       2.504   2.924  -1.835  0.00  0.00     0.062 A 
ATOM      7  F   UNL d   1       3.081   3.397  -0.721  0.00  0.00    -0.097 F 
ATOM      8  F1  UNL d   1       2.973   4.950  -2.937  0.00  0.00    -0.096 F 
ATOM      9  I   UNL d   1       1.758   4.419  -5.849  0.00  0.00    -0.060 I 
ATOM     10  F2  UNL d   1       0.727   1.450  -5.246  0.00  0.00    -0.096 F 
ATOM     11  F3  UNL d   1       0.851  -0.079  -3.014  0.00  0.00    -0.097 F 
ATOM     12  F4  UNL d   1       2.024   0.882  -0.747  0.00  0.00    -0.092 F 
ENDROOT
TORSDOF 0
ENDMDL
