MODEL 1
REMARK minimizedAffinity 23.3928223
REMARK minimizedRMSD -1
REMARK  0 active torsions:
REMARK  status: ('A' for Active; 'I' for Inactive)
ROOT
ATOM      1  C   UNL d   1       0.381  -0.941  -2.492  0.00  0.00     0.124 A 
ATOM      2  C1  UNL d   1       0.014  -1.232  -3.798  0.00  0.00     0.062 A 
ATOM      3  C2  UNL d   1      -0.071  -0.216  -4.745  0.00  0.00     0.162 A 
ATOM      4  C3  UNL d   1       0.214   1.102  -4.390  0.00  0.00    -0.034 A 
ATOM      5  C4  UNL d   1       0.582   1.388  -3.074  0.00  0.00     0.162 A 
ATOM      6  C5  UNL d   1       0.665   0.369  -2.131  0.00  0.00     0.062 A 
ATOM      7  F   UNL d   1       1.020   0.653  -0.869  0.00  0.00    -0.097 F 
ATOM      8  F1  UNL d   1       0.862   2.645  -2.698  0.00  0.00    -0.096 F 
ATOM      9  I   UNL d   1       0.089   2.625  -5.803  0.00  0.00    -0.060 I 
ATOM     10  F2  UNL d   1      -0.428  -0.527  -6.000  0.00  0.00    -0.096 F 
ATOM     11  F3  UNL d   1      -0.262  -2.497  -4.149  0.00  0.00    -0.097 F 
ATOM     12  F4  UNL d   1       0.461  -1.920  -1.582  0.00  0.00    -0.092 F 
ENDROOT
TORSDOF 0
ENDMDL
