MODEL 1
REMARK minimizedAffinity 11.1760674
REMARK minimizedRMSD -1
REMARK  0 active torsions:
REMARK  status: ('A' for Active; 'I' for Inactive)
ROOT
ATOM      1  C   UNL d   1       1.492   1.577  -3.821  0.00  0.00     0.124 A 
ATOM      2  C1  UNL d   1       1.625   1.208  -2.489  0.00  0.00     0.062 A 
ATOM      3  C2  UNL d   1       1.126  -0.013  -2.047  0.00  0.00     0.162 A 
ATOM      4  C3  UNL d   1       0.489  -0.877  -2.938  0.00  0.00    -0.034 A 
ATOM      5  C4  UNL d   1       0.358  -0.499  -4.276  0.00  0.00     0.162 A 
ATOM      6  C5  UNL d   1       0.859   0.723  -4.713  0.00  0.00     0.062 A 
ATOM      7  F   UNL d   1       0.729   1.077  -6.000  0.00  0.00    -0.097 F 
ATOM      8  F1  UNL d   1      -0.249  -1.306  -5.159  0.00  0.00    -0.096 F 
ATOM      9  I   UNL d   1      -0.259  -2.705  -2.282  0.00  0.00    -0.060 I 
ATOM     10  F2  UNL d   1       1.269  -0.343  -0.755  0.00  0.00    -0.096 F 
ATOM     11  F3  UNL d   1       2.236   2.032  -1.625  0.00  0.00    -0.097 F 
ATOM     12  F4  UNL d   1       1.973   2.753  -4.243  0.00  0.00    -0.092 F 
ENDROOT
TORSDOF 0
ENDMDL
