MODEL 1
REMARK minimizedAffinity 20.1938229
REMARK minimizedRMSD -1
REMARK  0 active torsions:
REMARK  status: ('A' for Active; 'I' for Inactive)
ROOT
ATOM      1  C   UNL d   1      -1.881  -4.548  -0.175  0.00  0.00     0.124 A 
ATOM      2  C1  UNL d   1      -1.517  -4.436   1.160  0.00  0.00     0.062 A 
ATOM      3  C2  UNL d   1      -1.838  -3.288   1.879  0.00  0.00     0.162 A 
ATOM      4  C3  UNL d   1      -2.527  -2.242   1.265  0.00  0.00    -0.034 A 
ATOM      5  C4  UNL d   1      -2.889  -2.362  -0.078  0.00  0.00     0.162 A 
ATOM      6  C5  UNL d   1      -2.566  -3.511  -0.792  0.00  0.00     0.062 A 
ATOM      7  F   UNL d   1      -2.919  -3.618  -2.082  0.00  0.00    -0.097 F 
ATOM      8  F1  UNL d   1      -3.553  -1.376  -0.700  0.00  0.00    -0.096 F 
ATOM      9  I   UNL d   1      -3.008  -0.524   2.336  0.00  0.00    -0.060 I 
ATOM     10  F2  UNL d   1      -1.473  -3.207   3.167  0.00  0.00    -0.096 F 
ATOM     11  F3  UNL d   1      -0.854  -5.435   1.759  0.00  0.00    -0.097 F 
ATOM     12  F4  UNL d   1      -1.570  -5.653  -0.864  0.00  0.00    -0.092 F 
ENDROOT
TORSDOF 0
ENDMDL
