MODEL 1
REMARK minimizedAffinity 28.7354145
REMARK minimizedRMSD -1
REMARK  0 active torsions:
REMARK  status: ('A' for Active; 'I' for Inactive)
ROOT
ATOM      1  C   UNL d   1      -3.336  -0.241   2.858  0.00  0.00     0.124 A 
ATOM      2  C1  UNL d   1      -4.046   0.043   4.016  0.00  0.00     0.062 A 
ATOM      3  C2  UNL d   1      -4.112   1.349   4.495  0.00  0.00     0.162 A 
ATOM      4  C3  UNL d   1      -3.465   2.381   3.815  0.00  0.00    -0.034 A 
ATOM      5  C4  UNL d   1      -2.752   2.087   2.652  0.00  0.00     0.162 A 
ATOM      6  C5  UNL d   1      -2.690   0.781   2.177  0.00  0.00     0.062 A 
ATOM      7  F   UNL d   1      -2.003   0.508   1.058  0.00  0.00    -0.097 F 
ATOM      8  F1  UNL d   1      -2.119   3.055   1.973  0.00  0.00    -0.096 F 
ATOM      9  I   UNL d   1      -3.560   4.334   4.528  0.00  0.00    -0.060 I 
ATOM     10  F2  UNL d   1      -4.805   1.594   5.617  0.00  0.00    -0.096 F 
ATOM     11  F3  UNL d   1      -4.671  -0.942   4.677  0.00  0.00    -0.097 F 
ATOM     12  F4  UNL d   1      -3.274  -1.498   2.401  0.00  0.00    -0.092 F 
ENDROOT
TORSDOF 0
ENDMDL
