MODEL 1
REMARK minimizedAffinity 22.9830284
REMARK minimizedRMSD -1
REMARK  0 active torsions:
REMARK  status: ('A' for Active; 'I' for Inactive)
ROOT
ATOM      1  C   UNL d   1       0.595   0.642  -2.964  0.00  0.00     0.124 A 
ATOM      2  C1  UNL d   1      -0.133   0.799  -1.793  0.00  0.00     0.062 A 
ATOM      3  C2  UNL d   1       0.516   0.818  -0.562  0.00  0.00     0.162 A 
ATOM      4  C3  UNL d   1       1.903   0.681  -0.496  0.00  0.00    -0.034 A 
ATOM      5  C4  UNL d   1       2.629   0.523  -1.678  0.00  0.00     0.162 A 
ATOM      6  C5  UNL d   1       1.975   0.505  -2.906  0.00  0.00     0.062 A 
ATOM      7  F   UNL d   1       2.680   0.354  -4.036  0.00  0.00    -0.097 F 
ATOM      8  F1  UNL d   1       3.963   0.389  -1.650  0.00  0.00    -0.096 F 
ATOM      9  I   UNL d   1       2.878   0.708   1.343  0.00  0.00    -0.060 I 
ATOM     10  F2  UNL d   1      -0.213   0.970   0.553  0.00  0.00    -0.096 F 
ATOM     11  F3  UNL d   1      -1.466   0.931  -1.847  0.00  0.00    -0.097 F 
ATOM     12  F4  UNL d   1      -0.032   0.624  -4.147  0.00  0.00    -0.092 F 
ENDROOT
TORSDOF 0
ENDMDL
