MODEL 1
REMARK minimizedAffinity 21.9420948
REMARK minimizedRMSD -1
REMARK  0 active torsions:
REMARK  status: ('A' for Active; 'I' for Inactive)
ROOT
ATOM      1  C   UNL d   1      -3.446   1.103   2.717  0.00  0.00     0.124 A 
ATOM      2  C1  UNL d   1      -4.609   1.860   2.733  0.00  0.00     0.062 A 
ATOM      3  C2  UNL d   1      -4.649   3.066   3.427  0.00  0.00     0.162 A 
ATOM      4  C3  UNL d   1      -3.522   3.523   4.109  0.00  0.00    -0.034 A 
ATOM      5  C4  UNL d   1      -2.356   2.755   4.089  0.00  0.00     0.162 A 
ATOM      6  C5  UNL d   1      -2.321   1.551   3.395  0.00  0.00     0.062 A 
ATOM      7  F   UNL d   1      -1.196   0.820   3.380  0.00  0.00    -0.097 F 
ATOM      8  F1  UNL d   1      -1.254   3.165   4.735  0.00  0.00    -0.096 F 
ATOM      9  I   UNL d   1      -3.578   5.326   5.148  0.00  0.00    -0.060 I 
ATOM     10  F2  UNL d   1      -5.786   3.778   3.425  0.00  0.00    -0.096 F 
ATOM     11  F3  UNL d   1      -5.697   1.429   2.080  0.00  0.00    -0.097 F 
ATOM     12  F4  UNL d   1      -3.410  -0.058   2.049  0.00  0.00    -0.092 F 
ENDROOT
TORSDOF 0
ENDMDL
