MODEL 1
REMARK minimizedAffinity 20.2462006
REMARK minimizedRMSD -1
REMARK  0 active torsions:
REMARK  status: ('A' for Active; 'I' for Inactive)
ROOT
ATOM      1  C   UNL d   1      -3.848   2.547   2.563  0.00  0.00     0.124 A 
ATOM      2  C1  UNL d   1      -2.731   2.662   3.378  0.00  0.00     0.062 A 
ATOM      3  C2  UNL d   1      -2.679   3.647   4.360  0.00  0.00     0.162 A 
ATOM      4  C3  UNL d   1      -3.749   4.525   4.533  0.00  0.00    -0.034 A 
ATOM      5  C4  UNL d   1      -4.869   4.404   3.709  0.00  0.00     0.162 A 
ATOM      6  C5  UNL d   1      -4.916   3.417   2.729  0.00  0.00     0.062 A 
ATOM      7  F   UNL d   1      -5.996   3.308   1.942  0.00  0.00    -0.097 F 
ATOM      8  F1  UNL d   1      -5.915   5.231   3.848  0.00  0.00    -0.096 F 
ATOM      9  I   UNL d   1      -3.676   6.000   6.000  0.00  0.00    -0.060 I 
ATOM     10  F2  UNL d   1      -1.587   3.735   5.134  0.00  0.00    -0.096 F 
ATOM     11  F3  UNL d   1      -1.697   1.823   3.220  0.00  0.00    -0.097 F 
ATOM     12  F4  UNL d   1      -3.895   1.598   1.619  0.00  0.00    -0.092 F 
ENDROOT
TORSDOF 0
ENDMDL
