MODEL 1
REMARK minimizedAffinity 22.4266663
REMARK minimizedRMSD -1
REMARK  0 active torsions:
REMARK  status: ('A' for Active; 'I' for Inactive)
ROOT
ATOM      1  C   UNL d   1       0.457   1.026  -4.434  0.00  0.00     0.124 A 
ATOM      2  C1  UNL d   1       0.060  -0.279  -4.689  0.00  0.00     0.062 A 
ATOM      3  C2  UNL d   1       0.259  -1.271  -3.733  0.00  0.00     0.162 A 
ATOM      4  C3  UNL d   1       0.859  -0.962  -2.512  0.00  0.00    -0.034 A 
ATOM      5  C4  UNL d   1       1.257   0.353  -2.264  0.00  0.00     0.162 A 
ATOM      6  C5  UNL d   1       1.055   1.341  -3.222  0.00  0.00     0.062 A 
ATOM      7  F   UNL d   1       1.440   2.601  -2.974  0.00  0.00    -0.097 F 
ATOM      8  F1  UNL d   1       1.837   0.686  -1.101  0.00  0.00    -0.096 F 
ATOM      9  I   UNL d   1       1.160  -2.442  -1.080  0.00  0.00    -0.060 I 
ATOM     10  F2  UNL d   1      -0.135  -2.524  -4.006  0.00  0.00    -0.096 F 
ATOM     11  F3  UNL d   1      -0.518  -0.586  -5.859  0.00  0.00    -0.097 F 
ATOM     12  F4  UNL d   1       0.265   1.978  -5.356  0.00  0.00    -0.092 F 
ENDROOT
TORSDOF 0
ENDMDL
