MODEL 1
REMARK minimizedAffinity 6.44110966
REMARK minimizedRMSD -1
REMARK  0 active torsions:
REMARK  status: ('A' for Active; 'I' for Inactive)
ROOT
ATOM      1  C   UNL d   1       2.372   2.981  -3.440  0.00  0.00     0.124 A 
ATOM      2  C1  UNL d   1       2.177   2.660  -2.104  0.00  0.00     0.062 A 
ATOM      3  C2  UNL d   1       1.674   1.411  -1.751  0.00  0.00     0.162 A 
ATOM      4  C3  UNL d   1       1.363   0.473  -2.736  0.00  0.00    -0.034 A 
ATOM      5  C4  UNL d   1       1.561   0.804  -4.078  0.00  0.00     0.162 A 
ATOM      6  C5  UNL d   1       2.064   2.054  -4.426  0.00  0.00     0.062 A 
ATOM      7  F   UNL d   1       2.252   2.363  -5.717  0.00  0.00    -0.097 F 
ATOM      8  F1  UNL d   1       1.273  -0.073  -5.050  0.00  0.00    -0.096 F 
ATOM      9  I   UNL d   1       0.610  -1.395  -2.212  0.00  0.00    -0.060 I 
ATOM     10  F2  UNL d   1       1.495   1.127  -0.452  0.00  0.00    -0.096 F 
ATOM     11  F3  UNL d   1       2.473   3.554  -1.151  0.00  0.00    -0.097 F 
ATOM     12  F4  UNL d   1       2.856   4.184  -3.777  0.00  0.00    -0.092 F 
ENDROOT
TORSDOF 0
ENDMDL
