MODEL 1
REMARK minimizedAffinity 21.3584919
REMARK minimizedRMSD -1
REMARK  0 active torsions:
REMARK  status: ('A' for Active; 'I' for Inactive)
ROOT
ATOM      1  C   UNL d   1      -4.038   2.435   2.838  0.00  0.00     0.124 A 
ATOM      2  C1  UNL d   1      -2.874   2.347   3.590  0.00  0.00     0.062 A 
ATOM      3  C2  UNL d   1      -2.547   3.355   4.493  0.00  0.00     0.162 A 
ATOM      4  C3  UNL d   1      -3.385   4.459   4.649  0.00  0.00    -0.034 A 
ATOM      5  C4  UNL d   1      -4.553   4.540   3.889  0.00  0.00     0.162 A 
ATOM      6  C5  UNL d   1      -4.876   3.530   2.988  0.00  0.00     0.062 A 
ATOM      7  F   UNL d   1      -6.000   3.616   2.262  0.00  0.00    -0.097 F 
ATOM      8  F1  UNL d   1      -5.381   5.588   4.014  0.00  0.00    -0.096 F 
ATOM      9  I   UNL d   1      -2.899   5.968   5.998  0.00  0.00    -0.060 I 
ATOM     10  F2  UNL d   1      -1.417   3.245   5.207  0.00  0.00    -0.096 F 
ATOM     11  F3  UNL d   1      -2.063   1.290   3.447  0.00  0.00    -0.097 F 
ATOM     12  F4  UNL d   1      -4.350   1.464   1.970  0.00  0.00    -0.092 F 
ENDROOT
TORSDOF 0
ENDMDL
