MODEL 1
REMARK minimizedAffinity 21.4833832
REMARK minimizedRMSD -1
REMARK  0 active torsions:
REMARK  status: ('A' for Active; 'I' for Inactive)
ROOT
ATOM      1  C   UNL d   1       1.103   0.260  -3.565  0.00  0.00     0.124 A 
ATOM      2  C1  UNL d   1       0.945  -1.008  -4.108  0.00  0.00     0.062 A 
ATOM      3  C2  UNL d   1       1.266  -2.135  -3.358  0.00  0.00     0.162 A 
ATOM      4  C3  UNL d   1       1.749  -2.000  -2.056  0.00  0.00    -0.034 A 
ATOM      5  C4  UNL d   1       1.906  -0.722  -1.517  0.00  0.00     0.162 A 
ATOM      6  C5  UNL d   1       1.583   0.402  -2.271  0.00  0.00     0.062 A 
ATOM      7  F   UNL d   1       1.737   1.626  -1.745  0.00  0.00    -0.097 F 
ATOM      8  F1  UNL d   1       2.367  -0.556  -0.269  0.00  0.00    -0.096 F 
ATOM      9  I   UNL d   1       2.230  -3.684  -0.931  0.00  0.00    -0.060 I 
ATOM     10  F2  UNL d   1       1.103  -3.348  -3.907  0.00  0.00    -0.096 F 
ATOM     11  F3  UNL d   1       0.482  -1.147  -5.358  0.00  0.00    -0.097 F 
ATOM     12  F4  UNL d   1       0.794   1.343  -4.290  0.00  0.00    -0.092 F 
ENDROOT
TORSDOF 0
ENDMDL
