MODEL 1
REMARK minimizedAffinity 16.0329227
REMARK minimizedRMSD -1
REMARK  0 active torsions:
REMARK  status: ('A' for Active; 'I' for Inactive)
ROOT
ATOM      1  C   UNL d   1       1.272   1.063  -3.610  0.00  0.00     0.124 A 
ATOM      2  C1  UNL d   1       0.586   1.121  -2.404  0.00  0.00     0.062 A 
ATOM      3  C2  UNL d   1       1.192   0.677  -1.232  0.00  0.00     0.162 A 
ATOM      4  C3  UNL d   1       2.492   0.174  -1.260  0.00  0.00    -0.034 A 
ATOM      5  C4  UNL d   1       3.175   0.118  -2.476  0.00  0.00     0.162 A 
ATOM      6  C5  UNL d   1       2.565   0.562  -3.644  0.00  0.00     0.062 A 
ATOM      7  F   UNL d   1       3.229   0.506  -4.808  0.00  0.00    -0.097 F 
ATOM      8  F1  UNL d   1       4.427  -0.360  -2.538  0.00  0.00    -0.096 F 
ATOM      9  I   UNL d   1       3.402  -0.490   0.491  0.00  0.00    -0.060 I 
ATOM     10  F2  UNL d   1       0.505   0.745  -0.082  0.00  0.00    -0.096 F 
ATOM     11  F3  UNL d   1      -0.665   1.603  -2.368  0.00  0.00    -0.097 F 
ATOM     12  F4  UNL d   1       0.686   1.489  -4.736  0.00  0.00    -0.092 F 
ENDROOT
TORSDOF 0
ENDMDL
