MODEL 1
REMARK minimizedAffinity 27.3497105
REMARK minimizedRMSD -1
REMARK  0 active torsions:
REMARK  status: ('A' for Active; 'I' for Inactive)
ROOT
ATOM      1  C   UNL d   1       1.419  -0.126  -3.119  0.00  0.00     0.124 A 
ATOM      2  C1  UNL d   1       1.680   0.698  -4.205  0.00  0.00     0.062 A 
ATOM      3  C2  UNL d   1       2.244   1.955  -4.011  0.00  0.00     0.162 A 
ATOM      4  C3  UNL d   1       2.552   2.398  -2.724  0.00  0.00    -0.034 A 
ATOM      5  C4  UNL d   1       2.285   1.565  -1.636  0.00  0.00     0.162 A 
ATOM      6  C5  UNL d   1       1.722   0.308  -1.836  0.00  0.00     0.062 A 
ATOM      7  F   UNL d   1       1.470  -0.486  -0.785  0.00  0.00    -0.097 F 
ATOM      8  F1  UNL d   1       2.569   1.958  -0.386  0.00  0.00    -0.096 F 
ATOM      9  I   UNL d   1       3.394   4.278  -2.430  0.00  0.00    -0.060 I 
ATOM     10  F2  UNL d   1       2.485   2.730  -5.079  0.00  0.00    -0.096 F 
ATOM     11  F3  UNL d   1       1.388   0.281  -5.446  0.00  0.00    -0.097 F 
ATOM     12  F4  UNL d   1       0.876  -1.335  -3.308  0.00  0.00    -0.092 F 
ENDROOT
TORSDOF 0
ENDMDL
