MODEL 1
REMARK minimizedAffinity 24.8790436
REMARK minimizedRMSD -1
REMARK  0 active torsions:
REMARK  status: ('A' for Active; 'I' for Inactive)
ROOT
ATOM      1  C   UNL d   1       0.313   0.835  -2.285  0.00  0.00     0.124 A 
ATOM      2  C1  UNL d   1      -0.016   2.183  -2.318  0.00  0.00     0.062 A 
ATOM      3  C2  UNL d   1       0.818   3.122  -1.719  0.00  0.00     0.162 A 
ATOM      4  C3  UNL d   1       1.991   2.717  -1.082  0.00  0.00    -0.034 A 
ATOM      5  C4  UNL d   1       2.315   1.359  -1.052  0.00  0.00     0.162 A 
ATOM      6  C5  UNL d   1       1.478   0.425  -1.652  0.00  0.00     0.062 A 
ATOM      7  F   UNL d   1       1.798  -0.877  -1.620  0.00  0.00    -0.097 F 
ATOM      8  F1  UNL d   1       3.435   0.935  -0.448  0.00  0.00    -0.096 F 
ATOM      9  I   UNL d   1       3.240   4.118  -0.184  0.00  0.00    -0.060 I 
ATOM     10  F2  UNL d   1       0.474   4.418  -1.766  0.00  0.00    -0.096 F 
ATOM     11  F3  UNL d   1      -1.142   2.582  -2.928  0.00  0.00    -0.097 F 
ATOM     12  F4  UNL d   1      -0.492  -0.067  -2.862  0.00  0.00    -0.092 F 
ENDROOT
TORSDOF 0
ENDMDL
