MODEL 1
REMARK minimizedAffinity 18.4260826
REMARK minimizedRMSD -1
REMARK  0 active torsions:
REMARK  status: ('A' for Active; 'I' for Inactive)
ROOT
ATOM      1  C   UNL d   1      -0.354   0.494  -3.538  0.00  0.00     0.124 A 
ATOM      2  C1  UNL d   1       0.316   1.686  -3.775  0.00  0.00     0.062 A 
ATOM      3  C2  UNL d   1       1.046   2.293  -2.758  0.00  0.00     0.162 A 
ATOM      4  C3  UNL d   1       1.110   1.710  -1.492  0.00  0.00    -0.034 A 
ATOM      5  C4  UNL d   1       0.432   0.511  -1.261  0.00  0.00     0.162 A 
ATOM      6  C5  UNL d   1      -0.296  -0.092  -2.281  0.00  0.00     0.062 A 
ATOM      7  F   UNL d   1      -0.943  -1.243  -2.050  0.00  0.00    -0.097 F 
ATOM      8  F1  UNL d   1       0.472  -0.077  -0.056  0.00  0.00    -0.096 F 
ATOM      9  I   UNL d   1       2.200   2.615   0.032  0.00  0.00    -0.060 I 
ATOM     10  F2  UNL d   1       1.684   3.445  -3.015  0.00  0.00    -0.096 F 
ATOM     11  F3  UNL d   1       0.261   2.255  -4.988  0.00  0.00    -0.097 F 
ATOM     12  F4  UNL d   1      -1.056  -0.088  -4.519  0.00  0.00    -0.092 F 
ENDROOT
TORSDOF 0
ENDMDL
