MODEL 1
REMARK minimizedAffinity 24.6633911
REMARK minimizedRMSD -1
REMARK  0 active torsions:
REMARK  status: ('A' for Active; 'I' for Inactive)
ROOT
ATOM      1  C   UNL d   1       0.625  -1.037  -2.638  0.00  0.00     0.124 A 
ATOM      2  C1  UNL d   1       1.125   0.250  -2.494  0.00  0.00     0.062 A 
ATOM      3  C2  UNL d   1       0.846   1.220  -3.453  0.00  0.00     0.162 A 
ATOM      4  C3  UNL d   1       0.063   0.908  -4.564  0.00  0.00    -0.034 A 
ATOM      5  C4  UNL d   1      -0.436  -0.389  -4.702  0.00  0.00     0.162 A 
ATOM      6  C5  UNL d   1      -0.155  -1.355  -3.741  0.00  0.00     0.062 A 
ATOM      7  F   UNL d   1      -0.638  -2.598  -3.881  0.00  0.00    -0.097 F 
ATOM      8  F1  UNL d   1      -1.192  -0.724  -5.757  0.00  0.00    -0.096 F 
ATOM      9  I   UNL d   1      -0.356   2.355  -5.999  0.00  0.00    -0.060 I 
ATOM     10  F2  UNL d   1       1.342   2.456  -3.288  0.00  0.00    -0.096 F 
ATOM     11  F3  UNL d   1       1.879   0.560  -1.429  0.00  0.00    -0.097 F 
ATOM     12  F4  UNL d   1       0.895  -1.968  -1.714  0.00  0.00    -0.092 F 
ENDROOT
TORSDOF 0
ENDMDL
