MODEL 1
REMARK minimizedAffinity -4.78276539
REMARK minimizedRMSD -1
REMARK  0 active torsions:
REMARK  status: ('A' for Active; 'I' for Inactive)
ROOT
ATOM      1  C   UNL d   1      -3.110   1.068   0.458  0.00  0.00     0.124 A 
ATOM      2  C1  UNL d   1      -3.353  -0.031   1.270  0.00  0.00     0.062 A 
ATOM      3  C2  UNL d   1      -3.540   0.138   2.639  0.00  0.00     0.162 A 
ATOM      4  C3  UNL d   1      -3.485   1.412   3.205  0.00  0.00    -0.034 A 
ATOM      5  C4  UNL d   1      -3.239   2.512   2.382  0.00  0.00     0.162 A 
ATOM      6  C5  UNL d   1      -3.053   2.338   1.014  0.00  0.00     0.062 A 
ATOM      7  F   UNL d   1      -2.819   3.401   0.231  0.00  0.00    -0.097 F 
ATOM      8  F1  UNL d   1      -3.181   3.751   2.893  0.00  0.00    -0.096 F 
ATOM      9  I   UNL d   1      -3.764   1.669   5.251  0.00  0.00    -0.060 I 
ATOM     10  F2  UNL d   1      -3.773  -0.942   3.400  0.00  0.00    -0.096 F 
ATOM     11  F3  UNL d   1      -3.407  -1.259   0.735  0.00  0.00    -0.097 F 
ATOM     12  F4  UNL d   1      -2.929   0.902  -0.859  0.00  0.00    -0.092 F 
ENDROOT
TORSDOF 0
ENDMDL
