MODEL 1
REMARK minimizedAffinity -0.644171953
REMARK minimizedRMSD -1
REMARK  0 active torsions:
REMARK  status: ('A' for Active; 'I' for Inactive)
ROOT
ATOM      1  C1  BNZ d   1      -1.761   1.937  -2.170  0.00  0.00     0.000 A 
ATOM      2  C2  BNZ d   1      -0.393   1.991  -2.155  0.00  0.00     0.000 A 
ATOM      3  C3  BNZ d   1       0.270   3.097  -2.607  0.00  0.00     0.000 A 
ATOM      4  C4  BNZ d   1      -0.434   4.132  -3.110  0.00  0.00     0.000 A 
ATOM      5  C5  BNZ d   1      -1.814   4.090  -3.141  0.00  0.00     0.000 A 
ATOM      6  C6  BNZ d   1      -2.478   2.990  -2.649  0.00  0.00     0.000 A 
ENDROOT
TORSDOF 0
ENDMDL
