MODEL 1
REMARK minimizedAffinity -2.20977187
REMARK minimizedRMSD -1
REMARK  0 active torsions:
REMARK  status: ('A' for Active; 'I' for Inactive)
ROOT
ATOM      1  C1  BNZ d   1       6.000  -0.104  -3.307  0.00  0.00     0.000 A 
ATOM      2  C2  BNZ d   1       5.988   1.177  -3.790  0.00  0.00     0.000 A 
ATOM      3  C3  BNZ d   1       5.955   1.417  -5.135  0.00  0.00     0.000 A 
ATOM      4  C4  BNZ d   1       5.974   0.378  -5.995  0.00  0.00     0.000 A 
ATOM      5  C5  BNZ d   1       5.995  -0.919  -5.523  0.00  0.00     0.000 A 
ATOM      6  C6  BNZ d   1       5.989  -1.158  -4.168  0.00  0.00     0.000 A 
ENDROOT
TORSDOF 0
ENDMDL
