MODEL 1
REMARK minimizedAffinity -0.009515482
REMARK minimizedRMSD -1
REMARK  0 active torsions:
REMARK  status: ('A' for Active; 'I' for Inactive)
ROOT
ATOM      1  C1  BNZ d   1       5.625   0.203  -4.552  0.00  0.00     0.000 A 
ATOM      2  C2  BNZ d   1       5.618   0.939  -5.707  0.00  0.00     0.000 A 
ATOM      3  C3  BNZ d   1       5.825   2.290  -5.677  0.00  0.00     0.000 A 
ATOM      4  C4  BNZ d   1       5.999   2.908  -4.491  0.00  0.00     0.000 A 
ATOM      5  C5  BNZ d   1       5.999   2.181  -3.317  0.00  0.00     0.000 A 
ATOM      6  C6  BNZ d   1       5.830   0.816  -3.354  0.00  0.00     0.000 A 
ENDROOT
TORSDOF 0
ENDMDL
