MODEL 1
REMARK minimizedAffinity 4.08452845
REMARK minimizedRMSD -1
REMARK  0 active torsions:
REMARK  status: ('A' for Active; 'I' for Inactive)
ROOT
ATOM      1  C1  BNZ d   1       1.084   2.249  -2.531  0.00  0.00     0.000 A 
ATOM      2  C2  BNZ d   1       0.084   3.048  -3.019  0.00  0.00     0.000 A 
ATOM      3  C3  BNZ d   1      -1.229   2.755  -2.773  0.00  0.00     0.000 A 
ATOM      4  C4  BNZ d   1      -1.541   1.644  -2.075  0.00  0.00     0.000 A 
ATOM      5  C5  BNZ d   1      -0.544   0.824  -1.585  0.00  0.00     0.000 A 
ATOM      6  C6  BNZ d   1       0.777   1.143  -1.801  0.00  0.00     0.000 A 
ENDROOT
TORSDOF 0
ENDMDL
