MODEL 1
REMARK minimizedAffinity -2.13140678
REMARK minimizedRMSD -1
REMARK  0 active torsions:
REMARK  status: ('A' for Active; 'I' for Inactive)
ROOT
ATOM      1  C1  BNZ d   1       1.059  -0.774  -0.643  0.00  0.00     0.000 A 
ATOM      2  C2  BNZ d   1       1.726   0.328  -0.179  0.00  0.00     0.000 A 
ATOM      3  C3  BNZ d   1       2.039   1.361  -1.017  0.00  0.00     0.000 A 
ATOM      4  C4  BNZ d   1       1.721   1.273  -2.325  0.00  0.00     0.000 A 
ATOM      5  C5  BNZ d   1       1.057   0.164  -2.810  0.00  0.00     0.000 A 
ATOM      6  C6  BNZ d   1       0.708  -0.856  -1.955  0.00  0.00     0.000 A 
ENDROOT
TORSDOF 0
ENDMDL
