MODEL 1
REMARK minimizedAffinity 10.9721212
REMARK minimizedRMSD -1
REMARK  2 active torsions:
REMARK  status: ('A' for Active; 'I' for Inactive)
REMARK    1  A    between atoms: C2'_3  and  C1'_4 
REMARK    2  A    between atoms: C1'_4  and  C1_5 
ROOT
ATOM      1  C1  I4B d   1       0.376   0.938   4.065  0.00  0.00    -0.075 A 
ATOM      2  C2  I4B d   1       1.731   1.038   4.262  0.00  0.00     0.003 A 
ATOM      3  C3  I4B d   1       2.244   1.902   5.260  0.00  0.00     0.002 A 
ATOM      4  C4  I4B d   1       1.375   2.680   5.998  0.00  0.00    -0.004 A 
ATOM      5  C5  I4B d   1       0.001   2.560   5.812  0.00  0.00     0.002 A 
ATOM      6  C6  I4B d   1      -0.503   1.674   4.848  0.00  0.00     0.003 A 
ENDROOT
BRANCH   1   7
ATOM      7  C1' I4B d   1      -0.130   0.041   2.980  0.00  0.00     0.060 C 
BRANCH   7   8
ATOM      8  C2' I4B d   1       0.934  -1.003   2.704  0.00  0.00    -0.013 C 
ATOM      9  C4' I4B d   1       0.805  -2.174   3.643  0.00  0.00     0.013 C 
ATOM     10  C3' I4B d   1       0.796  -1.437   1.275  0.00  0.00     0.013 C 
ENDBRANCH   7   8
ENDBRANCH   1   7
TORSDOF 2
ENDMDL
