MODEL 1
REMARK minimizedAffinity 19.2002182
REMARK minimizedRMSD -1
REMARK  2 active torsions:
REMARK  status: ('A' for Active; 'I' for Inactive)
REMARK    1  A    between atoms: C2'_3  and  C1'_4 
REMARK    2  A    between atoms: C1'_4  and  C1_5 
ROOT
ATOM      1  C1  I4B d   1      -0.421  -1.209   1.867  0.00  0.00    -0.075 A 
ATOM      2  C2  I4B d   1       0.256  -1.642   0.754  0.00  0.00     0.003 A 
ATOM      3  C3  I4B d   1      -0.457  -2.085  -0.386  0.00  0.00     0.002 A 
ATOM      4  C4  I4B d   1      -1.836  -2.126  -0.352  0.00  0.00    -0.004 A 
ATOM      5  C5  I4B d   1      -2.521  -1.666   0.768  0.00  0.00     0.002 A 
ATOM      6  C6  I4B d   1      -1.810  -1.193   1.881  0.00  0.00     0.003 A 
ENDROOT
BRANCH   1   7
ATOM      7  C1' I4B d   1       0.363  -0.779   3.066  0.00  0.00     0.060 C 
BRANCH   7   8
ATOM      8  C2' I4B d   1       0.863   0.629   2.816  0.00  0.00    -0.013 C 
ATOM      9  C4' I4B d   1      -0.196   1.649   3.145  0.00  0.00     0.013 C 
ATOM     10  C3' I4B d   1       2.093   0.838   3.648  0.00  0.00     0.013 C 
ENDBRANCH   7   8
ENDBRANCH   1   7
TORSDOF 2
ENDMDL
