MODEL 1
REMARK minimizedAffinity 12.8919392
REMARK minimizedRMSD -1
REMARK  2 active torsions:
REMARK  status: ('A' for Active; 'I' for Inactive)
REMARK    1  A    between atoms: C2'_3  and  C1'_4 
REMARK    2  A    between atoms: C1'_4  and  C1_5 
ROOT
ATOM      1  C1  I4B d   1       3.234  -0.521  -4.932  0.00  0.00    -0.075 A 
ATOM      2  C2  I4B d   1       4.357  -1.083  -5.486  0.00  0.00     0.003 A 
ATOM      3  C3  I4B d   1       5.388  -0.258  -5.999  0.00  0.00     0.002 A 
ATOM      4  C4  I4B d   1       5.232   1.113  -5.984  0.00  0.00    -0.004 A 
ATOM      5  C5  I4B d   1       4.102   1.681  -5.402  0.00  0.00     0.002 A 
ATOM      6  C6  I4B d   1       3.102   0.860  -4.861  0.00  0.00     0.003 A 
ENDROOT
BRANCH   1   7
ATOM      7  C1' I4B d   1       2.150  -1.422  -4.430  0.00  0.00     0.060 C 
BRANCH   7   8
ATOM      8  C2' I4B d   1       0.891  -0.594  -4.271  0.00  0.00    -0.013 C 
ATOM      9  C4' I4B d   1      -0.165  -1.013  -5.259  0.00  0.00     0.013 C 
ATOM     10  C3' I4B d   1       0.408  -0.754  -2.860  0.00  0.00     0.013 C 
ENDBRANCH   7   8
ENDBRANCH   1   7
TORSDOF 2
ENDMDL
