MODEL 1
REMARK minimizedAffinity 13.3592186
REMARK minimizedRMSD -1
REMARK  2 active torsions:
REMARK  status: ('A' for Active; 'I' for Inactive)
REMARK    1  A    between atoms: C2'_3  and  C1'_4 
REMARK    2  A    between atoms: C1'_4  and  C1_5 
ROOT
ATOM      1  C1  I4B d   1       0.352  -1.093   3.055  0.00  0.00    -0.075 A 
ATOM      2  C2  I4B d   1       0.427  -2.283   3.735  0.00  0.00     0.003 A 
ATOM      3  C3  I4B d   1       1.350  -2.439   4.797  0.00  0.00     0.002 A 
ATOM      4  C4  I4B d   1       2.207  -1.405   5.110  0.00  0.00    -0.004 A 
ATOM      5  C5  I4B d   1       2.114  -0.191   4.435  0.00  0.00     0.002 A 
ATOM      6  C6  I4B d   1       1.172  -0.030   3.408  0.00  0.00     0.003 A 
ENDROOT
BRANCH   1   7
ATOM      7  C1' I4B d   1      -0.612  -0.973   1.916  0.00  0.00     0.060 C 
BRANCH   7   8
ATOM      8  C2' I4B d   1      -2.005  -0.837   2.496  0.00  0.00    -0.013 C 
ATOM      9  C4' I4B d   1      -2.551   0.550   2.283  0.00  0.00     0.013 C 
ATOM     10  C3' I4B d   1      -2.879  -1.869   1.848  0.00  0.00     0.013 C 
ENDBRANCH   7   8
ENDBRANCH   1   7
TORSDOF 2
ENDMDL
