MODEL 1
REMARK minimizedAffinity -3.84409428
REMARK minimizedRMSD -1
REMARK  0 active torsions:
REMARK  status: ('A' for Active; 'I' for Inactive)
ROOT
ATOM      1  C   UNL d   1      -1.301  -1.089   2.547  0.00  0.00    -0.002 A 
ATOM      2  C1  UNL d   1      -0.068  -1.718   2.649  0.00  0.00     0.010 A 
ATOM      3  C2  UNL d   1       0.785  -1.792   1.546  0.00  0.00     0.041 A 
ATOM      4  C3  UNL d   1       0.376  -1.216   0.328  0.00  0.00    -0.075 A 
ATOM      5  S   UNL d   1       1.256  -1.184  -1.155  0.00  0.00     0.015 SA
ATOM      6  C4  UNL d   1       0.016  -0.334  -1.958  0.00  0.00     0.022 A 
ATOM      7  C5  UNL d   1      -1.050  -0.072  -1.131  0.00  0.00     0.026 A 
ATOM      8  C6  UNL d   1      -0.860  -0.576   0.200  0.00  0.00    -0.082 A 
ATOM      9  C7  UNL d   1      -1.703  -0.518   1.336  0.00  0.00     0.045 A 
ENDROOT
TORSDOF 0
ENDMDL
