MODEL 1
REMARK minimizedAffinity 3.35866332
REMARK minimizedRMSD -1
REMARK  0 active torsions:
REMARK  status: ('A' for Active; 'I' for Inactive)
ROOT
ATOM      1  C   UNL d   1      -2.998  -0.031   3.729  0.00  0.00    -0.002 A 
ATOM      2  C1  UNL d   1      -1.995  -0.984   3.843  0.00  0.00     0.010 A 
ATOM      3  C2  UNL d   1      -1.079  -1.179   2.808  0.00  0.00     0.041 A 
ATOM      4  C3  UNL d   1      -1.187  -0.392   1.645  0.00  0.00    -0.075 A 
ATOM      5  S   UNL d   1      -0.177  -0.455   0.249  0.00  0.00     0.015 SA
ATOM      6  C4  UNL d   1      -1.052   0.782  -0.532  0.00  0.00     0.022 A 
ATOM      7  C5  UNL d   1      -2.093   1.243   0.239  0.00  0.00     0.026 A 
ATOM      8  C6  UNL d   1      -2.188   0.575   1.506  0.00  0.00    -0.082 A 
ATOM      9  C7  UNL d   1      -3.102   0.748   2.573  0.00  0.00     0.045 A 
ENDROOT
TORSDOF 0
ENDMDL
