MODEL 1
REMARK minimizedAffinity 2.97159433
REMARK minimizedRMSD -1
REMARK  0 active torsions:
REMARK  status: ('A' for Active; 'I' for Inactive)
ROOT
ATOM      1  C   UNL d   1      -3.922  -0.996   0.633  0.00  0.00    -0.002 A 
ATOM      2  C1  UNL d   1      -3.155  -0.466  -0.395  0.00  0.00     0.010 A 
ATOM      3  C2  UNL d   1      -1.761  -0.497  -0.330  0.00  0.00     0.041 A 
ATOM      4  C3  UNL d   1      -1.144  -1.078   0.795  0.00  0.00    -0.075 A 
ATOM      5  S   UNL d   1       0.548  -1.229   1.091  0.00  0.00     0.015 SA
ATOM      6  C4  UNL d   1       0.293  -2.002   2.588  0.00  0.00     0.022 A 
ATOM      7  C5  UNL d   1      -1.044  -2.149   2.872  0.00  0.00     0.026 A 
ATOM      8  C6  UNL d   1      -1.895  -1.620   1.843  0.00  0.00    -0.082 A 
ATOM      9  C7  UNL d   1      -3.306  -1.572   1.748  0.00  0.00     0.045 A 
ENDROOT
TORSDOF 0
ENDMDL
