MODEL 1
REMARK minimizedAffinity 3.06339788
REMARK minimizedRMSD -1
REMARK  0 active torsions:
REMARK  status: ('A' for Active; 'I' for Inactive)
ROOT
ATOM      1  C   UNL d   1      -1.327   5.087   4.865  0.00  0.00    -0.002 A 
ATOM      2  C1  UNL d   1      -0.735   5.685   5.969  0.00  0.00     0.010 A 
ATOM      3  C2  UNL d   1       0.625   6.000   5.963  0.00  0.00     0.041 A 
ATOM      4  C3  UNL d   1       1.388   5.703   4.816  0.00  0.00    -0.075 A 
ATOM      5  S   UNL d   1       3.070   6.000   4.582  0.00  0.00     0.015 SA
ATOM      6  C4  UNL d   1       3.043   5.341   3.010  0.00  0.00     0.022 A 
ATOM      7  C5  UNL d   1       1.789   4.900   2.657  0.00  0.00     0.026 A 
ATOM      8  C6  UNL d   1       0.815   5.102   3.692  0.00  0.00    -0.082 A 
ATOM      9  C7  UNL d   1      -0.567   4.794   3.730  0.00  0.00     0.045 A 
ENDROOT
TORSDOF 0
ENDMDL
