MODEL 1
REMARK minimizedAffinity 6.34333992
REMARK minimizedRMSD -1
REMARK  0 active torsions:
REMARK  status: ('A' for Active; 'I' for Inactive)
ROOT
ATOM      1  C   UNL d   1      -2.270  -0.259  -0.278  0.00  0.00    -0.002 A 
ATOM      2  C1  UNL d   1      -0.887  -0.170  -0.359  0.00  0.00     0.010 A 
ATOM      3  C2  UNL d   1      -0.077  -0.841   0.559  0.00  0.00     0.041 A 
ATOM      4  C3  UNL d   1      -0.686  -1.612   1.569  0.00  0.00    -0.075 A 
ATOM      5  S   UNL d   1       0.106  -2.521   2.802  0.00  0.00     0.015 SA
ATOM      6  C4  UNL d   1      -1.373  -3.050   3.465  0.00  0.00     0.022 A 
ATOM      7  C5  UNL d   1      -2.454  -2.554   2.775  0.00  0.00     0.026 A 
ATOM      8  C6  UNL d   1      -2.076  -1.718   1.671  0.00  0.00    -0.082 A 
ATOM      9  C7  UNL d   1      -2.870  -1.025   0.725  0.00  0.00     0.045 A 
ENDROOT
TORSDOF 0
ENDMDL
