MODEL 1
REMARK minimizedAffinity -0.621435881
REMARK minimizedRMSD -1
REMARK  0 active torsions:
REMARK  status: ('A' for Active; 'I' for Inactive)
ROOT
ATOM      1  C   UNL d   1      -2.902  -0.691   2.923  0.00  0.00    -0.002 A 
ATOM      2  C1  UNL d   1      -2.947  -0.129   1.655  0.00  0.00     0.010 A 
ATOM      3  C2  UNL d   1      -1.904  -0.333   0.749  0.00  0.00     0.041 A 
ATOM      4  C3  UNL d   1      -0.805  -1.122   1.142  0.00  0.00    -0.075 A 
ATOM      5  S   UNL d   1       0.586  -1.509   0.201  0.00  0.00     0.015 SA
ATOM      6  C4  UNL d   1       1.273  -2.432   1.459  0.00  0.00     0.022 A 
ATOM      7  C5  UNL d   1       0.474  -2.454   2.577  0.00  0.00     0.026 A 
ATOM      8  C6  UNL d   1      -0.737  -1.700   2.413  0.00  0.00    -0.082 A 
ATOM      9  C7  UNL d   1      -1.810  -1.473   3.309  0.00  0.00     0.045 A 
ENDROOT
TORSDOF 0
ENDMDL
