MODEL 1
REMARK minimizedAffinity -2.01646399
REMARK minimizedRMSD -1
REMARK  0 active torsions:
REMARK  status: ('A' for Active; 'I' for Inactive)
ROOT
ATOM      1  C   UNL d   1      -1.094  -0.200   0.683  0.00  0.00    -0.002 A 
ATOM      2  C1  UNL d   1      -1.519  -0.732  -0.527  0.00  0.00     0.010 A 
ATOM      3  C2  UNL d   1      -0.609  -0.955  -1.563  0.00  0.00     0.041 A 
ATOM      4  C3  UNL d   1       0.747  -0.633  -1.360  0.00  0.00    -0.075 A 
ATOM      5  S   UNL d   1       2.040  -0.822  -2.485  0.00  0.00     0.015 SA
ATOM      6  C4  UNL d   1       3.186  -0.202  -1.386  0.00  0.00     0.022 A 
ATOM      7  C5  UNL d   1       2.614   0.145  -0.186  0.00  0.00     0.026 A 
ATOM      8  C6  UNL d   1       1.199  -0.098  -0.150  0.00  0.00    -0.082 A 
ATOM      9  C7  UNL d   1       0.252   0.117   0.880  0.00  0.00     0.045 A 
ENDROOT
TORSDOF 0
ENDMDL
