MODEL 1
REMARK minimizedAffinity -2.17771173
REMARK minimizedRMSD -1
REMARK  0 active torsions:
REMARK  status: ('A' for Active; 'I' for Inactive)
ROOT
ATOM      1  C   UNL d   1      -0.845   1.971  -0.646  0.00  0.00     0.023 A 
ATOM      2  C1  UNL d   1      -0.379   1.459  -1.857  0.00  0.00     0.003 A 
ATOM      3  C2  UNL d   1       0.073   0.140  -1.931  0.00  0.00     0.048 A 
ATOM      4  C3  UNL d   1       0.054  -0.662  -0.790  0.00  0.00     0.023 A 
ATOM      5  C4  UNL d   1      -0.413  -0.154   0.423  0.00  0.00     0.048 A 
ATOM      6  C5  UNL d   1      -0.862   1.166   0.492  0.00  0.00     0.003 A 
ATOM      7  I   UNL d   1       0.725  -2.626  -0.898  0.00  0.00    -0.146 I 
ENDROOT
TORSDOF 0
ENDMDL
