MODEL 1
REMARK minimizedAffinity -4.05225468
REMARK minimizedRMSD -1
REMARK  0 active torsions:
REMARK  status: ('A' for Active; 'I' for Inactive)
ROOT
ATOM      1  C   UNL d   1      -1.648   3.399   0.545  0.00  0.00     0.023 A 
ATOM      2  C1  UNL d   1      -1.270   2.485   1.528  0.00  0.00     0.003 A 
ATOM      3  C2  UNL d   1      -0.649   1.287   1.168  0.00  0.00     0.048 A 
ATOM      4  C3  UNL d   1      -0.408   1.010  -0.177  0.00  0.00     0.023 A 
ATOM      5  C4  UNL d   1      -0.783   1.922  -1.164  0.00  0.00     0.048 A 
ATOM      6  C5  UNL d   1      -1.405   3.118  -0.800  0.00  0.00     0.003 A 
ATOM      7  I   UNL d   1       0.517  -0.771  -0.715  0.00  0.00    -0.146 I 
ENDROOT
TORSDOF 0
ENDMDL
