MODEL 1
REMARK minimizedAffinity 5.37758493
REMARK minimizedRMSD -1
REMARK  0 active torsions:
REMARK  status: ('A' for Active; 'I' for Inactive)
ROOT
ATOM      1  C   UNL d   1      -1.012   1.486  -1.427  0.00  0.00     0.023 A 
ATOM      2  C1  UNL d   1       0.079   0.837  -2.006  0.00  0.00     0.003 A 
ATOM      3  C2  UNL d   1       0.030  -0.539  -2.242  0.00  0.00     0.048 A 
ATOM      4  C3  UNL d   1      -1.114  -1.259  -1.897  0.00  0.00     0.023 A 
ATOM      5  C4  UNL d   1      -2.208  -0.614  -1.319  0.00  0.00     0.048 A 
ATOM      6  C5  UNL d   1      -2.154   0.762  -1.084  0.00  0.00     0.003 A 
ATOM      7  I   UNL d   1      -1.189  -3.306  -2.248  0.00  0.00    -0.146 I 
ENDROOT
TORSDOF 0
ENDMDL
