MODEL 1
REMARK minimizedAffinity -2.62268829
REMARK minimizedRMSD -1
REMARK  0 active torsions:
REMARK  status: ('A' for Active; 'I' for Inactive)
ROOT
ATOM      1  C   UNL d   1      -0.422   1.839   1.904  0.00  0.00     0.023 A 
ATOM      2  C1  UNL d   1      -1.154   1.863   0.717  0.00  0.00     0.003 A 
ATOM      3  C2  UNL d   1      -0.942   0.884  -0.255  0.00  0.00     0.048 A 
ATOM      4  C3  UNL d   1       0.002  -0.118  -0.034  0.00  0.00     0.023 A 
ATOM      5  C4  UNL d   1       0.736  -0.147   1.153  0.00  0.00     0.048 A 
ATOM      6  C5  UNL d   1       0.522   0.835   2.122  0.00  0.00     0.003 A 
ATOM      7  I   UNL d   1       0.319  -1.576  -1.480  0.00  0.00    -0.146 I 
ENDROOT
TORSDOF 0
ENDMDL
