MODEL 1
REMARK minimizedAffinity -4.45463705
REMARK minimizedRMSD -1
REMARK  0 active torsions:
REMARK  status: ('A' for Active; 'I' for Inactive)
ROOT
ATOM      1  C   UNL d   1       0.513  -0.208  -2.076  0.00  0.00     0.023 A 
ATOM      2  C1  UNL d   1       0.046   1.105  -2.140  0.00  0.00     0.003 A 
ATOM      3  C2  UNL d   1      -0.431   1.735  -0.988  0.00  0.00     0.048 A 
ATOM      4  C3  UNL d   1      -0.437   1.046   0.224  0.00  0.00     0.023 A 
ATOM      5  C4  UNL d   1       0.030  -0.268   0.293  0.00  0.00     0.048 A 
ATOM      6  C5  UNL d   1       0.504  -0.894  -0.862  0.00  0.00     0.003 A 
ATOM      7  I   UNL d   1      -1.146   1.981   1.940  0.00  0.00    -0.146 I 
ENDROOT
TORSDOF 0
ENDMDL
