MODEL 1
REMARK minimizedAffinity -5.11923456
REMARK minimizedRMSD -1
REMARK  0 active torsions:
REMARK  status: ('A' for Active; 'I' for Inactive)
ROOT
ATOM      1  C2' OXE d   1       1.961   0.469  -0.410  0.00  0.00     0.078 C 
ATOM      2  C1' OXE d   1      -0.771   0.422   0.232  0.00  0.00     0.078 C 
ATOM      3  C1  OXE d   1       0.081  -0.732   0.698  0.00  0.00    -0.078 A 
ATOM      4  C2  OXE d   1       1.407  -0.724   0.339  0.00  0.00    -0.078 A 
ATOM      5  C3  OXE d   1       2.249  -1.736   0.790  0.00  0.00     0.003 A 
ATOM      6  C4  OXE d   1       1.727  -2.840   1.475  0.00  0.00    -0.002 A 
ATOM      7  C5  OXE d   1       0.371  -2.888   1.816  0.00  0.00    -0.002 A 
ATOM      8  C6  OXE d   1      -0.455  -1.824   1.473  0.00  0.00     0.003 A 
ENDROOT
TORSDOF 0
ENDMDL
