MODEL 1
REMARK minimizedAffinity -5.17411566
REMARK minimizedRMSD -1
REMARK  0 active torsions:
REMARK  status: ('A' for Active; 'I' for Inactive)
ROOT
ATOM      1  C2' OXE d   1      -1.064   0.846  -0.168  0.00  0.00     0.078 C 
ATOM      2  C1' OXE d   1       1.516   0.130  -1.012  0.00  0.00     0.078 C 
ATOM      3  C1  OXE d   1       0.845  -0.743   0.019  0.00  0.00    -0.078 A 
ATOM      4  C2  OXE d   1      -0.398  -0.359   0.461  0.00  0.00    -0.078 A 
ATOM      5  C3  OXE d   1      -1.084  -1.159   1.371  0.00  0.00     0.003 A 
ATOM      6  C4  OXE d   1      -0.456  -2.266   1.955  0.00  0.00    -0.002 A 
ATOM      7  C5  OXE d   1       0.826  -2.652   1.548  0.00  0.00    -0.002 A 
ATOM      8  C6  OXE d   1       1.472  -1.927   0.553  0.00  0.00     0.003 A 
ENDROOT
TORSDOF 0
ENDMDL
