MODEL 1
REMARK minimizedAffinity -4.31413841
REMARK minimizedRMSD -1
REMARK  0 active torsions:
REMARK  status: ('A' for Active; 'I' for Inactive)
ROOT
ATOM      1  C2' OXE d   1       0.176   0.479  -0.234  0.00  0.00     0.078 C 
ATOM      2  C1' OXE d   1       2.222  -1.371  -0.750  0.00  0.00     0.078 C 
ATOM      3  C1  OXE d   1       1.277  -1.667   0.387  0.00  0.00    -0.078 A 
ATOM      4  C2  OXE d   1       0.307  -0.733   0.662  0.00  0.00    -0.078 A 
ATOM      5  C3  OXE d   1      -0.626  -0.983   1.665  0.00  0.00     0.003 A 
ATOM      6  C4  OXE d   1      -0.491  -2.102   2.496  0.00  0.00    -0.002 A 
ATOM      7  C5  OXE d   1       0.514  -3.045   2.258  0.00  0.00    -0.002 A 
ATOM      8  C6  OXE d   1       1.378  -2.865   1.184  0.00  0.00     0.003 A 
ENDROOT
TORSDOF 0
ENDMDL
