MODEL 1
REMARK minimizedAffinity -6.38909626
REMARK minimizedRMSD -1
REMARK  0 active torsions:
REMARK  status: ('A' for Active; 'I' for Inactive)
ROOT
ATOM      1  C2' OXE d   1      -1.228  -1.478   2.992  0.00  0.00     0.078 C 
ATOM      2  C1' OXE d   1       0.940  -3.238   2.714  0.00  0.00     0.078 C 
ATOM      3  C1  OXE d   1       0.785  -2.146   1.686  0.00  0.00    -0.078 A 
ATOM      4  C2  OXE d   1      -0.305  -1.318   1.803  0.00  0.00    -0.078 A 
ATOM      5  C3  OXE d   1      -0.466  -0.259   0.913  0.00  0.00     0.003 A 
ATOM      6  C4  OXE d   1       0.386  -0.125  -0.189  0.00  0.00    -0.002 A 
ATOM      7  C5  OXE d   1       1.480  -0.982  -0.350  0.00  0.00    -0.002 A 
ATOM      8  C6  OXE d   1       1.718  -1.969   0.601  0.00  0.00     0.003 A 
ENDROOT
TORSDOF 0
ENDMDL
