MODEL 1
REMARK minimizedAffinity -5.3692174
REMARK minimizedRMSD -1
REMARK  0 active torsions:
REMARK  status: ('A' for Active; 'I' for Inactive)
ROOT
ATOM      1  C2' OXE d   1       2.785  -1.733   1.246  0.00  0.00     0.078 C 
ATOM      2  C1' OXE d   1       0.420  -0.516   0.350  0.00  0.00     0.078 C 
ATOM      3  C1  OXE d   1       0.316  -1.506   1.483  0.00  0.00    -0.078 A 
ATOM      4  C2  OXE d   1       1.471  -2.131   1.884  0.00  0.00    -0.078 A 
ATOM      5  C3  OXE d   1       1.440  -3.012   2.961  0.00  0.00     0.003 A 
ATOM      6  C4  OXE d   1       0.220  -3.383   3.539  0.00  0.00    -0.002 A 
ATOM      7  C5  OXE d   1      -0.974  -2.787   3.119  0.00  0.00    -0.002 A 
ATOM      8  C6  OXE d   1      -0.939  -1.817   2.123  0.00  0.00     0.003 A 
ENDROOT
TORSDOF 0
ENDMDL
