MODEL 1
REMARK minimizedAffinity -4.59818363
REMARK minimizedRMSD -1
REMARK  0 active torsions:
REMARK  status: ('A' for Active; 'I' for Inactive)
ROOT
ATOM      1  C2' OXE d   1       1.116  -3.394   2.613  0.00  0.00     0.078 C 
ATOM      2  C1' OXE d   1      -1.299  -1.964   2.660  0.00  0.00     0.078 C 
ATOM      3  C1  OXE d   1      -0.254  -1.547   1.656  0.00  0.00    -0.078 A 
ATOM      4  C2  OXE d   1       0.943  -2.222   1.672  0.00  0.00    -0.078 A 
ATOM      5  C3  OXE d   1       1.921  -1.913   0.731  0.00  0.00     0.003 A 
ATOM      6  C4  OXE d   1       1.757  -0.820  -0.129  0.00  0.00    -0.002 A 
ATOM      7  C5  OXE d   1       0.562  -0.094  -0.134  0.00  0.00    -0.002 A 
ATOM      8  C6  OXE d   1      -0.468  -0.470   0.721  0.00  0.00     0.003 A 
ENDROOT
TORSDOF 0
ENDMDL
