MODEL 1
REMARK minimizedAffinity -4.59425831
REMARK minimizedRMSD -1
REMARK  0 active torsions:
REMARK  status: ('A' for Active; 'I' for Inactive)
ROOT
ATOM      1  C2' OXE d   1      -0.688  -0.020   0.481  0.00  0.00     0.078 C 
ATOM      2  C1' OXE d   1      -1.263  -1.239   2.943  0.00  0.00     0.078 C 
ATOM      3  C1  OXE d   1      -0.155  -1.830   2.108  0.00  0.00    -0.078 A 
ATOM      4  C2  OXE d   1       0.088  -1.256   0.883  0.00  0.00    -0.078 A 
ATOM      5  C3  OXE d   1       1.135  -1.727   0.096  0.00  0.00     0.003 A 
ATOM      6  C4  OXE d   1       1.841  -2.877   0.471  0.00  0.00    -0.002 A 
ATOM      7  C5  OXE d   1       1.582  -3.501   1.695  0.00  0.00    -0.002 A 
ATOM      8  C6  OXE d   1       0.619  -2.966   2.543  0.00  0.00     0.003 A 
ENDROOT
TORSDOF 0
ENDMDL
