MODEL 1
REMARK minimizedAffinity -2.06058788
REMARK minimizedRMSD -1
REMARK  0 active torsions:
REMARK  status: ('A' for Active; 'I' for Inactive)
ROOT
ATOM      1  C2' OXE d   1      -1.441   2.301  -1.217  0.00  0.00     0.078 C 
ATOM      2  C1' OXE d   1      -2.730   1.763  -3.652  0.00  0.00     0.078 C 
ATOM      3  C1  OXE d   1      -1.664   2.830  -3.641  0.00  0.00    -0.078 A 
ATOM      4  C2  OXE d   1      -1.072   3.119  -2.435  0.00  0.00    -0.078 A 
ATOM      5  C3  OXE d   1      -0.044   4.057  -2.379  0.00  0.00     0.003 A 
ATOM      6  C4  OXE d   1       0.284   4.817  -3.508  0.00  0.00    -0.002 A 
ATOM      7  C5  OXE d   1      -0.335   4.566  -4.737  0.00  0.00    -0.002 A 
ATOM      8  C6  OXE d   1      -1.279   3.549  -4.830  0.00  0.00     0.003 A 
ENDROOT
TORSDOF 0
ENDMDL
