MODEL 1
REMARK minimizedAffinity -2.16633749
REMARK minimizedRMSD -1
REMARK  0 active torsions:
REMARK  status: ('A' for Active; 'I' for Inactive)
ROOT
ATOM      1  C2' OXE d   1       2.493  -1.091   0.178  0.00  0.00     0.078 C 
ATOM      2  C1' OXE d   1       0.518  -2.667  -1.045  0.00  0.00     0.078 C 
ATOM      3  C1  OXE d   1       0.242  -1.193  -0.884  0.00  0.00    -0.078 A 
ATOM      4  C2  OXE d   1       1.194  -0.438  -0.243  0.00  0.00    -0.078 A 
ATOM      5  C3  OXE d   1       1.014   0.937  -0.116  0.00  0.00     0.003 A 
ATOM      6  C4  OXE d   1      -0.194   1.531  -0.499  0.00  0.00    -0.002 A 
ATOM      7  C5  OXE d   1      -1.194   0.774  -1.118  0.00  0.00    -0.002 A 
ATOM      8  C6  OXE d   1      -0.974  -0.579  -1.356  0.00  0.00     0.003 A 
ENDROOT
TORSDOF 0
ENDMDL
