MODEL 1
REMARK minimizedAffinity -2.30386376
REMARK minimizedRMSD -1
REMARK  0 active torsions:
REMARK  status: ('A' for Active; 'I' for Inactive)
ROOT
ATOM      1  C2' OXE d   1       1.451  -1.330   0.427  0.00  0.00     0.078 C 
ATOM      2  C1' OXE d   1      -1.065  -0.323   1.161  0.00  0.00     0.078 C 
ATOM      3  C1  OXE d   1      -0.703  -0.314  -0.304  0.00  0.00    -0.078 A 
ATOM      4  C2  OXE d   1       0.548  -0.765  -0.649  0.00  0.00    -0.078 A 
ATOM      5  C3  OXE d   1       0.912  -0.828  -1.991  0.00  0.00     0.003 A 
ATOM      6  C4  OXE d   1       0.075  -0.294  -2.978  0.00  0.00    -0.002 A 
ATOM      7  C5  OXE d   1      -1.188   0.206  -2.644  0.00  0.00    -0.002 A 
ATOM      8  C6  OXE d   1      -1.608   0.165  -1.319  0.00  0.00     0.003 A 
ENDROOT
TORSDOF 0
ENDMDL
