MODEL 1
REMARK minimizedAffinity -2.52332807
REMARK minimizedRMSD -1
REMARK  0 active torsions:
REMARK  status: ('A' for Active; 'I' for Inactive)
ROOT
ATOM      1  C2' OXE d   1      -0.830   0.075  -0.723  0.00  0.00     0.078 C 
ATOM      2  C1' OXE d   1       1.945  -0.230  -1.017  0.00  0.00     0.078 C 
ATOM      3  C1  OXE d   1       1.278  -0.940   0.134  0.00  0.00    -0.078 A 
ATOM      4  C2  OXE d   1      -0.073  -0.747   0.298  0.00  0.00    -0.078 A 
ATOM      5  C3  OXE d   1      -0.748  -1.423   1.311  0.00  0.00     0.003 A 
ATOM      6  C4  OXE d   1      -0.039  -2.173   2.257  0.00  0.00    -0.002 A 
ATOM      7  C5  OXE d   1       1.343  -2.350   2.131  0.00  0.00    -0.002 A 
ATOM      8  C6  OXE d   1       2.009  -1.776   1.054  0.00  0.00     0.003 A 
ENDROOT
TORSDOF 0
ENDMDL
