MODEL 1
REMARK minimizedAffinity -3.85894251
REMARK minimizedRMSD -1
REMARK  0 active torsions:
REMARK  status: ('A' for Active; 'I' for Inactive)
ROOT
ATOM      1  C2' OXE d   1      -2.639   0.810  -1.495  0.00  0.00     0.078 C 
ATOM      2  C1' OXE d   1      -1.297   1.800   0.762  0.00  0.00     0.078 C 
ATOM      3  C1  OXE d   1      -0.546   0.859  -0.146  0.00  0.00    -0.078 A 
ATOM      4  C2  OXE d   1      -1.225   0.342  -1.222  0.00  0.00    -0.078 A 
ATOM      5  C3  OXE d   1      -0.563  -0.488  -2.122  0.00  0.00     0.003 A 
ATOM      6  C4  OXE d   1       0.741  -0.923  -1.857  0.00  0.00    -0.002 A 
ATOM      7  C5  OXE d   1       1.438  -0.440  -0.745  0.00  0.00    -0.002 A 
ATOM      8  C6  OXE d   1       0.825   0.482   0.096  0.00  0.00     0.003 A 
ENDROOT
TORSDOF 0
ENDMDL
