MODEL 1
REMARK minimizedAffinity 0.367280692
REMARK minimizedRMSD -1
REMARK  0 active torsions:
REMARK  status: ('A' for Active; 'I' for Inactive)
ROOT
ATOM      1  C2' OXE d   1       2.146  -0.492  -0.687  0.00  0.00     0.078 C 
ATOM      2  C1' OXE d   1      -0.473   0.340  -0.114  0.00  0.00     0.078 C 
ATOM      3  C1  OXE d   1       0.197  -0.597   0.860  0.00  0.00    -0.078 A 
ATOM      4  C2  OXE d   1       1.461  -1.035   0.548  0.00  0.00    -0.078 A 
ATOM      5  C3  OXE d   1       2.145  -1.857   1.439  0.00  0.00     0.003 A 
ATOM      6  C4  OXE d   1       1.501  -2.363   2.575  0.00  0.00    -0.002 A 
ATOM      7  C5  OXE d   1       0.199  -1.961   2.891  0.00  0.00    -0.002 A 
ATOM      8  C6  OXE d   1      -0.450  -1.047   2.068  0.00  0.00     0.003 A 
ENDROOT
TORSDOF 0
ENDMDL
