MODEL 1
REMARK minimizedAffinity -2.286973
REMARK minimizedRMSD -1
REMARK  0 active torsions:
REMARK  status: ('A' for Active; 'I' for Inactive)
ROOT
ATOM      1  C2' OXE d   1      -0.257  -0.807  -0.749  0.00  0.00     0.078 C 
ATOM      2  C1' OXE d   1      -0.238   1.913  -0.054  0.00  0.00     0.078 C 
ATOM      3  C1  OXE d   1      -1.098   1.491  -1.218  0.00  0.00    -0.078 A 
ATOM      4  C2  OXE d   1      -1.065   0.166  -1.581  0.00  0.00    -0.078 A 
ATOM      5  C3  OXE d   1      -1.881  -0.287  -2.614  0.00  0.00     0.003 A 
ATOM      6  C4  OXE d   1      -2.617   0.620  -3.385  0.00  0.00    -0.002 A 
ATOM      7  C5  OXE d   1      -2.634   1.980  -3.058  0.00  0.00    -0.002 A 
ATOM      8  C6  OXE d   1      -1.915   2.425  -1.953  0.00  0.00     0.003 A 
ENDROOT
TORSDOF 0
ENDMDL
