MODEL 1
REMARK minimizedAffinity -4.1686101
REMARK minimizedRMSD -1
REMARK  0 active torsions:
REMARK  status: ('A' for Active; 'I' for Inactive)
ROOT
ATOM      1  C2' OXE d   1      -0.637   1.018  -0.833  0.00  0.00     0.078 C 
ATOM      2  C1' OXE d   1       2.001   0.259  -1.419  0.00  0.00     0.078 C 
ATOM      3  C1  OXE d   1       1.323  -0.402  -0.245  0.00  0.00    -0.078 A 
ATOM      4  C2  OXE d   1       0.049   0.010   0.063  0.00  0.00    -0.078 A 
ATOM      5  C3  OXE d   1      -0.642  -0.606   1.102  0.00  0.00     0.003 A 
ATOM      6  C4  OXE d   1       0.003  -1.531   1.933  0.00  0.00    -0.002 A 
ATOM      7  C5  OXE d   1       1.314  -1.935   1.661  0.00  0.00    -0.002 A 
ATOM      8  C6  OXE d   1       1.972  -1.412   0.553  0.00  0.00     0.003 A 
ENDROOT
TORSDOF 0
ENDMDL
