MODEL 1
REMARK minimizedAffinity -5.27251148
REMARK minimizedRMSD -1
REMARK  0 active torsions:
REMARK  status: ('A' for Active; 'I' for Inactive)
ROOT
ATOM      1  C2' OXE d   1       1.347  -0.278  -1.065  0.00  0.00     0.078 C 
ATOM      2  C1' OXE d   1      -1.034   0.452   0.231  0.00  0.00     0.078 C 
ATOM      3  C1  OXE d   1      -0.275  -0.735   0.770  0.00  0.00    -0.078 A 
ATOM      4  C2  OXE d   1       0.865  -1.113   0.102  0.00  0.00    -0.078 A 
ATOM      5  C3  OXE d   1       1.632  -2.167   0.590  0.00  0.00     0.003 A 
ATOM      6  C4  OXE d   1       1.174  -2.940   1.663  0.00  0.00    -0.002 A 
ATOM      7  C5  OXE d   1      -0.005  -2.596   2.333  0.00  0.00    -0.002 A 
ATOM      8  C6  OXE d   1      -0.717  -1.473   1.927  0.00  0.00     0.003 A 
ENDROOT
TORSDOF 0
ENDMDL
