MODEL 1
REMARK minimizedAffinity -4.19142771
REMARK minimizedRMSD -1
REMARK  0 active torsions:
REMARK  status: ('A' for Active; 'I' for Inactive)
ROOT
ATOM      1  C2' OXE d   1      -0.591   1.124  -0.611  0.00  0.00     0.078 C 
ATOM      2  C1' OXE d   1      -1.606   0.340   1.886  0.00  0.00     0.078 C 
ATOM      3  C1  OXE d   1      -0.271  -0.219   1.462  0.00  0.00    -0.078 A 
ATOM      4  C2  OXE d   1       0.196   0.133   0.218  0.00  0.00    -0.078 A 
ATOM      5  C3  OXE d   1       1.447  -0.311  -0.200  0.00  0.00     0.003 A 
ATOM      6  C4  OXE d   1       2.164  -1.236   0.569  0.00  0.00    -0.002 A 
ATOM      7  C5  OXE d   1       1.688  -1.639   1.822  0.00  0.00    -0.002 A 
ATOM      8  C6  OXE d   1       0.495  -1.108   2.300  0.00  0.00     0.003 A 
ENDROOT
TORSDOF 0
ENDMDL
