MODEL 1
REMARK minimizedAffinity -3.1391902
REMARK minimizedRMSD -1
REMARK  0 active torsions:
REMARK  status: ('A' for Active; 'I' for Inactive)
ROOT
ATOM      1  C2' OXE d   1       1.578  -0.161  -1.038  0.00  0.00     0.078 C 
ATOM      2  C1' OXE d   1      -0.783   0.983  -0.039  0.00  0.00     0.078 C 
ATOM      3  C1  OXE d   1      -0.189  -0.179   0.717  0.00  0.00    -0.078 A 
ATOM      4  C2  OXE d   1       0.940  -0.763   0.195  0.00  0.00    -0.078 A 
ATOM      5  C3  OXE d   1       1.559  -1.803   0.882  0.00  0.00     0.003 A 
ATOM      6  C4  OXE d   1       0.957  -2.360   2.017  0.00  0.00    -0.002 A 
ATOM      7  C5  OXE d   1      -0.215  -1.807   2.543  0.00  0.00    -0.002 A 
ATOM      8  C6  OXE d   1      -0.776  -0.691   1.931  0.00  0.00     0.003 A 
ENDROOT
TORSDOF 0
ENDMDL
