MODEL 1
REMARK minimizedAffinity -5.01887369
REMARK minimizedRMSD -1
REMARK  0 active torsions:
REMARK  status: ('A' for Active; 'I' for Inactive)
ROOT
ATOM      1  C2' OXE d   1       2.062  -0.872  -0.308  0.00  0.00     0.078 C 
ATOM      2  C1' OXE d   1      -0.229   0.747  -0.188  0.00  0.00     0.078 C 
ATOM      3  C1  OXE d   1       0.014  -0.214   0.950  0.00  0.00    -0.078 A 
ATOM      4  C2  OXE d   1       1.113  -1.035   0.860  0.00  0.00    -0.078 A 
ATOM      5  C3  OXE d   1       1.413  -1.901   1.907  0.00  0.00     0.003 A 
ATOM      6  C4  OXE d   1       0.525  -2.053   2.979  0.00  0.00    -0.002 A 
ATOM      7  C5  OXE d   1      -0.620  -1.254   3.070  0.00  0.00    -0.002 A 
ATOM      8  C6  OXE d   1      -0.867  -0.302   2.087  0.00  0.00     0.003 A 
ENDROOT
TORSDOF 0
ENDMDL
