MODEL 1
REMARK minimizedAffinity -3.00828409
REMARK minimizedRMSD -1
REMARK  0 active torsions:
REMARK  status: ('A' for Active; 'I' for Inactive)
ROOT
ATOM      1  N1  IND d   1       1.487   0.146  -0.424  0.00  0.00    -0.196 N 
ATOM      2  C2  IND d   1       1.007  -0.428  -1.568  0.00  0.00     0.054 A 
ATOM      3  C3  IND d   1      -0.339  -0.540  -1.509  0.00  0.00    -0.031 A 
ATOM      4  C4  IND d   1      -1.967   0.247   0.323  0.00  0.00     0.051 A 
ATOM      5  C5  IND d   1      -1.997   0.794   1.575  0.00  0.00    -0.031 A 
ATOM      6  C6  IND d   1      -0.844   1.164   2.237  0.00  0.00     0.015 A 
ATOM      7  C7  IND d   1       0.387   1.009   1.664  0.00  0.00    -0.016 A 
ATOM      8  C8  IND d   1       0.421   0.447   0.396  0.00  0.00    -0.047 A 
ATOM      9  C9  IND d   1      -0.743   0.031  -0.263  0.00  0.00    -0.096 A 
ATOM     10  HN1 IND d   1       2.315   0.295  -0.247  0.00  0.00     0.298 HD
ENDROOT
TORSDOF 0
ENDMDL
