MODEL 1
REMARK minimizedAffinity -4.44727707
REMARK minimizedRMSD -1
REMARK  0 active torsions:
REMARK  status: ('A' for Active; 'I' for Inactive)
ROOT
ATOM      1  N1  IND d   1       0.786  -0.192  -0.389  0.00  0.00    -0.196 N 
ATOM      2  C2  IND d   1      -0.333  -0.518  -1.104  0.00  0.00     0.054 A 
ATOM      3  C3  IND d   1      -1.445  -0.278  -0.373  0.00  0.00    -0.031 A 
ATOM      4  C4  IND d   1      -1.666   0.742   1.980  0.00  0.00     0.051 A 
ATOM      5  C5  IND d   1      -0.921   1.165   3.045  0.00  0.00    -0.031 A 
ATOM      6  C6  IND d   1       0.458   1.160   3.018  0.00  0.00     0.015 A 
ATOM      7  C7  IND d   1       1.148   0.740   1.916  0.00  0.00    -0.016 A 
ATOM      8  C8  IND d   1       0.395   0.303   0.835  0.00  0.00    -0.047 A 
ATOM      9  C9  IND d   1      -1.005   0.266   0.873  0.00  0.00    -0.096 A 
ATOM     10  HN1 IND d   1       1.597  -0.282  -0.659  0.00  0.00     0.298 HD
ENDROOT
TORSDOF 0
ENDMDL
