MODEL 1
REMARK minimizedAffinity -5.22000694
REMARK minimizedRMSD -1
REMARK  0 active torsions:
REMARK  status: ('A' for Active; 'I' for Inactive)
ROOT
ATOM      1  N1  IND d   1      -1.942   0.735   1.663  0.00  0.00    -0.196 N 
ATOM      2  C2  IND d   1      -1.677   0.943   2.988  0.00  0.00     0.054 A 
ATOM      3  C3  IND d   1      -0.402   0.596   3.273  0.00  0.00    -0.031 A 
ATOM      4  C4  IND d   1       1.456  -0.239   1.698  0.00  0.00     0.051 A 
ATOM      5  C5  IND d   1       1.681  -0.621   0.406  0.00  0.00    -0.031 A 
ATOM      6  C6  IND d   1       0.691  -0.567  -0.554  0.00  0.00     0.015 A 
ATOM      7  C7  IND d   1      -0.564  -0.116  -0.258  0.00  0.00    -0.016 A 
ATOM      8  C8  IND d   1      -0.799   0.266   1.056  0.00  0.00    -0.047 A 
ATOM      9  C9  IND d   1       0.190   0.173   2.043  0.00  0.00    -0.096 A 
ATOM     10  HN1 IND d   1      -2.697   0.874   1.275  0.00  0.00     0.298 HD
ENDROOT
TORSDOF 0
ENDMDL
