MODEL 1
REMARK minimizedAffinity -3.25458598
REMARK minimizedRMSD -1
REMARK  0 active torsions:
REMARK  status: ('A' for Active; 'I' for Inactive)
ROOT
ATOM      1  N1  IND d   1       0.297   0.716   2.457  0.00  0.00    -0.196 N 
ATOM      2  C2  IND d   1      -0.930   1.100   2.921  0.00  0.00     0.054 A 
ATOM      3  C3  IND d   1      -1.876   0.895   1.977  0.00  0.00    -0.031 A 
ATOM      4  C4  IND d   1      -1.650  -0.154  -0.363  0.00  0.00     0.051 A 
ATOM      5  C5  IND d   1      -0.720  -0.626  -1.246  0.00  0.00    -0.031 A 
ATOM      6  C6  IND d   1       0.623  -0.679  -0.933  0.00  0.00     0.015 A 
ATOM      7  C7  IND d   1       1.087  -0.270   0.285  0.00  0.00    -0.016 A 
ATOM      8  C8  IND d   1       0.146   0.217   1.182  0.00  0.00    -0.047 A 
ATOM      9  C9  IND d   1      -1.212   0.312   0.854  0.00  0.00    -0.096 A 
ATOM     10  HN1 IND d   1       1.038   0.775   2.889  0.00  0.00     0.298 HD
ENDROOT
TORSDOF 0
ENDMDL
