MODEL 1
REMARK minimizedAffinity -1.82215047
REMARK minimizedRMSD -1
REMARK  0 active torsions:
REMARK  status: ('A' for Active; 'I' for Inactive)
ROOT
ATOM      1  N1  IND d   1       0.426   0.505   0.153  0.00  0.00    -0.196 N 
ATOM      2  C2  IND d   1      -0.587  -0.390   0.358  0.00  0.00     0.054 A 
ATOM      3  C3  IND d   1      -0.854  -1.066  -0.782  0.00  0.00    -0.031 A 
ATOM      4  C4  IND d   1       0.315  -0.939  -3.072  0.00  0.00     0.051 A 
ATOM      5  C5  IND d   1       1.272  -0.242  -3.756  0.00  0.00    -0.031 A 
ATOM      6  C6  IND d   1       2.013   0.756  -3.158  0.00  0.00     0.015 A 
ATOM      7  C7  IND d   1       1.832   1.090  -1.846  0.00  0.00    -0.016 A 
ATOM      8  C8  IND d   1       0.856   0.391  -1.151  0.00  0.00    -0.047 A 
ATOM      9  C9  IND d   1       0.071  -0.595  -1.763  0.00  0.00    -0.096 A 
ATOM     10  HN1 IND d   1       0.742   1.047   0.740  0.00  0.00     0.298 HD
ENDROOT
TORSDOF 0
ENDMDL
