MODEL 1
REMARK minimizedAffinity -0.607229292
REMARK minimizedRMSD -1
REMARK  0 active torsions:
REMARK  status: ('A' for Active; 'I' for Inactive)
ROOT
ATOM      1  N1  IND d   1       1.698   0.775  -2.097  0.00  0.00    -0.196 N 
ATOM      2  C2  IND d   1       1.021   0.317  -3.192  0.00  0.00     0.054 A 
ATOM      3  C3  IND d   1      -0.062  -0.397  -2.811  0.00  0.00    -0.031 A 
ATOM      4  C4  IND d   1      -0.970  -0.855  -0.446  0.00  0.00     0.051 A 
ATOM      5  C5  IND d   1      -0.673  -0.673   0.876  0.00  0.00    -0.031 A 
ATOM      6  C6  IND d   1       0.451   0.017   1.282  0.00  0.00     0.015 A 
ATOM      7  C7  IND d   1       1.318   0.563   0.378  0.00  0.00    -0.016 A 
ATOM      8  C8  IND d   1       1.023   0.374  -0.965  0.00  0.00    -0.047 A 
ATOM      9  C9  IND d   1      -0.093  -0.361  -1.383  0.00  0.00    -0.096 A 
ATOM     10  HN1 IND d   1       2.424   1.235  -2.112  0.00  0.00     0.298 HD
ENDROOT
TORSDOF 0
ENDMDL
