MODEL 1
REMARK minimizedAffinity -2.44939017
REMARK minimizedRMSD -1
REMARK  0 active torsions:
REMARK  status: ('A' for Active; 'I' for Inactive)
ROOT
ATOM      1  N1  IND d   1      -0.217   0.604   2.334  0.00  0.00    -0.196 N 
ATOM      2  C2  IND d   1      -1.496   0.850   2.751  0.00  0.00     0.054 A 
ATOM      3  C3  IND d   1      -2.382   0.454   1.810  0.00  0.00    -0.031 A 
ATOM      4  C4  IND d   1      -1.960  -0.716  -0.444  0.00  0.00     0.051 A 
ATOM      5  C5  IND d   1      -0.954  -1.118  -1.277  0.00  0.00    -0.031 A 
ATOM      6  C6  IND d   1       0.376  -0.966  -0.941  0.00  0.00     0.015 A 
ATOM      7  C7  IND d   1       0.751  -0.414   0.251  0.00  0.00    -0.016 A 
ATOM      8  C8  IND d   1      -0.268   0.002   1.096  0.00  0.00    -0.047 A 
ATOM      9  C9  IND d   1      -1.619  -0.111   0.742  0.00  0.00    -0.096 A 
ATOM     10  HN1 IND d   1       0.498   0.794   2.772  0.00  0.00     0.298 HD
ENDROOT
TORSDOF 0
ENDMDL
