MODEL 1
REMARK minimizedAffinity 2.34845495
REMARK minimizedRMSD -1
REMARK  0 active torsions:
REMARK  status: ('A' for Active; 'I' for Inactive)
ROOT
ATOM      1  N1  IND d   1      -0.168  -0.805  -1.190  0.00  0.00    -0.196 N 
ATOM      2  C2  IND d   1       0.776  -0.965  -0.215  0.00  0.00     0.054 A 
ATOM      3  C3  IND d   1       2.000  -0.635  -0.686  0.00  0.00    -0.031 A 
ATOM      4  C4  IND d   1       2.670   0.290  -2.993  0.00  0.00     0.051 A 
ATOM      5  C5  IND d   1       2.161   0.573  -4.229  0.00  0.00    -0.031 A 
ATOM      6  C6  IND d   1       0.822   0.411  -4.521  0.00  0.00     0.015 A 
ATOM      7  C7  IND d   1      -0.064  -0.031  -3.579  0.00  0.00    -0.016 A 
ATOM      8  C8  IND d   1       0.451  -0.327  -2.325  0.00  0.00    -0.047 A 
ATOM      9  C9  IND d   1       1.816  -0.205  -2.035  0.00  0.00    -0.096 A 
ATOM     10  HN1 IND d   1      -1.007  -0.973  -1.109  0.00  0.00     0.298 HD
ENDROOT
TORSDOF 0
ENDMDL
