MODEL 1
REMARK minimizedAffinity -3.30841041
REMARK minimizedRMSD -1
REMARK  1 active torsions:
REMARK  status: ('A' for Active; 'I' for Inactive)
REMARK    1  A    between atoms: C1_2  and  C2_3 
ROOT
ATOM      1  C2  UNL d   1      -1.222  -0.594   0.911  0.00  0.00    -0.076 A 
ATOM      2  C3  UNL d   1      -2.217   0.376   1.125  0.00  0.00     0.004 A 
ATOM      3  C4  UNL d   1      -3.046   0.319   2.244  0.00  0.00    -0.003 A 
ATOM      4  C5  UNL d   1      -2.893  -0.708   3.169  0.00  0.00     0.000 A 
ATOM      5  C6  UNL d   1      -1.899  -1.669   2.982  0.00  0.00     0.000 A 
ATOM      6  C7  UNL d   1      -1.045  -1.617   1.867  0.00  0.00    -0.073 A 
ATOM      7  C8  UNL d   1       0.005  -2.683   1.713  0.00  0.00     0.078 C 
ENDROOT
BRANCH   1   8
ATOM      8  C1  UNL d   1      -0.372  -0.497  -0.335  0.00  0.00     0.053 C 
ATOM      9  C   UNL d   1       0.700   0.577  -0.227  0.00  0.00     0.018 C 
ENDBRANCH   1   8
TORSDOF 1
ENDMDL
