MODEL 1
REMARK minimizedAffinity -5.02202463
REMARK minimizedRMSD -1
REMARK  1 active torsions:
REMARK  status: ('A' for Active; 'I' for Inactive)
REMARK    1  A    between atoms: C1_2  and  C2_3 
ROOT
ATOM      1  C2  UNL d   1      -0.874  -0.313   0.792  0.00  0.00    -0.076 A 
ATOM      2  C3  UNL d   1      -0.133  -1.502   0.678  0.00  0.00     0.004 A 
ATOM      3  C4  UNL d   1      -0.572  -2.681   1.279  0.00  0.00    -0.003 A 
ATOM      4  C5  UNL d   1      -1.760  -2.689   2.003  0.00  0.00     0.000 A 
ATOM      5  C6  UNL d   1      -2.516  -1.523   2.111  0.00  0.00     0.000 A 
ATOM      6  C7  UNL d   1      -2.096  -0.330   1.498  0.00  0.00    -0.073 A 
ATOM      7  C8  UNL d   1      -2.948   0.900   1.653  0.00  0.00     0.078 C 
ENDROOT
BRANCH   1   8
ATOM      8  C1  UNL d   1      -0.334   0.942   0.142  0.00  0.00     0.053 C 
ATOM      9  C   UNL d   1       0.122   0.706  -1.289  0.00  0.00     0.018 C 
ENDBRANCH   1   8
TORSDOF 1
ENDMDL
