MODEL 1
REMARK minimizedAffinity -4.85933352
REMARK minimizedRMSD -1
REMARK  1 active torsions:
REMARK  status: ('A' for Active; 'I' for Inactive)
REMARK    1  A    between atoms: C1_2  and  C2_3 
ROOT
ATOM      1  C2  UNL d   1      -0.392   0.102   0.605  0.00  0.00    -0.076 A 
ATOM      2  C3  UNL d   1      -1.685   0.433   1.045  0.00  0.00     0.004 A 
ATOM      3  C4  UNL d   1      -2.580  -0.555   1.450  0.00  0.00    -0.003 A 
ATOM      4  C5  UNL d   1      -2.196  -1.892   1.424  0.00  0.00     0.000 A 
ATOM      5  C6  UNL d   1      -0.911  -2.237   1.007  0.00  0.00     0.000 A 
ATOM      6  C7  UNL d   1       0.009  -1.252   0.610  0.00  0.00    -0.073 A 
ATOM      7  C8  UNL d   1       1.380  -1.682   0.165  0.00  0.00     0.078 C 
ENDROOT
BRANCH   1   8
ATOM      8  C1  UNL d   1       0.526   1.214   0.151  0.00  0.00     0.053 C 
ATOM      9  C   UNL d   1       0.336   1.564  -1.316  0.00  0.00     0.018 C 
ENDBRANCH   1   8
TORSDOF 1
ENDMDL
