MODEL 1
REMARK minimizedAffinity -4.74607325
REMARK minimizedRMSD -1
REMARK  1 active torsions:
REMARK  status: ('A' for Active; 'I' for Inactive)
REMARK    1  A    between atoms: C1_2  and  C2_3 
ROOT
ATOM      1  C2  UNL d   1      -1.083  -0.250   1.175  0.00  0.00    -0.076 A 
ATOM      2  C3  UNL d   1      -1.063  -1.636   1.411  0.00  0.00     0.004 A 
ATOM      3  C4  UNL d   1      -0.038  -2.435   0.906  0.00  0.00    -0.003 A 
ATOM      4  C5  UNL d   1       0.983  -1.861   0.156  0.00  0.00     0.000 A 
ATOM      5  C6  UNL d   1       0.988  -0.485  -0.073  0.00  0.00     0.000 A 
ATOM      6  C7  UNL d   1      -0.028   0.337   0.443  0.00  0.00    -0.073 A 
ATOM      7  C8  UNL d   1       0.024   1.813   0.160  0.00  0.00     0.078 C 
ENDROOT
BRANCH   1   8
ATOM      8  C1  UNL d   1      -2.234   0.562   1.725  0.00  0.00     0.053 C 
ATOM      9  C   UNL d   1      -3.114  -0.242   2.670  0.00  0.00     0.018 C 
ENDBRANCH   1   8
TORSDOF 1
ENDMDL
