MODEL 1
REMARK minimizedAffinity 0.583596587
REMARK minimizedRMSD -1
REMARK  1 active torsions:
REMARK  status: ('A' for Active; 'I' for Inactive)
REMARK    1  A    between atoms: C1_2  and  C2_3 
ROOT
ATOM      1  C2  UNL d   1       0.535   0.439  -0.246  0.00  0.00    -0.076 A 
ATOM      2  C3  UNL d   1       1.384  -0.677  -0.346  0.00  0.00     0.004 A 
ATOM      3  C4  UNL d   1       1.139  -1.834   0.392  0.00  0.00    -0.003 A 
ATOM      4  C5  UNL d   1       0.040  -1.893   1.243  0.00  0.00     0.000 A 
ATOM      5  C6  UNL d   1      -0.822  -0.802   1.342  0.00  0.00     0.000 A 
ATOM      6  C7  UNL d   1      -0.598   0.366   0.592  0.00  0.00    -0.073 A 
ATOM      7  C8  UNL d   1      -1.557   1.515   0.742  0.00  0.00     0.078 C 
ENDROOT
BRANCH   1   8
ATOM      8  C1  UNL d   1       0.867   1.675  -1.050  0.00  0.00     0.053 C 
ATOM      9  C   UNL d   1       1.874   1.399  -2.156  0.00  0.00     0.018 C 
ENDBRANCH   1   8
TORSDOF 1
ENDMDL
