MODEL 1
REMARK minimizedAffinity -4.3704977
REMARK minimizedRMSD -1
REMARK  1 active torsions:
REMARK  status: ('A' for Active; 'I' for Inactive)
REMARK    1  A    between atoms: C1_2  and  C2_3 
ROOT
ATOM      1  C2  UNL d   1       0.396  -0.669   0.599  0.00  0.00    -0.076 A 
ATOM      2  C3  UNL d   1       0.873   0.562   0.118  0.00  0.00     0.004 A 
ATOM      3  C4  UNL d   1       0.084   1.710   0.176  0.00  0.00    -0.003 A 
ATOM      4  C5  UNL d   1      -1.195   1.644   0.718  0.00  0.00     0.000 A 
ATOM      5  C6  UNL d   1      -1.678   0.434   1.216  0.00  0.00     0.000 A 
ATOM      6  C7  UNL d   1      -0.889  -0.728   1.179  0.00  0.00    -0.073 A 
ATOM      7  C8  UNL d   1      -1.462  -2.007   1.725  0.00  0.00     0.078 C 
ENDROOT
BRANCH   1   8
ATOM      8  C1  UNL d   1       1.287  -1.886   0.484  0.00  0.00     0.053 C 
ATOM      9  C   UNL d   1       2.721  -1.600   0.903  0.00  0.00     0.018 C 
ENDBRANCH   1   8
TORSDOF 1
ENDMDL
