MODEL 1
REMARK minimizedAffinity -2.38492155
REMARK minimizedRMSD -1
REMARK  1 active torsions:
REMARK  status: ('A' for Active; 'I' for Inactive)
REMARK    1  A    between atoms: C1_2  and  C2_3 
ROOT
ATOM      1  C2  UNL d   1       0.360   0.316   0.183  0.00  0.00    -0.076 A 
ATOM      2  C3  UNL d   1       1.045  -0.904   0.047  0.00  0.00     0.004 A 
ATOM      3  C4  UNL d   1       0.641  -2.037   0.752  0.00  0.00    -0.003 A 
ATOM      4  C5  UNL d   1      -0.455  -1.967   1.605  0.00  0.00     0.000 A 
ATOM      5  C6  UNL d   1      -1.157  -0.770   1.739  0.00  0.00     0.000 A 
ATOM      6  C7  UNL d   1      -0.773   0.377   1.023  0.00  0.00    -0.073 A 
ATOM      7  C8  UNL d   1      -1.562   1.643   1.211  0.00  0.00     0.078 C 
ENDROOT
BRANCH   1   8
ATOM      8  C1  UNL d   1       0.861   1.517  -0.586  0.00  0.00     0.053 C 
ATOM      9  C   UNL d   1       0.409   1.509  -2.038  0.00  0.00     0.018 C 
ENDBRANCH   1   8
TORSDOF 1
ENDMDL
