MODEL 1
REMARK minimizedAffinity -1.94566119
REMARK minimizedRMSD -1
REMARK  1 active torsions:
REMARK  status: ('A' for Active; 'I' for Inactive)
REMARK    1  A    between atoms: C1_2  and  C2_3 
ROOT
ATOM      1  C2  UNL d   1      -0.010  -1.204   0.891  0.00  0.00    -0.076 A 
ATOM      2  C3  UNL d   1      -0.614  -1.777   2.023  0.00  0.00     0.004 A 
ATOM      3  C4  UNL d   1      -1.998  -1.749   2.190  0.00  0.00    -0.003 A 
ATOM      4  C5  UNL d   1      -2.800  -1.148   1.227  0.00  0.00     0.000 A 
ATOM      5  C6  UNL d   1      -2.220  -0.589   0.089  0.00  0.00     0.000 A 
ATOM      6  C7  UNL d   1      -0.828  -0.623  -0.103  0.00  0.00    -0.073 A 
ATOM      7  C8  UNL d   1      -0.255  -0.000  -1.347  0.00  0.00     0.078 C 
ENDROOT
BRANCH   1   8
ATOM      8  C1  UNL d   1       1.497  -1.240   0.777  0.00  0.00     0.053 C 
ATOM      9  C   UNL d   1       2.147   0.059   1.228  0.00  0.00     0.018 C 
ENDBRANCH   1   8
TORSDOF 1
ENDMDL
