MODEL 1
REMARK minimizedAffinity -5.32061386
REMARK minimizedRMSD -1
REMARK  1 active torsions:
REMARK  status: ('A' for Active; 'I' for Inactive)
REMARK    1  A    between atoms: C1_2  and  C2_3 
ROOT
ATOM      1  C2  UNL d   1      -0.520  -0.112   0.755  0.00  0.00    -0.076 A 
ATOM      2  C3  UNL d   1      -1.894  -0.140   1.053  0.00  0.00     0.004 A 
ATOM      3  C4  UNL d   1      -2.528  -1.331   1.401  0.00  0.00    -0.003 A 
ATOM      4  C5  UNL d   1      -1.799  -2.514   1.457  0.00  0.00     0.000 A 
ATOM      5  C6  UNL d   1      -0.433  -2.502   1.181  0.00  0.00     0.000 A 
ATOM      6  C7  UNL d   1       0.226  -1.307   0.844  0.00  0.00    -0.073 A 
ATOM      7  C8  UNL d   1       1.700  -1.353   0.551  0.00  0.00     0.078 C 
ENDROOT
BRANCH   1   8
ATOM      8  C1  UNL d   1       0.108   1.205   0.357  0.00  0.00     0.053 C 
ATOM      9  C   UNL d   1       0.350   1.306  -1.141  0.00  0.00     0.018 C 
ENDBRANCH   1   8
TORSDOF 1
ENDMDL
