MODEL 1
REMARK minimizedAffinity -2.29171348
REMARK minimizedRMSD -1
REMARK  1 active torsions:
REMARK  status: ('A' for Active; 'I' for Inactive)
REMARK    1  A    between atoms: C1_2  and  C2_3 
ROOT
ATOM      1  C2  UNL d   1      -0.895  -0.473   0.632  0.00  0.00    -0.076 A 
ATOM      2  C3  UNL d   1      -2.076   0.181   1.023  0.00  0.00     0.004 A 
ATOM      3  C4  UNL d   1      -3.141  -0.530   1.575  0.00  0.00    -0.003 A 
ATOM      4  C5  UNL d   1      -3.042  -1.906   1.744  0.00  0.00     0.000 A 
ATOM      5  C6  UNL d   1      -1.871  -2.569   1.377  0.00  0.00     0.000 A 
ATOM      6  C7  UNL d   1      -0.782  -1.865   0.835  0.00  0.00    -0.073 A 
ATOM      7  C8  UNL d   1       0.454  -2.632   0.452  0.00  0.00     0.078 C 
ENDROOT
BRANCH   1   8
ATOM      8  C1  UNL d   1       0.216   0.346   0.015  0.00  0.00     0.053 C 
ATOM      9  C   UNL d   1      -0.062   1.840   0.069  0.00  0.00     0.018 C 
ENDBRANCH   1   8
TORSDOF 1
ENDMDL
