MODEL 1
REMARK minimizedAffinity -6.18865585
REMARK minimizedRMSD -1
REMARK  1 active torsions:
REMARK  status: ('A' for Active; 'I' for Inactive)
REMARK    1  A    between atoms: C1_2  and  C2_3 
ROOT
ATOM      1  C2  UNL d   1      -1.291  -0.166   0.885  0.00  0.00    -0.076 A 
ATOM      2  C3  UNL d   1      -2.347   0.483   1.548  0.00  0.00     0.004 A 
ATOM      3  C4  UNL d   1      -3.190  -0.216   2.411  0.00  0.00    -0.003 A 
ATOM      4  C5  UNL d   1      -2.989  -1.575   2.626  0.00  0.00     0.000 A 
ATOM      5  C6  UNL d   1      -1.936  -2.231   1.990  0.00  0.00     0.000 A 
ATOM      6  C7  UNL d   1      -1.067  -1.538   1.130  0.00  0.00    -0.073 A 
ATOM      7  C8  UNL d   1       0.049  -2.297   0.466  0.00  0.00     0.078 C 
ENDROOT
BRANCH   1   8
ATOM      8  C1  UNL d   1      -0.427   0.637  -0.060  0.00  0.00     0.053 C 
ATOM      9  C   UNL d   1      -0.049   1.996   0.508  0.00  0.00     0.018 C 
ENDBRANCH   1   8
TORSDOF 1
ENDMDL
