MODEL 1
REMARK minimizedAffinity -2.22766328
REMARK minimizedRMSD -1
REMARK  0 active torsions:
REMARK  status: ('A' for Active; 'I' for Inactive)
ROOT
ATOM      1  N1  IND d   1       1.826  -1.062   1.355  0.00  0.00    -0.196 N 
ATOM      2  C2  IND d   1       1.614  -1.171   0.009  0.00  0.00     0.054 A 
ATOM      3  C3  IND d   1       0.338  -0.842  -0.294  0.00  0.00    -0.031 A 
ATOM      4  C4  IND d   1      -1.544   0.001   1.248  0.00  0.00     0.051 A 
ATOM      5  C5  IND d   1      -1.838   0.228   2.563  0.00  0.00    -0.031 A 
ATOM      6  C6  IND d   1      -0.906   0.036   3.563  0.00  0.00     0.015 A 
ATOM      7  C7  IND d   1       0.364  -0.382   3.282  0.00  0.00    -0.016 A 
ATOM      8  C8  IND d   1       0.664  -0.621   1.948  0.00  0.00    -0.047 A 
ATOM      9  C9  IND d   1      -0.290  -0.468   0.934  0.00  0.00    -0.096 A 
ATOM     10  HN1 IND d   1       2.562  -1.240   1.763  0.00  0.00     0.298 HD
ENDROOT
TORSDOF 0
ENDMDL
