MODEL 1
REMARK minimizedAffinity -5.31131363
REMARK minimizedRMSD -1
REMARK  0 active torsions:
REMARK  status: ('A' for Active; 'I' for Inactive)
ROOT
ATOM      1  N1  IND d   1       1.052  -0.697  -0.351  0.00  0.00    -0.196 N 
ATOM      2  C2  IND d   1      -0.082  -0.360  -1.035  0.00  0.00     0.054 A 
ATOM      3  C3  IND d   1      -1.005   0.155  -0.191  0.00  0.00    -0.031 A 
ATOM      4  C4  IND d   1      -0.827   0.629   2.333  0.00  0.00     0.051 A 
ATOM      5  C5  IND d   1       0.002   0.457   3.406  0.00  0.00    -0.031 A 
ATOM      6  C6  IND d   1       1.250  -0.118   3.278  0.00  0.00     0.015 A 
ATOM      7  C7  IND d   1       1.722  -0.534   2.066  0.00  0.00    -0.016 A 
ATOM      8  C8  IND d   1       0.880  -0.367   0.975  0.00  0.00    -0.047 A 
ATOM      9  C9  IND d   1      -0.405   0.177   1.106  0.00  0.00    -0.096 A 
ATOM     10  HN1 IND d   1       1.755  -1.056  -0.692  0.00  0.00     0.298 HD
ENDROOT
TORSDOF 0
ENDMDL
