MODEL 1
REMARK minimizedAffinity -2.79544806
REMARK minimizedRMSD -1
REMARK  0 active torsions:
REMARK  status: ('A' for Active; 'I' for Inactive)
ROOT
ATOM      1  N1  IND d   1       0.460   0.014   2.907  0.00  0.00    -0.196 N 
ATOM      2  C2  IND d   1      -0.730   0.433   3.433  0.00  0.00     0.054 A 
ATOM      3  C3  IND d   1      -1.642   0.610   2.452  0.00  0.00    -0.031 A 
ATOM      4  C4  IND d   1      -1.430   0.175  -0.077  0.00  0.00     0.051 A 
ATOM      5  C5  IND d   1      -0.523  -0.178  -1.036  0.00  0.00    -0.031 A 
ATOM      6  C6  IND d   1       0.783  -0.495  -0.724  0.00  0.00     0.015 A 
ATOM      7  C7  IND d   1       1.230  -0.481   0.567  0.00  0.00    -0.016 A 
ATOM      8  C8  IND d   1       0.314  -0.115   1.543  0.00  0.00    -0.047 A 
ATOM      9  C9  IND d   1      -1.001   0.248   1.227  0.00  0.00    -0.096 A 
ATOM     10  HN1 IND d   1       1.178  -0.142   3.353  0.00  0.00     0.298 HD
ENDROOT
TORSDOF 0
ENDMDL
