MODEL 1
REMARK minimizedAffinity -6.14951563
REMARK minimizedRMSD -1
REMARK  0 active torsions:
REMARK  status: ('A' for Active; 'I' for Inactive)
ROOT
ATOM      1  N1  IND d   1       0.795  -0.472   0.055  0.00  0.00    -0.196 N 
ATOM      2  C2  IND d   1      -0.331  -0.333  -0.707  0.00  0.00     0.054 A 
ATOM      3  C3  IND d   1      -1.298   0.301  -0.006  0.00  0.00    -0.031 A 
ATOM      4  C4  IND d   1      -1.215   1.287   2.370  0.00  0.00     0.051 A 
ATOM      5  C5  IND d   1      -0.412   1.375   3.473  0.00  0.00    -0.031 A 
ATOM      6  C6  IND d   1       0.862   0.843   3.492  0.00  0.00     0.015 A 
ATOM      7  C7  IND d   1       1.386   0.211   2.400  0.00  0.00    -0.016 A 
ATOM      8  C8  IND d   1       0.570   0.114   1.281  0.00  0.00    -0.047 A 
ATOM      9  C9  IND d   1      -0.738   0.614   1.270  0.00  0.00    -0.096 A 
ATOM     10  HN1 IND d   1       1.522  -0.861  -0.191  0.00  0.00     0.298 HD
ENDROOT
TORSDOF 0
ENDMDL
