MODEL 1
REMARK minimizedAffinity -5.80903053
REMARK minimizedRMSD -1
REMARK  0 active torsions:
REMARK  status: ('A' for Active; 'I' for Inactive)
ROOT
ATOM      1  N1  IND d   1       0.528  -0.626  -0.002  0.00  0.00    -0.196 N 
ATOM      2  C2  IND d   1      -0.638  -0.450  -0.693  0.00  0.00     0.054 A 
ATOM      3  C3  IND d   1      -1.543   0.204   0.069  0.00  0.00    -0.031 A 
ATOM      4  C4  IND d   1      -1.290   1.170   2.442  0.00  0.00     0.051 A 
ATOM      5  C5  IND d   1      -0.419   1.228   3.494  0.00  0.00    -0.031 A 
ATOM      6  C6  IND d   1       0.838   0.662   3.432  0.00  0.00     0.015 A 
ATOM      7  C7  IND d   1       1.277   0.024   2.307  0.00  0.00    -0.016 A 
ATOM      8  C8  IND d   1       0.394  -0.043   1.239  0.00  0.00    -0.047 A 
ATOM      9  C9  IND d   1      -0.899   0.492   1.311  0.00  0.00    -0.096 A 
ATOM     10  HN1 IND d   1       1.228  -1.031  -0.293  0.00  0.00     0.298 HD
ENDROOT
TORSDOF 0
ENDMDL
