MODEL 1
REMARK minimizedAffinity -4.01783895
REMARK minimizedRMSD -1
REMARK  0 active torsions:
REMARK  status: ('A' for Active; 'I' for Inactive)
ROOT
ATOM      1  N1  IND d   1       1.518  -0.877   1.757  0.00  0.00    -0.196 N 
ATOM      2  C2  IND d   1       1.340  -0.869   3.112  0.00  0.00     0.054 A 
ATOM      3  C3  IND d   1       0.088  -0.464   3.420  0.00  0.00    -0.031 A 
ATOM      4  C4  IND d   1      -1.867   0.137   1.857  0.00  0.00     0.051 A 
ATOM      5  C5  IND d   1      -2.177   0.313   0.537  0.00  0.00    -0.031 A 
ATOM      6  C6  IND d   1      -1.252   0.094  -0.464  0.00  0.00     0.015 A 
ATOM      7  C7  IND d   1       0.018  -0.322  -0.182  0.00  0.00    -0.016 A 
ATOM      8  C8  IND d   1       0.338  -0.495   1.158  0.00  0.00    -0.047 A 
ATOM      9  C9  IND d   1      -0.583  -0.233   2.180  0.00  0.00    -0.096 A 
ATOM     10  HN1 IND d   1       2.244  -1.086   1.347  0.00  0.00     0.298 HD
ENDROOT
TORSDOF 0
ENDMDL
