MODEL 1
REMARK minimizedAffinity -6.05085516
REMARK minimizedRMSD -1
REMARK  0 active torsions:
REMARK  status: ('A' for Active; 'I' for Inactive)
ROOT
ATOM      1  N1  IND d   1       0.840  -0.569  -0.108  0.00  0.00    -0.196 N 
ATOM      2  C2  IND d   1      -0.260  -0.294  -0.870  0.00  0.00     0.054 A 
ATOM      3  C3  IND d   1      -1.218   0.295  -0.119  0.00  0.00    -0.031 A 
ATOM      4  C4  IND d   1      -1.154   0.993   2.358  0.00  0.00     0.051 A 
ATOM      5  C5  IND d   1      -0.376   0.916   3.479  0.00  0.00    -0.031 A 
ATOM      6  C6  IND d   1       0.874   0.332   3.461  0.00  0.00     0.015 A 
ATOM      7  C7  IND d   1       1.399  -0.191   2.313  0.00  0.00    -0.016 A 
ATOM      8  C8  IND d   1       0.609  -0.122   1.174  0.00  0.00    -0.047 A 
ATOM      9  C9  IND d   1      -0.678   0.433   1.197  0.00  0.00    -0.096 A 
ATOM     10  HN1 IND d   1       1.557  -0.958  -0.383  0.00  0.00     0.298 HD
ENDROOT
TORSDOF 0
ENDMDL
