MODEL 1
REMARK minimizedAffinity -3.95074868
REMARK minimizedRMSD -1
REMARK  0 active torsions:
REMARK  status: ('A' for Active; 'I' for Inactive)
ROOT
ATOM      1  N1  IND d   1      -1.754   0.095   2.478  0.00  0.00    -0.196 N 
ATOM      2  C2  IND d   1      -1.088   1.133   3.067  0.00  0.00     0.054 A 
ATOM      3  C3  IND d   1      -0.052   1.527   2.293  0.00  0.00    -0.031 A 
ATOM      4  C4  IND d   1       0.672   0.678  -0.027  0.00  0.00     0.051 A 
ATOM      5  C5  IND d   1       0.394  -0.284  -0.957  0.00  0.00    -0.031 A 
ATOM      6  C6  IND d   1      -0.638  -1.185  -0.788  0.00  0.00     0.015 A 
ATOM      7  C7  IND d   1      -1.440  -1.151   0.318  0.00  0.00    -0.016 A 
ATOM      8  C8  IND d   1      -1.155  -0.180   1.268  0.00  0.00    -0.047 A 
ATOM      9  C9  IND d   1      -0.083   0.710   1.121  0.00  0.00    -0.096 A 
ATOM     10  HN1 IND d   1      -2.433  -0.318   2.807  0.00  0.00     0.298 HD
ENDROOT
TORSDOF 0
ENDMDL
