MODEL 1
REMARK minimizedAffinity 7.25045252
REMARK minimizedRMSD -1
REMARK  0 active torsions:
REMARK  status: ('A' for Active; 'I' for Inactive)
ROOT
ATOM      1  N1  IND d   1       0.673  -2.385   0.701  0.00  0.00    -0.196 N 
ATOM      2  C2  IND d   1       0.456  -1.227   1.394  0.00  0.00     0.054 A 
ATOM      3  C3  IND d   1       1.209  -1.203   2.516  0.00  0.00    -0.031 A 
ATOM      4  C4  IND d   1       2.944  -2.908   3.360  0.00  0.00     0.051 A 
ATOM      5  C5  IND d   1       3.463  -4.142   3.085  0.00  0.00    -0.031 A 
ATOM      6  C6  IND d   1       3.073  -4.867   1.977  0.00  0.00     0.015 A 
ATOM      7  C7  IND d   1       2.153  -4.377   1.093  0.00  0.00    -0.016 A 
ATOM      8  C8  IND d   1       1.619  -3.128   1.373  0.00  0.00    -0.047 A 
ATOM      9  C9  IND d   1       1.979  -2.406   2.518  0.00  0.00    -0.096 A 
ATOM     10  HN1 IND d   1       0.285  -2.611  -0.032  0.00  0.00     0.298 HD
ENDROOT
TORSDOF 0
ENDMDL
