MODEL 1
REMARK minimizedAffinity 6.56045866
REMARK minimizedRMSD -1
REMARK  0 active torsions:
REMARK  status: ('A' for Active; 'I' for Inactive)
ROOT
ATOM      1  N1  IND d   1      -2.272   3.419  -3.415  0.00  0.00    -0.196 N 
ATOM      2  C2  IND d   1      -3.323   2.840  -2.760  0.00  0.00     0.054 A 
ATOM      3  C3  IND d   1      -2.897   1.790  -2.023  0.00  0.00    -0.031 A 
ATOM      4  C4  IND d   1      -0.505   0.906  -1.665  0.00  0.00     0.051 A 
ATOM      5  C5  IND d   1       0.783   1.086  -2.083  0.00  0.00    -0.031 A 
ATOM      6  C6  IND d   1       1.127   2.075  -2.982  0.00  0.00     0.015 A 
ATOM      7  C7  IND d   1       0.192   2.931  -3.491  0.00  0.00    -0.016 A 
ATOM      8  C8  IND d   1      -1.119   2.747  -3.074  0.00  0.00    -0.047 A 
ATOM      9  C9  IND d   1      -1.480   1.718  -2.194  0.00  0.00    -0.096 A 
ATOM     10  HN1 IND d   1      -2.323   4.090  -3.951  0.00  0.00     0.298 HD
ENDROOT
TORSDOF 0
ENDMDL
