MODEL 1
REMARK minimizedAffinity 7.28908587
REMARK minimizedRMSD -1
REMARK  0 active torsions:
REMARK  status: ('A' for Active; 'I' for Inactive)
ROOT
ATOM      1  N1  IND d   1      -0.394   1.912  -2.127  0.00  0.00    -0.196 N 
ATOM      2  C2  IND d   1      -1.597   1.409  -1.715  0.00  0.00     0.054 A 
ATOM      3  C3  IND d   1      -2.612   2.157  -2.204  0.00  0.00    -0.031 A 
ATOM      4  C4  IND d   1      -2.532   4.189  -3.783  0.00  0.00     0.051 A 
ATOM      5  C5  IND d   1      -1.659   5.039  -4.401  0.00  0.00    -0.031 A 
ATOM      6  C6  IND d   1      -0.291   4.886  -4.293  0.00  0.00     0.015 A 
ATOM      7  C7  IND d   1       0.255   3.865  -3.568  0.00  0.00    -0.016 A 
ATOM      8  C8  IND d   1      -0.628   3.004  -2.933  0.00  0.00    -0.047 A 
ATOM      9  C9  IND d   1      -2.016   3.180  -3.005  0.00  0.00    -0.096 A 
ATOM     10  HN1 IND d   1       0.378   1.599  -1.917  0.00  0.00     0.298 HD
ENDROOT
TORSDOF 0
ENDMDL
