MODEL 1
REMARK minimizedAffinity 8.12896633
REMARK minimizedRMSD -1
REMARK  0 active torsions:
REMARK  status: ('A' for Active; 'I' for Inactive)
ROOT
ATOM      1  N1  IND d   1       1.455  -4.193   1.190  0.00  0.00    -0.196 N 
ATOM      2  C2  IND d   1       1.134  -3.020   1.813  0.00  0.00     0.054 A 
ATOM      3  C3  IND d   1       2.256  -2.360   2.180  0.00  0.00    -0.031 A 
ATOM      4  C4  IND d   1       4.722  -2.973   1.770  0.00  0.00     0.051 A 
ATOM      5  C5  IND d   1       5.517  -3.968   1.274  0.00  0.00    -0.031 A 
ATOM      6  C6  IND d   1       4.987  -5.111   0.711  0.00  0.00     0.015 A 
ATOM      7  C7  IND d   1       3.637  -5.297   0.612  0.00  0.00    -0.016 A 
ATOM      8  C8  IND d   1       2.828  -4.292   1.121  0.00  0.00    -0.047 A 
ATOM      9  C9  IND d   1       3.359  -3.149   1.732  0.00  0.00    -0.096 A 
ATOM     10  HN1 IND d   1       0.894  -4.773   0.891  0.00  0.00     0.298 HD
ENDROOT
TORSDOF 0
ENDMDL
