MODEL 1
REMARK minimizedAffinity 3.95996761
REMARK minimizedRMSD -1
REMARK  0 active torsions:
REMARK  status: ('A' for Active; 'I' for Inactive)
ROOT
ATOM      1  N1  IND d   1      -2.201   5.036  -3.586  0.00  0.00    -0.196 N 
ATOM      2  C2  IND d   1      -3.441   4.465  -3.513  0.00  0.00     0.054 A 
ATOM      3  C3  IND d   1      -3.353   3.210  -3.020  0.00  0.00    -0.031 A 
ATOM      4  C4  IND d   1      -1.289   1.927  -2.173  0.00  0.00     0.051 A 
ATOM      5  C5  IND d   1       0.071   2.020  -2.072  0.00  0.00    -0.031 A 
ATOM      6  C6  IND d   1       0.756   3.147  -2.476  0.00  0.00     0.015 A 
ATOM      7  C7  IND d   1       0.103   4.232  -2.988  0.00  0.00    -0.016 A 
ATOM      8  C8  IND d   1      -1.277   4.138  -3.099  0.00  0.00    -0.047 A 
ATOM      9  C9  IND d   1      -1.974   2.981  -2.730  0.00  0.00    -0.096 A 
ATOM     10  HN1 IND d   1      -2.028   5.823  -3.886  0.00  0.00     0.298 HD
ENDROOT
TORSDOF 0
ENDMDL
