MODEL 1
REMARK minimizedAffinity 8.56908131
REMARK minimizedRMSD -1
REMARK  0 active torsions:
REMARK  status: ('A' for Active; 'I' for Inactive)
ROOT
ATOM      1  N1  IND d   1       5.833   2.891  -4.682  0.00  0.00    -0.196 N 
ATOM      2  C2  IND d   1       5.952   3.165  -3.348  0.00  0.00     0.054 A 
ATOM      3  C3  IND d   1       5.999   2.019  -2.634  0.00  0.00    -0.031 A 
ATOM      4  C4  IND d   1       5.999  -0.421  -3.456  0.00  0.00     0.051 A 
ATOM      5  C5  IND d   1       5.869  -1.177  -4.587  0.00  0.00    -0.031 A 
ATOM      6  C6  IND d   1       5.720  -0.604  -5.833  0.00  0.00     0.015 A 
ATOM      7  C7  IND d   1       5.708   0.753  -5.997  0.00  0.00    -0.016 A 
ATOM      8  C8  IND d   1       5.832   1.523  -4.849  0.00  0.00    -0.047 A 
ATOM      9  C9  IND d   1       5.940   0.947  -3.577  0.00  0.00    -0.096 A 
ATOM     10  HN1 IND d   1       5.770   3.474  -5.311  0.00  0.00     0.298 HD
ENDROOT
TORSDOF 0
ENDMDL
