MODEL 1
REMARK minimizedAffinity 2.84284091
REMARK minimizedRMSD -1
REMARK  0 active torsions:
REMARK  status: ('A' for Active; 'I' for Inactive)
ROOT
ATOM      1  N1  IND d   1       5.986   2.267  -5.518  0.00  0.00    -0.196 N 
ATOM      2  C2  IND d   1       5.998   2.998  -4.362  0.00  0.00     0.054 A 
ATOM      3  C3  IND d   1       5.968   2.179  -3.287  0.00  0.00    -0.031 A 
ATOM      4  C4  IND d   1       6.000  -0.393  -3.189  0.00  0.00     0.051 A 
ATOM      5  C5  IND d   1       5.954  -1.502  -3.986  0.00  0.00    -0.031 A 
ATOM      6  C6  IND d   1       5.918  -1.410  -5.363  0.00  0.00     0.015 A 
ATOM      7  C7  IND d   1       5.938  -0.199  -5.996  0.00  0.00    -0.016 A 
ATOM      8  C8  IND d   1       5.978   0.929  -5.190  0.00  0.00    -0.047 A 
ATOM      9  C9  IND d   1       5.972   0.843  -3.791  0.00  0.00    -0.096 A 
ATOM     10  HN1 IND d   1       5.984   2.589  -6.315  0.00  0.00     0.298 HD
ENDROOT
TORSDOF 0
ENDMDL
