MODEL 1
REMARK minimizedAffinity 14.4173536
REMARK minimizedRMSD -1
REMARK  0 active torsions:
REMARK  status: ('A' for Active; 'I' for Inactive)
ROOT
ATOM      1  N1  IND d   1      -0.158  -1.541  -0.852  0.00  0.00    -0.196 N 
ATOM      2  C2  IND d   1       1.208  -1.566  -0.796  0.00  0.00     0.054 A 
ATOM      3  C3  IND d   1       1.626  -1.609   0.489  0.00  0.00    -0.031 A 
ATOM      4  C4  IND d   1       0.241  -1.749   2.655  0.00  0.00     0.051 A 
ATOM      5  C5  IND d   1      -1.045  -1.718   3.115  0.00  0.00    -0.031 A 
ATOM      6  C6  IND d   1      -2.124  -1.628   2.259  0.00  0.00     0.015 A 
ATOM      7  C7  IND d   1      -1.955  -1.576   0.904  0.00  0.00    -0.016 A 
ATOM      8  C8  IND d   1      -0.650  -1.600   0.434  0.00  0.00    -0.047 A 
ATOM      9  C9  IND d   1       0.450  -1.648   1.300  0.00  0.00    -0.096 A 
ATOM     10  HN1 IND d   1      -0.630  -1.497  -1.569  0.00  0.00     0.298 HD
ENDROOT
TORSDOF 0
ENDMDL
