MODEL 1
REMARK minimizedAffinity 12.3286772
REMARK minimizedRMSD -1
REMARK  0 active torsions:
REMARK  status: ('A' for Active; 'I' for Inactive)
ROOT
ATOM      1  N1  IND d   1      -2.302   2.709  -2.091  0.00  0.00    -0.196 N 
ATOM      2  C2  IND d   1      -1.096   3.306  -2.333  0.00  0.00     0.054 A 
ATOM      3  C3  IND d   1      -0.085   2.459  -2.037  0.00  0.00    -0.031 A 
ATOM      4  C4  IND d   1      -0.179   0.013  -1.242  0.00  0.00     0.051 A 
ATOM      5  C5  IND d   1      -1.056  -0.958  -0.845  0.00  0.00    -0.031 A 
ATOM      6  C6  IND d   1      -2.420  -0.753  -0.845  0.00  0.00     0.015 A 
ATOM      7  C7  IND d   1      -2.962   0.433  -1.256  0.00  0.00    -0.016 A 
ATOM      8  C8  IND d   1      -2.075   1.423  -1.653  0.00  0.00    -0.047 A 
ATOM      9  C9  IND d   1      -0.687   1.235  -1.614  0.00  0.00    -0.096 A 
ATOM     10  HN1 IND d   1      -3.073   3.075  -2.196  0.00  0.00     0.298 HD
ENDROOT
TORSDOF 0
ENDMDL
