MODEL 1
REMARK minimizedAffinity 3.20977712
REMARK minimizedRMSD -1
REMARK  0 active torsions:
REMARK  status: ('A' for Active; 'I' for Inactive)
ROOT
ATOM      1  N1  IND d   1       0.370  -1.479  -0.439  0.00  0.00    -0.196 N 
ATOM      2  C2  IND d   1       1.664  -1.918  -0.448  0.00  0.00     0.054 A 
ATOM      3  C3  IND d   1       2.107  -2.101   0.816  0.00  0.00    -0.031 A 
ATOM      4  C4  IND d   1       0.846  -1.841   3.045  0.00  0.00     0.051 A 
ATOM      5  C5  IND d   1      -0.348  -1.426   3.565  0.00  0.00    -0.031 A 
ATOM      6  C6  IND d   1      -1.386  -1.002   2.760  0.00  0.00     0.015 A 
ATOM      7  C7  IND d   1      -1.272  -0.987   1.399  0.00  0.00    -0.016 A 
ATOM      8  C8  IND d   1      -0.058  -1.401   0.868  0.00  0.00    -0.047 A 
ATOM      9  C9  IND d   1       1.013  -1.792   1.681  0.00  0.00    -0.096 A 
ATOM     10  HN1 IND d   1      -0.099  -1.284  -1.133  0.00  0.00     0.298 HD
ENDROOT
TORSDOF 0
ENDMDL
