MODEL 1
REMARK minimizedAffinity 4.35654449
REMARK minimizedRMSD -1
REMARK  0 active torsions:
REMARK  status: ('A' for Active; 'I' for Inactive)
ROOT
ATOM      1  N1  IND d   1       1.980   1.044  -5.025  0.00  0.00    -0.196 N 
ATOM      2  C2  IND d   1       1.470   2.176  -5.598  0.00  0.00     0.054 A 
ATOM      3  C3  IND d   1       2.471   2.999  -5.985  0.00  0.00    -0.031 A 
ATOM      4  C4  IND d   1       5.018   2.643  -5.867  0.00  0.00     0.051 A 
ATOM      5  C5  IND d   1       5.964   1.779  -5.392  0.00  0.00    -0.031 A 
ATOM      6  C6  IND d   1       5.624   0.601  -4.760  0.00  0.00     0.015 A 
ATOM      7  C7  IND d   1       4.318   0.236  -4.589  0.00  0.00    -0.016 A 
ATOM      8  C8  IND d   1       3.355   1.114  -5.064  0.00  0.00    -0.047 A 
ATOM      9  C9  IND d   1       3.694   2.332  -5.668  0.00  0.00    -0.096 A 
ATOM     10  HN1 IND d   1       1.518   0.398  -4.695  0.00  0.00     0.298 HD
ENDROOT
TORSDOF 0
ENDMDL
