MODEL 1
REMARK minimizedAffinity -2.07821655
REMARK minimizedRMSD -1
REMARK  0 active torsions:
REMARK  status: ('A' for Active; 'I' for Inactive)
ROOT
ATOM      1  O1  BZF d   1       1.491   1.314  -2.550  0.00  0.00    -0.204 OA
ATOM      2  C2  BZF d   1       1.611  -0.043  -2.322  0.00  0.00     0.174 A 
ATOM      3  C3  BZF d   1       1.449  -0.324  -1.012  0.00  0.00    -0.012 A 
ATOM      4  C3A BZF d   1       1.121   0.925  -0.397  0.00  0.00    -0.107 A 
ATOM      5  C4  BZF d   1       0.830   1.292   0.886  0.00  0.00     0.055 A 
ATOM      6  C5  BZF d   1       0.626   2.606   1.166  0.00  0.00    -0.016 A 
ATOM      7  C6  BZF d   1       0.711   3.578   0.192  0.00  0.00     0.022 A 
ATOM      8  C7  BZF d   1       0.992   3.262  -1.096  0.00  0.00     0.029 A 
ATOM      9  C7A BZF d   1       1.166   1.932  -1.389  0.00  0.00     0.058 A 
ENDROOT
TORSDOF 0
ENDMDL
