MODEL 1
REMARK minimizedAffinity 0.17099148
REMARK minimizedRMSD -1
REMARK  0 active torsions:
REMARK  status: ('A' for Active; 'I' for Inactive)
ROOT
ATOM      1  O1  BZF d   1       0.838   3.213  -2.094  0.00  0.00    -0.204 OA
ATOM      2  C2  BZF d   1       1.213   4.347  -1.399  0.00  0.00     0.174 A 
ATOM      3  C3  BZF d   1       1.500   4.049  -0.116  0.00  0.00    -0.012 A 
ATOM      4  C3A BZF d   1       1.379   2.626  -0.024  0.00  0.00    -0.107 A 
ATOM      5  C4  BZF d   1       1.556   1.733   0.994  0.00  0.00     0.055 A 
ATOM      6  C5  BZF d   1       1.287   0.419   0.774  0.00  0.00    -0.016 A 
ATOM      7  C6  BZF d   1       0.836  -0.035  -0.449  0.00  0.00     0.022 A 
ATOM      8  C7  BZF d   1       0.651   0.813  -1.490  0.00  0.00     0.029 A 
ATOM      9  C7A BZF d   1       0.953   2.136  -1.280  0.00  0.00     0.058 A 
ENDROOT
TORSDOF 0
ENDMDL
