MODEL 1
REMARK minimizedAffinity -0.828366041
REMARK minimizedRMSD -1
REMARK  0 active torsions:
REMARK  status: ('A' for Active; 'I' for Inactive)
ROOT
ATOM      1  O1  BZF d   1       1.206   3.127   0.163  0.00  0.00    -0.204 OA
ATOM      2  C2  BZF d   1       0.996   2.785   1.485  0.00  0.00     0.174 A 
ATOM      3  C3  BZF d   1       0.754   1.464   1.605  0.00  0.00    -0.012 A 
ATOM      4  C3A BZF d   1       0.907   0.932   0.285  0.00  0.00    -0.107 A 
ATOM      5  C4  BZF d   1       0.808  -0.326  -0.237  0.00  0.00     0.055 A 
ATOM      6  C5  BZF d   1       0.943  -0.497  -1.579  0.00  0.00    -0.016 A 
ATOM      7  C6  BZF d   1       1.172   0.567  -2.426  0.00  0.00     0.022 A 
ATOM      8  C7  BZF d   1       1.283   1.833  -1.954  0.00  0.00     0.029 A 
ATOM      9  C7A BZF d   1       1.180   2.004  -0.595  0.00  0.00     0.058 A 
ENDROOT
TORSDOF 0
ENDMDL
