MODEL 1
REMARK minimizedAffinity -3.49623036
REMARK minimizedRMSD -1
REMARK  0 active torsions:
REMARK  status: ('A' for Active; 'I' for Inactive)
ROOT
ATOM      1  O1  BZF d   1       1.449   3.253  -1.881  0.00  0.00    -0.204 OA
ATOM      2  C2  BZF d   1       1.136   4.095  -0.832  0.00  0.00     0.174 A 
ATOM      3  C3  BZF d   1       0.904   3.391   0.294  0.00  0.00    -0.012 A 
ATOM      4  C3A BZF d   1       1.173   2.029  -0.052  0.00  0.00    -0.107 A 
ATOM      5  C4  BZF d   1       1.137   0.858   0.649  0.00  0.00     0.055 A 
ATOM      6  C5  BZF d   1       1.385  -0.309  -0.001  0.00  0.00    -0.016 A 
ATOM      7  C6  BZF d   1       1.668  -0.342  -1.351  0.00  0.00     0.022 A 
ATOM      8  C7  BZF d   1       1.721   0.795  -2.087  0.00  0.00     0.029 A 
ATOM      9  C7A BZF d   1       1.502   1.978  -1.426  0.00  0.00     0.058 A 
ENDROOT
TORSDOF 0
ENDMDL
