MODEL 1
REMARK minimizedAffinity 1.25306869
REMARK minimizedRMSD -1
REMARK  0 active torsions:
REMARK  status: ('A' for Active; 'I' for Inactive)
ROOT
ATOM      1  O1  BZF d   1       0.844   3.563  -0.771  0.00  0.00    -0.204 OA
ATOM      2  C2  BZF d   1       0.408   3.582   0.540  0.00  0.00     0.174 A 
ATOM      3  C3  BZF d   1       0.411   2.339   1.064  0.00  0.00    -0.012 A 
ATOM      4  C3A BZF d   1       0.967   1.503   0.044  0.00  0.00    -0.107 A 
ATOM      5  C4  BZF d   1       1.244   0.168  -0.027  0.00  0.00     0.055 A 
ATOM      6  C5  BZF d   1       1.716  -0.348  -1.193  0.00  0.00    -0.016 A 
ATOM      7  C6  BZF d   1       1.919   0.442  -2.306  0.00  0.00     0.022 A 
ATOM      8  C7  BZF d   1       1.665   1.772  -2.281  0.00  0.00     0.029 A 
ATOM      9  C7A BZF d   1       1.218   2.302  -1.095  0.00  0.00     0.058 A 
ENDROOT
TORSDOF 0
ENDMDL
