MODEL 1
REMARK minimizedAffinity 13.8940668
REMARK minimizedRMSD -1
REMARK  0 active torsions:
REMARK  status: ('A' for Active; 'I' for Inactive)
ROOT
ATOM      1  O1  BZF d   1       2.481  -0.703   0.179  0.00  0.00    -0.204 OA
ATOM      2  C2  BZF d   1       3.094  -0.072   1.245  0.00  0.00     0.174 A 
ATOM      3  C3  BZF d   1       2.925   1.264   1.172  0.00  0.00    -0.012 A 
ATOM      4  C3A BZF d   1       2.078   1.474   0.038  0.00  0.00    -0.107 A 
ATOM      5  C4  BZF d   1       1.542   2.590  -0.539  0.00  0.00     0.055 A 
ATOM      6  C5  BZF d   1       0.818   2.460  -1.682  0.00  0.00    -0.016 A 
ATOM      7  C6  BZF d   1       0.616   1.232  -2.277  0.00  0.00     0.022 A 
ATOM      8  C7  BZF d   1       1.124   0.096  -1.739  0.00  0.00     0.029 A 
ATOM      9  C7A BZF d   1       1.828   0.221  -0.566  0.00  0.00     0.058 A 
ENDROOT
TORSDOF 0
ENDMDL
