MODEL 1
REMARK minimizedAffinity 0.542895913
REMARK minimizedRMSD -1
REMARK  0 active torsions:
REMARK  status: ('A' for Active; 'I' for Inactive)
ROOT
ATOM      1  O1  BZF d   1       1.247   3.469   0.138  0.00  0.00    -0.204 OA
ATOM      2  C2  BZF d   1       0.898   4.090  -1.046  0.00  0.00     0.174 A 
ATOM      3  C3  BZF d   1       0.740   3.184  -2.033  0.00  0.00    -0.012 A 
ATOM      4  C3A BZF d   1       0.917   1.910  -1.406  0.00  0.00    -0.107 A 
ATOM      5  C4  BZF d   1       0.865   0.624  -1.862  0.00  0.00     0.055 A 
ATOM      6  C5  BZF d   1       1.157  -0.392  -1.008  0.00  0.00    -0.016 A 
ATOM      7  C6  BZF d   1       1.510  -0.158   0.305  0.00  0.00     0.022 A 
ATOM      8  C7  BZF d   1       1.570   1.100   0.804  0.00  0.00     0.029 A 
ATOM      9  C7A BZF d   1       1.243   2.127  -0.047  0.00  0.00     0.058 A 
ENDROOT
TORSDOF 0
ENDMDL
