MODEL 1
REMARK minimizedAffinity 2.11518383
REMARK minimizedRMSD -1
REMARK  0 active torsions:
REMARK  status: ('A' for Active; 'I' for Inactive)
ROOT
ATOM      1  O1  BZF d   1       0.595   0.686   1.516  0.00  0.00    -0.204 OA
ATOM      2  C2  BZF d   1       0.214   1.963   1.880  0.00  0.00     0.174 A 
ATOM      3  C3  BZF d   1       0.354   2.818   0.846  0.00  0.00    -0.012 A 
ATOM      4  C3A BZF d   1       0.765   2.007  -0.259  0.00  0.00    -0.107 A 
ATOM      5  C4  BZF d   1       1.050   2.277  -1.567  0.00  0.00     0.055 A 
ATOM      6  C5  BZF d   1       1.494   1.272  -2.367  0.00  0.00    -0.016 A 
ATOM      7  C6  BZF d   1       1.670  -0.011  -1.892  0.00  0.00     0.022 A 
ATOM      8  C7  BZF d   1       1.397  -0.328  -0.603  0.00  0.00     0.029 A 
ATOM      9  C7A BZF d   1       0.916   0.678   0.199  0.00  0.00     0.058 A 
ENDROOT
TORSDOF 0
ENDMDL
