MODEL 1
REMARK minimizedAffinity 5.34388494
REMARK minimizedRMSD -1
REMARK  0 active torsions:
REMARK  status: ('A' for Active; 'I' for Inactive)
ROOT
ATOM      1  O1  BZF d   1       1.280   1.996  -2.575  0.00  0.00    -0.204 OA
ATOM      2  C2  BZF d   1       1.012   3.333  -2.355  0.00  0.00     0.174 A 
ATOM      3  C3  BZF d   1       0.804   3.570  -1.044  0.00  0.00    -0.012 A 
ATOM      4  C3A BZF d   1       1.044   2.319  -0.393  0.00  0.00    -0.107 A 
ATOM      5  C4  BZF d   1       1.012   1.919   0.912  0.00  0.00     0.055 A 
ATOM      6  C5  BZF d   1       1.224   0.609   1.207  0.00  0.00    -0.016 A 
ATOM      7  C6  BZF d   1       1.465  -0.327   0.222  0.00  0.00     0.022 A 
ATOM      8  C7  BZF d   1       1.511   0.024  -1.086  0.00  0.00     0.029 A 
ATOM      9  C7A BZF d   1       1.330   1.352  -1.384  0.00  0.00     0.058 A 
ENDROOT
TORSDOF 0
ENDMDL
