MODEL 1
REMARK minimizedAffinity -4.08159208
REMARK minimizedRMSD -1
REMARK  0 active torsions:
REMARK  status: ('A' for Active; 'I' for Inactive)
ROOT
ATOM      1  O1  BZF d   1       1.115   3.868   0.218  0.00  0.00    -0.204 OA
ATOM      2  C2  BZF d   1       1.098   4.208  -1.121  0.00  0.00     0.174 A 
ATOM      3  C3  BZF d   1       1.028   3.105  -1.894  0.00  0.00    -0.012 A 
ATOM      4  C3A BZF d   1       0.905   2.012  -0.980  0.00  0.00    -0.107 A 
ATOM      5  C4  BZF d   1       0.779   0.662  -1.142  0.00  0.00     0.055 A 
ATOM      6  C5  BZF d   1       0.756  -0.136  -0.043  0.00  0.00    -0.016 A 
ATOM      7  C6  BZF d   1       0.861   0.380   1.232  0.00  0.00     0.022 A 
ATOM      8  C7  BZF d   1       0.983   1.714   1.444  0.00  0.00     0.029 A 
ATOM      9  C7A BZF d   1       0.973   2.526   0.336  0.00  0.00     0.058 A 
ENDROOT
TORSDOF 0
ENDMDL
