MODEL 1
REMARK minimizedAffinity 2.20066524
REMARK minimizedRMSD -1
REMARK  0 active torsions:
REMARK  status: ('A' for Active; 'I' for Inactive)
ROOT
ATOM      1  O1  BZF d   1       1.189   3.722  -0.983  0.00  0.00    -0.204 OA
ATOM      2  C2  BZF d   1       0.606   3.694  -2.235  0.00  0.00     0.174 A 
ATOM      3  C3  BZF d   1       0.292   2.431  -2.589  0.00  0.00    -0.012 A 
ATOM      4  C3A BZF d   1       0.620   1.629  -1.451  0.00  0.00    -0.107 A 
ATOM      5  C4  BZF d   1       0.520   0.294  -1.183  0.00  0.00     0.055 A 
ATOM      6  C5  BZF d   1       0.997  -0.181  -0.002  0.00  0.00    -0.016 A 
ATOM      7  C6  BZF d   1       1.583   0.650   0.930  0.00  0.00     0.022 A 
ATOM      8  C7  BZF d   1       1.700   1.982   0.712  0.00  0.00     0.029 A 
ATOM      9  C7A BZF d   1       1.189   2.470  -0.466  0.00  0.00     0.058 A 
ENDROOT
TORSDOF 0
ENDMDL
