MODEL 1
REMARK minimizedAffinity 2.06514812
REMARK minimizedRMSD -1
REMARK  0 active torsions:
REMARK  status: ('A' for Active; 'I' for Inactive)
ROOT
ATOM      1  O1  BZF d   1       1.855   2.410  -2.602  0.00  0.00    -0.204 OA
ATOM      2  C2  BZF d   1       1.121   3.513  -2.210  0.00  0.00     0.174 A 
ATOM      3  C3  BZF d   1       0.411   3.243  -1.096  0.00  0.00    -0.012 A 
ATOM      4  C3A BZF d   1       0.792   1.917  -0.718  0.00  0.00    -0.107 A 
ATOM      5  C4  BZF d   1       0.439   1.097   0.316  0.00  0.00     0.055 A 
ATOM      6  C5  BZF d   1       0.937  -0.167   0.356  0.00  0.00    -0.016 A 
ATOM      7  C6  BZF d   1       1.784  -0.645  -0.622  0.00  0.00     0.022 A 
ATOM      8  C7  BZF d   1       2.166   0.133  -1.665  0.00  0.00     0.029 A 
ATOM      9  C7A BZF d   1       1.691   1.421  -1.691  0.00  0.00     0.058 A 
ENDROOT
TORSDOF 0
ENDMDL
