MODEL 1
REMARK minimizedAffinity -4.10984182
REMARK minimizedRMSD -1
REMARK  0 active torsions:
REMARK  status: ('A' for Active; 'I' for Inactive)
ROOT
ATOM      1  O1  BZF d   1       0.703   3.772   0.679  0.00  0.00    -0.204 OA
ATOM      2  C2  BZF d   1       0.945   4.473  -0.487  0.00  0.00     0.174 A 
ATOM      3  C3  BZF d   1       1.339   3.640  -1.472  0.00  0.00    -0.012 A 
ATOM      4  C3A BZF d   1       1.254   2.326  -0.911  0.00  0.00    -0.107 A 
ATOM      5  C4  BZF d   1       1.501   1.077  -1.404  0.00  0.00     0.055 A 
ATOM      6  C5  BZF d   1       1.392   0.006  -0.574  0.00  0.00    -0.016 A 
ATOM      7  C6  BZF d   1       1.044   0.149   0.753  0.00  0.00     0.022 A 
ATOM      8  C7  BZF d   1       0.785   1.367   1.286  0.00  0.00     0.029 A 
ATOM      9  C7A BZF d   1       0.862   2.448   0.442  0.00  0.00     0.058 A 
ENDROOT
TORSDOF 0
ENDMDL
