MODEL 1
REMARK minimizedAffinity 4.6904273
REMARK minimizedRMSD -1
REMARK  0 active torsions:
REMARK  status: ('A' for Active; 'I' for Inactive)
ROOT
ATOM      1  O1  BZF d   1       1.703   0.543   1.406  0.00  0.00    -0.204 OA
ATOM      2  C2  BZF d   1       1.315   1.738   1.980  0.00  0.00     0.174 A 
ATOM      3  C3  BZF d   1       0.844   2.588   1.045  0.00  0.00    -0.012 A 
ATOM      4  C3A BZF d   1       0.859   1.846  -0.179  0.00  0.00    -0.107 A 
ATOM      5  C4  BZF d   1       0.493   2.143  -1.461  0.00  0.00     0.055 A 
ATOM      6  C5  BZF d   1       0.702   1.221  -2.437  0.00  0.00    -0.016 A 
ATOM      7  C6  BZF d   1       1.278  -0.003  -2.169  0.00  0.00     0.022 A 
ATOM      8  C7  BZF d   1       1.653  -0.344  -0.912  0.00  0.00     0.029 A 
ATOM      9  C7A BZF d   1       1.413   0.572   0.083  0.00  0.00     0.058 A 
ENDROOT
TORSDOF 0
ENDMDL
