MODEL 1
REMARK minimizedAffinity -2.6801362
REMARK minimizedRMSD -1
REMARK  0 active torsions:
REMARK  status: ('A' for Active; 'I' for Inactive)
ROOT
ATOM      1  O1  BZF d   1       1.194   0.648  -1.985  0.00  0.00    -0.204 OA
ATOM      2  C2  BZF d   1       0.944  -0.388  -1.105  0.00  0.00     0.174 A 
ATOM      3  C3  BZF d   1       0.797   0.076   0.152  0.00  0.00    -0.012 A 
ATOM      4  C3A BZF d   1       0.872   1.500   0.038  0.00  0.00    -0.107 A 
ATOM      5  C4  BZF d   1       0.780   2.521   0.942  0.00  0.00     0.055 A 
ATOM      6  C5  BZF d   1       0.971   3.797   0.517  0.00  0.00    -0.016 A 
ATOM      7  C6  BZF d   1       1.260   4.090  -0.799  0.00  0.00     0.022 A 
ATOM      8  C7  BZF d   1       1.357   3.112  -1.733  0.00  0.00     0.029 A 
ATOM      9  C7A BZF d   1       1.132   1.823  -1.314  0.00  0.00     0.058 A 
ENDROOT
TORSDOF 0
ENDMDL
