MODEL 1
REMARK minimizedAffinity 4.84813833
REMARK minimizedRMSD -1
REMARK  0 active torsions:
REMARK  status: ('A' for Active; 'I' for Inactive)
ROOT
ATOM      1  O1  BZF d   1      -4.507   1.129   2.708  0.00  0.00    -0.204 OA
ATOM      2  C2  BZF d   1      -3.944   2.141   1.956  0.00  0.00     0.174 A 
ATOM      3  C3  BZF d   1      -2.943   2.740   2.633  0.00  0.00    -0.012 A 
ATOM      4  C3A BZF d   1      -2.816   1.998   3.850  0.00  0.00    -0.107 A 
ATOM      5  C4  BZF d   1      -1.983   2.098   4.928  0.00  0.00     0.055 A 
ATOM      6  C5  BZF d   1      -2.168   1.264   5.985  0.00  0.00    -0.016 A 
ATOM      7  C6  BZF d   1      -3.177   0.323   6.000  0.00  0.00     0.022 A 
ATOM      8  C7  BZF d   1      -4.024   0.182   4.951  0.00  0.00     0.029 A 
ATOM      9  C7A BZF d   1      -3.819   1.002   3.868  0.00  0.00     0.058 A 
ENDROOT
TORSDOF 0
ENDMDL
