MODEL 1
REMARK minimizedAffinity -3.20453477
REMARK minimizedRMSD -1
REMARK  0 active torsions:
REMARK  status: ('A' for Active; 'I' for Inactive)
ROOT
ATOM      1  C   UNL d   1      -0.219  -2.697  -0.810  0.00  0.00     0.124 A 
ATOM      2  C1  UNL d   1       0.074  -1.835  -1.857  0.00  0.00     0.062 A 
ATOM      3  C2  UNL d   1       0.336  -0.491  -1.605  0.00  0.00     0.162 A 
ATOM      4  C3  UNL d   1       0.307  -0.002  -0.299  0.00  0.00    -0.034 A 
ATOM      5  C4  UNL d   1       0.011  -0.875   0.749  0.00  0.00     0.162 A 
ATOM      6  C5  UNL d   1      -0.250  -2.217   0.492  0.00  0.00     0.062 A 
ATOM      7  F   UNL d   1      -0.534  -3.049   1.505  0.00  0.00    -0.097 F 
ATOM      8  F1  UNL d   1      -0.026  -0.438   2.017  0.00  0.00    -0.096 F 
ATOM      9  I   UNL d   1       0.699   2.007   0.083  0.00  0.00    -0.060 I 
ATOM     10  F2  UNL d   1       0.617   0.320  -2.636  0.00  0.00    -0.096 F 
ATOM     11  F3  UNL d   1       0.105  -2.296  -3.115  0.00  0.00    -0.097 F 
ATOM     12  F4  UNL d   1      -0.471  -3.989  -1.056  0.00  0.00    -0.092 F 
ENDROOT
TORSDOF 0
ENDMDL
