MODEL 1
REMARK minimizedAffinity -2.11605668
REMARK minimizedRMSD -1
REMARK  0 active torsions:
REMARK  status: ('A' for Active; 'I' for Inactive)
ROOT
ATOM      1  C   UNL d   1      -0.018  -3.049  -1.066  0.00  0.00     0.124 A 
ATOM      2  C1  UNL d   1      -0.080  -2.107  -2.084  0.00  0.00     0.062 A 
ATOM      3  C2  UNL d   1       0.118  -0.758  -1.802  0.00  0.00     0.162 A 
ATOM      4  C3  UNL d   1       0.381  -0.343  -0.496  0.00  0.00    -0.034 A 
ATOM      5  C4  UNL d   1       0.441  -1.297   0.522  0.00  0.00     0.162 A 
ATOM      6  C5  UNL d   1       0.242  -2.643   0.235  0.00  0.00     0.062 A 
ATOM      7  F   UNL d   1       0.302  -3.552   1.219  0.00  0.00    -0.097 F 
ATOM      8  F1  UNL d   1       0.692  -0.932   1.788  0.00  0.00    -0.096 F 
ATOM      9  I   UNL d   1       0.679   1.672  -0.071  0.00  0.00    -0.060 I 
ATOM     10  F2  UNL d   1       0.053   0.130  -2.805  0.00  0.00    -0.096 F 
ATOM     11  F3  UNL d   1      -0.333  -2.496  -3.342  0.00  0.00    -0.097 F 
ATOM     12  F4  UNL d   1      -0.211  -4.346  -1.340  0.00  0.00    -0.092 F 
ENDROOT
TORSDOF 0
ENDMDL
