MODEL 1
REMARK minimizedAffinity 0.109206744
REMARK minimizedRMSD -1
REMARK  0 active torsions:
REMARK  status: ('A' for Active; 'I' for Inactive)
ROOT
ATOM      1  C   UNL d   1      -1.110  -2.132   0.937  0.00  0.00     0.124 A 
ATOM      2  C1  UNL d   1      -0.264  -2.439  -0.119  0.00  0.00     0.062 A 
ATOM      3  C2  UNL d   1       0.598  -1.472  -0.629  0.00  0.00     0.162 A 
ATOM      4  C3  UNL d   1       0.619  -0.189  -0.083  0.00  0.00    -0.034 A 
ATOM      5  C4  UNL d   1      -0.236   0.112   0.979  0.00  0.00     0.162 A 
ATOM      6  C5  UNL d   1      -1.096  -0.858   1.485  0.00  0.00     0.062 A 
ATOM      7  F   UNL d   1      -1.913  -0.559   2.506  0.00  0.00    -0.097 F 
ATOM      8  F1  UNL d   1      -0.242   1.336   1.528  0.00  0.00    -0.096 F 
ATOM      9  I   UNL d   1       1.906   1.259  -0.842  0.00  0.00    -0.060 I 
ATOM     10  F2  UNL d   1       1.405  -1.797  -1.650  0.00  0.00    -0.096 F 
ATOM     11  F3  UNL d   1      -0.276  -3.670  -0.651  0.00  0.00    -0.097 F 
ATOM     12  F4  UNL d   1      -1.939  -3.064   1.425  0.00  0.00    -0.092 F 
ENDROOT
TORSDOF 0
ENDMDL
