MODEL 1
REMARK minimizedAffinity -5.08632755
REMARK minimizedRMSD -1
REMARK  0 active torsions:
REMARK  status: ('A' for Active; 'I' for Inactive)
ROOT
ATOM      1  C   UNL d   1      -0.443  -2.831  -0.514  0.00  0.00     0.124 A 
ATOM      2  C1  UNL d   1       0.211  -2.180  -1.550  0.00  0.00     0.062 A 
ATOM      3  C2  UNL d   1       0.519  -0.827  -1.443  0.00  0.00     0.162 A 
ATOM      4  C3  UNL d   1       0.173  -0.115  -0.295  0.00  0.00    -0.034 A 
ATOM      5  C4  UNL d   1      -0.486  -0.776   0.743  0.00  0.00     0.162 A 
ATOM      6  C5  UNL d   1      -0.791  -2.129   0.632  0.00  0.00     0.062 A 
ATOM      7  F   UNL d   1      -1.423  -2.756   1.634  0.00  0.00    -0.097 F 
ATOM      8  F1  UNL d   1      -0.832  -0.123   1.862  0.00  0.00    -0.096 F 
ATOM      9  I   UNL d   1       0.631   1.909  -0.131  0.00  0.00    -0.060 I 
ATOM     10  F2  UNL d   1       1.151  -0.223  -2.461  0.00  0.00    -0.096 F 
ATOM     11  F3  UNL d   1       0.547  -2.856  -2.659  0.00  0.00    -0.097 F 
ATOM     12  F4  UNL d   1      -0.739  -4.133  -0.620  0.00  0.00    -0.092 F 
ENDROOT
TORSDOF 0
ENDMDL
