MODEL 1
REMARK minimizedAffinity -0.956446111
REMARK minimizedRMSD -1
REMARK  0 active torsions:
REMARK  status: ('A' for Active; 'I' for Inactive)
ROOT
ATOM      1  C   UNL d   1      -0.342  -1.595  -0.295  0.00  0.00     0.124 A 
ATOM      2  C1  UNL d   1       0.133  -0.717  -1.260  0.00  0.00     0.062 A 
ATOM      3  C2  UNL d   1       0.508   0.576  -0.906  0.00  0.00     0.162 A 
ATOM      4  C3  UNL d   1       0.411   0.999   0.420  0.00  0.00    -0.034 A 
ATOM      5  C4  UNL d   1      -0.069   0.111   1.384  0.00  0.00     0.162 A 
ATOM      6  C5  UNL d   1      -0.442  -1.180   1.026  0.00  0.00     0.062 A 
ATOM      7  F   UNL d   1      -0.900  -2.027   1.959  0.00  0.00    -0.097 F 
ATOM      8  F1  UNL d   1      -0.175   0.485   2.668  0.00  0.00    -0.096 F 
ATOM      9  I   UNL d   1       0.970   2.931   0.953  0.00  0.00    -0.060 I 
ATOM     10  F2  UNL d   1       0.963   1.403  -1.859  0.00  0.00    -0.096 F 
ATOM     11  F3  UNL d   1       0.229  -1.115  -2.536  0.00  0.00    -0.097 F 
ATOM     12  F4  UNL d   1      -0.703  -2.838  -0.638  0.00  0.00    -0.092 F 
ENDROOT
TORSDOF 0
ENDMDL
