MODEL 1
REMARK minimizedAffinity -2.13863373
REMARK minimizedRMSD -1
REMARK  0 active torsions:
REMARK  status: ('A' for Active; 'I' for Inactive)
ROOT
ATOM      1  C   UNL d   1      -0.608  -1.764  -0.286  0.00  0.00     0.124 A 
ATOM      2  C1  UNL d   1      -0.092  -0.959  -1.291  0.00  0.00     0.062 A 
ATOM      3  C2  UNL d   1       0.233   0.368  -1.027  0.00  0.00     0.162 A 
ATOM      4  C3  UNL d   1       0.043   0.899   0.249  0.00  0.00    -0.034 A 
ATOM      5  C4  UNL d   1      -0.477   0.083   1.255  0.00  0.00     0.162 A 
ATOM      6  C5  UNL d   1      -0.800  -1.243   0.986  0.00  0.00     0.062 A 
ATOM      7  F   UNL d   1      -1.299  -2.020   1.959  0.00  0.00    -0.097 F 
ATOM      8  F1  UNL d   1      -0.672   0.561   2.493  0.00  0.00    -0.096 F 
ATOM      9  I   UNL d   1       0.528   2.883   0.647  0.00  0.00    -0.060 I 
ATOM     10  F2  UNL d   1       0.730   1.124  -2.018  0.00  0.00    -0.096 F 
ATOM     11  F3  UNL d   1       0.094  -1.460  -2.521  0.00  0.00    -0.097 F 
ATOM     12  F4  UNL d   1      -0.921  -3.041  -0.543  0.00  0.00    -0.092 F 
ENDROOT
TORSDOF 0
ENDMDL
