MODEL 1
REMARK minimizedAffinity -2.57060003
REMARK minimizedRMSD -1
REMARK  0 active torsions:
REMARK  status: ('A' for Active; 'I' for Inactive)
ROOT
ATOM      1  C   UNL d   1      -0.062  -2.274  -0.002  0.00  0.00     0.124 A 
ATOM      2  C1  UNL d   1       0.681  -1.584  -0.949  0.00  0.00     0.062 A 
ATOM      3  C2  UNL d   1       0.933  -0.224  -0.786  0.00  0.00     0.162 A 
ATOM      4  C3  UNL d   1       0.441   0.453   0.329  0.00  0.00    -0.034 A 
ATOM      5  C4  UNL d   1      -0.306  -0.248   1.277  0.00  0.00     0.162 A 
ATOM      6  C5  UNL d   1      -0.555  -1.606   1.110  0.00  0.00     0.062 A 
ATOM      7  F   UNL d   1      -1.273  -2.272   2.026  0.00  0.00    -0.097 F 
ATOM      8  F1  UNL d   1      -0.794   0.373   2.362  0.00  0.00    -0.096 F 
ATOM      9  I   UNL d   1       0.815   2.486   0.577  0.00  0.00    -0.060 I 
ATOM     10  F2  UNL d   1       1.654   0.418  -1.717  0.00  0.00    -0.096 F 
ATOM     11  F3  UNL d   1       1.158  -2.227  -2.025  0.00  0.00    -0.097 F 
ATOM     12  F4  UNL d   1      -0.303  -3.582  -0.162  0.00  0.00    -0.092 F 
ENDROOT
TORSDOF 0
ENDMDL
