MODEL 1
REMARK minimizedAffinity -1.04948103
REMARK minimizedRMSD -1
REMARK  0 active torsions:
REMARK  status: ('A' for Active; 'I' for Inactive)
ROOT
ATOM      1  C   UNL d   1      -0.483   0.960  -0.130  0.00  0.00     0.124 A 
ATOM      2  C1  UNL d   1       0.178   0.419  -1.224  0.00  0.00     0.062 A 
ATOM      3  C2  UNL d   1       0.378  -0.955  -1.311  0.00  0.00     0.162 A 
ATOM      4  C3  UNL d   1      -0.084  -1.800  -0.302  0.00  0.00    -0.034 A 
ATOM      5  C4  UNL d   1      -0.747  -1.248   0.796  0.00  0.00     0.162 A 
ATOM      6  C5  UNL d   1      -0.945   0.127   0.879  0.00  0.00     0.062 A 
ATOM      7  F   UNL d   1      -1.583   0.647   1.937  0.00  0.00    -0.097 F 
ATOM      8  F1  UNL d   1      -1.204  -2.031   1.785  0.00  0.00    -0.096 F 
ATOM      9  I   UNL d   1       0.213  -3.855  -0.428  0.00  0.00    -0.060 I 
ATOM     10  F2  UNL d   1       1.019  -1.451  -2.380  0.00  0.00    -0.096 F 
ATOM     11  F3  UNL d   1       0.625   1.223  -2.200  0.00  0.00    -0.097 F 
ATOM     12  F4  UNL d   1      -0.673   2.283  -0.048  0.00  0.00    -0.092 F 
ENDROOT
TORSDOF 0
ENDMDL
