MODEL 1
REMARK minimizedAffinity 6.0495553
REMARK minimizedRMSD -1
REMARK  0 active torsions:
REMARK  status: ('A' for Active; 'I' for Inactive)
ROOT
ATOM      1  C   UNL d   1      -0.950  -1.646   0.045  0.00  0.00     0.124 A 
ATOM      2  C1  UNL d   1      -0.688  -0.851  -1.063  0.00  0.00     0.062 A 
ATOM      3  C2  UNL d   1      -0.140   0.418  -0.899  0.00  0.00     0.162 A 
ATOM      4  C3  UNL d   1       0.150   0.901   0.377  0.00  0.00    -0.034 A 
ATOM      5  C4  UNL d   1      -0.117   0.096   1.486  0.00  0.00     0.162 A 
ATOM      6  C5  UNL d   1      -0.664  -1.172   1.317  0.00  0.00     0.062 A 
ATOM      7  F   UNL d   1      -0.917  -1.938   2.388  0.00  0.00    -0.097 F 
ATOM      8  F1  UNL d   1       0.150   0.528   2.727  0.00  0.00    -0.096 F 
ATOM      9  I   UNL d   1       0.969   2.798   0.625  0.00  0.00    -0.060 I 
ATOM     10  F2  UNL d   1       0.103   1.165  -1.987  0.00  0.00    -0.096 F 
ATOM     11  F3  UNL d   1      -0.964  -1.306  -2.293  0.00  0.00    -0.097 F 
ATOM     12  F4  UNL d   1      -1.478  -2.866  -0.115  0.00  0.00    -0.092 F 
ENDROOT
TORSDOF 0
ENDMDL
