MODEL 1
REMARK minimizedAffinity 3.25395203
REMARK minimizedRMSD -1
REMARK  0 active torsions:
REMARK  status: ('A' for Active; 'I' for Inactive)
ROOT
ATOM      1  C   UNL d   1      -0.619  -1.568   0.893  0.00  0.00     0.124 A 
ATOM      2  C1  UNL d   1      -1.120  -0.282   1.038  0.00  0.00     0.062 A 
ATOM      3  C2  UNL d   1      -0.302   0.819   0.801  0.00  0.00     0.162 A 
ATOM      4  C3  UNL d   1       1.027   0.639   0.416  0.00  0.00    -0.034 A 
ATOM      5  C4  UNL d   1       1.524  -0.658   0.273  0.00  0.00     0.162 A 
ATOM      6  C5  UNL d   1       0.702  -1.755   0.511  0.00  0.00     0.062 A 
ATOM      7  F   UNL d   1       1.188  -2.997   0.370  0.00  0.00    -0.097 F 
ATOM      8  F1  UNL d   1       2.796  -0.867  -0.096  0.00  0.00    -0.096 F 
ATOM      9  I   UNL d   1       2.253   2.282   0.060  0.00  0.00    -0.060 I 
ATOM     10  F2  UNL d   1      -0.813   2.051   0.949  0.00  0.00    -0.096 F 
ATOM     11  F3  UNL d   1      -2.395  -0.098   1.408  0.00  0.00    -0.097 F 
ATOM     12  F4  UNL d   1      -1.408  -2.625   1.122  0.00  0.00    -0.092 F 
ENDROOT
TORSDOF 0
ENDMDL
