MODEL 1
REMARK minimizedAffinity -3.24525476
REMARK minimizedRMSD -1
REMARK  0 active torsions:
REMARK  status: ('A' for Active; 'I' for Inactive)
ROOT
ATOM      1  C   UNL d   1      -0.562  -1.729  -0.370  0.00  0.00     0.124 A 
ATOM      2  C1  UNL d   1      -0.347  -1.386   0.958  0.00  0.00     0.062 A 
ATOM      3  C2  UNL d   1       0.066  -0.099   1.290  0.00  0.00     0.162 A 
ATOM      4  C3  UNL d   1       0.266   0.856   0.293  0.00  0.00    -0.034 A 
ATOM      5  C4  UNL d   1       0.048   0.503  -1.040  0.00  0.00     0.162 A 
ATOM      6  C5  UNL d   1      -0.365  -0.784  -1.367  0.00  0.00     0.062 A 
ATOM      7  F   UNL d   1      -0.572  -1.113  -2.650  0.00  0.00    -0.097 F 
ATOM      8  F1  UNL d   1       0.231   1.397  -2.023  0.00  0.00    -0.096 F 
ATOM      9  I   UNL d   1       0.883   2.781   0.787  0.00  0.00    -0.060 I 
ATOM     10  F2  UNL d   1       0.267   0.204   2.582  0.00  0.00    -0.096 F 
ATOM     11  F3  UNL d   1      -0.536  -2.297   1.923  0.00  0.00    -0.097 F 
ATOM     12  F4  UNL d   1      -0.959  -2.968  -0.687  0.00  0.00    -0.092 F 
ENDROOT
TORSDOF 0
ENDMDL
