MODEL 1
REMARK minimizedAffinity 3.43975258
REMARK minimizedRMSD -1
REMARK  0 active torsions:
REMARK  status: ('A' for Active; 'I' for Inactive)
ROOT
ATOM      1  C   UNL d   1       0.679   1.755  -0.523  0.00  0.00     0.124 A 
ATOM      2  C1  UNL d   1       0.711   1.316   0.794  0.00  0.00     0.062 A 
ATOM      3  C2  UNL d   1       0.392  -0.004   1.100  0.00  0.00     0.162 A 
ATOM      4  C3  UNL d   1       0.038  -0.896   0.087  0.00  0.00    -0.034 A 
ATOM      5  C4  UNL d   1       0.007  -0.446  -1.235  0.00  0.00     0.162 A 
ATOM      6  C5  UNL d   1       0.327   0.874  -1.535  0.00  0.00     0.062 A 
ATOM      7  F   UNL d   1       0.295   1.296  -2.808  0.00  0.00    -0.097 F 
ATOM      8  F1  UNL d   1      -0.328  -1.277  -2.233  0.00  0.00    -0.096 F 
ATOM      9  I   UNL d   1      -0.439  -2.870   0.540  0.00  0.00    -0.060 I 
ATOM     10  F2  UNL d   1       0.432  -0.401   2.380  0.00  0.00    -0.096 F 
ATOM     11  F3  UNL d   1       1.050   2.165   1.774  0.00  0.00    -0.097 F 
ATOM     12  F4  UNL d   1       0.985   3.025  -0.814  0.00  0.00    -0.092 F 
ENDROOT
TORSDOF 0
ENDMDL
