MODEL 1
REMARK minimizedAffinity -3.33186197
REMARK minimizedRMSD -1
REMARK  0 active torsions:
REMARK  status: ('A' for Active; 'I' for Inactive)
ROOT
ATOM      1  C   UNL d   1       0.946   2.015   0.066  0.00  0.00     0.124 A 
ATOM      2  C1  UNL d   1       1.190   1.433   1.303  0.00  0.00     0.062 A 
ATOM      3  C2  UNL d   1       0.929   0.080   1.503  0.00  0.00     0.162 A 
ATOM      4  C3  UNL d   1       0.422  -0.700   0.464  0.00  0.00    -0.034 A 
ATOM      5  C4  UNL d   1       0.178  -0.108  -0.776  0.00  0.00     0.162 A 
ATOM      6  C5  UNL d   1       0.441   1.244  -0.971  0.00  0.00     0.062 A 
ATOM      7  F   UNL d   1       0.204   1.805  -2.166  0.00  0.00    -0.097 F 
ATOM      8  F1  UNL d   1      -0.309  -0.829  -1.796  0.00  0.00    -0.096 F 
ATOM      9  I   UNL d   1       0.031  -2.723   0.760  0.00  0.00    -0.060 I 
ATOM     10  F2  UNL d   1       1.175  -0.456   2.708  0.00  0.00    -0.096 F 
ATOM     11  F3  UNL d   1       1.678   2.175   2.307  0.00  0.00    -0.097 F 
ATOM     12  F4  UNL d   1       1.197   3.316  -0.124  0.00  0.00    -0.092 F 
ENDROOT
TORSDOF 0
ENDMDL
