MODEL 1
REMARK minimizedAffinity -1.83076453
REMARK minimizedRMSD -1
REMARK  0 active torsions:
REMARK  status: ('A' for Active; 'I' for Inactive)
ROOT
ATOM      1  C   UNL d   1      -0.536  -1.649  -0.096  0.00  0.00     0.124 A 
ATOM      2  C1  UNL d   1      -0.595  -1.183   1.210  0.00  0.00     0.062 A 
ATOM      3  C2  UNL d   1      -0.216   0.123   1.505  0.00  0.00     0.162 A 
ATOM      4  C3  UNL d   1       0.225   0.974   0.491  0.00  0.00    -0.034 A 
ATOM      5  C4  UNL d   1       0.282   0.498  -0.820  0.00  0.00     0.162 A 
ATOM      6  C5  UNL d   1      -0.098  -0.809  -1.110  0.00  0.00     0.062 A 
ATOM      7  F   UNL d   1      -0.040  -1.257  -2.372  0.00  0.00    -0.097 F 
ATOM      8  F1  UNL d   1       0.701   1.289  -1.819  0.00  0.00    -0.096 F 
ATOM      9  I   UNL d   1       0.792   2.928   0.928  0.00  0.00    -0.060 I 
ATOM     10  F2  UNL d   1      -0.283   0.547   2.776  0.00  0.00    -0.096 F 
ATOM     11  F3  UNL d   1      -1.017  -1.994   2.191  0.00  0.00    -0.097 F 
ATOM     12  F4  UNL d   1      -0.900  -2.907  -0.377  0.00  0.00    -0.092 F 
ENDROOT
TORSDOF 0
ENDMDL
