MODEL 1
REMARK minimizedAffinity -2.78108716
REMARK minimizedRMSD -1
REMARK  0 active torsions:
REMARK  status: ('A' for Active; 'I' for Inactive)
ROOT
ATOM      1  C   UNL d   1       0.833   1.878  -0.583  0.00  0.00     0.124 A 
ATOM      2  C1  UNL d   1       0.885   1.422   0.727  0.00  0.00     0.062 A 
ATOM      3  C2  UNL d   1       0.595   0.092   1.017  0.00  0.00     0.162 A 
ATOM      4  C3  UNL d   1       0.251  -0.793  -0.006  0.00  0.00    -0.034 A 
ATOM      5  C4  UNL d   1       0.200  -0.326  -1.320  0.00  0.00     0.162 A 
ATOM      6  C5  UNL d   1       0.490   1.004  -1.605  0.00  0.00     0.062 A 
ATOM      7  F   UNL d   1       0.439   1.443  -2.871  0.00  0.00    -0.097 F 
ATOM      8  F1  UNL d   1      -0.128  -1.150  -2.327  0.00  0.00    -0.096 F 
ATOM      9  I   UNL d   1      -0.183  -2.782   0.424  0.00  0.00    -0.060 I 
ATOM     10  F2  UNL d   1       0.654  -0.322   2.292  0.00  0.00    -0.096 F 
ATOM     11  F3  UNL d   1       1.215   2.264   1.716  0.00  0.00    -0.097 F 
ATOM     12  F4  UNL d   1       1.111   3.159  -0.859  0.00  0.00    -0.092 F 
ENDROOT
TORSDOF 0
ENDMDL
