MODEL 1
REMARK minimizedAffinity -2.31441069
REMARK minimizedRMSD -1
REMARK  0 active torsions:
REMARK  status: ('A' for Active; 'I' for Inactive)
ROOT
ATOM      1  C   UNL d   1      -0.027   0.959   0.207  0.00  0.00     0.124 A 
ATOM      2  C1  UNL d   1      -0.387   0.197   1.310  0.00  0.00     0.062 A 
ATOM      3  C2  UNL d   1      -0.432  -1.191   1.218  0.00  0.00     0.162 A 
ATOM      4  C3  UNL d   1      -0.115  -1.827   0.018  0.00  0.00    -0.034 A 
ATOM      5  C4  UNL d   1       0.246  -1.055  -1.088  0.00  0.00     0.162 A 
ATOM      6  C5  UNL d   1       0.289   0.332  -0.991  0.00  0.00     0.062 A 
ATOM      7  F   UNL d   1       0.638   1.066  -2.057  0.00  0.00    -0.097 F 
ATOM      8  F1  UNL d   1       0.557  -1.634  -2.257  0.00  0.00    -0.096 F 
ATOM      9  I   UNL d   1      -0.181  -3.903  -0.124  0.00  0.00    -0.060 I 
ATOM     10  F2  UNL d   1      -0.784  -1.902   2.299  0.00  0.00    -0.096 F 
ATOM     11  F3  UNL d   1      -0.694   0.800   2.468  0.00  0.00    -0.097 F 
ATOM     12  F4  UNL d   1       0.015   2.294   0.298  0.00  0.00    -0.092 F 
ENDROOT
TORSDOF 0
ENDMDL
