MODEL 1
REMARK minimizedAffinity 2.48873234
REMARK minimizedRMSD -1
REMARK  0 active torsions:
REMARK  status: ('A' for Active; 'I' for Inactive)
ROOT
ATOM      1  C   UNL d   1      -0.525  -2.196  -0.271  0.00  0.00     0.124 A 
ATOM      2  C1  UNL d   1      -0.447  -1.752   1.041  0.00  0.00     0.062 A 
ATOM      3  C2  UNL d   1      -0.109  -0.430   1.315  0.00  0.00     0.162 A 
ATOM      4  C3  UNL d   1       0.153   0.459   0.273  0.00  0.00    -0.034 A 
ATOM      5  C4  UNL d   1       0.074   0.006  -1.045  0.00  0.00     0.162 A 
ATOM      6  C5  UNL d   1      -0.265  -1.317  -1.313  0.00  0.00     0.062 A 
ATOM      7  F   UNL d   1      -0.340  -1.743  -2.582  0.00  0.00    -0.097 F 
ATOM      8  F1  UNL d   1       0.319   0.834  -2.071  0.00  0.00    -0.096 F 
ATOM      9  I   UNL d   1       0.659   2.437   0.677  0.00  0.00    -0.060 I 
ATOM     10  F2  UNL d   1      -0.041  -0.029   2.593  0.00  0.00    -0.096 F 
ATOM     11  F3  UNL d   1      -0.697  -2.600   2.050  0.00  0.00    -0.097 F 
ATOM     12  F4  UNL d   1      -0.850  -3.469  -0.532  0.00  0.00    -0.092 F 
ENDROOT
TORSDOF 0
ENDMDL
