MODEL 1
REMARK minimizedAffinity -0.579960823
REMARK minimizedRMSD -1
REMARK  0 active torsions:
REMARK  status: ('A' for Active; 'I' for Inactive)
ROOT
ATOM      1  C2' OXE d   1      -0.012   1.648   3.590  0.00  0.00     0.078 C 
ATOM      2  C1' OXE d   1      -1.662   2.647   1.551  0.00  0.00     0.078 C 
ATOM      3  C1  OXE d   1      -1.075   1.269   1.370  0.00  0.00    -0.078 A 
ATOM      4  C2  OXE d   1      -0.231   0.808   2.351  0.00  0.00    -0.078 A 
ATOM      5  C3  OXE d   1       0.295  -0.478   2.259  0.00  0.00     0.003 A 
ATOM      6  C4  OXE d   1       0.095  -1.245   1.105  0.00  0.00    -0.002 A 
ATOM      7  C5  OXE d   1      -0.729  -0.777   0.076  0.00  0.00    -0.002 A 
ATOM      8  C6  OXE d   1      -1.354   0.457   0.211  0.00  0.00     0.003 A 
ENDROOT
TORSDOF 0
ENDMDL
