MODEL 1
REMARK minimizedAffinity -2.7123332
REMARK minimizedRMSD -1
REMARK  0 active torsions:
REMARK  status: ('A' for Active; 'I' for Inactive)
ROOT
ATOM      1  C2' OXE d   1      -1.117   3.161   1.183  0.00  0.00     0.078 C 
ATOM      2  C1' OXE d   1       0.236   2.880  -1.260  0.00  0.00     0.078 C 
ATOM      3  C1  OXE d   1      -0.034   1.631  -0.458  0.00  0.00    -0.078 A 
ATOM      4  C2  OXE d   1      -0.656   1.783   0.758  0.00  0.00    -0.078 A 
ATOM      5  C3  OXE d   1      -0.978   0.659   1.513  0.00  0.00     0.003 A 
ATOM      6  C4  OXE d   1      -0.538  -0.610   1.117  0.00  0.00    -0.002 A 
ATOM      7  C5  OXE d   1       0.132  -0.782  -0.099  0.00  0.00    -0.002 A 
ATOM      8  C6  OXE d   1       0.353   0.320  -0.917  0.00  0.00     0.003 A 
ENDROOT
TORSDOF 0
ENDMDL
