MODEL 1
REMARK minimizedAffinity -3.70808744
REMARK minimizedRMSD -1
REMARK  0 active torsions:
REMARK  status: ('A' for Active; 'I' for Inactive)
ROOT
ATOM      1  C2' OXE d   1       0.530  -2.164  -2.006  0.00  0.00     0.078 C 
ATOM      2  C1' OXE d   1       1.774   0.147  -1.012  0.00  0.00     0.078 C 
ATOM      3  C1  OXE d   1       0.590  -0.397  -0.252  0.00  0.00    -0.078 A 
ATOM      4  C2  OXE d   1      -0.041  -1.501  -0.771  0.00  0.00    -0.078 A 
ATOM      5  C3  OXE d   1      -1.104  -2.076  -0.081  0.00  0.00     0.003 A 
ATOM      6  C4  OXE d   1      -1.632  -1.451   1.056  0.00  0.00    -0.002 A 
ATOM      7  C5  OXE d   1      -1.028  -0.303   1.579  0.00  0.00    -0.002 A 
ATOM      8  C6  OXE d   1       0.107   0.211   0.963  0.00  0.00     0.003 A 
ENDROOT
TORSDOF 0
ENDMDL
