MODEL 1
REMARK minimizedAffinity -1.35832214
REMARK minimizedRMSD -1
REMARK  0 active torsions:
REMARK  status: ('A' for Active; 'I' for Inactive)
ROOT
ATOM      1  C2' OXE d   1       1.962   0.185  -0.916  0.00  0.00     0.078 C 
ATOM      2  C1' OXE d   1       0.661  -2.299  -1.048  0.00  0.00     0.078 C 
ATOM      3  C1  OXE d   1       0.084  -1.251  -0.129  0.00  0.00    -0.078 A 
ATOM      4  C2  OXE d   1       0.754  -0.055  -0.035  0.00  0.00    -0.078 A 
ATOM      5  C3  OXE d   1       0.235   0.966   0.756  0.00  0.00     0.003 A 
ATOM      6  C4  OXE d   1      -0.876   0.732   1.575  0.00  0.00    -0.002 A 
ATOM      7  C5  OXE d   1      -1.550  -0.493   1.525  0.00  0.00    -0.002 A 
ATOM      8  C6  OXE d   1      -1.109  -1.478   0.648  0.00  0.00     0.003 A 
ENDROOT
TORSDOF 0
ENDMDL
