MODEL 1
REMARK minimizedAffinity -5.80343103
REMARK minimizedRMSD -1
REMARK  0 active torsions:
REMARK  status: ('A' for Active; 'I' for Inactive)
ROOT
ATOM      1  C2' OXE d   1       1.404  -0.113  -0.372  0.00  0.00     0.078 C 
ATOM      2  C1' OXE d   1       0.718   2.444  -1.307  0.00  0.00     0.078 C 
ATOM      3  C1  OXE d   1      -0.134   1.840  -0.219  0.00  0.00    -0.078 A 
ATOM      4  C2  OXE d   1       0.180   0.570   0.200  0.00  0.00    -0.078 A 
ATOM      5  C3  OXE d   1      -0.540  -0.012   1.239  0.00  0.00     0.003 A 
ATOM      6  C4  OXE d   1      -1.677   0.622   1.755  0.00  0.00    -0.002 A 
ATOM      7  C5  OXE d   1      -2.039   1.900   1.315  0.00  0.00    -0.002 A 
ATOM      8  C6  OXE d   1      -1.255   2.539   0.361  0.00  0.00     0.003 A 
ENDROOT
TORSDOF 0
ENDMDL
