MODEL 1
REMARK minimizedAffinity -0.747281849
REMARK minimizedRMSD -1
REMARK  0 active torsions:
REMARK  status: ('A' for Active; 'I' for Inactive)
ROOT
ATOM      1  C2' OXE d   1       1.487  -0.954  -0.472  0.00  0.00     0.078 C 
ATOM      2  C1' OXE d   1       1.714  -0.235   2.232  0.00  0.00     0.078 C 
ATOM      3  C1  OXE d   1       0.346  -0.173   1.600  0.00  0.00    -0.078 A 
ATOM      4  C2  OXE d   1       0.252  -0.482   0.265  0.00  0.00    -0.078 A 
ATOM      5  C3  OXE d   1      -0.995  -0.494  -0.354  0.00  0.00     0.003 A 
ATOM      6  C4  OXE d   1      -2.131  -0.046   0.331  0.00  0.00    -0.002 A 
ATOM      7  C5  OXE d   1      -2.050   0.311   1.682  0.00  0.00    -0.002 A 
ATOM      8  C6  OXE d   1      -0.830   0.213   2.341  0.00  0.00     0.003 A 
ENDROOT
TORSDOF 0
ENDMDL
