MODEL 1
REMARK minimizedAffinity -2.16940284
REMARK minimizedRMSD -1
REMARK  0 active torsions:
REMARK  status: ('A' for Active; 'I' for Inactive)
ROOT
ATOM      1  C2' OXE d   1      -0.661   0.880   0.185  0.00  0.00     0.078 C 
ATOM      2  C1' OXE d   1       1.026  -0.835   1.632  0.00  0.00     0.078 C 
ATOM      3  C1  OXE d   1       0.736  -1.182   0.193  0.00  0.00    -0.078 A 
ATOM      4  C2  OXE d   1      -0.128  -0.363  -0.494  0.00  0.00    -0.078 A 
ATOM      5  C3  OXE d   1      -0.387  -0.607  -1.839  0.00  0.00     0.003 A 
ATOM      6  C4  OXE d   1       0.103  -1.765  -2.457  0.00  0.00    -0.002 A 
ATOM      7  C5  OXE d   1       0.952  -2.634  -1.764  0.00  0.00    -0.002 A 
ATOM      8  C6  OXE d   1       1.312  -2.335  -0.454  0.00  0.00     0.003 A 
ENDROOT
TORSDOF 0
ENDMDL
