MODEL 1
REMARK minimizedAffinity -3.49172664
REMARK minimizedRMSD -1
REMARK  0 active torsions:
REMARK  status: ('A' for Active; 'I' for Inactive)
ROOT
ATOM      1  C2' OXE d   1       0.632  -2.214  -1.971  0.00  0.00     0.078 C 
ATOM      2  C1' OXE d   1       2.017   0.083  -1.142  0.00  0.00     0.078 C 
ATOM      3  C1  OXE d   1       0.822  -0.350  -0.329  0.00  0.00    -0.078 A 
ATOM      4  C2  OXE d   1       0.123  -1.448  -0.769  0.00  0.00    -0.078 A 
ATOM      5  C3  OXE d   1      -0.954  -1.922  -0.026  0.00  0.00     0.003 A 
ATOM      6  C4  OXE d   1      -1.425  -1.202   1.079  0.00  0.00    -0.002 A 
ATOM      7  C5  OXE d   1      -0.751  -0.058   1.520  0.00  0.00    -0.002 A 
ATOM      8  C6  OXE d   1       0.397   0.356   0.854  0.00  0.00     0.003 A 
ENDROOT
TORSDOF 0
ENDMDL
