MODEL 1
REMARK minimizedAffinity -3.88493752
REMARK minimizedRMSD -1
REMARK  0 active torsions:
REMARK  status: ('A' for Active; 'I' for Inactive)
ROOT
ATOM      1  C2' OXE d   1       1.052  -0.549  -0.791  0.00  0.00     0.078 C 
ATOM      2  C1' OXE d   1      -0.140  -0.809   1.737  0.00  0.00     0.078 C 
ATOM      3  C1  OXE d   1      -0.278   0.515   1.027  0.00  0.00    -0.078 A 
ATOM      4  C2  OXE d   1       0.348   0.648  -0.189  0.00  0.00    -0.078 A 
ATOM      5  C3  OXE d   1       0.207   1.830  -0.911  0.00  0.00     0.003 A 
ATOM      6  C4  OXE d   1      -0.437   2.935  -0.342  0.00  0.00    -0.002 A 
ATOM      7  C5  OXE d   1      -1.047   2.833   0.913  0.00  0.00    -0.002 A 
ATOM      8  C6  OXE d   1      -1.014   1.620   1.590  0.00  0.00     0.003 A 
ENDROOT
TORSDOF 0
ENDMDL
