MODEL 1
REMARK minimizedAffinity -3.17683578
REMARK minimizedRMSD -1
REMARK  0 active torsions:
REMARK  status: ('A' for Active; 'I' for Inactive)
ROOT
ATOM      1  C2' OXE d   1      -0.808  -1.771   2.681  0.00  0.00     0.078 C 
ATOM      2  C1' OXE d   1      -1.302   0.923   2.069  0.00  0.00     0.078 C 
ATOM      3  C1  OXE d   1      -0.448   0.130   1.112  0.00  0.00    -0.078 A 
ATOM      4  C2  OXE d   1      -0.173  -1.175   1.444  0.00  0.00    -0.078 A 
ATOM      5  C3  OXE d   1       0.565  -1.967   0.569  0.00  0.00     0.003 A 
ATOM      6  C4  OXE d   1       1.157  -1.406  -0.569  0.00  0.00    -0.002 A 
ATOM      7  C5  OXE d   1       0.922  -0.068  -0.904  0.00  0.00    -0.002 A 
ATOM      8  C6  OXE d   1       0.089   0.700  -0.099  0.00  0.00     0.003 A 
ENDROOT
TORSDOF 0
ENDMDL
