MODEL 1
REMARK minimizedAffinity -1.785851
REMARK minimizedRMSD -1
REMARK  0 active torsions:
REMARK  status: ('A' for Active; 'I' for Inactive)
ROOT
ATOM      1  C2' OXE d   1      -0.478  -0.677   1.883  0.00  0.00     0.078 C 
ATOM      2  C1' OXE d   1       1.226  -0.948  -0.332  0.00  0.00     0.078 C 
ATOM      3  C1  OXE d   1       0.675   0.423  -0.032  0.00  0.00    -0.078 A 
ATOM      4  C2  OXE d   1      -0.195   0.538   1.026  0.00  0.00    -0.078 A 
ATOM      5  C3  OXE d   1      -0.689   1.790   1.380  0.00  0.00     0.003 A 
ATOM      6  C4  OXE d   1      -0.431   2.907   0.576  0.00  0.00    -0.002 A 
ATOM      7  C5  OXE d   1       0.421   2.804  -0.529  0.00  0.00    -0.002 A 
ATOM      8  C6  OXE d   1       1.014   1.581  -0.821  0.00  0.00     0.003 A 
ENDROOT
TORSDOF 0
ENDMDL
