MODEL 1
REMARK minimizedAffinity -5.251894
REMARK minimizedRMSD -1
REMARK  0 active torsions:
REMARK  status: ('A' for Active; 'I' for Inactive)
ROOT
ATOM      1  C2' OXE d   1       1.071  -0.878  -0.357  0.00  0.00     0.078 C 
ATOM      2  C1' OXE d   1      -0.262  -0.975   2.112  0.00  0.00     0.078 C 
ATOM      3  C1  OXE d   1      -0.259   0.335   1.366  0.00  0.00    -0.078 A 
ATOM      4  C2  OXE d   1       0.436   0.386   0.181  0.00  0.00    -0.078 A 
ATOM      5  C3  OXE d   1       0.425   1.555  -0.575  0.00  0.00     0.003 A 
ATOM      6  C4  OXE d   1      -0.156   2.723  -0.066  0.00  0.00    -0.002 A 
ATOM      7  C5  OXE d   1      -0.834   2.703   1.158  0.00  0.00    -0.002 A 
ATOM      8  C6  OXE d   1      -0.931   1.510   1.864  0.00  0.00     0.003 A 
ENDROOT
TORSDOF 0
ENDMDL
