MODEL 1
REMARK minimizedAffinity -4.40826702
REMARK minimizedRMSD -1
REMARK  0 active torsions:
REMARK  status: ('A' for Active; 'I' for Inactive)
ROOT
ATOM      1  C2' OXE d   1      -0.226  -0.955   1.133  0.00  0.00     0.078 C 
ATOM      2  C1' OXE d   1       0.573   0.613  -1.055  0.00  0.00     0.078 C 
ATOM      3  C1  OXE d   1       0.541  -0.884  -1.236  0.00  0.00    -0.078 A 
ATOM      4  C2  OXE d   1       0.193  -1.646  -0.146  0.00  0.00    -0.078 A 
ATOM      5  C3  OXE d   1       0.095  -3.028  -0.275  0.00  0.00     0.003 A 
ATOM      6  C4  OXE d   1       0.495  -3.661  -1.458  0.00  0.00    -0.002 A 
ATOM      7  C5  OXE d   1       0.890  -2.906  -2.568  0.00  0.00    -0.002 A 
ATOM      8  C6  OXE d   1       0.878  -1.518  -2.487  0.00  0.00     0.003 A 
ENDROOT
TORSDOF 0
ENDMDL
