MODEL 1
REMARK minimizedAffinity -3.75805235
REMARK minimizedRMSD -1
REMARK  0 active torsions:
REMARK  status: ('A' for Active; 'I' for Inactive)
ROOT
ATOM      1  C2' OXE d   1      -1.028   3.806   1.012  0.00  0.00     0.078 C 
ATOM      2  C1' OXE d   1       0.599   2.750  -1.018  0.00  0.00     0.078 C 
ATOM      3  C1  OXE d   1       0.082   1.801   0.035  0.00  0.00    -0.078 A 
ATOM      4  C2  OXE d   1      -0.675   2.334   1.050  0.00  0.00    -0.078 A 
ATOM      5  C3  OXE d   1      -1.222   1.495   2.016  0.00  0.00     0.003 A 
ATOM      6  C4  OXE d   1      -0.882   0.137   2.050  0.00  0.00    -0.002 A 
ATOM      7  C5  OXE d   1      -0.080  -0.419   1.048  0.00  0.00    -0.002 A 
ATOM      8  C6  OXE d   1       0.374   0.389   0.011  0.00  0.00     0.003 A 
ENDROOT
TORSDOF 0
ENDMDL
