MODEL 1
REMARK minimizedAffinity 0.114119828
REMARK minimizedRMSD -1
REMARK  0 active torsions:
REMARK  status: ('A' for Active; 'I' for Inactive)
ROOT
ATOM      1  C2' OXE d   1      -1.572   0.363   1.875  0.00  0.00     0.078 C 
ATOM      2  C1' OXE d   1       0.271  -0.403  -0.099  0.00  0.00     0.078 C 
ATOM      3  C1  OXE d   1      -0.052   1.065   0.031  0.00  0.00    -0.078 A 
ATOM      4  C2  OXE d   1      -0.990   1.425   0.968  0.00  0.00    -0.078 A 
ATOM      5  C3  OXE d   1      -1.284   2.771   1.166  0.00  0.00     0.003 A 
ATOM      6  C4  OXE d   1      -0.748   3.747   0.316  0.00  0.00    -0.002 A 
ATOM      7  C5  OXE d   1       0.178   3.396  -0.671  0.00  0.00    -0.002 A 
ATOM      8  C6  OXE d   1       0.569   2.068  -0.799  0.00  0.00     0.003 A 
ENDROOT
TORSDOF 0
ENDMDL
