MODEL 1
REMARK minimizedAffinity -2.00156689
REMARK minimizedRMSD -1
REMARK  0 active torsions:
REMARK  status: ('A' for Active; 'I' for Inactive)
ROOT
ATOM      1  C2' OXE d   1      -0.079  -1.952  -2.076  0.00  0.00     0.078 C 
ATOM      2  C1' OXE d   1       2.075  -0.525  -0.978  0.00  0.00     0.078 C 
ATOM      3  C1  OXE d   1       0.784  -0.559  -0.199  0.00  0.00    -0.078 A 
ATOM      4  C2  OXE d   1      -0.279  -1.220  -0.766  0.00  0.00    -0.078 A 
ATOM      5  C3  OXE d   1      -1.477  -1.327  -0.065  0.00  0.00     0.003 A 
ATOM      6  C4  OXE d   1      -1.657  -0.639   1.141  0.00  0.00    -0.002 A 
ATOM      7  C5  OXE d   1      -0.599   0.073   1.716  0.00  0.00    -0.002 A 
ATOM      8  C6  OXE d   1       0.638   0.088   1.081  0.00  0.00     0.003 A 
ENDROOT
TORSDOF 0
ENDMDL
