MODEL 1
REMARK minimizedAffinity -3.18800831
REMARK minimizedRMSD -1
REMARK  0 active torsions:
REMARK  status: ('A' for Active; 'I' for Inactive)
ROOT
ATOM      1  C2' OXE d   1       0.395   3.027  -1.497  0.00  0.00     0.078 C 
ATOM      2  C1' OXE d   1      -0.802   1.028   0.069  0.00  0.00     0.078 C 
ATOM      3  C1  OXE d   1      -0.272   2.252   0.774  0.00  0.00    -0.078 A 
ATOM      4  C2  OXE d   1       0.354   3.203   0.005  0.00  0.00    -0.078 A 
ATOM      5  C3  OXE d   1       0.812   4.376   0.598  0.00  0.00     0.003 A 
ATOM      6  C4  OXE d   1       0.779   4.527   1.990  0.00  0.00    -0.002 A 
ATOM      7  C5  OXE d   1       0.181   3.552   2.796  0.00  0.00    -0.002 A 
ATOM      8  C6  OXE d   1      -0.386   2.430   2.201  0.00  0.00     0.003 A 
ENDROOT
TORSDOF 0
ENDMDL
