MODEL 1
REMARK minimizedAffinity -5.31298018
REMARK minimizedRMSD -1
REMARK  0 active torsions:
REMARK  status: ('A' for Active; 'I' for Inactive)
ROOT
ATOM      1  C2' OXE d   1      -0.041  -0.692   1.615  0.00  0.00     0.078 C 
ATOM      2  C1' OXE d   1       1.298   0.099  -0.722  0.00  0.00     0.078 C 
ATOM      3  C1  OXE d   1       0.339   1.079  -0.095  0.00  0.00    -0.078 A 
ATOM      4  C2  OXE d   1      -0.347   0.666   1.022  0.00  0.00    -0.078 A 
ATOM      5  C3  OXE d   1      -1.203   1.551   1.672  0.00  0.00     0.003 A 
ATOM      6  C4  OXE d   1      -1.488   2.802   1.111  0.00  0.00    -0.002 A 
ATOM      7  C5  OXE d   1      -0.830   3.227  -0.048  0.00  0.00    -0.002 A 
ATOM      8  C6  OXE d   1       0.116   2.396  -0.638  0.00  0.00     0.003 A 
ENDROOT
TORSDOF 0
ENDMDL
