MODEL 1
REMARK minimizedAffinity 1.12852597
REMARK minimizedRMSD -1
REMARK  0 active torsions:
REMARK  status: ('A' for Active; 'I' for Inactive)
ROOT
ATOM      1  N1  IND d   1      -0.484  -1.678   2.288  0.00  0.00    -0.196 N 
ATOM      2  C2  IND d   1      -0.526  -0.323   2.118  0.00  0.00     0.054 A 
ATOM      3  C3  IND d   1       0.305   0.052   1.119  0.00  0.00    -0.031 A 
ATOM      4  C4  IND d   1       1.752  -1.403  -0.436  0.00  0.00     0.051 A 
ATOM      5  C5  IND d   1       2.149  -2.694  -0.642  0.00  0.00    -0.031 A 
ATOM      6  C6  IND d   1       1.677  -3.734   0.131  0.00  0.00     0.015 A 
ATOM      7  C7  IND d   1       0.777  -3.522   1.138  0.00  0.00    -0.016 A 
ATOM      8  C8  IND d   1       0.378  -2.211   1.355  0.00  0.00    -0.047 A 
ATOM      9  C9  IND d   1       0.886  -1.146   0.600  0.00  0.00    -0.096 A 
ATOM     10  HN1 IND d   1      -0.922  -2.123   2.880  0.00  0.00     0.298 HD
ENDROOT
TORSDOF 0
ENDMDL
