MODEL 1
REMARK minimizedAffinity -3.89043713
REMARK minimizedRMSD -1
REMARK  0 active torsions:
REMARK  status: ('A' for Active; 'I' for Inactive)
ROOT
ATOM      1  N1  IND d   1       2.112  -4.316  -0.014  0.00  0.00    -0.196 N 
ATOM      2  C2  IND d   1       3.360  -3.845  -0.315  0.00  0.00     0.054 A 
ATOM      3  C3  IND d   1       3.372  -2.494  -0.288  0.00  0.00    -0.031 A 
ATOM      4  C4  IND d   1       1.486  -0.853   0.326  0.00  0.00     0.051 A 
ATOM      5  C5  IND d   1       0.155  -0.809   0.636  0.00  0.00    -0.031 A 
ATOM      6  C6  IND d   1      -0.605  -1.954   0.751  0.00  0.00     0.015 A 
ATOM      7  C7  IND d   1      -0.059  -3.193   0.570  0.00  0.00    -0.016 A 
ATOM      8  C8  IND d   1       1.290  -3.242   0.247  0.00  0.00    -0.047 A 
ATOM      9  C9  IND d   1       2.057  -2.081   0.088  0.00  0.00    -0.096 A 
ATOM     10  HN1 IND d   1       1.880  -5.143   0.009  0.00  0.00     0.298 HD
ENDROOT
TORSDOF 0
ENDMDL
