MODEL 1
REMARK minimizedAffinity -4.52035236
REMARK minimizedRMSD -1
REMARK  0 active torsions:
REMARK  status: ('A' for Active; 'I' for Inactive)
ROOT
ATOM      1  N1  IND d   1      -1.608  -1.370   0.817  0.00  0.00    -0.196 N 
ATOM      2  C2  IND d   1      -1.549  -0.032   1.090  0.00  0.00     0.054 A 
ATOM      3  C3  IND d   1      -0.262   0.375   1.175  0.00  0.00    -0.031 A 
ATOM      4  C4  IND d   1       1.904  -0.965   0.802  0.00  0.00     0.051 A 
ATOM      5  C5  IND d   1       2.361  -2.231   0.567  0.00  0.00    -0.031 A 
ATOM      6  C6  IND d   1       1.500  -3.297   0.398  0.00  0.00     0.015 A 
ATOM      7  C7  IND d   1       0.145  -3.132   0.446  0.00  0.00    -0.016 A 
ATOM      8  C8  IND d   1      -0.322  -1.849   0.691  0.00  0.00    -0.047 A 
ATOM      9  C9  IND d   1       0.547  -0.771   0.906  0.00  0.00    -0.096 A 
ATOM     10  HN1 IND d   1      -2.327  -1.835   0.739  0.00  0.00     0.298 HD
ENDROOT
TORSDOF 0
ENDMDL
