MODEL 1
REMARK minimizedAffinity 1.69762826
REMARK minimizedRMSD -1
REMARK  0 active torsions:
REMARK  status: ('A' for Active; 'I' for Inactive)
ROOT
ATOM      1  N1  IND d   1       1.882  -4.635   0.114  0.00  0.00    -0.196 N 
ATOM      2  C2  IND d   1       3.232  -4.511  -0.064  0.00  0.00     0.054 A 
ATOM      3  C3  IND d   1       3.601  -3.213   0.027  0.00  0.00    -0.031 A 
ATOM      4  C4  IND d   1       2.173  -1.140   0.563  0.00  0.00     0.051 A 
ATOM      5  C5  IND d   1       0.880  -0.746   0.768  0.00  0.00    -0.031 A 
ATOM      6  C6  IND d   1      -0.165  -1.647   0.768  0.00  0.00     0.015 A 
ATOM      7  C7  IND d   1       0.046  -2.983   0.574  0.00  0.00    -0.016 A 
ATOM      8  C8  IND d   1       1.356  -3.385   0.358  0.00  0.00    -0.047 A 
ATOM      9  C9  IND d   1       2.416  -2.470   0.315  0.00  0.00    -0.096 A 
ATOM     10  HN1 IND d   1       1.437  -5.369   0.079  0.00  0.00     0.298 HD
ENDROOT
TORSDOF 0
ENDMDL
