MODEL 1
REMARK minimizedAffinity -3.23320293
REMARK minimizedRMSD -1
REMARK  0 active torsions:
REMARK  status: ('A' for Active; 'I' for Inactive)
ROOT
ATOM      1  N1  IND d   1       3.598  -2.338   0.173  0.00  0.00    -0.196 N 
ATOM      2  C2  IND d   1       3.463  -3.699   0.164  0.00  0.00     0.054 A 
ATOM      3  C3  IND d   1       2.193  -4.047   0.467  0.00  0.00    -0.031 A 
ATOM      4  C4  IND d   1       0.148  -2.549   0.913  0.00  0.00     0.051 A 
ATOM      5  C5  IND d   1      -0.216  -1.240   1.066  0.00  0.00    -0.031 A 
ATOM      6  C6  IND d   1       0.691  -0.210   0.924  0.00  0.00     0.015 A 
ATOM      7  C7  IND d   1       1.999  -0.450   0.611  0.00  0.00    -0.016 A 
ATOM      8  C8  IND d   1       2.373  -1.778   0.461  0.00  0.00    -0.047 A 
ATOM      9  C9  IND d   1       1.467  -2.830   0.646  0.00  0.00    -0.096 A 
ATOM     10  HN1 IND d   1       4.326  -1.905   0.023  0.00  0.00     0.298 HD
ENDROOT
TORSDOF 0
ENDMDL
