MODEL 1
REMARK minimizedAffinity -1.56850576
REMARK minimizedRMSD -1
REMARK  0 active torsions:
REMARK  status: ('A' for Active; 'I' for Inactive)
ROOT
ATOM      1  N1  IND d   1      -5.973  -5.966   5.027  0.00  0.00    -0.196 N 
ATOM      2  C2  IND d   1      -6.000  -4.997   5.991  0.00  0.00     0.054 A 
ATOM      3  C3  IND d   1      -5.749  -3.785   5.447  0.00  0.00    -0.031 A 
ATOM      4  C4  IND d   1      -5.369  -3.145   2.982  0.00  0.00     0.051 A 
ATOM      5  C5  IND d   1      -5.219  -3.692   1.739  0.00  0.00    -0.031 A 
ATOM      6  C6  IND d   1      -5.317  -5.051   1.523  0.00  0.00     0.015 A 
ATOM      7  C7  IND d   1      -5.581  -5.917   2.545  0.00  0.00    -0.016 A 
ATOM      8  C8  IND d   1      -5.728  -5.367   3.811  0.00  0.00    -0.047 A 
ATOM      9  C9  IND d   1      -5.587  -3.993   4.043  0.00  0.00    -0.096 A 
ATOM     10  HN1 IND d   1      -6.090  -6.807   5.158  0.00  0.00     0.298 HD
ENDROOT
TORSDOF 0
ENDMDL
