MODEL 1
REMARK minimizedAffinity -3.95567942
REMARK minimizedRMSD -1
REMARK  0 active torsions:
REMARK  status: ('A' for Active; 'I' for Inactive)
ROOT
ATOM      1  N1  IND d   1       1.678  -4.136   0.039  0.00  0.00    -0.196 N 
ATOM      2  C2  IND d   1       3.040  -4.019   0.017  0.00  0.00     0.054 A 
ATOM      3  C3  IND d   1       3.406  -2.743   0.272  0.00  0.00    -0.031 A 
ATOM      4  C4  IND d   1       1.943  -0.706   0.852  0.00  0.00     0.051 A 
ATOM      5  C5  IND d   1       0.639  -0.311   0.956  0.00  0.00    -0.031 A 
ATOM      6  C6  IND d   1      -0.407  -1.189   0.759  0.00  0.00     0.015 A 
ATOM      7  C7  IND d   1      -0.186  -2.504   0.459  0.00  0.00    -0.016 A 
ATOM      8  C8  IND d   1       1.137  -2.907   0.346  0.00  0.00    -0.047 A 
ATOM      9  C9  IND d   1       2.202  -2.010   0.503  0.00  0.00    -0.096 A 
ATOM     10  HN1 IND d   1       1.234  -4.856  -0.114  0.00  0.00     0.298 HD
ENDROOT
TORSDOF 0
ENDMDL
