MODEL 1
REMARK minimizedAffinity -3.04924321
REMARK minimizedRMSD -1
REMARK  0 active torsions:
REMARK  status: ('A' for Active; 'I' for Inactive)
ROOT
ATOM      1  N1  IND d   1       3.514  -2.588   0.138  0.00  0.00    -0.196 N 
ATOM      2  C2  IND d   1       3.234  -3.911  -0.064  0.00  0.00     0.054 A 
ATOM      3  C3  IND d   1       1.909  -4.139   0.078  0.00  0.00    -0.031 A 
ATOM      4  C4  IND d   1       0.003  -2.470   0.540  0.00  0.00     0.051 A 
ATOM      5  C5  IND d   1      -0.231  -1.156   0.834  0.00  0.00    -0.031 A 
ATOM      6  C6  IND d   1       0.792  -0.233   0.910  0.00  0.00     0.015 A 
ATOM      7  C7  IND d   1       2.091  -0.589   0.683  0.00  0.00    -0.016 A 
ATOM      8  C8  IND d   1       2.333  -1.924   0.391  0.00  0.00    -0.047 A 
ATOM      9  C9  IND d   1       1.304  -2.874   0.354  0.00  0.00    -0.096 A 
ATOM     10  HN1 IND d   1       4.295  -2.231   0.112  0.00  0.00     0.298 HD
ENDROOT
TORSDOF 0
ENDMDL
