MODEL 1
REMARK minimizedAffinity -0.487270296
REMARK minimizedRMSD -1
REMARK  0 active torsions:
REMARK  status: ('A' for Active; 'I' for Inactive)
ROOT
ATOM      1  N1  IND d   1      -5.699  -5.269   2.094  0.00  0.00    -0.196 N 
ATOM      2  C2  IND d   1      -5.267  -4.125   1.484  0.00  0.00     0.054 A 
ATOM      3  C3  IND d   1      -4.960  -3.186   2.408  0.00  0.00    -0.031 A 
ATOM      4  C4  IND d   1      -4.994  -3.348   4.977  0.00  0.00     0.051 A 
ATOM      5  C5  IND d   1      -5.351  -4.182   5.999  0.00  0.00    -0.031 A 
ATOM      6  C6  IND d   1      -5.850  -5.447   5.768  0.00  0.00     0.015 A 
ATOM      7  C7  IND d   1      -6.000  -5.933   4.499  0.00  0.00    -0.016 A 
ATOM      8  C8  IND d   1      -5.645  -5.086   3.459  0.00  0.00    -0.047 A 
ATOM      9  C9  IND d   1      -5.179  -3.785   3.687  0.00  0.00    -0.096 A 
ATOM     10  HN1 IND d   1      -5.960  -5.984   1.693  0.00  0.00     0.298 HD
ENDROOT
TORSDOF 0
ENDMDL
