MODEL 1
REMARK minimizedAffinity 1.86966074
REMARK minimizedRMSD -1
REMARK  0 active torsions:
REMARK  status: ('A' for Active; 'I' for Inactive)
ROOT
ATOM      1  N1  IND d   1       2.720  -3.275   0.223  0.00  0.00    -0.196 N 
ATOM      2  C2  IND d   1       2.031  -4.359  -0.244  0.00  0.00     0.054 A 
ATOM      3  C3  IND d   1       0.699  -4.129  -0.191  0.00  0.00    -0.031 A 
ATOM      4  C4  IND d   1      -0.565  -2.006   0.532  0.00  0.00     0.051 A 
ATOM      5  C5  IND d   1      -0.368  -0.766   1.072  0.00  0.00    -0.031 A 
ATOM      6  C6  IND d   1       0.894  -0.289   1.360  0.00  0.00     0.015 A 
ATOM      7  C7  IND d   1       2.012  -1.032   1.107  0.00  0.00    -0.016 A 
ATOM      8  C8  IND d   1       1.815  -2.294   0.565  0.00  0.00    -0.047 A 
ATOM      9  C9  IND d   1       0.534  -2.801   0.310  0.00  0.00    -0.096 A 
ATOM     10  HN1 IND d   1       3.575  -3.216   0.292  0.00  0.00     0.298 HD
ENDROOT
TORSDOF 0
ENDMDL
