MODEL 1
REMARK minimizedAffinity 1.49361026
REMARK minimizedRMSD -1
REMARK  0 active torsions:
REMARK  status: ('A' for Active; 'I' for Inactive)
ROOT
ATOM      1  N1  IND d   1       2.888  -3.349  -0.212  0.00  0.00    -0.196 N 
ATOM      2  C2  IND d   1       2.092  -4.459  -0.261  0.00  0.00     0.054 A 
ATOM      3  C3  IND d   1       0.841  -4.159   0.152  0.00  0.00    -0.031 A 
ATOM      4  C4  IND d   1      -0.149  -1.889   0.856  0.00  0.00     0.051 A 
ATOM      5  C5  IND d   1       0.200  -0.589   1.096  0.00  0.00    -0.031 A 
ATOM      6  C6  IND d   1       1.488  -0.133   0.905  0.00  0.00     0.015 A 
ATOM      7  C7  IND d   1       2.478  -0.961   0.455  0.00  0.00    -0.016 A 
ATOM      8  C8  IND d   1       2.129  -2.283   0.217  0.00  0.00    -0.047 A 
ATOM      9  C9  IND d   1       0.833  -2.761   0.450  0.00  0.00    -0.096 A 
ATOM     10  HN1 IND d   1       3.723  -3.321  -0.416  0.00  0.00     0.298 HD
ENDROOT
TORSDOF 0
ENDMDL
