MODEL 1
REMARK minimizedAffinity -1.0461632
REMARK minimizedRMSD -1
REMARK  0 active torsions:
REMARK  status: ('A' for Active; 'I' for Inactive)
ROOT
ATOM      1  N1  IND d   1       2.717  -5.128   0.248  0.00  0.00    -0.196 N 
ATOM      2  C2  IND d   1       4.056  -4.935   0.049  0.00  0.00     0.054 A 
ATOM      3  C3  IND d   1       4.342  -3.614   0.020  0.00  0.00    -0.031 A 
ATOM      4  C4  IND d   1       2.785  -1.596   0.380  0.00  0.00     0.051 A 
ATOM      5  C5  IND d   1       1.471  -1.268   0.560  0.00  0.00    -0.031 A 
ATOM      6  C6  IND d   1       0.485  -2.229   0.649  0.00  0.00     0.015 A 
ATOM      7  C7  IND d   1       0.780  -3.561   0.573  0.00  0.00    -0.016 A 
ATOM      8  C8  IND d   1       2.113  -3.897   0.384  0.00  0.00    -0.047 A 
ATOM      9  C9  IND d   1       3.112  -2.925   0.250  0.00  0.00    -0.096 A 
ATOM     10  HN1 IND d   1       2.319  -5.890   0.283  0.00  0.00     0.298 HD
ENDROOT
TORSDOF 0
ENDMDL
