MODEL 1
REMARK minimizedAffinity -4.10224867
REMARK minimizedRMSD -1
REMARK  0 active torsions:
REMARK  status: ('A' for Active; 'I' for Inactive)
ROOT
ATOM      1  N1  IND d   1       3.259  -2.368   0.123  0.00  0.00    -0.196 N 
ATOM      2  C2  IND d   1       3.165  -3.705  -0.143  0.00  0.00     0.054 A 
ATOM      3  C3  IND d   1       1.875  -4.106  -0.095  0.00  0.00    -0.031 A 
ATOM      4  C4  IND d   1      -0.255  -2.715   0.301  0.00  0.00     0.051 A 
ATOM      5  C5  IND d   1      -0.674  -1.455   0.625  0.00  0.00    -0.031 A 
ATOM      6  C6  IND d   1       0.214  -0.413   0.799  0.00  0.00     0.015 A 
ATOM      7  C7  IND d   1       1.560  -0.591   0.644  0.00  0.00    -0.016 A 
ATOM      8  C8  IND d   1       1.990  -1.871   0.322  0.00  0.00    -0.047 A 
ATOM      9  C9  IND d   1       1.096  -2.941   0.186  0.00  0.00    -0.096 A 
ATOM     10  HN1 IND d   1       3.988  -1.913   0.159  0.00  0.00     0.298 HD
ENDROOT
TORSDOF 0
ENDMDL
