MODEL 1
REMARK minimizedAffinity -2.10605359
REMARK minimizedRMSD -1
REMARK  0 active torsions:
REMARK  status: ('A' for Active; 'I' for Inactive)
ROOT
ATOM      1  N1  IND d   1       0.329   5.628  -5.981  0.00  0.00    -0.196 N 
ATOM      2  C2  IND d   1      -0.553   6.000  -5.006  0.00  0.00     0.054 A 
ATOM      3  C3  IND d   1      -0.127   5.570  -3.797  0.00  0.00    -0.031 A 
ATOM      4  C4  IND d   1       2.041   4.329  -3.174  0.00  0.00     0.051 A 
ATOM      5  C5  IND d   1       3.143   3.741  -3.729  0.00  0.00    -0.031 A 
ATOM      6  C6  IND d   1       3.369   3.754  -5.091  0.00  0.00     0.015 A 
ATOM      7  C7  IND d   1       2.503   4.369  -5.950  0.00  0.00    -0.016 A 
ATOM      8  C8  IND d   1       1.380   4.961  -5.391  0.00  0.00    -0.047 A 
ATOM      9  C9  IND d   1       1.124   4.914  -4.015  0.00  0.00    -0.096 A 
ATOM     10  HN1 IND d   1       0.242   5.785  -6.822  0.00  0.00     0.298 HD
ENDROOT
TORSDOF 0
ENDMDL
