MODEL 1
REMARK minimizedAffinity 4.75245428
REMARK minimizedRMSD -1
REMARK  0 active torsions:
REMARK  status: ('A' for Active; 'I' for Inactive)
ROOT
ATOM      1  N1  IND d   1       2.292   0.619   2.153  0.00  0.00    -0.196 N 
ATOM      2  C2  IND d   1       3.394  -0.042   1.685  0.00  0.00     0.054 A 
ATOM      3  C3  IND d   1       3.027  -1.017   0.824  0.00  0.00    -0.031 A 
ATOM      4  C4  IND d   1       0.683  -1.639  -0.041  0.00  0.00     0.051 A 
ATOM      5  C5  IND d   1      -0.640  -1.343   0.127  0.00  0.00    -0.031 A 
ATOM      6  C6  IND d   1      -1.062  -0.355   0.994  0.00  0.00     0.015 A 
ATOM      7  C7  IND d   1      -0.172   0.383   1.720  0.00  0.00    -0.016 A 
ATOM      8  C8  IND d   1       1.173   0.080   1.558  0.00  0.00    -0.047 A 
ATOM      9  C9  IND d   1       1.605  -0.949   0.712  0.00  0.00    -0.096 A 
ATOM     10  HN1 IND d   1       2.298   1.263   2.723  0.00  0.00     0.298 HD
ENDROOT
TORSDOF 0
ENDMDL
