MODEL 1
REMARK minimizedAffinity 0.354492486
REMARK minimizedRMSD -1
REMARK  0 active torsions:
REMARK  status: ('A' for Active; 'I' for Inactive)
ROOT
ATOM      1  N1  IND d   1       2.494  -3.012   0.134  0.00  0.00    -0.196 N 
ATOM      2  C2  IND d   1       1.676  -4.006  -0.324  0.00  0.00     0.054 A 
ATOM      3  C3  IND d   1       0.391  -3.749   0.007  0.00  0.00    -0.031 A 
ATOM      4  C4  IND d   1      -0.609  -1.705   1.211  0.00  0.00     0.051 A 
ATOM      5  C5  IND d   1      -0.253  -0.552   1.853  0.00  0.00    -0.031 A 
ATOM      6  C6  IND d   1       1.063  -0.150   1.953  0.00  0.00     0.015 A 
ATOM      7  C7  IND d   1       2.076  -0.884   1.405  0.00  0.00    -0.016 A 
ATOM      8  C8  IND d   1       1.719  -2.060   0.759  0.00  0.00    -0.047 A 
ATOM      9  C9  IND d   1       0.389  -2.494   0.690  0.00  0.00    -0.096 A 
ATOM     10  HN1 IND d   1       3.349  -2.985   0.047  0.00  0.00     0.298 HD
ENDROOT
TORSDOF 0
ENDMDL
