MODEL 1
REMARK minimizedAffinity 5.35390186
REMARK minimizedRMSD -1
REMARK  0 active torsions:
REMARK  status: ('A' for Active; 'I' for Inactive)
ROOT
ATOM      1  N1  IND d   1       1.875  -3.815   0.920  0.00  0.00    -0.196 N 
ATOM      2  C2  IND d   1       1.477  -4.383  -0.258  0.00  0.00     0.054 A 
ATOM      3  C3  IND d   1       0.439  -3.696  -0.785  0.00  0.00    -0.031 A 
ATOM      4  C4  IND d   1      -0.701  -1.550   0.064  0.00  0.00     0.051 A 
ATOM      5  C5  IND d   1      -0.710  -0.680   1.118  0.00  0.00    -0.031 A 
ATOM      6  C6  IND d   1       0.161  -0.811   2.180  0.00  0.00     0.015 A 
ATOM      7  C7  IND d   1       1.087  -1.815   2.222  0.00  0.00    -0.016 A 
ATOM      8  C8  IND d   1       1.094  -2.705   1.157  0.00  0.00    -0.047 A 
ATOM      9  C9  IND d   1       0.184  -2.602   0.097  0.00  0.00    -0.096 A 
ATOM     10  HN1 IND d   1       2.507  -4.102   1.427  0.00  0.00     0.298 HD
ENDROOT
TORSDOF 0
ENDMDL
