MODEL 1
REMARK minimizedAffinity 13.4174633
REMARK minimizedRMSD -1
REMARK  0 active torsions:
REMARK  status: ('A' for Active; 'I' for Inactive)
ROOT
ATOM      1  C   UNL d   1      -3.353   1.311  -3.004  0.00  0.00     0.124 A 
ATOM      2  C1  UNL d   1      -4.318   2.087  -3.633  0.00  0.00     0.062 A 
ATOM      3  C2  UNL d   1      -5.075   2.994  -2.898  0.00  0.00     0.162 A 
ATOM      4  C3  UNL d   1      -4.870   3.132  -1.525  0.00  0.00    -0.034 A 
ATOM      5  C4  UNL d   1      -3.898   2.348  -0.900  0.00  0.00     0.162 A 
ATOM      6  C5  UNL d   1      -3.144   1.443  -1.639  0.00  0.00     0.062 A 
ATOM      7  F   UNL d   1      -2.213   0.695  -1.030  0.00  0.00    -0.097 F 
ATOM      8  F1  UNL d   1      -3.675   2.456   0.419  0.00  0.00    -0.096 F 
ATOM      9  I   UNL d   1      -6.000   4.488  -0.422  0.00  0.00    -0.060 I 
ATOM     10  F2  UNL d   1      -6.000   3.730  -3.531  0.00  0.00    -0.096 F 
ATOM     11  F3  UNL d   1      -4.522   1.961  -4.952  0.00  0.00    -0.097 F 
ATOM     12  F4  UNL d   1      -2.626   0.438  -3.714  0.00  0.00    -0.092 F 
ENDROOT
TORSDOF 0
ENDMDL
