MODEL 1
REMARK minimizedAffinity 7.52492094
REMARK minimizedRMSD -1
REMARK  0 active torsions:
REMARK  status: ('A' for Active; 'I' for Inactive)
ROOT
ATOM      1  C   UNL d   1       1.859  -1.864   2.382  0.00  0.00     0.124 A 
ATOM      2  C1  UNL d   1       2.103  -3.200   2.097  0.00  0.00     0.062 A 
ATOM      3  C2  UNL d   1       2.198  -4.130   3.128  0.00  0.00     0.162 A 
ATOM      4  C3  UNL d   1       2.049  -3.728   4.455  0.00  0.00    -0.034 A 
ATOM      5  C4  UNL d   1       1.805  -2.382   4.734  0.00  0.00     0.162 A 
ATOM      6  C5  UNL d   1       1.711  -1.456   3.701  0.00  0.00     0.062 A 
ATOM      7  F   UNL d   1       1.475  -0.165   3.979  0.00  0.00    -0.097 F 
ATOM      8  F1  UNL d   1       1.656  -1.961   5.999  0.00  0.00    -0.096 F 
ATOM      9  I   UNL d   1       2.190  -5.116   5.999  0.00  0.00    -0.060 I 
ATOM     10  F2  UNL d   1       2.434  -5.415   2.822  0.00  0.00    -0.096 F 
ATOM     11  F3  UNL d   1       2.248  -3.596   0.824  0.00  0.00    -0.097 F 
ATOM     12  F4  UNL d   1       1.769  -0.971   1.389  0.00  0.00    -0.092 F 
ENDROOT
TORSDOF 0
ENDMDL
