MODEL 1
REMARK minimizedAffinity 21.567625
REMARK minimizedRMSD -1
REMARK  0 active torsions:
REMARK  status: ('A' for Active; 'I' for Inactive)
ROOT
ATOM      1  C   UNL d   1      -4.070   3.015   1.040  0.00  0.00     0.124 A 
ATOM      2  C1  UNL d   1      -2.951   2.253   0.733  0.00  0.00     0.062 A 
ATOM      3  C2  UNL d   1      -2.678   1.912  -0.588  0.00  0.00     0.162 A 
ATOM      4  C3  UNL d   1      -3.526   2.332  -1.613  0.00  0.00    -0.034 A 
ATOM      5  C4  UNL d   1      -4.650   3.097  -1.296  0.00  0.00     0.162 A 
ATOM      6  C5  UNL d   1      -4.918   3.436   0.026  0.00  0.00     0.062 A 
ATOM      7  F   UNL d   1      -6.000   4.172   0.321  0.00  0.00    -0.097 F 
ATOM      8  F1  UNL d   1      -5.485   3.518  -2.257  0.00  0.00    -0.096 F 
ATOM      9  I   UNL d   1      -3.121   1.823  -3.590  0.00  0.00    -0.060 I 
ATOM     10  F2  UNL d   1      -1.590   1.175  -0.856  0.00  0.00    -0.096 F 
ATOM     11  F3  UNL d   1      -2.131   1.845   1.712  0.00  0.00    -0.097 F 
ATOM     12  F4  UNL d   1      -4.331   3.342   2.313  0.00  0.00    -0.092 F 
ENDROOT
TORSDOF 0
ENDMDL
