MODEL 1
REMARK minimizedAffinity 11.5971327
REMARK minimizedRMSD -1
REMARK  0 active torsions:
REMARK  status: ('A' for Active; 'I' for Inactive)
ROOT
ATOM      1  C   UNL d   1       2.062   0.161   3.171  0.00  0.00     0.124 A 
ATOM      2  C1  UNL d   1       2.768   1.240   2.659  0.00  0.00     0.062 A 
ATOM      3  C2  UNL d   1       3.276   1.193   1.364  0.00  0.00     0.162 A 
ATOM      4  C3  UNL d   1       3.079   0.063   0.571  0.00  0.00    -0.034 A 
ATOM      5  C4  UNL d   1       2.368  -1.019   1.094  0.00  0.00     0.162 A 
ATOM      6  C5  UNL d   1       1.862  -0.967   2.389  0.00  0.00     0.062 A 
ATOM      7  F   UNL d   1       1.180  -2.011   2.882  0.00  0.00    -0.097 F 
ATOM      8  F1  UNL d   1       2.160  -2.122   0.359  0.00  0.00    -0.096 F 
ATOM      9  I   UNL d   1       3.837  -0.012  -1.366  0.00  0.00    -0.060 I 
ATOM     10  F2  UNL d   1       3.955   2.251   0.895  0.00  0.00    -0.096 F 
ATOM     11  F3  UNL d   1       2.963   2.331   3.414  0.00  0.00    -0.097 F 
ATOM     12  F4  UNL d   1       1.575   0.209   4.418  0.00  0.00    -0.092 F 
ENDROOT
TORSDOF 0
ENDMDL
