MODEL 1
REMARK minimizedAffinity 23.1603603
REMARK minimizedRMSD -1
REMARK  0 active torsions:
REMARK  status: ('A' for Active; 'I' for Inactive)
ROOT
ATOM      1  C   UNL d   1      -4.597   2.633  -4.299  0.00  0.00     0.124 A 
ATOM      2  C1  UNL d   1      -3.881   1.850  -3.405  0.00  0.00     0.062 A 
ATOM      3  C2  UNL d   1      -3.874   2.163  -2.049  0.00  0.00     0.162 A 
ATOM      4  C3  UNL d   1      -4.587   3.266  -1.578  0.00  0.00    -0.034 A 
ATOM      5  C4  UNL d   1      -5.304   4.050  -2.484  0.00  0.00     0.162 A 
ATOM      6  C5  UNL d   1      -5.307   3.732  -3.838  0.00  0.00     0.062 A 
ATOM      7  F   UNL d   1      -5.999   4.491  -4.701  0.00  0.00    -0.097 F 
ATOM      8  F1  UNL d   1      -6.000   5.117  -2.065  0.00  0.00    -0.096 F 
ATOM      9  I   UNL d   1      -4.579   3.738   0.449  0.00  0.00    -0.060 I 
ATOM     10  F2  UNL d   1      -3.173   1.388  -1.208  0.00  0.00    -0.096 F 
ATOM     11  F3  UNL d   1      -3.192   0.788  -3.848  0.00  0.00    -0.097 F 
ATOM     12  F4  UNL d   1      -4.600   2.330  -5.604  0.00  0.00    -0.092 F 
ENDROOT
TORSDOF 0
ENDMDL
