MODEL 1
REMARK minimizedAffinity 13.7446938
REMARK minimizedRMSD -1
REMARK  0 active torsions:
REMARK  status: ('A' for Active; 'I' for Inactive)
ROOT
ATOM      1  C   UNL d   1       2.524  -5.797  -1.741  0.00  0.00     0.124 A 
ATOM      2  C1  UNL d   1       3.912  -5.779  -1.762  0.00  0.00     0.062 A 
ATOM      3  C2  UNL d   1       4.595  -5.837  -2.974  0.00  0.00     0.162 A 
ATOM      4  C3  UNL d   1       3.891  -5.911  -4.176  0.00  0.00    -0.034 A 
ATOM      5  C4  UNL d   1       2.495  -5.929  -4.147  0.00  0.00     0.162 A 
ATOM      6  C5  UNL d   1       1.817  -5.872  -2.933  0.00  0.00     0.062 A 
ATOM      7  F   UNL d   1       0.477  -5.889  -2.915  0.00  0.00    -0.097 F 
ATOM      8  F1  UNL d   1       1.787  -6.000  -5.283  0.00  0.00    -0.096 F 
ATOM      9  I   UNL d   1       4.907  -5.997  -5.989  0.00  0.00    -0.060 I 
ATOM     10  F2  UNL d   1       5.936  -5.818  -2.964  0.00  0.00    -0.096 F 
ATOM     11  F3  UNL d   1       4.598  -5.708  -0.612  0.00  0.00    -0.097 F 
ATOM     12  F4  UNL d   1       1.870  -5.743  -0.574  0.00  0.00    -0.092 F 
ENDROOT
TORSDOF 0
ENDMDL
