MODEL 1
REMARK minimizedAffinity 9.2808876
REMARK minimizedRMSD -1
REMARK  1 active torsions:
REMARK  status: ('A' for Active; 'I' for Inactive)
REMARK    1  A    between atoms: N_2  and  C1_3 
ROOT
ATOM      1  C1  UNL d   1       3.019  -3.219  -0.763  0.00  0.00     0.143 A 
ATOM      2  C2  UNL d   1       2.733  -1.870  -0.523  0.00  0.00    -0.057 A 
ATOM      3  C3  UNL d   1       1.926  -1.133  -1.397  0.00  0.00     0.033 A 
ATOM      4  C4  UNL d   1       1.413  -1.725  -2.546  0.00  0.00    -0.042 A 
ATOM      5  C5  UNL d   1       1.704  -3.057  -2.818  0.00  0.00     0.033 A 
ATOM      6  C6  UNL d   1       2.506  -3.790  -1.938  0.00  0.00    -0.057 A 
ENDROOT
BRANCH   1   7
ATOM      7  N   UNL d   1       3.896  -3.978   0.016  0.00  0.00    -0.732 N 
ATOM      8  C   UNL d   1       4.968  -4.730  -0.601  0.00  0.00     0.284 C 
ATOM      9  H3  UNL d   1       4.162  -3.504   0.876  0.00  0.00     0.395 HD
ENDBRANCH   1   7
TORSDOF 1
ENDMDL
