MODEL 1
REMARK minimizedAffinity 11.2810993
REMARK minimizedRMSD -1
REMARK  1 active torsions:
REMARK  status: ('A' for Active; 'I' for Inactive)
REMARK    1  A    between atoms: N_2  and  C1_3 
ROOT
ATOM      1  C1  UNL d   1       2.620  -0.442  -1.133  0.00  0.00     0.143 A 
ATOM      2  C2  UNL d   1       1.601  -0.981  -1.926  0.00  0.00    -0.057 A 
ATOM      3  C3  UNL d   1       1.387  -2.363  -1.993  0.00  0.00     0.033 A 
ATOM      4  C4  UNL d   1       2.209  -3.235  -1.287  0.00  0.00    -0.042 A 
ATOM      5  C5  UNL d   1       3.243  -2.723  -0.512  0.00  0.00     0.033 A 
ATOM      6  C6  UNL d   1       3.448  -1.342  -0.444  0.00  0.00    -0.057 A 
ENDROOT
BRANCH   1   7
ATOM      7  N   UNL d   1       2.946   0.916  -1.102  0.00  0.00    -0.732 N 
ATOM      8  C   UNL d   1       4.149   1.370  -0.438  0.00  0.00     0.284 C 
ATOM      9  H3  UNL d   1       2.760   1.380  -1.988  0.00  0.00     0.395 HD
ENDBRANCH   1   7
TORSDOF 1
ENDMDL
