MODEL 1
REMARK minimizedAffinity 14.7084866
REMARK minimizedRMSD -1
REMARK  1 active torsions:
REMARK  status: ('A' for Active; 'I' for Inactive)
REMARK    1  A    between atoms: N_2  and  C1_3 
ROOT
ATOM      1  C1  UNL d   1      -3.873  -0.605   2.607  0.00  0.00     0.143 A 
ATOM      2  C2  UNL d   1      -3.289   0.453   1.902  0.00  0.00    -0.057 A 
ATOM      3  C3  UNL d   1      -2.709   1.538   2.571  0.00  0.00     0.033 A 
ATOM      4  C4  UNL d   1      -2.727   1.597   3.960  0.00  0.00    -0.042 A 
ATOM      5  C5  UNL d   1      -3.324   0.568   4.681  0.00  0.00     0.033 A 
ATOM      6  C6  UNL d   1      -3.896  -0.515   4.007  0.00  0.00    -0.057 A 
ENDROOT
BRANCH   1   7
ATOM      7  N   UNL d   1      -4.553  -1.663   1.999  0.00  0.00    -0.732 N 
ATOM      8  C   UNL d   1      -6.000  -1.694   1.976  0.00  0.00     0.284 C 
ATOM      9  H3  UNL d   1      -4.118  -1.955   1.126  0.00  0.00     0.395 HD
ENDBRANCH   1   7
TORSDOF 1
ENDMDL
