MODEL 1
REMARK minimizedAffinity 9.75484753
REMARK minimizedRMSD -1
REMARK  1 active torsions:
REMARK  status: ('A' for Active; 'I' for Inactive)
REMARK    1  A    between atoms: N_2  and  C1_3 
ROOT
ATOM      1  C1  UNL d   1       4.254  -4.993  -2.565  0.00  0.00     0.143 A 
ATOM      2  C2  UNL d   1       3.532  -5.999  -3.217  0.00  0.00    -0.057 A 
ATOM      3  C3  UNL d   1       2.176  -5.835  -3.527  0.00  0.00     0.033 A 
ATOM      4  C4  UNL d   1       1.510  -4.669  -3.163  0.00  0.00    -0.042 A 
ATOM      5  C5  UNL d   1       2.201  -3.667  -2.493  0.00  0.00     0.033 A 
ATOM      6  C6  UNL d   1       3.556  -3.834  -2.192  0.00  0.00    -0.057 A 
ENDROOT
BRANCH   1   7
ATOM      7  N   UNL d   1       5.578  -5.136  -2.142  0.00  0.00    -0.732 N 
ATOM      8  C   UNL d   1       5.900  -5.176  -0.732  0.00  0.00     0.284 C 
ATOM      9  H3  UNL d   1       6.096  -5.805  -2.706  0.00  0.00     0.395 HD
ENDBRANCH   1   7
TORSDOF 1
ENDMDL
