MODEL 1
REMARK minimizedAffinity 11.0615664
REMARK minimizedRMSD -1
REMARK  1 active torsions:
REMARK  status: ('A' for Active; 'I' for Inactive)
REMARK    1  A    between atoms: N_2  and  C1_3 
ROOT
ATOM      1  C1  UNL d   1      -3.473   2.189   4.828  0.00  0.00     0.143 A 
ATOM      2  C2  UNL d   1      -2.868   1.577   5.931  0.00  0.00    -0.057 A 
ATOM      3  C3  UNL d   1      -1.479   1.409   5.996  0.00  0.00     0.033 A 
ATOM      4  C4  UNL d   1      -0.672   1.824   4.942  0.00  0.00    -0.042 A 
ATOM      5  C5  UNL d   1      -1.255   2.412   3.825  0.00  0.00     0.033 A 
ATOM      6  C6  UNL d   1      -2.641   2.584   3.769  0.00  0.00    -0.057 A 
ENDROOT
BRANCH   1   7
ATOM      7  N   UNL d   1      -4.856   2.296   4.660  0.00  0.00    -0.732 N 
ATOM      8  C   UNL d   1      -5.577   3.433   5.192  0.00  0.00     0.284 C 
ATOM      9  H3  UNL d   1      -5.158   2.010   3.732  0.00  0.00     0.395 HD
ENDBRANCH   1   7
TORSDOF 1
ENDMDL
