MODEL 1
REMARK minimizedAffinity -3.04402876
REMARK minimizedRMSD -1
REMARK  1 active torsions:
REMARK  status: ('A' for Active; 'I' for Inactive)
REMARK    1  A    between atoms: N_2  and  C1_3 
ROOT
ATOM      1  C1  UNL d   1       4.133  -5.061  -3.508  0.00  0.00     0.143 A 
ATOM      2  C2  UNL d   1       3.159  -4.141  -3.913  0.00  0.00    -0.057 A 
ATOM      3  C3  UNL d   1       3.242  -3.495  -5.152  0.00  0.00     0.033 A 
ATOM      4  C4  UNL d   1       4.320  -3.736  -5.999  0.00  0.00    -0.042 A 
ATOM      5  C5  UNL d   1       5.312  -4.627  -5.606  0.00  0.00     0.033 A 
ATOM      6  C6  UNL d   1       5.220  -5.274  -4.370  0.00  0.00    -0.057 A 
ENDROOT
BRANCH   1   7
ATOM      7  N   UNL d   1       4.159  -5.662  -2.247  0.00  0.00    -0.732 N 
ATOM      8  C   UNL d   1       4.588  -4.916  -1.084  0.00  0.00     0.284 C 
ATOM      9  H3  UNL d   1       3.350  -6.257  -2.084  0.00  0.00     0.395 HD
ENDBRANCH   1   7
TORSDOF 1
ENDMDL
