MODEL 1
REMARK minimizedAffinity 0.692927837
REMARK minimizedRMSD -1
REMARK  1 active torsions:
REMARK  status: ('A' for Active; 'I' for Inactive)
REMARK    1  A    between atoms: N_2  and  C1_3 
ROOT
ATOM      1  C1  UNL d   1       3.119  -2.818  -0.907  0.00  0.00     0.143 A 
ATOM      2  C2  UNL d   1       2.529  -3.113  -2.140  0.00  0.00    -0.057 A 
ATOM      3  C3  UNL d   1       2.821  -4.303  -2.818  0.00  0.00     0.033 A 
ATOM      4  C4  UNL d   1       3.735  -5.208  -2.286  0.00  0.00    -0.042 A 
ATOM      5  C5  UNL d   1       4.352  -4.923  -1.074  0.00  0.00     0.033 A 
ATOM      6  C6  UNL d   1       4.051  -3.736  -0.398  0.00  0.00    -0.057 A 
ENDROOT
BRANCH   1   7
ATOM      7  N   UNL d   1       2.945  -1.607  -0.231  0.00  0.00    -0.732 N 
ATOM      8  C   UNL d   1       2.979  -0.351  -0.949  0.00  0.00     0.284 C 
ATOM      9  H3  UNL d   1       2.218  -1.660   0.479  0.00  0.00     0.395 HD
ENDBRANCH   1   7
TORSDOF 1
ENDMDL
