MODEL 1
REMARK minimizedAffinity 7.22004509
REMARK minimizedRMSD -1
REMARK  1 active torsions:
REMARK  status: ('A' for Active; 'I' for Inactive)
REMARK    1  A    between atoms: N_2  and  C1_3 
ROOT
ATOM      1  C1  UNL d   1      -0.689   0.906   3.913  0.00  0.00     0.143 A 
ATOM      2  C2  UNL d   1      -0.760  -0.132   2.979  0.00  0.00    -0.057 A 
ATOM      3  C3  UNL d   1      -1.916  -0.348   2.219  0.00  0.00     0.033 A 
ATOM      4  C4  UNL d   1      -3.036   0.457   2.402  0.00  0.00    -0.042 A 
ATOM      5  C5  UNL d   1      -2.997   1.479   3.343  0.00  0.00     0.033 A 
ATOM      6  C6  UNL d   1      -1.837   1.694   4.094  0.00  0.00    -0.057 A 
ENDROOT
BRANCH   1   7
ATOM      7  N   UNL d   1       0.397   1.110   4.769  0.00  0.00    -0.732 N 
ATOM      8  C   UNL d   1       0.236   1.855   5.999  0.00  0.00     0.284 C 
ATOM      9  H3  UNL d   1       0.982   0.283   4.857  0.00  0.00     0.395 HD
ENDBRANCH   1   7
TORSDOF 1
ENDMDL
