MODEL 1
REMARK minimizedAffinity 6.24164867
REMARK minimizedRMSD -1
REMARK  1 active torsions:
REMARK  status: ('A' for Active; 'I' for Inactive)
REMARK    1  A    between atoms: N_2  and  C1_3 
ROOT
ATOM      1  C1  UNL d   1       4.708  -4.339  -3.979  0.00  0.00     0.143 A 
ATOM      2  C2  UNL d   1       3.646  -3.666  -4.594  0.00  0.00    -0.057 A 
ATOM      3  C3  UNL d   1       2.412  -3.517  -3.951  0.00  0.00     0.033 A 
ATOM      4  C4  UNL d   1       2.207  -4.064  -2.689  0.00  0.00    -0.042 A 
ATOM      5  C5  UNL d   1       3.241  -4.758  -2.069  0.00  0.00     0.033 A 
ATOM      6  C6  UNL d   1       4.473  -4.898  -2.713  0.00  0.00    -0.057 A 
ENDROOT
BRANCH   1   7
ATOM      7  N   UNL d   1       5.927  -4.606  -4.607  0.00  0.00    -0.732 N 
ATOM      8  C   UNL d   1       6.000  -5.541  -5.709  0.00  0.00     0.284 C 
ATOM      9  H3  UNL d   1       6.490  -3.768  -4.735  0.00  0.00     0.395 HD
ENDBRANCH   1   7
TORSDOF 1
ENDMDL
