MODEL 1
REMARK minimizedAffinity 10.6900206
REMARK minimizedRMSD -1
REMARK  1 active torsions:
REMARK  status: ('A' for Active; 'I' for Inactive)
REMARK    1  A    between atoms: N_2  and  C1_3 
ROOT
ATOM      1  C1  UNL d   1      -3.398  -0.846   4.323  0.00  0.00     0.143 A 
ATOM      2  C2  UNL d   1      -3.520  -0.549   2.961  0.00  0.00    -0.057 A 
ATOM      3  C3  UNL d   1      -3.379   0.761   2.489  0.00  0.00     0.033 A 
ATOM      4  C4  UNL d   1      -3.142   1.806   3.376  0.00  0.00    -0.042 A 
ATOM      5  C5  UNL d   1      -3.042   1.537   4.737  0.00  0.00     0.033 A 
ATOM      6  C6  UNL d   1      -3.176   0.226   5.202  0.00  0.00    -0.057 A 
ENDROOT
BRANCH   1   7
ATOM      7  N   UNL d   1      -3.625  -2.113   4.866  0.00  0.00    -0.732 N 
ATOM      8  C   UNL d   1      -3.157  -3.302   4.186  0.00  0.00     0.284 C 
ATOM      9  H3  UNL d   1      -3.493  -2.133   5.875  0.00  0.00     0.395 HD
ENDBRANCH   1   7
TORSDOF 1
ENDMDL
