MODEL 1
REMARK minimizedAffinity -2.58227205
REMARK minimizedRMSD -1
REMARK  1 active torsions:
REMARK  status: ('A' for Active; 'I' for Inactive)
REMARK    1  A    between atoms: C1_2  and  C2_3 
ROOT
ATOM      1  C2  UNL d   1       0.214   0.435   0.130  0.00  0.00    -0.081 A 
ATOM      2  C3  UNL d   1       0.658  -0.716  -0.532  0.00  0.00     0.006 A 
ATOM      3  C4  UNL d   1      -0.061  -1.910  -0.437  0.00  0.00     0.002 A 
ATOM      4  C5  UNL d   1      -1.240  -1.971   0.313  0.00  0.00    -0.080 A 
ATOM      5  C6  UNL d   1      -2.038  -3.238   0.399  0.00  0.00     0.076 C 
ATOM      6  C7  UNL d   1      -1.675  -0.826   0.989  0.00  0.00     0.002 A 
ATOM      7  C8  UNL d   1      -0.956   0.368   0.895  0.00  0.00     0.006 A 
ENDROOT
BRANCH   1   8
ATOM      8  C1  UNL d   1       0.952   1.740  -0.023  0.00  0.00     0.054 C 
ATOM      9  C   UNL d   1       1.670   2.123   1.263  0.00  0.00     0.018 C 
ENDBRANCH   1   8
TORSDOF 1
ENDMDL
