MODEL 1
REMARK minimizedAffinity -1.62915134
REMARK minimizedRMSD -1
REMARK  1 active torsions:
REMARK  status: ('A' for Active; 'I' for Inactive)
REMARK    1  A    between atoms: C1_2  and  C2_3 
ROOT
ATOM      1  C2  UNL d   1       0.142  -2.102  -0.377  0.00  0.00    -0.081 A 
ATOM      2  C3  UNL d   1      -0.709  -1.190   0.259  0.00  0.00     0.006 A 
ATOM      3  C4  UNL d   1      -2.037  -1.530   0.529  0.00  0.00     0.002 A 
ATOM      4  C5  UNL d   1      -2.533  -2.790   0.175  0.00  0.00    -0.080 A 
ATOM      5  C6  UNL d   1      -3.948  -3.179   0.486  0.00  0.00     0.076 C 
ATOM      6  C7  UNL d   1      -1.687  -3.694  -0.476  0.00  0.00     0.002 A 
ATOM      7  C8  UNL d   1      -0.360  -3.354  -0.747  0.00  0.00     0.006 A 
ENDROOT
BRANCH   1   8
ATOM      8  C1  UNL d   1       1.592  -1.762  -0.611  0.00  0.00     0.054 C 
ATOM      9  C   UNL d   1       2.420  -1.972   0.649  0.00  0.00     0.018 C 
ENDBRANCH   1   8
TORSDOF 1
ENDMDL
