MODEL 1
REMARK minimizedAffinity -3.5118041
REMARK minimizedRMSD -1
REMARK  1 active torsions:
REMARK  status: ('A' for Active; 'I' for Inactive)
REMARK    1  A    between atoms: C1_2  and  C2_3 
ROOT
ATOM      1  C2  UNL d   1      -0.043   1.335   0.362  0.00  0.00    -0.081 A 
ATOM      2  C3  UNL d   1      -0.517   0.746   1.540  0.00  0.00     0.006 A 
ATOM      3  C4  UNL d   1      -0.575  -0.644   1.663  0.00  0.00     0.002 A 
ATOM      4  C5  UNL d   1      -0.153  -1.468   0.614  0.00  0.00    -0.080 A 
ATOM      5  C6  UNL d   1      -0.181  -2.962   0.745  0.00  0.00     0.076 C 
ATOM      6  C7  UNL d   1       0.305  -0.879  -0.570  0.00  0.00     0.002 A 
ATOM      7  C8  UNL d   1       0.362   0.511  -0.693  0.00  0.00     0.006 A 
ENDROOT
BRANCH   1   8
ATOM      8  C1  UNL d   1       0.082   2.833   0.250  0.00  0.00     0.054 C 
ATOM      9  C   UNL d   1       1.422   3.319   0.785  0.00  0.00     0.018 C 
ENDBRANCH   1   8
TORSDOF 1
ENDMDL
