MODEL 1
REMARK minimizedAffinity -4.87109566
REMARK minimizedRMSD -1
REMARK  1 active torsions:
REMARK  status: ('A' for Active; 'I' for Inactive)
REMARK    1  A    between atoms: C1_2  and  C2_3 
ROOT
ATOM      1  C2  UNL d   1       0.310   0.746   0.345  0.00  0.00    -0.081 A 
ATOM      2  C3  UNL d   1      -0.370   0.067   1.363  0.00  0.00     0.006 A 
ATOM      3  C4  UNL d   1      -0.471  -1.326   1.340  0.00  0.00     0.002 A 
ATOM      4  C5  UNL d   1       0.112  -2.063   0.303  0.00  0.00    -0.080 A 
ATOM      5  C6  UNL d   1       0.037  -3.561   0.282  0.00  0.00     0.076 C 
ATOM      6  C7  UNL d   1       0.776  -1.383  -0.723  0.00  0.00     0.002 A 
ATOM      7  C8  UNL d   1       0.877   0.010  -0.700  0.00  0.00     0.006 A 
ENDROOT
BRANCH   1   8
ATOM      8  C1  UNL d   1       0.476   2.244   0.402  0.00  0.00     0.054 C 
ATOM      9  C   UNL d   1       1.901   2.628   0.773  0.00  0.00     0.018 C 
ENDBRANCH   1   8
TORSDOF 1
ENDMDL
