MODEL 1
REMARK minimizedAffinity -4.10423803
REMARK minimizedRMSD -1
REMARK  1 active torsions:
REMARK  status: ('A' for Active; 'I' for Inactive)
REMARK    1  A    between atoms: C1_2  and  C2_3 
ROOT
ATOM      1  C2  UNL d   1      -1.027  -0.930   0.508  0.00  0.00    -0.081 A 
ATOM      2  C3  UNL d   1       0.020  -1.128  -0.401  0.00  0.00     0.006 A 
ATOM      3  C4  UNL d   1       0.420  -2.420  -0.749  0.00  0.00     0.002 A 
ATOM      4  C5  UNL d   1      -0.224  -3.535  -0.202  0.00  0.00    -0.080 A 
ATOM      5  C6  UNL d   1       0.176  -4.927  -0.591  0.00  0.00     0.076 C 
ATOM      6  C7  UNL d   1      -1.258  -3.337   0.719  0.00  0.00     0.002 A 
ATOM      7  C8  UNL d   1      -1.659  -2.045   1.068  0.00  0.00     0.006 A 
ENDROOT
BRANCH   1   8
ATOM      8  C1  UNL d   1      -1.504   0.462   0.836  0.00  0.00     0.054 C 
ATOM      9  C   UNL d   1      -2.803   0.429   1.629  0.00  0.00     0.018 C 
ENDBRANCH   1   8
TORSDOF 1
ENDMDL
