MODEL 1
REMARK minimizedAffinity -4.57987165
REMARK minimizedRMSD -1
REMARK  1 active torsions:
REMARK  status: ('A' for Active; 'I' for Inactive)
REMARK    1  A    between atoms: C1_2  and  C2_3 
ROOT
ATOM      1  C2  UNL d   1      -0.048   0.522   0.128  0.00  0.00    -0.081 A 
ATOM      2  C3  UNL d   1       0.776  -0.044  -0.853  0.00  0.00     0.006 A 
ATOM      3  C4  UNL d   1       0.832  -1.430  -1.016  0.00  0.00     0.002 A 
ATOM      4  C5  UNL d   1       0.061  -2.272  -0.207  0.00  0.00    -0.080 A 
ATOM      5  C6  UNL d   1       0.089  -3.760  -0.392  0.00  0.00     0.076 C 
ATOM      6  C7  UNL d   1      -0.749  -1.707   0.784  0.00  0.00     0.002 A 
ATOM      7  C8  UNL d   1      -0.805  -0.321   0.948  0.00  0.00     0.006 A 
ENDROOT
BRANCH   1   8
ATOM      8  C1  UNL d   1      -0.160   2.020   0.263  0.00  0.00     0.054 C 
ATOM      9  C   UNL d   1       1.210   2.681   0.241  0.00  0.00     0.018 C 
ENDBRANCH   1   8
TORSDOF 1
ENDMDL
