MODEL 1
REMARK minimizedAffinity -3.89643145
REMARK minimizedRMSD -1
REMARK  1 active torsions:
REMARK  status: ('A' for Active; 'I' for Inactive)
REMARK    1  A    between atoms: C1_2  and  C2_3 
ROOT
ATOM      1  C2  UNL d   1      -0.194   0.867  -0.239  0.00  0.00    -0.081 A 
ATOM      2  C3  UNL d   1       0.558  -0.088  -0.935  0.00  0.00     0.006 A 
ATOM      3  C4  UNL d   1       0.430  -1.446  -0.633  0.00  0.00     0.002 A 
ATOM      4  C5  UNL d   1      -0.456  -1.872   0.362  0.00  0.00    -0.080 A 
ATOM      5  C6  UNL d   1      -0.626  -3.329   0.674  0.00  0.00     0.076 C 
ATOM      6  C7  UNL d   1      -1.194  -0.916   1.069  0.00  0.00     0.002 A 
ATOM      7  C8  UNL d   1      -1.066   0.442   0.768  0.00  0.00     0.006 A 
ENDROOT
BRANCH   1   8
ATOM      8  C1  UNL d   1      -0.106   2.327  -0.606  0.00  0.00     0.054 C 
ATOM      9  C   UNL d   1       0.966   3.038   0.207  0.00  0.00     0.018 C 
ENDBRANCH   1   8
TORSDOF 1
ENDMDL
