MODEL 1
REMARK minimizedAffinity -4.09523344
REMARK minimizedRMSD -1
REMARK  1 active torsions:
REMARK  status: ('A' for Active; 'I' for Inactive)
REMARK    1  A    between atoms: C1_2  and  C2_3 
ROOT
ATOM      1  C2  UNL d   1      -0.200   0.025   0.228  0.00  0.00    -0.081 A 
ATOM      2  C3  UNL d   1       0.361  -0.650  -0.863  0.00  0.00     0.006 A 
ATOM      3  C4  UNL d   1       0.238  -2.037  -0.976  0.00  0.00     0.002 A 
ATOM      4  C5  UNL d   1      -0.452  -2.770  -0.006  0.00  0.00    -0.080 A 
ATOM      5  C6  UNL d   1      -0.617  -4.256  -0.131  0.00  0.00     0.076 C 
ATOM      6  C7  UNL d   1      -0.997  -2.098   1.093  0.00  0.00     0.002 A 
ATOM      7  C8  UNL d   1      -0.875  -0.711   1.207  0.00  0.00     0.006 A 
ENDROOT
BRANCH   1   8
ATOM      8  C1  UNL d   1      -0.126   1.528   0.319  0.00  0.00     0.054 C 
ATOM      9  C   UNL d   1       1.317   2.012   0.307  0.00  0.00     0.018 C 
ENDBRANCH   1   8
TORSDOF 1
ENDMDL
