MODEL 1
REMARK minimizedAffinity -4.09000397
REMARK minimizedRMSD -1
REMARK  1 active torsions:
REMARK  status: ('A' for Active; 'I' for Inactive)
REMARK    1  A    between atoms: C1_2  and  C2_3 
ROOT
ATOM      1  C2  UNL d   1      -0.002   0.921   0.052  0.00  0.00    -0.081 A 
ATOM      2  C3  UNL d   1      -0.831   0.280   0.981  0.00  0.00     0.006 A 
ATOM      3  C4  UNL d   1      -0.858  -1.114   1.062  0.00  0.00     0.002 A 
ATOM      4  C5  UNL d   1      -0.052  -1.890   0.223  0.00  0.00    -0.080 A 
ATOM      5  C6  UNL d   1      -0.049  -3.387   0.321  0.00  0.00     0.076 C 
ATOM      6  C7  UNL d   1       0.764  -1.251  -0.716  0.00  0.00     0.002 A 
ATOM      7  C8  UNL d   1       0.791   0.143  -0.799  0.00  0.00     0.006 A 
ENDROOT
BRANCH   1   8
ATOM      8  C1  UNL d   1       0.078   2.425   0.006  0.00  0.00     0.054 C 
ATOM      9  C   UNL d   1       1.296   2.938   0.760  0.00  0.00     0.018 C 
ENDBRANCH   1   8
TORSDOF 1
ENDMDL
