MODEL 1
REMARK minimizedAffinity -3.5090673
REMARK minimizedRMSD -1
REMARK  1 active torsions:
REMARK  status: ('A' for Active; 'I' for Inactive)
REMARK    1  A    between atoms: C1_2  and  C2_3 
ROOT
ATOM      1  C2  UNL d   1      -0.106   0.373   0.121  0.00  0.00    -0.081 A 
ATOM      2  C3  UNL d   1      -0.910  -0.237   1.092  0.00  0.00     0.006 A 
ATOM      3  C4  UNL d   1      -0.899  -1.625   1.250  0.00  0.00     0.002 A 
ATOM      4  C5  UNL d   1      -0.079  -2.424   0.446  0.00  0.00    -0.080 A 
ATOM      5  C6  UNL d   1      -0.035  -3.913   0.625  0.00  0.00     0.076 C 
ATOM      6  C7  UNL d   1       0.711  -1.816  -0.536  0.00  0.00     0.002 A 
ATOM      7  C8  UNL d   1       0.699  -0.429  -0.695  0.00  0.00     0.006 A 
ENDROOT
BRANCH   1   8
ATOM      8  C1  UNL d   1      -0.068   1.875  -0.008  0.00  0.00     0.054 C 
ATOM      9  C   UNL d   1       1.260   2.438   0.478  0.00  0.00     0.018 C 
ENDBRANCH   1   8
TORSDOF 1
ENDMDL
