MODEL 1
REMARK minimizedAffinity -3.86334348
REMARK minimizedRMSD -1
REMARK  0 active torsions:
REMARK  status: ('A' for Active; 'I' for Inactive)
ROOT
ATOM      1  C   UNL d   1      -1.973   1.598   1.712  0.00  0.00     0.078 C 
ATOM      2  C1  UNL d   1      -0.961   0.701   1.064  0.00  0.00    -0.077 A 
ATOM      3  C2  UNL d   1      -0.373  -0.354   1.773  0.00  0.00    -0.001 A 
ATOM      4  C3  UNL d   1       0.575  -1.175   1.159  0.00  0.00     0.003 A 
ATOM      5  C4  UNL d   1       0.944  -0.949  -0.165  0.00  0.00    -0.005 A 
ATOM      6  C5  UNL d   1       0.366   0.099  -0.878  0.00  0.00     0.003 A 
ATOM      7  C6  UNL d   1      -0.582   0.921  -0.267  0.00  0.00    -0.001 A 
ENDROOT
TORSDOF 0
ENDMDL
