MODEL 1
REMARK minimizedAffinity -4.2915473
REMARK minimizedRMSD -1
REMARK  0 active torsions:
REMARK  status: ('A' for Active; 'I' for Inactive)
ROOT
ATOM      1  C   UNL d   1      -1.933   1.575   1.114  0.00  0.00     0.078 C 
ATOM      2  C1  UNL d   1      -0.717   1.132   0.357  0.00  0.00    -0.077 A 
ATOM      3  C2  UNL d   1      -0.078  -0.076   0.662  0.00  0.00    -0.001 A 
ATOM      4  C3  UNL d   1       1.059  -0.471  -0.045  0.00  0.00     0.003 A 
ATOM      5  C4  UNL d   1       1.568   0.337  -1.060  0.00  0.00    -0.005 A 
ATOM      6  C5  UNL d   1       0.940   1.541  -1.370  0.00  0.00     0.003 A 
ATOM      7  C6  UNL d   1      -0.198   1.938  -0.664  0.00  0.00    -0.001 A 
ENDROOT
TORSDOF 0
ENDMDL
