MODEL 1
REMARK minimizedAffinity -5.00187445
REMARK minimizedRMSD -1
REMARK  0 active torsions:
REMARK  status: ('A' for Active; 'I' for Inactive)
ROOT
ATOM      1  C   UNL d   1      -2.153   2.198   1.672  0.00  0.00     0.078 C 
ATOM      2  C1  UNL d   1      -1.103   1.530   0.834  0.00  0.00    -0.077 A 
ATOM      3  C2  UNL d   1      -0.579   2.159  -0.301  0.00  0.00    -0.001 A 
ATOM      4  C3  UNL d   1       0.390   1.522  -1.078  0.00  0.00     0.003 A 
ATOM      5  C4  UNL d   1       0.842   0.251  -0.727  0.00  0.00    -0.005 A 
ATOM      6  C5  UNL d   1       0.325  -0.384   0.400  0.00  0.00     0.003 A 
ATOM      7  C6  UNL d   1      -0.644   0.252   1.177  0.00  0.00    -0.001 A 
ENDROOT
TORSDOF 0
ENDMDL
