MODEL 1
REMARK minimizedAffinity -5.41693306
REMARK minimizedRMSD -1
REMARK  0 active torsions:
REMARK  status: ('A' for Active; 'I' for Inactive)
ROOT
ATOM      1  C   UNL d   1      -0.270  -0.822   2.186  0.00  0.00     0.078 C 
ATOM      2  C1  UNL d   1      -0.364   0.308   1.205  0.00  0.00    -0.077 A 
ATOM      3  C2  UNL d   1       0.503   0.384   0.107  0.00  0.00    -0.001 A 
ATOM      4  C3  UNL d   1       0.410   1.447  -0.793  0.00  0.00     0.003 A 
ATOM      5  C4  UNL d   1      -0.546   2.443  -0.604  0.00  0.00    -0.005 A 
ATOM      6  C5  UNL d   1      -1.411   2.376   0.487  0.00  0.00     0.003 A 
ATOM      7  C6  UNL d   1      -1.320   1.314   1.387  0.00  0.00    -0.001 A 
ENDROOT
TORSDOF 0
ENDMDL
