MODEL 1
REMARK minimizedAffinity -3.02047086
REMARK minimizedRMSD -1
REMARK  0 active torsions:
REMARK  status: ('A' for Active; 'I' for Inactive)
ROOT
ATOM      1  C   UNL d   1       0.725  -1.199  -0.940  0.00  0.00     0.078 C 
ATOM      2  C1  UNL d   1      -0.069  -0.223  -0.124  0.00  0.00    -0.077 A 
ATOM      3  C2  UNL d   1      -0.416   1.033  -0.638  0.00  0.00    -0.001 A 
ATOM      4  C3  UNL d   1      -1.147   1.935   0.136  0.00  0.00     0.003 A 
ATOM      5  C4  UNL d   1      -1.535   1.593   1.430  0.00  0.00    -0.005 A 
ATOM      6  C5  UNL d   1      -1.192   0.347   1.951  0.00  0.00     0.003 A 
ATOM      7  C6  UNL d   1      -0.462  -0.557   1.178  0.00  0.00    -0.001 A 
ENDROOT
TORSDOF 0
ENDMDL
