MODEL 1
REMARK minimizedAffinity -3.97058296
REMARK minimizedRMSD -1
REMARK  0 active torsions:
REMARK  status: ('A' for Active; 'I' for Inactive)
ROOT
ATOM      1  C   UNL d   1       0.802  -1.225  -0.985  0.00  0.00     0.078 C 
ATOM      2  C1  UNL d   1       0.076  -0.343  -0.014  0.00  0.00    -0.077 A 
ATOM      3  C2  UNL d   1       0.135  -0.586   1.364  0.00  0.00    -0.001 A 
ATOM      4  C3  UNL d   1      -0.554   0.238   2.256  0.00  0.00     0.003 A 
ATOM      5  C4  UNL d   1      -1.308   1.308   1.780  0.00  0.00    -0.005 A 
ATOM      6  C5  UNL d   1      -1.375   1.556   0.410  0.00  0.00     0.003 A 
ATOM      7  C6  UNL d   1      -0.687   0.733  -0.483  0.00  0.00    -0.001 A 
ENDROOT
TORSDOF 0
ENDMDL
