MODEL 1
REMARK minimizedAffinity -1.75977647
REMARK minimizedRMSD -1
REMARK  0 active torsions:
REMARK  status: ('A' for Active; 'I' for Inactive)
ROOT
ATOM      1  C   UNL d   1       0.722  -0.909   0.728  0.00  0.00     0.078 C 
ATOM      2  C1  UNL d   1       0.043   0.226   0.021  0.00  0.00    -0.077 A 
ATOM      3  C2  UNL d   1       0.704   0.950  -0.979  0.00  0.00    -0.001 A 
ATOM      4  C3  UNL d   1       0.064   2.011  -1.622  0.00  0.00     0.003 A 
ATOM      5  C4  UNL d   1      -1.240   2.357  -1.272  0.00  0.00    -0.005 A 
ATOM      6  C5  UNL d   1      -1.904   1.644  -0.276  0.00  0.00     0.003 A 
ATOM      7  C6  UNL d   1      -1.266   0.583   0.368  0.00  0.00    -0.001 A 
ENDROOT
TORSDOF 0
ENDMDL
