MODEL 1
REMARK minimizedAffinity -4.37206268
REMARK minimizedRMSD -1
REMARK  0 active torsions:
REMARK  status: ('A' for Active; 'I' for Inactive)
ROOT
ATOM      1  C   UNL d   1      -1.691   2.169   0.266  0.00  0.00     0.078 C 
ATOM      2  C1  UNL d   1      -0.609   1.132   0.212  0.00  0.00    -0.077 A 
ATOM      3  C2  UNL d   1      -0.493   0.158   1.210  0.00  0.00    -0.001 A 
ATOM      4  C3  UNL d   1       0.524  -0.795   1.152  0.00  0.00     0.003 A 
ATOM      5  C4  UNL d   1       1.435  -0.783   0.098  0.00  0.00    -0.005 A 
ATOM      6  C5  UNL d   1       1.330   0.185  -0.899  0.00  0.00     0.003 A 
ATOM      7  C6  UNL d   1       0.313   1.139  -0.843  0.00  0.00    -0.001 A 
ENDROOT
TORSDOF 0
ENDMDL
