MODEL 1
REMARK minimizedAffinity -3.20689535
REMARK minimizedRMSD -1
REMARK  0 active torsions:
REMARK  status: ('A' for Active; 'I' for Inactive)
ROOT
ATOM      1  C   UNL d   1      -2.055   1.337  -0.467  0.00  0.00     0.078 C 
ATOM      2  C1  UNL d   1      -0.869   0.421  -0.404  0.00  0.00    -0.077 A 
ATOM      3  C2  UNL d   1      -0.415  -0.089   0.818  0.00  0.00    -0.001 A 
ATOM      4  C3  UNL d   1       0.696  -0.933   0.862  0.00  0.00     0.003 A 
ATOM      5  C4  UNL d   1       1.364  -1.272  -0.313  0.00  0.00    -0.005 A 
ATOM      6  C5  UNL d   1       0.921  -0.767  -1.534  0.00  0.00     0.003 A 
ATOM      7  C6  UNL d   1      -0.190   0.077  -1.580  0.00  0.00    -0.001 A 
ENDROOT
TORSDOF 0
ENDMDL
