MODEL 1
REMARK minimizedAffinity -5.30738258
REMARK minimizedRMSD -1
REMARK  0 active torsions:
REMARK  status: ('A' for Active; 'I' for Inactive)
ROOT
ATOM      1  C   UNL d   1       0.322  -0.559  -0.447  0.00  0.00     0.078 C 
ATOM      2  C1  UNL d   1      -0.385   0.639   0.113  0.00  0.00    -0.077 A 
ATOM      3  C2  UNL d   1      -0.434   1.845  -0.597  0.00  0.00    -0.001 A 
ATOM      4  C3  UNL d   1      -1.087   2.955  -0.059  0.00  0.00     0.003 A 
ATOM      5  C4  UNL d   1      -1.695   2.871   1.192  0.00  0.00    -0.005 A 
ATOM      6  C5  UNL d   1      -1.649   1.676   1.907  0.00  0.00     0.003 A 
ATOM      7  C6  UNL d   1      -0.997   0.565   1.371  0.00  0.00    -0.001 A 
ENDROOT
TORSDOF 0
ENDMDL
