MODEL 1
REMARK minimizedAffinity -4.7577796
REMARK minimizedRMSD -1
REMARK  0 active torsions:
REMARK  status: ('A' for Active; 'I' for Inactive)
ROOT
ATOM      1  C   UNL d   1       0.483  -1.176  -0.610  0.00  0.00     0.078 C 
ATOM      2  C1  UNL d   1      -0.079  -0.183   0.363  0.00  0.00    -0.077 A 
ATOM      3  C2  UNL d   1       0.051  -0.372   1.744  0.00  0.00    -0.001 A 
ATOM      4  C3  UNL d   1      -0.486   0.556   2.638  0.00  0.00     0.003 A 
ATOM      5  C4  UNL d   1      -1.157   1.679   2.160  0.00  0.00    -0.005 A 
ATOM      6  C5  UNL d   1      -1.294   1.876   0.787  0.00  0.00     0.003 A 
ATOM      7  C6  UNL d   1      -0.758   0.948  -0.108  0.00  0.00    -0.001 A 
ENDROOT
TORSDOF 0
ENDMDL
