MODEL 1
REMARK minimizedAffinity -3.69029737
REMARK minimizedRMSD -1
REMARK  0 active torsions:
REMARK  status: ('A' for Active; 'I' for Inactive)
ROOT
ATOM      1  C   UNL d   1      -2.042   1.735   0.813  0.00  0.00     0.078 C 
ATOM      2  C1  UNL d   1      -0.831   0.887   0.562  0.00  0.00    -0.077 A 
ATOM      3  C2  UNL d   1      -0.063   0.395   1.624  0.00  0.00    -0.001 A 
ATOM      4  C3  UNL d   1       1.067  -0.385   1.375  0.00  0.00     0.003 A 
ATOM      5  C4  UNL d   1       1.440  -0.679   0.064  0.00  0.00    -0.005 A 
ATOM      6  C5  UNL d   1       0.683  -0.192  -0.999  0.00  0.00     0.003 A 
ATOM      7  C6  UNL d   1      -0.448   0.589  -0.752  0.00  0.00    -0.001 A 
ENDROOT
TORSDOF 0
ENDMDL
