MODEL 1
REMARK minimizedAffinity -4.37602377
REMARK minimizedRMSD -1
REMARK  0 active torsions:
REMARK  status: ('A' for Active; 'I' for Inactive)
ROOT
ATOM      1  C   UNL d   1      -2.134   1.576   0.354  0.00  0.00     0.078 C 
ATOM      2  C1  UNL d   1      -0.752   1.264  -0.139  0.00  0.00    -0.077 A 
ATOM      3  C2  UNL d   1      -0.056   2.166  -0.953  0.00  0.00    -0.001 A 
ATOM      4  C3  UNL d   1       1.226   1.858  -1.412  0.00  0.00     0.003 A 
ATOM      5  C4  UNL d   1       1.822   0.648  -1.063  0.00  0.00    -0.005 A 
ATOM      6  C5  UNL d   1       1.136  -0.256  -0.255  0.00  0.00     0.003 A 
ATOM      7  C6  UNL d   1      -0.146   0.050   0.205  0.00  0.00    -0.001 A 
ENDROOT
TORSDOF 0
ENDMDL
