MODEL 1
REMARK minimizedAffinity -4.97697258
REMARK minimizedRMSD -1
REMARK  0 active torsions:
REMARK  status: ('A' for Active; 'I' for Inactive)
ROOT
ATOM      1  C   UNL d   1      -2.206   2.223   0.825  0.00  0.00     0.078 C 
ATOM      2  C1  UNL d   1      -0.983   1.505   0.340  0.00  0.00    -0.077 A 
ATOM      3  C2  UNL d   1      -0.201   2.031  -0.696  0.00  0.00    -0.001 A 
ATOM      4  C3  UNL d   1       0.930   1.347  -1.144  0.00  0.00     0.003 A 
ATOM      5  C4  UNL d   1       1.289   0.132  -0.563  0.00  0.00    -0.005 A 
ATOM      6  C5  UNL d   1       0.517  -0.400   0.467  0.00  0.00     0.003 A 
ATOM      7  C6  UNL d   1      -0.615   0.283   0.917  0.00  0.00    -0.001 A 
ENDROOT
TORSDOF 0
ENDMDL
