MODEL 1
REMARK minimizedAffinity -4.01845312
REMARK minimizedRMSD -1
REMARK  0 active torsions:
REMARK  status: ('A' for Active; 'I' for Inactive)
ROOT
ATOM      1  C   UNL d   1       1.140  -0.365  -0.739  0.00  0.00     0.078 C 
ATOM      2  C1  UNL d   1       0.218   0.321   0.224  0.00  0.00    -0.077 A 
ATOM      3  C2  UNL d   1       0.103  -0.117   1.549  0.00  0.00    -0.001 A 
ATOM      4  C3  UNL d   1      -0.766   0.524   2.432  0.00  0.00     0.003 A 
ATOM      5  C4  UNL d   1      -1.529   1.607   2.000  0.00  0.00    -0.005 A 
ATOM      6  C5  UNL d   1      -1.424   2.049   0.683  0.00  0.00     0.003 A 
ATOM      7  C6  UNL d   1      -0.555   1.409  -0.202  0.00  0.00    -0.001 A 
ENDROOT
TORSDOF 0
ENDMDL
