MODEL 1
REMARK minimizedAffinity -2.81411123
REMARK minimizedRMSD -1
REMARK  0 active torsions:
REMARK  status: ('A' for Active; 'I' for Inactive)
ROOT
ATOM      1  C   UNL d   1       1.035  -1.630  -1.212  0.00  0.00     0.078 C 
ATOM      2  C1  UNL d   1       0.267  -0.693  -0.328  0.00  0.00    -0.077 A 
ATOM      3  C2  UNL d   1      -0.413   0.407  -0.862  0.00  0.00    -0.001 A 
ATOM      4  C3  UNL d   1      -1.116   1.277  -0.026  0.00  0.00     0.003 A 
ATOM      5  C4  UNL d   1      -1.143   1.056   1.349  0.00  0.00    -0.005 A 
ATOM      6  C5  UNL d   1      -0.466  -0.035   1.891  0.00  0.00     0.003 A 
ATOM      7  C6  UNL d   1       0.236  -0.906   1.056  0.00  0.00    -0.001 A 
ENDROOT
TORSDOF 0
ENDMDL
