MODEL 1
REMARK minimizedAffinity -5.58190012
REMARK minimizedRMSD -1
REMARK  0 active torsions:
REMARK  status: ('A' for Active; 'I' for Inactive)
ROOT
ATOM      1  C   UNL d   1       1.124  -0.535  -0.608  0.00  0.00     0.078 C 
ATOM      2  C1  UNL d   1       0.003   0.243   0.013  0.00  0.00    -0.077 A 
ATOM      3  C2  UNL d   1      -0.382   1.488  -0.499  0.00  0.00    -0.001 A 
ATOM      4  C3  UNL d   1      -1.421   2.206   0.095  0.00  0.00     0.003 A 
ATOM      5  C4  UNL d   1      -2.084   1.687   1.206  0.00  0.00    -0.005 A 
ATOM      6  C5  UNL d   1      -1.707   0.450   1.724  0.00  0.00     0.003 A 
ATOM      7  C6  UNL d   1      -0.668  -0.269   1.131  0.00  0.00    -0.001 A 
ENDROOT
TORSDOF 0
ENDMDL
