MODEL 1
REMARK minimizedAffinity 5.68056774
REMARK minimizedRMSD -1
REMARK  2 active torsions:
REMARK  status: ('A' for Active; 'I' for Inactive)
REMARK    1  A    between atoms: C2'_3  and  C1'_4 
REMARK    2  A    between atoms: C1'_4  and  C1_5 
ROOT
ATOM      1  C1  I4B d   1       5.719  -3.522   3.679  0.00  0.00    -0.075 A 
ATOM      2  C2  I4B d   1       5.889  -4.861   3.427  0.00  0.00     0.003 A 
ATOM      3  C3  I4B d   1       5.719  -5.809   4.464  0.00  0.00     0.002 A 
ATOM      4  C4  I4B d   1       5.432  -5.374   5.742  0.00  0.00    -0.004 A 
ATOM      5  C5  I4B d   1       5.238  -4.018   5.991  0.00  0.00     0.002 A 
ATOM      6  C6  I4B d   1       5.370  -3.087   4.951  0.00  0.00     0.003 A 
ENDROOT
BRANCH   1   7
ATOM      7  C1' I4B d   1       5.939  -2.546   2.567  0.00  0.00     0.060 C 
BRANCH   7   8
ATOM      8  C2' I4B d   1       5.253  -3.086   1.329  0.00  0.00    -0.013 C 
ATOM      9  C4' I4B d   1       3.790  -2.730   1.316  0.00  0.00     0.013 C 
ATOM     10  C3' I4B d   1       5.957  -2.528   0.129  0.00  0.00     0.013 C 
ENDBRANCH   7   8
ENDBRANCH   1   7
TORSDOF 2
ENDMDL
