MODEL 1
REMARK minimizedAffinity -1.70144928
REMARK minimizedRMSD -1
REMARK  2 active torsions:
REMARK  status: ('A' for Active; 'I' for Inactive)
REMARK    1  A    between atoms: C2'_3  and  C1'_4 
REMARK    2  A    between atoms: C1'_4  and  C1_5 
ROOT
ATOM      1  C1  I4B d   1       5.208  -4.743   3.758  0.00  0.00    -0.075 A 
ATOM      2  C2  I4B d   1       3.886  -5.113   3.760  0.00  0.00     0.003 A 
ATOM      3  C3  I4B d   1       3.321  -5.729   4.903  0.00  0.00     0.002 A 
ATOM      4  C4  I4B d   1       4.120  -6.000   5.995  0.00  0.00    -0.004 A 
ATOM      5  C5  I4B d   1       5.454  -5.603   6.000  0.00  0.00     0.002 A 
ATOM      6  C6  I4B d   1       5.999  -4.960   4.879  0.00  0.00     0.003 A 
ENDROOT
BRANCH   1   7
ATOM      7  C1' I4B d   1       5.781  -4.125   2.522  0.00  0.00     0.060 C 
BRANCH   7   8
ATOM      8  C2' I4B d   1       5.432  -2.651   2.533  0.00  0.00    -0.013 C 
ATOM      9  C4' I4B d   1       4.318  -2.348   1.566  0.00  0.00     0.013 C 
ATOM     10  C3' I4B d   1       5.051  -2.275   3.933  0.00  0.00     0.013 C 
ENDBRANCH   7   8
ENDBRANCH   1   7
TORSDOF 2
ENDMDL
