MODEL 1
REMARK minimizedAffinity -2.25546384
REMARK minimizedRMSD -1
REMARK  2 active torsions:
REMARK  status: ('A' for Active; 'I' for Inactive)
REMARK    1  A    between atoms: C2'_3  and  C1'_4 
REMARK    2  A    between atoms: C1'_4  and  C1_5 
ROOT
ATOM      1  C1  I4B d   1       5.991  -3.750   3.173  0.00  0.00    -0.075 A 
ATOM      2  C2  I4B d   1       5.996  -4.693   2.175  0.00  0.00     0.003 A 
ATOM      3  C3  I4B d   1       5.999  -4.293   0.817  0.00  0.00     0.002 A 
ATOM      4  C4  I4B d   1       5.947  -2.950   0.503  0.00  0.00    -0.004 A 
ATOM      5  C5  I4B d   1       5.965  -1.995   1.516  0.00  0.00     0.002 A 
ATOM      6  C6  I4B d   1       6.000  -2.397   2.859  0.00  0.00     0.003 A 
ENDROOT
BRANCH   1   7
ATOM      7  C1' I4B d   1       5.955  -4.208   4.596  0.00  0.00     0.060 C 
BRANCH   7   8
ATOM      8  C2' I4B d   1       4.503  -4.309   5.017  0.00  0.00    -0.013 C 
ATOM      9  C4' I4B d   1       4.222  -5.622   5.699  0.00  0.00     0.013 C 
ATOM     10  C3' I4B d   1       4.202  -3.153   5.924  0.00  0.00     0.013 C 
ENDBRANCH   7   8
ENDBRANCH   1   7
TORSDOF 2
ENDMDL
