MODEL 1
REMARK minimizedAffinity -2.61098576
REMARK minimizedRMSD -1
REMARK  2 active torsions:
REMARK  status: ('A' for Active; 'I' for Inactive)
REMARK    1  A    between atoms: C2'_3  and  C1'_4 
REMARK    2  A    between atoms: C1'_4  and  C1_5 
ROOT
ATOM      1  C1  I4B d   1       5.883  -5.196   3.289  0.00  0.00    -0.075 A 
ATOM      2  C2  I4B d   1       5.999  -3.831   3.364  0.00  0.00     0.003 A 
ATOM      3  C3  I4B d   1       5.924  -3.043   2.190  0.00  0.00     0.002 A 
ATOM      4  C4  I4B d   1       5.785  -3.662   0.964  0.00  0.00    -0.004 A 
ATOM      5  C5  I4B d   1       5.645  -5.045   0.892  0.00  0.00     0.002 A 
ATOM      6  C6  I4B d   1       5.682  -5.816   2.062  0.00  0.00     0.003 A 
ENDROOT
BRANCH   1   7
ATOM      7  C1' I4B d   1       6.000  -6.000   4.545  0.00  0.00     0.060 C 
BRANCH   7   8
ATOM      8  C2' I4B d   1       4.933  -5.520   5.507  0.00  0.00    -0.013 C 
ATOM      9  C4' I4B d   1       5.171  -4.090   5.916  0.00  0.00     0.013 C 
ATOM     10  C3' I4B d   1       3.600  -5.676   4.837  0.00  0.00     0.013 C 
ENDBRANCH   7   8
ENDBRANCH   1   7
TORSDOF 2
ENDMDL
