MODEL 1
REMARK minimizedAffinity 3.3812058
REMARK minimizedRMSD -1
REMARK  2 active torsions:
REMARK  status: ('A' for Active; 'I' for Inactive)
REMARK    1  A    between atoms: C2'_3  and  C1'_4 
REMARK    2  A    between atoms: C1'_4  and  C1_5 
ROOT
ATOM      1  C1  I4B d   1       5.974  -4.190   3.012  0.00  0.00    -0.075 A 
ATOM      2  C2  I4B d   1       5.981  -4.796   1.781  0.00  0.00     0.003 A 
ATOM      3  C3  I4B d   1       5.997  -4.013   0.601  0.00  0.00     0.002 A 
ATOM      4  C4  I4B d   1       5.953  -2.637   0.698  0.00  0.00    -0.004 A 
ATOM      5  C5  I4B d   1       5.969  -2.024   1.948  0.00  0.00     0.002 A 
ATOM      6  C6  I4B d   1       5.992  -2.805   3.112  0.00  0.00     0.003 A 
ENDROOT
BRANCH   1   7
ATOM      7  C1' I4B d   1       5.925  -5.047   4.237  0.00  0.00     0.060 C 
BRANCH   7   8
ATOM      8  C2' I4B d   1       4.974  -4.399   5.222  0.00  0.00    -0.013 C 
ATOM      9  C4' I4B d   1       5.655  -3.303   5.998  0.00  0.00     0.013 C 
ATOM     10  C3' I4B d   1       3.801  -3.869   4.453  0.00  0.00     0.013 C 
ENDBRANCH   7   8
ENDBRANCH   1   7
TORSDOF 2
ENDMDL
