MODEL 1
REMARK minimizedAffinity 1.49193454
REMARK minimizedRMSD -1
REMARK  2 active torsions:
REMARK  status: ('A' for Active; 'I' for Inactive)
REMARK    1  A    between atoms: C2'_3  and  C1'_4 
REMARK    2  A    between atoms: C1'_4  and  C1_5 
ROOT
ATOM      1  C1  I4B d   1       4.902  -3.086   3.235  0.00  0.00    -0.075 A 
ATOM      2  C2  I4B d   1       5.886  -3.735   3.939  0.00  0.00     0.003 A 
ATOM      3  C3  I4B d   1       5.765  -3.909   5.339  0.00  0.00     0.002 A 
ATOM      4  C4  I4B d   1       4.675  -3.377   5.998  0.00  0.00    -0.004 A 
ATOM      5  C5  I4B d   1       3.667  -2.740   5.279  0.00  0.00     0.002 A 
ATOM      6  C6  I4B d   1       3.775  -2.604   3.888  0.00  0.00     0.003 A 
ENDROOT
BRANCH   1   7
ATOM      7  C1' I4B d   1       5.078  -2.891   1.763  0.00  0.00     0.060 C 
BRANCH   7   8
ATOM      8  C2' I4B d   1       6.000  -3.982   1.255  0.00  0.00    -0.013 C 
ATOM      9  C4' I4B d   1       5.568  -5.336   1.751  0.00  0.00     0.013 C 
ATOM     10  C3' I4B d   1       5.998  -3.928  -0.244  0.00  0.00     0.013 C 
ENDBRANCH   7   8
ENDBRANCH   1   7
TORSDOF 2
ENDMDL
