MODEL 1
REMARK minimizedAffinity 0.0993127078
REMARK minimizedRMSD -1
REMARK  2 active torsions:
REMARK  status: ('A' for Active; 'I' for Inactive)
REMARK    1  A    between atoms: C2'_3  and  C1'_4 
REMARK    2  A    between atoms: C1'_4  and  C1_5 
ROOT
ATOM      1  C1  I4B d   1       4.908  -3.666   3.915  0.00  0.00    -0.075 A 
ATOM      2  C2  I4B d   1       5.765  -3.478   4.971  0.00  0.00     0.003 A 
ATOM      3  C3  I4B d   1       5.850  -4.447   6.000  0.00  0.00     0.002 A 
ATOM      4  C4  I4B d   1       5.031  -5.556   5.959  0.00  0.00    -0.004 A 
ATOM      5  C5  I4B d   1       4.179  -5.756   4.876  0.00  0.00     0.002 A 
ATOM      6  C6  I4B d   1       4.126  -4.811   3.841  0.00  0.00     0.003 A 
ENDROOT
BRANCH   1   7
ATOM      7  C1' I4B d   1       4.819  -2.607   2.862  0.00  0.00     0.060 C 
BRANCH   7   8
ATOM      8  C2' I4B d   1       5.948  -2.832   1.877  0.00  0.00    -0.013 C 
ATOM      9  C4' I4B d   1       5.996  -4.266   1.420  0.00  0.00     0.013 C 
ATOM     10  C3' I4B d   1       5.744  -1.901   0.719  0.00  0.00     0.013 C 
ENDBRANCH   7   8
ENDBRANCH   1   7
TORSDOF 2
ENDMDL
