MODEL 1
REMARK minimizedAffinity -1.55783081
REMARK minimizedRMSD -1
REMARK  2 active torsions:
REMARK  status: ('A' for Active; 'I' for Inactive)
REMARK    1  A    between atoms: C2'_3  and  C1'_4 
REMARK    2  A    between atoms: C1'_4  and  C1_5 
ROOT
ATOM      1  C1  I4B d   1       5.851  -3.707   4.111  0.00  0.00    -0.075 A 
ATOM      2  C2  I4B d   1       5.749  -2.677   3.208  0.00  0.00     0.003 A 
ATOM      3  C3  I4B d   1       5.784  -1.333   3.653  0.00  0.00     0.002 A 
ATOM      4  C4  I4B d   1       5.870  -1.067   5.004  0.00  0.00    -0.004 A 
ATOM      5  C5  I4B d   1       5.996  -2.111   5.916  0.00  0.00     0.002 A 
ATOM      6  C6  I4B d   1       5.999  -3.439   5.466  0.00  0.00     0.003 A 
ENDROOT
BRANCH   1   7
ATOM      7  C1' I4B d   1       5.778  -5.114   3.610  0.00  0.00     0.060 C 
BRANCH   7   8
ATOM      8  C2' I4B d   1       5.013  -5.933   4.630  0.00  0.00    -0.013 C 
ATOM      9  C4' I4B d   1       5.751  -5.999   5.941  0.00  0.00     0.013 C 
ATOM     10  C3' I4B d   1       3.659  -5.311   4.801  0.00  0.00     0.013 C 
ENDBRANCH   7   8
ENDBRANCH   1   7
TORSDOF 2
ENDMDL
