MODEL 1
REMARK minimizedAffinity 4.28520203
REMARK minimizedRMSD -1
REMARK  2 active torsions:
REMARK  status: ('A' for Active; 'I' for Inactive)
REMARK    1  A    between atoms: C2'_3  and  C1'_4 
REMARK    2  A    between atoms: C1'_4  and  C1_5 
ROOT
ATOM      1  C1  I4B d   1       4.618  -3.868   4.134  0.00  0.00    -0.075 A 
ATOM      2  C2  I4B d   1       5.488  -4.230   5.132  0.00  0.00     0.003 A 
ATOM      3  C3  I4B d   1       5.182  -5.319   5.985  0.00  0.00     0.002 A 
ATOM      4  C4  I4B d   1       3.980  -5.980   5.837  0.00  0.00    -0.004 A 
ATOM      5  C5  I4B d   1       3.109  -5.627   4.810  0.00  0.00     0.002 A 
ATOM      6  C6  I4B d   1       3.435  -4.572   3.945  0.00  0.00     0.003 A 
ENDROOT
BRANCH   1   7
ATOM      7  C1' I4B d   1       4.957  -2.693   3.273  0.00  0.00     0.060 C 
BRANCH   7   8
ATOM      8  C2' I4B d   1       5.988  -3.142   2.257  0.00  0.00    -0.013 C 
ATOM      9  C4' I4B d   1       5.792  -4.588   1.884  0.00  0.00     0.013 C 
ATOM     10  C3' I4B d   1       5.870  -2.253   1.055  0.00  0.00     0.013 C 
ENDBRANCH   7   8
ENDBRANCH   1   7
TORSDOF 2
ENDMDL
