MODEL 1
REMARK minimizedAffinity 6.2054925
REMARK minimizedRMSD -1
REMARK  2 active torsions:
REMARK  status: ('A' for Active; 'I' for Inactive)
REMARK    1  A    between atoms: C2'_3  and  C1'_4 
REMARK    2  A    between atoms: C1'_4  and  C1_5 
ROOT
ATOM      1  C1  I4B d   1       4.911  -3.962   3.968  0.00  0.00    -0.075 A 
ATOM      2  C2  I4B d   1       4.019  -5.005   3.954  0.00  0.00     0.003 A 
ATOM      3  C3  I4B d   1       4.042  -5.976   4.984  0.00  0.00     0.002 A 
ATOM      4  C4  I4B d   1       4.999  -5.894   5.974  0.00  0.00    -0.004 A 
ATOM      5  C5  I4B d   1       5.888  -4.824   6.000  0.00  0.00     0.002 A 
ATOM      6  C6  I4B d   1       5.837  -3.844   4.997  0.00  0.00     0.003 A 
ENDROOT
BRANCH   1   7
ATOM      7  C1' I4B d   1       4.881  -2.972   2.847  0.00  0.00     0.060 C 
BRANCH   7   8
ATOM      8  C2' I4B d   1       5.219  -3.707   1.566  0.00  0.00    -0.013 C 
ATOM      9  C4' I4B d   1       6.000  -2.830   0.623  0.00  0.00     0.013 C 
ATOM     10  C3' I4B d   1       5.995  -4.938   1.929  0.00  0.00     0.013 C 
ENDBRANCH   7   8
ENDBRANCH   1   7
TORSDOF 2
ENDMDL
