MODEL 1
REMARK minimizedAffinity -2.33904099
REMARK minimizedRMSD -1
REMARK  2 active torsions:
REMARK  status: ('A' for Active; 'I' for Inactive)
REMARK    1  A    between atoms: C2'_3  and  C1'_4 
REMARK    2  A    between atoms: C1'_4  and  C1_5 
ROOT
ATOM      1  C1  I4B d   1       5.895  -4.537   3.975  0.00  0.00    -0.075 A 
ATOM      2  C2  I4B d   1       5.998  -3.175   4.114  0.00  0.00     0.003 A 
ATOM      3  C3  I4B d   1       5.998  -2.341   2.970  0.00  0.00     0.002 A 
ATOM      4  C4  I4B d   1       5.944  -2.909   1.714  0.00  0.00    -0.004 A 
ATOM      5  C5  I4B d   1       5.817  -4.288   1.576  0.00  0.00     0.002 A 
ATOM      6  C6  I4B d   1       5.779  -5.107   2.714  0.00  0.00     0.003 A 
ENDROOT
BRANCH   1   7
ATOM      7  C1' I4B d   1       5.931  -5.391   5.202  0.00  0.00     0.060 C 
BRANCH   7   8
ATOM      8  C2' I4B d   1       4.673  -5.117   6.000  0.00  0.00    -0.013 C 
ATOM      9  C4' I4B d   1       4.288  -3.662   5.928  0.00  0.00     0.013 C 
ATOM     10  C3' I4B d   1       3.582  -5.992   5.459  0.00  0.00     0.013 C 
ENDBRANCH   7   8
ENDBRANCH   1   7
TORSDOF 2
ENDMDL
