MODEL 1
REMARK minimizedAffinity 0.564416766
REMARK minimizedRMSD -1
REMARK  2 active torsions:
REMARK  status: ('A' for Active; 'I' for Inactive)
REMARK    1  A    between atoms: C2'_3  and  C1'_4 
REMARK    2  A    between atoms: C1'_4  and  C1_5 
ROOT
ATOM      1  C1  I4B d   1       5.404  -4.337   3.948  0.00  0.00    -0.075 A 
ATOM      2  C2  I4B d   1       4.405  -4.840   4.744  0.00  0.00     0.003 A 
ATOM      3  C3  I4B d   1       3.842  -4.043   5.769  0.00  0.00     0.002 A 
ATOM      4  C4  I4B d   1       4.337  -2.775   5.995  0.00  0.00    -0.004 A 
ATOM      5  C5  I4B d   1       5.334  -2.258   5.172  0.00  0.00     0.002 A 
ATOM      6  C6  I4B d   1       5.862  -3.039   4.134  0.00  0.00     0.003 A 
ENDROOT
BRANCH   1   7
ATOM      7  C1' I4B d   1       6.000  -5.218   2.896  0.00  0.00     0.060 C 
BRANCH   7   8
ATOM      8  C2' I4B d   1       5.507  -4.733   1.547  0.00  0.00    -0.013 C 
ATOM      9  C4' I4B d   1       5.995  -3.338   1.258  0.00  0.00     0.013 C 
ATOM     10  C3' I4B d   1       5.983  -5.701   0.505  0.00  0.00     0.013 C 
ENDBRANCH   7   8
ENDBRANCH   1   7
TORSDOF 2
ENDMDL
