MODEL 1
REMARK minimizedAffinity 3.08246565
REMARK minimizedRMSD -1
REMARK  0 active torsions:
REMARK  status: ('A' for Active; 'I' for Inactive)
ROOT
ATOM      1  C1  DEN d   1      -5.969   3.012  -3.524  0.00  0.00     0.130 A 
ATOM      2  C2  DEN d   1      -5.953   3.463  -4.913  0.00  0.00    -0.031 A 
ATOM      3  C3  DEN d   1      -5.958   2.269  -5.781  0.00  0.00     0.027 A 
ATOM      4  C4  DEN d   1      -5.993  -0.222  -5.114  0.00  0.00     0.027 A 
ATOM      5  C5  DEN d   1      -6.000  -1.100  -4.052  0.00  0.00    -0.003 A 
ATOM      6  C6  DEN d   1      -5.962  -0.673  -2.751  0.00  0.00     0.001 A 
ATOM      7  C7  DEN d   1      -5.962   0.670  -2.477  0.00  0.00     0.017 A 
ATOM      8  C8  DEN d   1      -5.948   1.560  -3.543  0.00  0.00    -0.094 A 
ATOM      9  C9  DEN d   1      -5.999   1.109  -4.850  0.00  0.00    -0.072 A 
ENDROOT
TORSDOF 0
ENDMDL
