MODEL 1
REMARK minimizedAffinity 10.2033825
REMARK minimizedRMSD -1
REMARK  0 active torsions:
REMARK  status: ('A' for Active; 'I' for Inactive)
ROOT
ATOM      1  C1  DEN d   1       2.284  -1.659   3.658  0.00  0.00     0.130 A 
ATOM      2  C2  DEN d   1       1.459  -0.763   2.852  0.00  0.00    -0.031 A 
ATOM      3  C3  DEN d   1       2.332  -0.114   1.853  0.00  0.00     0.027 A 
ATOM      4  C4  DEN d   1       4.866  -0.411   1.475  0.00  0.00     0.027 A 
ATOM      5  C5  DEN d   1       5.999  -1.056   1.920  0.00  0.00    -0.003 A 
ATOM      6  C6  DEN d   1       5.980  -1.913   2.988  0.00  0.00     0.001 A 
ATOM      7  C7  DEN d   1       4.795  -2.185   3.619  0.00  0.00     0.017 A 
ATOM      8  C8  DEN d   1       3.650  -1.533   3.181  0.00  0.00    -0.094 A 
ATOM      9  C9  DEN d   1       3.688  -0.679   2.092  0.00  0.00    -0.072 A 
ENDROOT
TORSDOF 0
ENDMDL
