MODEL 1
REMARK minimizedAffinity 14.8985119
REMARK minimizedRMSD -1
REMARK  0 active torsions:
REMARK  status: ('A' for Active; 'I' for Inactive)
ROOT
ATOM      1  C1  DEN d   1       3.815  -3.150   3.715  0.00  0.00     0.130 A 
ATOM      2  C2  DEN d   1       2.670  -3.946   4.149  0.00  0.00    -0.031 A 
ATOM      3  C3  DEN d   1       1.440  -3.234   3.746  0.00  0.00     0.027 A 
ATOM      4  C4  DEN d   1       1.201  -0.992   2.493  0.00  0.00     0.027 A 
ATOM      5  C5  DEN d   1       1.891   0.057   1.927  0.00  0.00    -0.003 A 
ATOM      6  C6  DEN d   1       3.258   0.127   1.947  0.00  0.00     0.001 A 
ATOM      7  C7  DEN d   1       3.982  -0.893   2.506  0.00  0.00     0.017 A 
ATOM      8  C8  DEN d   1       3.293  -1.951   3.085  0.00  0.00    -0.094 A 
ATOM      9  C9  DEN d   1       1.910  -2.009   3.044  0.00  0.00    -0.072 A 
ENDROOT
TORSDOF 0
ENDMDL
