MODEL 1
REMARK minimizedAffinity 8.7563982
REMARK minimizedRMSD -1
REMARK  0 active torsions:
REMARK  status: ('A' for Active; 'I' for Inactive)
ROOT
ATOM      1  C1  DEN d   1       2.284  -1.626   2.174  0.00  0.00     0.130 A 
ATOM      2  C2  DEN d   1       1.856  -1.474   3.562  0.00  0.00    -0.031 A 
ATOM      3  C3  DEN d   1       1.993  -0.050   3.928  0.00  0.00     0.027 A 
ATOM      4  C4  DEN d   1       2.817   1.924   2.487  0.00  0.00     0.027 A 
ATOM      5  C5  DEN d   1       3.300   2.285   1.249  0.00  0.00    -0.003 A 
ATOM      6  C6  DEN d   1       3.509   1.370   0.251  0.00  0.00     0.001 A 
ATOM      7  C7  DEN d   1       3.190   0.054   0.460  0.00  0.00     0.017 A 
ATOM      8  C8  DEN d   1       2.710  -0.319   1.708  0.00  0.00    -0.094 A 
ATOM      9  C9  DEN d   1       2.495   0.623   2.700  0.00  0.00    -0.072 A 
ENDROOT
TORSDOF 0
ENDMDL
