MODEL 1
REMARK minimizedAffinity 17.1706123
REMARK minimizedRMSD -1
REMARK  0 active torsions:
REMARK  status: ('A' for Active; 'I' for Inactive)
ROOT
ATOM      1  C1  DEN d   1       2.009  -1.610   2.093  0.00  0.00     0.130 A 
ATOM      2  C2  DEN d   1       1.867  -0.355   2.825  0.00  0.00    -0.031 A 
ATOM      3  C3  DEN d   1       2.110  -0.630   4.255  0.00  0.00     0.027 A 
ATOM      4  C4  DEN d   1       2.695  -2.866   5.400  0.00  0.00     0.027 A 
ATOM      5  C5  DEN d   1       2.913  -4.210   5.193  0.00  0.00    -0.003 A 
ATOM      6  C6  DEN d   1       2.812  -4.783   3.953  0.00  0.00     0.001 A 
ATOM      7  C7  DEN d   1       2.529  -4.001   2.865  0.00  0.00     0.017 A 
ATOM      8  C8  DEN d   1       2.301  -2.646   3.067  0.00  0.00    -0.094 A 
ATOM      9  C9  DEN d   1       2.419  -2.084   4.326  0.00  0.00    -0.072 A 
ENDROOT
TORSDOF 0
ENDMDL
