MODEL 1
REMARK minimizedAffinity 11.6040621
REMARK minimizedRMSD -1
REMARK  0 active torsions:
REMARK  status: ('A' for Active; 'I' for Inactive)
ROOT
ATOM      1  C1  DEN d   1       0.116  -4.106   5.732  0.00  0.00     0.130 A 
ATOM      2  C2  DEN d   1       0.221  -5.546   5.952  0.00  0.00    -0.031 A 
ATOM      3  C3  DEN d   1       1.585  -5.967   5.574  0.00  0.00     0.027 A 
ATOM      4  C4  DEN d   1       3.535  -4.536   4.677  0.00  0.00     0.027 A 
ATOM      5  C5  DEN d   1       3.919  -3.264   4.313  0.00  0.00    -0.003 A 
ATOM      6  C6  DEN d   1       3.059  -2.199   4.363  0.00  0.00     0.001 A 
ATOM      7  C7  DEN d   1       1.784  -2.378   4.831  0.00  0.00     0.017 A 
ATOM      8  C8  DEN d   1       1.387  -3.658   5.193  0.00  0.00    -0.094 A 
ATOM      9  C9  DEN d   1       2.275  -4.720   5.147  0.00  0.00    -0.072 A 
ENDROOT
TORSDOF 0
ENDMDL
