MODEL 1
REMARK minimizedAffinity 10.0260897
REMARK minimizedRMSD -1
REMARK  0 active torsions:
REMARK  status: ('A' for Active; 'I' for Inactive)
ROOT
ATOM      1  C1  DEN d   1       2.466  -1.861   3.901  0.00  0.00     0.130 A 
ATOM      2  C2  DEN d   1       1.377  -0.935   3.603  0.00  0.00    -0.031 A 
ATOM      3  C3  DEN d   1       1.800  -0.081   2.475  0.00  0.00     0.027 A 
ATOM      4  C4  DEN d   1       4.021  -0.106   1.165  0.00  0.00     0.027 A 
ATOM      5  C5  DEN d   1       5.256  -0.708   1.059  0.00  0.00    -0.003 A 
ATOM      6  C6  DEN d   1       5.657  -1.705   1.909  0.00  0.00     0.001 A 
ATOM      7  C7  DEN d   1       4.798  -2.161   2.873  0.00  0.00     0.017 A 
ATOM      8  C8  DEN d   1       3.554  -1.554   2.990  0.00  0.00    -0.094 A 
ATOM      9  C9  DEN d   1       3.163  -0.556   2.114  0.00  0.00    -0.072 A 
ENDROOT
TORSDOF 0
ENDMDL
