MODEL 1
REMARK minimizedAffinity -0.942918956
REMARK minimizedRMSD -1
REMARK  0 active torsions:
REMARK  status: ('A' for Active; 'I' for Inactive)
ROOT
ATOM      1  C1  BNZ d   1      -0.298  -1.089   0.550  0.00  0.00     0.000 A 
ATOM      2  C2  BNZ d   1       1.062  -1.016   0.688  0.00  0.00     0.000 A 
ATOM      3  C3  BNZ d   1       1.707   0.189   0.639  0.00  0.00     0.000 A 
ATOM      4  C4  BNZ d   1       0.996   1.312   0.412  0.00  0.00     0.000 A 
ATOM      5  C5  BNZ d   1      -0.375   1.253   0.261  0.00  0.00     0.000 A 
ATOM      6  C6  BNZ d   1      -1.025   0.043   0.351  0.00  0.00     0.000 A 
ENDROOT
TORSDOF 0
ENDMDL
