MODEL 1
REMARK minimizedAffinity -4.10183716
REMARK minimizedRMSD -1
REMARK  0 active torsions:
REMARK  status: ('A' for Active; 'I' for Inactive)
ROOT
ATOM      1  C1  BNZ d   1       1.752  -0.486   0.944  0.00  0.00     0.000 A 
ATOM      2  C2  BNZ d   1       0.564  -1.159   0.837  0.00  0.00     0.000 A 
ATOM      3  C3  BNZ d   1      -0.534  -0.558   0.288  0.00  0.00     0.000 A 
ATOM      4  C4  BNZ d   1      -0.455   0.726  -0.116  0.00  0.00     0.000 A 
ATOM      5  C5  BNZ d   1       0.733   1.421  -0.007  0.00  0.00     0.000 A 
ATOM      6  C6  BNZ d   1       1.847   0.801   0.511  0.00  0.00     0.000 A 
ENDROOT
TORSDOF 0
ENDMDL
