MODEL 1
REMARK minimizedAffinity -5.09281063
REMARK minimizedRMSD -1
REMARK  0 active torsions:
REMARK  status: ('A' for Active; 'I' for Inactive)
ROOT
ATOM      1  C1  BNZ d   1       2.970  -0.867   1.763  0.00  0.00     0.000 A 
ATOM      2  C2  BNZ d   1       2.653   0.195   0.959  0.00  0.00     0.000 A 
ATOM      3  C3  BNZ d   1       1.439   0.263   0.335  0.00  0.00     0.000 A 
ATOM      4  C4  BNZ d   1       0.561  -0.750   0.482  0.00  0.00     0.000 A 
ATOM      5  C5  BNZ d   1       0.869  -1.832   1.282  0.00  0.00     0.000 A 
ATOM      6  C6  BNZ d   1       2.077  -1.878   1.940  0.00  0.00     0.000 A 
ENDROOT
TORSDOF 0
ENDMDL
