MODEL 1
REMARK minimizedAffinity -5.01970959
REMARK minimizedRMSD -1
REMARK  0 active torsions:
REMARK  status: ('A' for Active; 'I' for Inactive)
ROOT
ATOM      1  C1  BNZ d   1       1.467   0.886   0.335  0.00  0.00     0.000 A 
ATOM      2  C2  BNZ d   1       2.723   0.767   0.867  0.00  0.00     0.000 A 
ATOM      3  C3  BNZ d   1       3.159  -0.427   1.371  0.00  0.00     0.000 A 
ATOM      4  C4  BNZ d   1       2.326  -1.488   1.377  0.00  0.00     0.000 A 
ATOM      5  C5  BNZ d   1       1.054  -1.381   0.853  0.00  0.00     0.000 A 
ATOM      6  C6  BNZ d   1       0.631  -0.188   0.312  0.00  0.00     0.000 A 
ENDROOT
TORSDOF 0
ENDMDL
