MODEL 1
REMARK minimizedAffinity -4.07872248
REMARK minimizedRMSD -1
REMARK  0 active torsions:
REMARK  status: ('A' for Active; 'I' for Inactive)
ROOT
ATOM      1  C1  BNZ d   1       2.162   0.654  -0.532  0.00  0.00     0.000 A 
ATOM      2  C2  BNZ d   1       3.359   0.090  -0.180  0.00  0.00     0.000 A 
ATOM      3  C3  BNZ d   1       3.414  -0.914   0.747  0.00  0.00     0.000 A 
ATOM      4  C4  BNZ d   1       2.278  -1.324   1.348  0.00  0.00     0.000 A 
ATOM      5  C5  BNZ d   1       1.065  -0.758   1.010  0.00  0.00     0.000 A 
ATOM      6  C6  BNZ d   1       1.009   0.225   0.049  0.00  0.00     0.000 A 
ENDROOT
TORSDOF 0
ENDMDL
