MODEL 1
REMARK minimizedAffinity -3.36300492
REMARK minimizedRMSD -1
REMARK  0 active torsions:
REMARK  status: ('A' for Active; 'I' for Inactive)
ROOT
ATOM      1  C1  BNZ d   1       0.194  -0.994   0.920  0.00  0.00     0.000 A 
ATOM      2  C2  BNZ d   1       1.372  -1.133   1.605  0.00  0.00     0.000 A 
ATOM      3  C3  BNZ d   1       2.329  -0.158   1.557  0.00  0.00     0.000 A 
ATOM      4  C4  BNZ d   1       2.124   0.935   0.793  0.00  0.00     0.000 A 
ATOM      5  C5  BNZ d   1       0.946   1.085   0.090  0.00  0.00     0.000 A 
ATOM      6  C6  BNZ d   1      -0.031   0.120   0.172  0.00  0.00     0.000 A 
ENDROOT
TORSDOF 0
ENDMDL
