MODEL 1
REMARK minimizedAffinity -4.35361576
REMARK minimizedRMSD -1
REMARK  0 active torsions:
REMARK  status: ('A' for Active; 'I' for Inactive)
ROOT
ATOM      1  C1  BNZ d   1       0.096   0.577  -0.095  0.00  0.00     0.000 A 
ATOM      2  C2  BNZ d   1       1.227   1.347  -0.053  0.00  0.00     0.000 A 
ATOM      3  C3  BNZ d   1       2.404   0.837   0.418  0.00  0.00     0.000 A 
ATOM      4  C4  BNZ d   1       2.439  -0.428   0.884  0.00  0.00     0.000 A 
ATOM      5  C5  BNZ d   1       1.305  -1.214   0.857  0.00  0.00     0.000 A 
ATOM      6  C6  BNZ d   1       0.131  -0.710   0.346  0.00  0.00     0.000 A 
ENDROOT
TORSDOF 0
ENDMDL
