MODEL 1
REMARK minimizedAffinity -3.17322421
REMARK minimizedRMSD -1
REMARK  0 active torsions:
REMARK  status: ('A' for Active; 'I' for Inactive)
ROOT
ATOM      1  C1  BNZ d   1       1.427  -1.935   0.275  0.00  0.00     0.000 A 
ATOM      2  C2  BNZ d   1       0.135  -1.489   0.195  0.00  0.00     0.000 A 
ATOM      3  C3  BNZ d   1      -0.172  -0.183   0.456  0.00  0.00     0.000 A 
ATOM      4  C4  BNZ d   1       0.806   0.665   0.836  0.00  0.00     0.000 A 
ATOM      5  C5  BNZ d   1       2.112   0.228   0.930  0.00  0.00     0.000 A 
ATOM      6  C6  BNZ d   1       2.423  -1.078   0.628  0.00  0.00     0.000 A 
ENDROOT
TORSDOF 0
ENDMDL
