MODEL 1
REMARK minimizedAffinity -2.13769388
REMARK minimizedRMSD -1
REMARK  0 active torsions:
REMARK  status: ('A' for Active; 'I' for Inactive)
ROOT
ATOM      1  C   UNL d   1       0.852   0.446  -2.538  0.00  0.00     0.124 A 
ATOM      2  C1  UNL d   1       1.280  -0.223  -1.400  0.00  0.00     0.062 A 
ATOM      3  C2  UNL d   1       0.607  -0.054  -0.194  0.00  0.00     0.162 A 
ATOM      4  C3  UNL d   1      -0.503   0.788  -0.119  0.00  0.00    -0.034 A 
ATOM      5  C4  UNL d   1      -0.927   1.458  -1.267  0.00  0.00     0.162 A 
ATOM      6  C5  UNL d   1      -0.251   1.286  -2.471  0.00  0.00     0.062 A 
ATOM      7  F   UNL d   1      -0.666   1.934  -3.569  0.00  0.00    -0.097 F 
ATOM      8  F1  UNL d   1      -1.990   2.275  -1.230  0.00  0.00    -0.096 F 
ATOM      9  I   UNL d   1      -1.512   1.043   1.684  0.00  0.00    -0.060 I 
ATOM     10  F2  UNL d   1       1.043  -0.713   0.890  0.00  0.00    -0.096 F 
ATOM     11  F3  UNL d   1       2.346  -1.034  -1.463  0.00  0.00    -0.097 F 
ATOM     12  F4  UNL d   1       1.502   0.283  -3.698  0.00  0.00    -0.092 F 
ENDROOT
TORSDOF 0
ENDMDL
