MODEL 1
REMARK minimizedAffinity -1.88416302
REMARK minimizedRMSD -1
REMARK  0 active torsions:
REMARK  status: ('A' for Active; 'I' for Inactive)
ROOT
ATOM      1  C   UNL d   1       0.403   0.813   2.011  0.00  0.00     0.124 A 
ATOM      2  C1  UNL d   1      -0.560   1.333   1.156  0.00  0.00     0.062 A 
ATOM      3  C2  UNL d   1      -0.611   0.922  -0.173  0.00  0.00     0.162 A 
ATOM      4  C3  UNL d   1       0.302  -0.015  -0.656  0.00  0.00    -0.034 A 
ATOM      5  C4  UNL d   1       1.268  -0.533   0.210  0.00  0.00     0.162 A 
ATOM      6  C5  UNL d   1       1.315  -0.118   1.537  0.00  0.00     0.062 A 
ATOM      7  F   UNL d   1       2.246  -0.622   2.361  0.00  0.00    -0.097 F 
ATOM      8  F1  UNL d   1       2.162  -1.435  -0.221  0.00  0.00    -0.096 F 
ATOM      9  I   UNL d   1       0.228  -0.633  -2.642  0.00  0.00    -0.060 I 
ATOM     10  F2  UNL d   1      -1.552   1.441  -0.976  0.00  0.00    -0.096 F 
ATOM     11  F3  UNL d   1      -1.442   2.234   1.611  0.00  0.00    -0.097 F 
ATOM     12  F4  UNL d   1       0.451   1.212   3.288  0.00  0.00    -0.092 F 
ENDROOT
TORSDOF 0
ENDMDL
