MODEL 1
REMARK minimizedAffinity -2.55558729
REMARK minimizedRMSD -1
REMARK  0 active torsions:
REMARK  status: ('A' for Active; 'I' for Inactive)
ROOT
ATOM      1  C   UNL d   1       1.389   0.530   1.805  0.00  0.00     0.124 A 
ATOM      2  C1  UNL d   1       0.362   1.274   2.370  0.00  0.00     0.062 A 
ATOM      3  C2  UNL d   1      -0.919   1.224   1.828  0.00  0.00     0.162 A 
ATOM      4  C3  UNL d   1      -1.181   0.427   0.714  0.00  0.00    -0.034 A 
ATOM      5  C4  UNL d   1      -0.143  -0.317   0.150  0.00  0.00     0.162 A 
ATOM      6  C5  UNL d   1       1.135  -0.264   0.696  0.00  0.00     0.062 A 
ATOM      7  F   UNL d   1       2.126  -0.983   0.148  0.00  0.00    -0.097 F 
ATOM      8  F1  UNL d   1      -0.360  -1.094  -0.921  0.00  0.00    -0.096 F 
ATOM      9  I   UNL d   1      -3.095   0.350  -0.100  0.00  0.00    -0.060 I 
ATOM     10  F2  UNL d   1      -1.892   1.953   2.395  0.00  0.00    -0.096 F 
ATOM     11  F3  UNL d   1       0.604   2.043   3.441  0.00  0.00    -0.097 F 
ATOM     12  F4  UNL d   1       2.620   0.581   2.328  0.00  0.00    -0.092 F 
ENDROOT
TORSDOF 0
ENDMDL
