MODEL 1
REMARK minimizedAffinity -0.93217653
REMARK minimizedRMSD -1
REMARK  0 active torsions:
REMARK  status: ('A' for Active; 'I' for Inactive)
ROOT
ATOM      1  C   UNL d   1      -0.728   1.041   1.926  0.00  0.00     0.124 A 
ATOM      2  C1  UNL d   1       0.531   1.207   1.366  0.00  0.00     0.062 A 
ATOM      3  C2  UNL d   1       0.840   0.606   0.149  0.00  0.00     0.162 A 
ATOM      4  C3  UNL d   1      -0.113  -0.165  -0.518  0.00  0.00    -0.034 A 
ATOM      5  C4  UNL d   1      -1.376  -0.328   0.053  0.00  0.00     0.162 A 
ATOM      6  C5  UNL d   1      -1.680   0.275   1.269  0.00  0.00     0.062 A 
ATOM      7  F   UNL d   1      -2.897   0.114   1.809  0.00  0.00    -0.097 F 
ATOM      8  F1  UNL d   1      -2.316  -1.063  -0.561  0.00  0.00    -0.096 F 
ATOM      9  I   UNL d   1       0.346  -1.065  -2.337  0.00  0.00    -0.060 I 
ATOM     10  F2  UNL d   1       2.065   0.783  -0.369  0.00  0.00    -0.096 F 
ATOM     11  F3  UNL d   1       1.453   1.946   1.999  0.00  0.00    -0.097 F 
ATOM     12  F4  UNL d   1      -1.022   1.620   3.097  0.00  0.00    -0.092 F 
ENDROOT
TORSDOF 0
ENDMDL
