MODEL 1
REMARK minimizedAffinity -2.74804425
REMARK minimizedRMSD -1
REMARK  0 active torsions:
REMARK  status: ('A' for Active; 'I' for Inactive)
ROOT
ATOM      1  C   UNL d   1      -0.505   0.946   2.121  0.00  0.00     0.124 A 
ATOM      2  C1  UNL d   1       0.779   0.574   1.745  0.00  0.00     0.062 A 
ATOM      3  C2  UNL d   1       1.005   0.005   0.495  0.00  0.00     0.162 A 
ATOM      4  C3  UNL d   1      -0.056  -0.195  -0.389  0.00  0.00    -0.034 A 
ATOM      5  C4  UNL d   1      -1.344   0.181  -0.003  0.00  0.00     0.162 A 
ATOM      6  C5  UNL d   1      -1.564   0.749   1.247  0.00  0.00     0.062 A 
ATOM      7  F   UNL d   1      -2.805   1.108   1.609  0.00  0.00    -0.097 F 
ATOM      8  F1  UNL d   1      -2.386   0.002  -0.829  0.00  0.00    -0.096 F 
ATOM      9  I   UNL d   1       0.278  -1.046  -2.259  0.00  0.00    -0.060 I 
ATOM     10  F2  UNL d   1       2.255  -0.345   0.158  0.00  0.00    -0.096 F 
ATOM     11  F3  UNL d   1       1.804   0.763   2.588  0.00  0.00    -0.097 F 
ATOM     12  F4  UNL d   1      -0.719   1.493   3.325  0.00  0.00    -0.092 F 
ENDROOT
TORSDOF 0
ENDMDL
