MODEL 1
REMARK minimizedAffinity 0.14081575
REMARK minimizedRMSD -1
REMARK  0 active torsions:
REMARK  status: ('A' for Active; 'I' for Inactive)
ROOT
ATOM      1  C   UNL d   1      -0.418   0.630   1.817  0.00  0.00     0.124 A 
ATOM      2  C1  UNL d   1       0.809   0.328   1.244  0.00  0.00     0.062 A 
ATOM      3  C2  UNL d   1       0.887  -0.016  -0.103  0.00  0.00     0.162 A 
ATOM      4  C3  UNL d   1      -0.266  -0.058  -0.886  0.00  0.00    -0.034 A 
ATOM      5  C4  UNL d   1      -1.497   0.247  -0.302  0.00  0.00     0.162 A 
ATOM      6  C5  UNL d   1      -1.570   0.589   1.044  0.00  0.00     0.062 A 
ATOM      7  F   UNL d   1      -2.757   0.881   1.596  0.00  0.00    -0.097 F 
ATOM      8  F1  UNL d   1      -2.626   0.216  -1.027  0.00  0.00    -0.096 F 
ATOM      9  I   UNL d   1      -0.154  -0.571  -2.900  0.00  0.00    -0.060 I 
ATOM     10  F2  UNL d   1       2.086  -0.303  -0.630  0.00  0.00    -0.096 F 
ATOM     11  F3  UNL d   1       1.923   0.365   1.989  0.00  0.00    -0.097 F 
ATOM     12  F4  UNL d   1      -0.491   0.959   3.113  0.00  0.00    -0.092 F 
ENDROOT
TORSDOF 0
ENDMDL
