MODEL 1
REMARK minimizedAffinity -1.27741945
REMARK minimizedRMSD -1
REMARK  0 active torsions:
REMARK  status: ('A' for Active; 'I' for Inactive)
ROOT
ATOM      1  C   UNL d   1      -0.552   0.322   1.514  0.00  0.00     0.124 A 
ATOM      2  C1  UNL d   1      -1.395   0.974   0.625  0.00  0.00     0.062 A 
ATOM      3  C2  UNL d   1      -1.170   0.887  -0.746  0.00  0.00     0.162 A 
ATOM      4  C3  UNL d   1      -0.097   0.143  -1.237  0.00  0.00    -0.034 A 
ATOM      5  C4  UNL d   1       0.747  -0.510  -0.337  0.00  0.00     0.162 A 
ATOM      6  C5  UNL d   1       0.518  -0.419   1.032  0.00  0.00     0.062 A 
ATOM      7  F   UNL d   1       1.334  -1.050   1.889  0.00  0.00    -0.097 F 
ATOM      8  F1  UNL d   1       1.788  -1.233  -0.775  0.00  0.00    -0.096 F 
ATOM      9  I   UNL d   1       0.243   0.010  -3.286  0.00  0.00    -0.060 I 
ATOM     10  F2  UNL d   1      -2.001   1.528  -1.582  0.00  0.00    -0.096 F 
ATOM     11  F3  UNL d   1      -2.429   1.691   1.087  0.00  0.00    -0.097 F 
ATOM     12  F4  UNL d   1      -0.771   0.408   2.832  0.00  0.00    -0.092 F 
ENDROOT
TORSDOF 0
ENDMDL
