MODEL 1
REMARK minimizedAffinity -1.43193495
REMARK minimizedRMSD -1
REMARK  0 active torsions:
REMARK  status: ('A' for Active; 'I' for Inactive)
ROOT
ATOM      1  C   UNL d   1       1.796  -0.633  -1.481  0.00  0.00     0.124 A 
ATOM      2  C1  UNL d   1       1.182  -1.645  -0.756  0.00  0.00     0.062 A 
ATOM      3  C2  UNL d   1       0.231  -1.335   0.212  0.00  0.00     0.162 A 
ATOM      4  C3  UNL d   1      -0.114  -0.006   0.460  0.00  0.00    -0.034 A 
ATOM      5  C4  UNL d   1       0.508   1.007  -0.273  0.00  0.00     0.162 A 
ATOM      6  C5  UNL d   1       1.458   0.692  -1.239  0.00  0.00     0.062 A 
ATOM      7  F   UNL d   1       2.050   1.671  -1.938  0.00  0.00    -0.097 F 
ATOM      8  F1  UNL d   1       0.200   2.295  -0.060  0.00  0.00    -0.096 F 
ATOM      9  I   UNL d   1      -1.536   0.462   1.905  0.00  0.00    -0.060 I 
ATOM     10  F2  UNL d   1      -0.346  -2.333   0.897  0.00  0.00    -0.096 F 
ATOM     11  F3  UNL d   1       1.507  -2.925  -0.987  0.00  0.00    -0.097 F 
ATOM     12  F4  UNL d   1       2.712  -0.934  -2.410  0.00  0.00    -0.092 F 
ENDROOT
TORSDOF 0
ENDMDL
