MODEL 1
REMARK minimizedAffinity 1.49682534
REMARK minimizedRMSD -1
REMARK  0 active torsions:
REMARK  status: ('A' for Active; 'I' for Inactive)
ROOT
ATOM      1  C   UNL d   1      -3.735   0.472   1.917  0.00  0.00     0.124 A 
ATOM      2  C1  UNL d   1      -3.055  -0.001   3.031  0.00  0.00     0.062 A 
ATOM      3  C2  UNL d   1      -2.763   0.855   4.088  0.00  0.00     0.162 A 
ATOM      4  C3  UNL d   1      -3.151   2.194   4.038  0.00  0.00    -0.034 A 
ATOM      5  C4  UNL d   1      -3.834   2.663   2.914  0.00  0.00     0.162 A 
ATOM      6  C5  UNL d   1      -4.124   1.803   1.860  0.00  0.00     0.062 A 
ATOM      7  F   UNL d   1      -4.781   2.263   0.785  0.00  0.00    -0.097 F 
ATOM      8  F1  UNL d   1      -4.222   3.944   2.833  0.00  0.00    -0.096 F 
ATOM      9  I   UNL d   1      -2.716   3.477   5.618  0.00  0.00    -0.060 I 
ATOM     10  F2  UNL d   1      -2.105   0.370   5.152  0.00  0.00    -0.096 F 
ATOM     11  F3  UNL d   1      -2.678  -1.286   3.088  0.00  0.00    -0.097 F 
ATOM     12  F4  UNL d   1      -4.015  -0.353   0.900  0.00  0.00    -0.092 F 
ENDROOT
TORSDOF 0
ENDMDL
