MODEL 1
REMARK minimizedAffinity -2.13274264
REMARK minimizedRMSD -1
REMARK  0 active torsions:
REMARK  status: ('A' for Active; 'I' for Inactive)
ROOT
ATOM      1  C   UNL d   1       0.636  -0.175  -2.223  0.00  0.00     0.124 A 
ATOM      2  C1  UNL d   1      -0.048  -0.080  -1.019  0.00  0.00     0.062 A 
ATOM      3  C2  UNL d   1       0.364   0.830  -0.050  0.00  0.00     0.162 A 
ATOM      4  C3  UNL d   1       1.466   1.653  -0.281  0.00  0.00    -0.034 A 
ATOM      5  C4  UNL d   1       2.150   1.551  -1.494  0.00  0.00     0.162 A 
ATOM      6  C5  UNL d   1       1.734   0.640  -2.459  0.00  0.00     0.062 A 
ATOM      7  F   UNL d   1       2.396   0.549  -3.622  0.00  0.00    -0.097 F 
ATOM      8  F1  UNL d   1       3.214   2.327  -1.749  0.00  0.00    -0.096 F 
ATOM      9  I   UNL d   1       2.086   3.015   1.166  0.00  0.00    -0.060 I 
ATOM     10  F2  UNL d   1      -0.316   0.901   1.104  0.00  0.00    -0.096 F 
ATOM     11  F3  UNL d   1      -1.109  -0.867  -0.788  0.00  0.00    -0.097 F 
ATOM     12  F4  UNL d   1       0.237  -1.052  -3.154  0.00  0.00    -0.092 F 
ENDROOT
TORSDOF 0
ENDMDL
