MODEL 1
REMARK minimizedAffinity -1.4872793
REMARK minimizedRMSD -1
REMARK  0 active torsions:
REMARK  status: ('A' for Active; 'I' for Inactive)
ROOT
ATOM      1  C   UNL d   1       2.097   0.107  -2.006  0.00  0.00     0.124 A 
ATOM      2  C1  UNL d   1       0.990  -0.730  -2.011  0.00  0.00     0.062 A 
ATOM      3  C2  UNL d   1      -0.043  -0.531  -1.100  0.00  0.00     0.162 A 
ATOM      4  C3  UNL d   1       0.025   0.511  -0.175  0.00  0.00    -0.034 A 
ATOM      5  C4  UNL d   1       1.142   1.349  -0.175  0.00  0.00     0.162 A 
ATOM      6  C5  UNL d   1       2.172   1.146  -1.088  0.00  0.00     0.062 A 
ATOM      7  F   UNL d   1       3.241   1.956  -1.081  0.00  0.00    -0.097 F 
ATOM      8  F1  UNL d   1       1.240   2.360   0.701  0.00  0.00    -0.096 F 
ATOM      9  I   UNL d   1      -1.518   0.812   1.189  0.00  0.00    -0.060 I 
ATOM     10  F2  UNL d   1      -1.101  -1.355  -1.128  0.00  0.00    -0.096 F 
ATOM     11  F3  UNL d   1       0.915  -1.734  -2.897  0.00  0.00    -0.097 F 
ATOM     12  F4  UNL d   1       3.090  -0.087  -2.883  0.00  0.00    -0.092 F 
ENDROOT
TORSDOF 0
ENDMDL
