MODEL 1
REMARK minimizedAffinity -3.10934615
REMARK minimizedRMSD -1
REMARK  0 active torsions:
REMARK  status: ('A' for Active; 'I' for Inactive)
ROOT
ATOM      1  C   UNL d   1       0.645  -1.124  -1.907  0.00  0.00     0.124 A 
ATOM      2  C1  UNL d   1       0.575  -1.862  -0.734  0.00  0.00     0.062 A 
ATOM      3  C2  UNL d   1      -0.054  -1.334   0.389  0.00  0.00     0.162 A 
ATOM      4  C3  UNL d   1      -0.619  -0.059   0.345  0.00  0.00    -0.034 A 
ATOM      5  C4  UNL d   1      -0.543   0.678  -0.838  0.00  0.00     0.162 A 
ATOM      6  C5  UNL d   1       0.086   0.146  -1.958  0.00  0.00     0.062 A 
ATOM      7  F   UNL d   1       0.153   0.861  -3.090  0.00  0.00    -0.097 F 
ATOM      8  F1  UNL d   1      -1.076   1.907  -0.914  0.00  0.00    -0.096 F 
ATOM      9  I   UNL d   1      -1.560   0.735   2.023  0.00  0.00    -0.060 I 
ATOM     10  F2  UNL d   1      -0.107  -2.070   1.509  0.00  0.00    -0.096 F 
ATOM     11  F3  UNL d   1       1.115  -3.088  -0.682  0.00  0.00    -0.097 F 
ATOM     12  F4  UNL d   1       1.252  -1.634  -2.986  0.00  0.00    -0.092 F 
ENDROOT
TORSDOF 0
ENDMDL
