MODEL 1
REMARK minimizedAffinity 0.963728547
REMARK minimizedRMSD -1
REMARK  0 active torsions:
REMARK  status: ('A' for Active; 'I' for Inactive)
ROOT
ATOM      1  C   UNL d   1       1.753  -0.425  -1.436  0.00  0.00     0.124 A 
ATOM      2  C1  UNL d   1       0.805  -1.304  -0.932  0.00  0.00     0.062 A 
ATOM      3  C2  UNL d   1      -0.080  -0.886   0.058  0.00  0.00     0.162 A 
ATOM      4  C3  UNL d   1      -0.022   0.419   0.548  0.00  0.00    -0.034 A 
ATOM      5  C4  UNL d   1       0.935   1.297   0.037  0.00  0.00     0.162 A 
ATOM      6  C5  UNL d   1       1.818   0.874  -0.952  0.00  0.00     0.062 A 
ATOM      7  F   UNL d   1       2.733   1.724  -1.438  0.00  0.00    -0.097 F 
ATOM      8  F1  UNL d   1       1.019   2.558   0.486  0.00  0.00    -0.096 F 
ATOM      9  I   UNL d   1      -1.345   1.048   2.027  0.00  0.00    -0.060 I 
ATOM     10  F2  UNL d   1      -0.987  -1.756   0.527  0.00  0.00    -0.096 F 
ATOM     11  F3  UNL d   1       0.741  -2.560  -1.397  0.00  0.00    -0.097 F 
ATOM     12  F4  UNL d   1       2.605  -0.830  -2.387  0.00  0.00    -0.092 F 
ENDROOT
TORSDOF 0
ENDMDL
