MODEL 1
REMARK minimizedAffinity -1.86461759
REMARK minimizedRMSD -1
REMARK  0 active torsions:
REMARK  status: ('A' for Active; 'I' for Inactive)
ROOT
ATOM      1  C   UNL d   1       1.988   0.759  -1.491  0.00  0.00     0.124 A 
ATOM      2  C1  UNL d   1       1.084  -0.081  -2.127  0.00  0.00     0.062 A 
ATOM      3  C2  UNL d   1      -0.130  -0.389  -1.520  0.00  0.00     0.162 A 
ATOM      4  C3  UNL d   1      -0.448   0.143  -0.271  0.00  0.00    -0.034 A 
ATOM      5  C4  UNL d   1       0.467   0.986   0.363  0.00  0.00     0.162 A 
ATOM      6  C5  UNL d   1       1.679   1.292  -0.247  0.00  0.00     0.062 A 
ATOM      7  F   UNL d   1       2.551   2.103   0.368  0.00  0.00    -0.097 F 
ATOM      8  F1  UNL d   1       0.193   1.515   1.564  0.00  0.00    -0.096 F 
ATOM      9  I   UNL d   1      -2.263  -0.316   0.639  0.00  0.00    -0.060 I 
ATOM     10  F2  UNL d   1      -0.985  -1.203  -2.158  0.00  0.00    -0.096 F 
ATOM     11  F3  UNL d   1       1.381  -0.597  -3.328  0.00  0.00    -0.097 F 
ATOM     12  F4  UNL d   1       3.156   1.054  -2.076  0.00  0.00    -0.092 F 
ENDROOT
TORSDOF 0
ENDMDL
