MODEL 1
REMARK minimizedAffinity -6.03399849
REMARK minimizedRMSD -1
REMARK  0 active torsions:
REMARK  status: ('A' for Active; 'I' for Inactive)
ROOT
ATOM      1  C   UNL d   1       1.697  -0.962  -2.501  0.00  0.00     0.124 A 
ATOM      2  C1  UNL d   1       1.282  -2.025  -1.711  0.00  0.00     0.062 A 
ATOM      3  C2  UNL d   1       0.720  -1.790  -0.460  0.00  0.00     0.162 A 
ATOM      4  C3  UNL d   1       0.568  -0.485   0.010  0.00  0.00    -0.034 A 
ATOM      5  C4  UNL d   1       0.989   0.579  -0.790  0.00  0.00     0.162 A 
ATOM      6  C5  UNL d   1       1.550   0.339  -2.040  0.00  0.00     0.062 A 
ATOM      7  F   UNL d   1       1.951   1.367  -2.801  0.00  0.00    -0.097 F 
ATOM      8  F1  UNL d   1       0.858   1.846  -0.370  0.00  0.00    -0.096 F 
ATOM      9  I   UNL d   1      -0.272  -0.129   1.880  0.00  0.00    -0.060 I 
ATOM     10  F2  UNL d   1       0.327  -2.836   0.282  0.00  0.00    -0.096 F 
ATOM     11  F3  UNL d   1       1.424  -3.283  -2.154  0.00  0.00    -0.097 F 
ATOM     12  F4  UNL d   1       2.239  -1.191  -3.704  0.00  0.00    -0.092 F 
ENDROOT
TORSDOF 0
ENDMDL
