MODEL 1
REMARK minimizedAffinity 4.87893915
REMARK minimizedRMSD -1
REMARK  0 active torsions:
REMARK  status: ('A' for Active; 'I' for Inactive)
ROOT
ATOM      1  C   UNL d   1       2.389  -0.089  -1.091  0.00  0.00     0.124 A 
ATOM      2  C1  UNL d   1       1.565  -1.126  -0.677  0.00  0.00     0.062 A 
ATOM      3  C2  UNL d   1       0.310  -0.852  -0.141  0.00  0.00     0.162 A 
ATOM      4  C3  UNL d   1      -0.130   0.466  -0.017  0.00  0.00    -0.034 A 
ATOM      5  C4  UNL d   1       0.705   1.504  -0.435  0.00  0.00     0.162 A 
ATOM      6  C5  UNL d   1       1.959   1.225  -0.969  0.00  0.00     0.062 A 
ATOM      7  F   UNL d   1       2.754   2.228  -1.369  0.00  0.00    -0.097 F 
ATOM      8  F1  UNL d   1       0.314   2.783  -0.330  0.00  0.00    -0.096 F 
ATOM      9  I   UNL d   1      -2.006   0.881   0.783  0.00  0.00    -0.060 I 
ATOM     10  F2  UNL d   1      -0.466  -1.874   0.251  0.00  0.00    -0.096 F 
ATOM     11  F3  UNL d   1       1.979  -2.396  -0.792  0.00  0.00    -0.097 F 
ATOM     12  F4  UNL d   1       3.597  -0.356  -1.605  0.00  0.00    -0.092 F 
ENDROOT
TORSDOF 0
ENDMDL
