MODEL 1
REMARK minimizedAffinity -1.95917916
REMARK minimizedRMSD -1
REMARK  0 active torsions:
REMARK  status: ('A' for Active; 'I' for Inactive)
ROOT
ATOM      1  C   UNL d   1       1.295  -0.442  -1.176  0.00  0.00     0.124 A 
ATOM      2  C1  UNL d   1       0.687  -1.443  -0.432  0.00  0.00     0.062 A 
ATOM      3  C2  UNL d   1      -0.340  -1.131   0.455  0.00  0.00     0.162 A 
ATOM      4  C3  UNL d   1      -0.766   0.189   0.602  0.00  0.00    -0.034 A 
ATOM      5  C4  UNL d   1      -0.149   1.191  -0.149  0.00  0.00     0.162 A 
ATOM      6  C5  UNL d   1       0.876   0.874  -1.034  0.00  0.00     0.062 A 
ATOM      7  F   UNL d   1       1.463   1.843  -1.752  0.00  0.00    -0.097 F 
ATOM      8  F1  UNL d   1      -0.534   2.470  -0.032  0.00  0.00    -0.096 F 
ATOM      9  I   UNL d   1      -2.301   0.659   1.927  0.00  0.00    -0.060 I 
ATOM     10  F2  UNL d   1      -0.909  -2.119   1.161  0.00  0.00    -0.096 F 
ATOM     11  F3  UNL d   1       1.090  -2.715  -0.566  0.00  0.00    -0.097 F 
ATOM     12  F4  UNL d   1       2.283  -0.744  -2.028  0.00  0.00    -0.092 F 
ENDROOT
TORSDOF 0
ENDMDL
