MODEL 1
REMARK minimizedAffinity -1.62818789
REMARK minimizedRMSD -1
REMARK  0 active torsions:
REMARK  status: ('A' for Active; 'I' for Inactive)
ROOT
ATOM      1  C   UNL d   1       1.456  -1.845  -0.645  0.00  0.00     0.124 A 
ATOM      2  C1  UNL d   1       0.694  -1.396   0.425  0.00  0.00     0.062 A 
ATOM      3  C2  UNL d   1       0.471  -0.034   0.604  0.00  0.00     0.162 A 
ATOM      4  C3  UNL d   1       1.009   0.890  -0.292  0.00  0.00    -0.034 A 
ATOM      5  C4  UNL d   1       1.775   0.432  -1.365  0.00  0.00     0.162 A 
ATOM      6  C5  UNL d   1       1.995  -0.931  -1.539  0.00  0.00     0.062 A 
ATOM      7  F   UNL d   1       2.731  -1.362  -2.574  0.00  0.00    -0.097 F 
ATOM      8  F1  UNL d   1       2.307   1.293  -2.245  0.00  0.00    -0.096 F 
ATOM      9  I   UNL d   1       0.678   2.928  -0.029  0.00  0.00    -0.060 I 
ATOM     10  F2  UNL d   1      -0.268   0.371   1.647  0.00  0.00    -0.096 F 
ATOM     11  F3  UNL d   1       0.173  -2.278   1.291  0.00  0.00    -0.097 F 
ATOM     12  F4  UNL d   1       1.670  -3.156  -0.814  0.00  0.00    -0.092 F 
ENDROOT
TORSDOF 0
ENDMDL
