MODEL 1
REMARK minimizedAffinity 0.670443654
REMARK minimizedRMSD -1
REMARK  0 active torsions:
REMARK  status: ('A' for Active; 'I' for Inactive)
ROOT
ATOM      1  C   UNL d   1       1.759  -0.337  -1.669  0.00  0.00     0.124 A 
ATOM      2  C1  UNL d   1       1.795   0.992  -1.271  0.00  0.00     0.062 A 
ATOM      3  C2  UNL d   1       1.000   1.428  -0.215  0.00  0.00     0.162 A 
ATOM      4  C3  UNL d   1       0.162   0.534   0.451  0.00  0.00    -0.034 A 
ATOM      5  C4  UNL d   1       0.131  -0.801   0.044  0.00  0.00     0.162 A 
ATOM      6  C5  UNL d   1       0.927  -1.232  -1.012  0.00  0.00     0.062 A 
ATOM      7  F   UNL d   1       0.891  -2.517  -1.395  0.00  0.00    -0.097 F 
ATOM      8  F1  UNL d   1      -0.663  -1.688   0.663  0.00  0.00    -0.096 F 
ATOM      9  I   UNL d   1      -1.028   1.182   2.031  0.00  0.00    -0.060 I 
ATOM     10  F2  UNL d   1       1.055   2.718   0.148  0.00  0.00    -0.096 F 
ATOM     11  F3  UNL d   1       2.597   1.859  -1.906  0.00  0.00    -0.097 F 
ATOM     12  F4  UNL d   1       2.524  -0.754  -2.687  0.00  0.00    -0.092 F 
ENDROOT
TORSDOF 0
ENDMDL
