MODEL 1
REMARK minimizedAffinity -0.793925166
REMARK minimizedRMSD -1
REMARK  0 active torsions:
REMARK  status: ('A' for Active; 'I' for Inactive)
ROOT
ATOM      1  C   UNL d   1       1.711  -0.701  -1.335  0.00  0.00     0.124 A 
ATOM      2  C1  UNL d   1       1.187   0.584  -1.378  0.00  0.00     0.062 A 
ATOM      3  C2  UNL d   1       0.218   0.975  -0.458  0.00  0.00     0.162 A 
ATOM      4  C3  UNL d   1      -0.234   0.081   0.512  0.00  0.00    -0.034 A 
ATOM      5  C4  UNL d   1       0.297  -1.210   0.548  0.00  0.00     0.162 A 
ATOM      6  C5  UNL d   1       1.266  -1.596  -0.373  0.00  0.00     0.062 A 
ATOM      7  F   UNL d   1       1.771  -2.837  -0.331  0.00  0.00    -0.097 F 
ATOM      8  F1  UNL d   1      -0.114  -2.095   1.468  0.00  0.00    -0.096 F 
ATOM      9  I   UNL d   1      -1.683   0.662   1.888  0.00  0.00    -0.060 I 
ATOM     10  F2  UNL d   1      -0.271   2.223  -0.523  0.00  0.00    -0.096 F 
ATOM     11  F3  UNL d   1       1.614   1.451  -2.307  0.00  0.00    -0.097 F 
ATOM     12  F4  UNL d   1       2.643  -1.075  -2.222  0.00  0.00    -0.092 F 
ENDROOT
TORSDOF 0
ENDMDL
