MODEL 1
REMARK minimizedAffinity -1.57125044
REMARK minimizedRMSD -1
REMARK  0 active torsions:
REMARK  status: ('A' for Active; 'I' for Inactive)
ROOT
ATOM      1  C   UNL d   1      -1.602   0.028   1.484  0.00  0.00     0.124 A 
ATOM      2  C1  UNL d   1      -1.861   0.873   0.414  0.00  0.00     0.062 A 
ATOM      3  C2  UNL d   1      -0.964   0.954  -0.647  0.00  0.00     0.162 A 
ATOM      4  C3  UNL d   1       0.201   0.188  -0.644  0.00  0.00    -0.034 A 
ATOM      5  C4  UNL d   1       0.456  -0.659   0.437  0.00  0.00     0.162 A 
ATOM      6  C5  UNL d   1      -0.444  -0.737   1.495  0.00  0.00     0.062 A 
ATOM      7  F   UNL d   1      -0.191  -1.553   2.528  0.00  0.00    -0.097 F 
ATOM      8  F1  UNL d   1       1.567  -1.409   0.472  0.00  0.00    -0.096 F 
ATOM      9  I   UNL d   1       1.545   0.307  -2.228  0.00  0.00    -0.060 I 
ATOM     10  F2  UNL d   1      -1.241   1.779  -1.668  0.00  0.00    -0.096 F 
ATOM     11  F3  UNL d   1      -2.979   1.613   0.402  0.00  0.00    -0.097 F 
ATOM     12  F4  UNL d   1      -2.466  -0.048   2.504  0.00  0.00    -0.092 F 
ENDROOT
TORSDOF 0
ENDMDL
