MODEL 1
REMARK minimizedAffinity -0.21156837
REMARK minimizedRMSD -1
REMARK  0 active torsions:
REMARK  status: ('A' for Active; 'I' for Inactive)
ROOT
ATOM      1  C   UNL d   1       2.178  -1.202  -1.198  0.00  0.00     0.124 A 
ATOM      2  C1  UNL d   1       2.005   0.153  -0.954  0.00  0.00     0.062 A 
ATOM      3  C2  UNL d   1       1.109   0.580   0.022  0.00  0.00     0.162 A 
ATOM      4  C3  UNL d   1       0.380  -0.350   0.763  0.00  0.00    -0.034 A 
ATOM      5  C4  UNL d   1       0.559  -1.712   0.511  0.00  0.00     0.162 A 
ATOM      6  C5  UNL d   1       1.455  -2.133  -0.465  0.00  0.00     0.062 A 
ATOM      7  F   UNL d   1       1.621  -3.443  -0.700  0.00  0.00    -0.097 F 
ATOM      8  F1  UNL d   1      -0.126  -2.633   1.205  0.00  0.00    -0.096 F 
ATOM      9  I   UNL d   1      -0.960   0.283   2.224  0.00  0.00    -0.060 I 
ATOM     10  F2  UNL d   1       0.962   1.896   0.237  0.00  0.00    -0.096 F 
ATOM     11  F3  UNL d   1       2.701   1.055  -1.661  0.00  0.00    -0.097 F 
ATOM     12  F4  UNL d   1       3.039  -1.610  -2.139  0.00  0.00    -0.092 F 
ENDROOT
TORSDOF 0
ENDMDL
