MODEL 1
REMARK minimizedAffinity 0.910971582
REMARK minimizedRMSD -1
REMARK  0 active torsions:
REMARK  status: ('A' for Active; 'I' for Inactive)
ROOT
ATOM      1  C   UNL d   1      -0.374  -0.865   1.229  0.00  0.00     0.124 A 
ATOM      2  C1  UNL d   1      -0.040   0.477   1.107  0.00  0.00     0.062 A 
ATOM      3  C2  UNL d   1       0.735   0.911   0.036  0.00  0.00     0.162 A 
ATOM      4  C3  UNL d   1       1.182   0.002  -0.923  0.00  0.00    -0.034 A 
ATOM      5  C4  UNL d   1       0.843  -1.346  -0.793  0.00  0.00     0.162 A 
ATOM      6  C5  UNL d   1       0.068  -1.775   0.279  0.00  0.00     0.062 A 
ATOM      7  F   UNL d   1      -0.253  -3.071   0.395  0.00  0.00    -0.097 F 
ATOM      8  F1  UNL d   1       1.256  -2.247  -1.697  0.00  0.00    -0.096 F 
ATOM      9  I   UNL d   1       2.342   0.647  -2.526  0.00  0.00    -0.060 I 
ATOM     10  F2  UNL d   1       1.042   2.213  -0.056  0.00  0.00    -0.096 F 
ATOM     11  F3  UNL d   1      -0.465   1.358   2.024  0.00  0.00    -0.097 F 
ATOM     12  F4  UNL d   1      -1.119  -1.280   2.261  0.00  0.00    -0.092 F 
ENDROOT
TORSDOF 0
ENDMDL
