MODEL 1
REMARK minimizedAffinity 1.65098751
REMARK minimizedRMSD -1
REMARK  0 active torsions:
REMARK  status: ('A' for Active; 'I' for Inactive)
ROOT
ATOM      1  C   UNL d   1      -3.245   1.986   2.406  0.00  0.00     0.124 A 
ATOM      2  C1  UNL d   1      -3.818   1.085   1.519  0.00  0.00     0.062 A 
ATOM      3  C2  UNL d   1      -3.149  -0.088   1.182  0.00  0.00     0.162 A 
ATOM      4  C3  UNL d   1      -1.899  -0.368   1.734  0.00  0.00    -0.034 A 
ATOM      5  C4  UNL d   1      -1.328   0.543   2.624  0.00  0.00     0.162 A 
ATOM      6  C5  UNL d   1      -2.001   1.714   2.958  0.00  0.00     0.062 A 
ATOM      7  F   UNL d   1      -1.446   2.583   3.815  0.00  0.00    -0.097 F 
ATOM      8  F1  UNL d   1      -0.127   0.306   3.173  0.00  0.00    -0.096 F 
ATOM      9  I   UNL d   1      -0.894  -2.120   1.232  0.00  0.00    -0.060 I 
ATOM     10  F2  UNL d   1      -3.727  -0.940   0.323  0.00  0.00    -0.096 F 
ATOM     11  F3  UNL d   1      -5.020   1.345   0.985  0.00  0.00    -0.097 F 
ATOM     12  F4  UNL d   1      -3.891   3.114   2.728  0.00  0.00    -0.092 F 
ENDROOT
TORSDOF 0
ENDMDL
