MODEL 1
REMARK minimizedAffinity -0.925234497
REMARK minimizedRMSD -1
REMARK  0 active torsions:
REMARK  status: ('A' for Active; 'I' for Inactive)
ROOT
ATOM      1  C   UNL d   1      -3.235   0.299   1.409  0.00  0.00     0.124 A 
ATOM      2  C1  UNL d   1      -2.038   0.194   2.104  0.00  0.00     0.062 A 
ATOM      3  C2  UNL d   1      -0.884  -0.229   1.451  0.00  0.00     0.162 A 
ATOM      4  C3  UNL d   1      -0.920  -0.549   0.094  0.00  0.00    -0.034 A 
ATOM      5  C4  UNL d   1      -2.128  -0.441  -0.598  0.00  0.00     0.162 A 
ATOM      6  C5  UNL d   1      -3.279  -0.018   0.059  0.00  0.00     0.062 A 
ATOM      7  F   UNL d   1      -4.434   0.083  -0.614  0.00  0.00    -0.097 F 
ATOM      8  F1  UNL d   1      -2.198  -0.741  -1.904  0.00  0.00    -0.096 F 
ATOM      9  I   UNL d   1       0.803  -1.181  -0.887  0.00  0.00    -0.060 I 
ATOM     10  F2  UNL d   1       0.259  -0.321   2.148  0.00  0.00    -0.096 F 
ATOM     11  F3  UNL d   1      -1.993   0.499   3.409  0.00  0.00    -0.097 F 
ATOM     12  F4  UNL d   1      -4.344   0.705   2.040  0.00  0.00    -0.092 F 
ENDROOT
TORSDOF 0
ENDMDL
