MODEL 1
REMARK minimizedAffinity -4.80609703
REMARK minimizedRMSD -1
REMARK  0 active torsions:
REMARK  status: ('A' for Active; 'I' for Inactive)
ROOT
ATOM      1  C4' PXY d   1       1.638   0.778  -0.403  0.00  0.00     0.077 C 
ATOM      2  C1' PXY d   1      -3.821  -1.105  -0.152  0.00  0.00     0.077 C 
ATOM      3  C1  PXY d   1      -2.391  -0.609  -0.231  0.00  0.00    -0.082 A 
ATOM      4  C2  PXY d   1      -1.507  -1.016   0.666  0.00  0.00     0.003 A 
ATOM      5  C3  PXY d   1      -0.217  -0.552   0.629  0.00  0.00     0.003 A 
ATOM      6  C4  PXY d   1       0.186   0.296  -0.368  0.00  0.00    -0.082 A 
ATOM      7  C5  PXY d   1      -0.707   0.707  -1.293  0.00  0.00     0.003 A 
ATOM      8  C6  PXY d   1      -2.022   0.257  -1.214  0.00  0.00     0.003 A 
ENDROOT
TORSDOF 0
ENDMDL
