MODEL 1
REMARK minimizedAffinity -3.06955504
REMARK minimizedRMSD -1
REMARK  0 active torsions:
REMARK  status: ('A' for Active; 'I' for Inactive)
ROOT
ATOM      1  C4' PXY d   1       0.130  -2.527   1.760  0.00  0.00     0.077 C 
ATOM      2  C1' PXY d   1      -1.278   1.283  -2.352  0.00  0.00     0.077 C 
ATOM      3  C1  PXY d   1      -0.896   0.286  -1.276  0.00  0.00    -0.082 A 
ATOM      4  C2  PXY d   1      -1.743  -0.675  -0.945  0.00  0.00     0.003 A 
ATOM      5  C3  PXY d   1      -1.427  -1.566   0.048  0.00  0.00     0.003 A 
ATOM      6  C4  PXY d   1      -0.210  -1.504   0.673  0.00  0.00    -0.082 A 
ATOM      7  C5  PXY d   1       0.663  -0.532   0.333  0.00  0.00     0.003 A 
ATOM      8  C6  PXY d   1       0.307   0.387  -0.649  0.00  0.00     0.003 A 
ENDROOT
TORSDOF 0
ENDMDL
