MODEL 1
REMARK minimizedAffinity -2.10271287
REMARK minimizedRMSD -1
REMARK  0 active torsions:
REMARK  status: ('A' for Active; 'I' for Inactive)
ROOT
ATOM      1  C4' PXY d   1      -0.094   0.078  -1.710  0.00  0.00     0.077 C 
ATOM      2  C1' PXY d   1       2.666   1.808   3.066  0.00  0.00     0.077 C 
ATOM      3  C1  PXY d   1       1.940   1.343   1.819  0.00  0.00    -0.082 A 
ATOM      4  C2  PXY d   1       2.191   1.928   0.659  0.00  0.00     0.003 A 
ATOM      5  C3  PXY d   1       1.520   1.541  -0.473  0.00  0.00     0.003 A 
ATOM      6  C4  PXY d   1       0.622   0.509  -0.427  0.00  0.00    -0.082 A 
ATOM      7  C5  PXY d   1       0.368  -0.101   0.751  0.00  0.00     0.003 A 
ATOM      8  C6  PXY d   1       1.030   0.334   1.896  0.00  0.00     0.003 A 
ENDROOT
TORSDOF 0
ENDMDL
