MODEL 1
REMARK minimizedAffinity -4.21067905
REMARK minimizedRMSD -1
REMARK  0 active torsions:
REMARK  status: ('A' for Active; 'I' for Inactive)
ROOT
ATOM      1  C4' PXY d   1       2.344   0.917   0.053  0.00  0.00     0.077 C 
ATOM      2  C1' PXY d   1      -3.075  -1.010  -0.532  0.00  0.00     0.077 C 
ATOM      3  C1  PXY d   1      -1.652  -0.505  -0.391  0.00  0.00    -0.082 A 
ATOM      4  C2  PXY d   1      -1.004  -0.683   0.749  0.00  0.00     0.003 A 
ATOM      5  C3  PXY d   1       0.271  -0.204   0.903  0.00  0.00     0.003 A 
ATOM      6  C4  PXY d   1       0.910   0.415  -0.137  0.00  0.00    -0.082 A 
ATOM      7  C5  PXY d   1       0.260   0.591  -1.307  0.00  0.00     0.003 A 
ATOM      8  C6  PXY d   1      -1.050   0.134  -1.430  0.00  0.00     0.003 A 
ENDROOT
TORSDOF 0
ENDMDL
