MODEL 1
REMARK minimizedAffinity -3.06318665
REMARK minimizedRMSD -1
REMARK  0 active torsions:
REMARK  status: ('A' for Active; 'I' for Inactive)
ROOT
ATOM      1  C4' PXY d   1       1.867   0.709   0.272  0.00  0.00     0.077 C 
ATOM      2  C1' PXY d   1      -3.414  -1.534  -0.429  0.00  0.00     0.077 C 
ATOM      3  C1  PXY d   1      -2.027  -0.946  -0.258  0.00  0.00    -0.082 A 
ATOM      4  C2  PXY d   1      -1.389  -1.100   0.890  0.00  0.00     0.003 A 
ATOM      5  C3  PXY d   1      -0.147  -0.547   1.073  0.00  0.00     0.003 A 
ATOM      6  C4  PXY d   1       0.469   0.125   0.052  0.00  0.00    -0.082 A 
ATOM      7  C5  PXY d   1      -0.171   0.276  -1.127  0.00  0.00     0.003 A 
ATOM      8  C6  PXY d   1      -1.448  -0.257  -1.278  0.00  0.00     0.003 A 
ENDROOT
TORSDOF 0
ENDMDL
