MODEL 1
REMARK minimizedAffinity -4.68388128
REMARK minimizedRMSD -1
REMARK  0 active torsions:
REMARK  status: ('A' for Active; 'I' for Inactive)
ROOT
ATOM      1  C4' PXY d   1      -2.585  -1.079  -0.437  0.00  0.00     0.077 C 
ATOM      2  C1' PXY d   1       2.394   1.762   0.310  0.00  0.00     0.077 C 
ATOM      3  C1  PXY d   1       1.092   1.008   0.123  0.00  0.00    -0.082 A 
ATOM      4  C2  PXY d   1       0.420   1.135  -1.010  0.00  0.00     0.003 A 
ATOM      5  C3  PXY d   1      -0.776   0.485  -1.183  0.00  0.00     0.003 A 
ATOM      6  C4  PXY d   1      -1.261  -0.344  -0.208  0.00  0.00    -0.082 A 
ATOM      7  C5  PXY d   1      -0.576  -0.487   0.946  0.00  0.00     0.003 A 
ATOM      8  C6  PXY d   1       0.615   0.213   1.119  0.00  0.00     0.003 A 
ENDROOT
TORSDOF 0
ENDMDL
