MODEL 1
REMARK minimizedAffinity -0.211065844
REMARK minimizedRMSD -1
REMARK  0 active torsions:
REMARK  status: ('A' for Active; 'I' for Inactive)
ROOT
ATOM      1  C4' PXY d   1       0.443  -2.074   1.786  0.00  0.00     0.077 C 
ATOM      2  C1' PXY d   1      -1.836   1.030  -2.525  0.00  0.00     0.077 C 
ATOM      3  C1  PXY d   1      -1.228   0.223  -1.395  0.00  0.00    -0.082 A 
ATOM      4  C2  PXY d   1      -1.653  -1.009  -1.168  0.00  0.00     0.003 A 
ATOM      5  C3  PXY d   1      -1.136  -1.742  -0.131  0.00  0.00     0.003 A 
ATOM      6  C4  PXY d   1      -0.136  -1.226   0.650  0.00  0.00    -0.082 A 
ATOM      7  C5  PXY d   1       0.310   0.026   0.419  0.00  0.00     0.003 A 
ATOM      8  C6  PXY d   1      -0.256   0.768  -0.613  0.00  0.00     0.003 A 
ENDROOT
TORSDOF 0
ENDMDL
