MODEL 1
REMARK minimizedAffinity -4.79727888
REMARK minimizedRMSD -1
REMARK  0 active torsions:
REMARK  status: ('A' for Active; 'I' for Inactive)
ROOT
ATOM      1  C4' PXY d   1       2.564   0.668  -0.038  0.00  0.00     0.077 C 
ATOM      2  C1' PXY d   1      -3.040  -0.715  -0.354  0.00  0.00     0.077 C 
ATOM      3  C1  PXY d   1      -1.570  -0.351  -0.284  0.00  0.00    -0.082 A 
ATOM      4  C2  PXY d   1      -0.834  -0.792   0.723  0.00  0.00     0.003 A 
ATOM      5  C3  PXY d   1       0.489  -0.446   0.819  0.00  0.00     0.003 A 
ATOM      6  C4  PXY d   1       1.078   0.317  -0.154  0.00  0.00    -0.082 A 
ATOM      7  C5  PXY d   1       0.336   0.762  -1.190  0.00  0.00     0.003 A 
ATOM      8  C6  PXY d   1      -1.015   0.433  -1.248  0.00  0.00     0.003 A 
ENDROOT
TORSDOF 0
ENDMDL
