MODEL 1
REMARK minimizedAffinity -3.76720524
REMARK minimizedRMSD -1
REMARK  0 active torsions:
REMARK  status: ('A' for Active; 'I' for Inactive)
ROOT
ATOM      1  C4' PXY d   1       1.584   0.887  -0.397  0.00  0.00     0.077 C 
ATOM      2  C1' PXY d   1      -3.737  -1.337   0.001  0.00  0.00     0.077 C 
ATOM      3  C1  PXY d   1      -2.342  -0.750  -0.091  0.00  0.00    -0.082 A 
ATOM      4  C2  PXY d   1      -1.862  -0.386  -1.269  0.00  0.00     0.003 A 
ATOM      5  C3  PXY d   1      -0.591   0.117  -1.374  0.00  0.00     0.003 A 
ATOM      6  C4  PXY d   1       0.177   0.298  -0.255  0.00  0.00    -0.082 A 
ATOM      7  C5  PXY d   1      -0.309  -0.061   0.951  0.00  0.00     0.003 A 
ATOM      8  C6  PXY d   1      -1.587  -0.608   1.032  0.00  0.00     0.003 A 
ENDROOT
TORSDOF 0
ENDMDL
