MODEL 1
REMARK minimizedAffinity -5.29930687
REMARK minimizedRMSD -1
REMARK  0 active torsions:
REMARK  status: ('A' for Active; 'I' for Inactive)
ROOT
ATOM      1  C4' PXY d   1       2.221   0.803  -0.090  0.00  0.00     0.077 C 
ATOM      2  C1' PXY d   1      -3.255  -1.047  -0.076  0.00  0.00     0.077 C 
ATOM      3  C1  PXY d   1      -1.818  -0.565  -0.067  0.00  0.00    -0.082 A 
ATOM      4  C2  PXY d   1      -1.413   0.303  -0.981  0.00  0.00     0.003 A 
ATOM      5  C3  PXY d   1      -0.109   0.725  -1.007  0.00  0.00     0.003 A 
ATOM      6  C4  PXY d   1       0.777   0.296  -0.055  0.00  0.00    -0.082 A 
ATOM      7  C5  PXY d   1       0.369  -0.581   0.887  0.00  0.00     0.003 A 
ATOM      8  C6  PXY d   1      -0.948  -1.029   0.871  0.00  0.00     0.003 A 
ENDROOT
TORSDOF 0
ENDMDL
