MODEL 1
REMARK minimizedAffinity -4.20251846
REMARK minimizedRMSD -1
REMARK  0 active torsions:
REMARK  status: ('A' for Active; 'I' for Inactive)
ROOT
ATOM      1  C4' PXY d   1       2.045   0.453  -0.029  0.00  0.00     0.077 C 
ATOM      2  C1' PXY d   1      -3.619  -0.645   0.330  0.00  0.00     0.077 C 
ATOM      3  C1  PXY d   1      -2.135  -0.357   0.223  0.00  0.00    -0.082 A 
ATOM      4  C2  PXY d   1      -1.326  -0.718   1.205  0.00  0.00     0.003 A 
ATOM      5  C3  PXY d   1       0.014  -0.436   1.139  0.00  0.00     0.003 A 
ATOM      6  C4  PXY d   1       0.540   0.174   0.032  0.00  0.00    -0.082 A 
ATOM      7  C5  PXY d   1      -0.277   0.536  -0.980  0.00  0.00     0.003 A 
ATOM      8  C6  PXY d   1      -1.641   0.278  -0.875  0.00  0.00     0.003 A 
ENDROOT
TORSDOF 0
ENDMDL
