MODEL 1
REMARK minimizedAffinity -2.04036522
REMARK minimizedRMSD -1
REMARK  0 active torsions:
REMARK  status: ('A' for Active; 'I' for Inactive)
ROOT
ATOM      1  C4' PXY d   1       1.364   0.954  -0.009  0.00  0.00     0.077 C 
ATOM      2  C1' PXY d   1      -3.779  -1.680  -0.138  0.00  0.00     0.077 C 
ATOM      3  C1  PXY d   1      -2.428  -0.994  -0.116  0.00  0.00    -0.082 A 
ATOM      4  C2  PXY d   1      -1.862  -0.701   1.043  0.00  0.00     0.003 A 
ATOM      5  C3  PXY d   1      -0.654  -0.052   1.081  0.00  0.00     0.003 A 
ATOM      6  C4  PXY d   1       0.005   0.253  -0.079  0.00  0.00    -0.082 A 
ATOM      7  C5  PXY d   1      -0.561  -0.052  -1.266  0.00  0.00     0.003 A 
ATOM      8  C6  PXY d   1      -1.806  -0.674  -1.284  0.00  0.00     0.003 A 
ENDROOT
TORSDOF 0
ENDMDL
