MODEL 1
REMARK minimizedAffinity -4.93355131
REMARK minimizedRMSD -1
REMARK  0 active torsions:
REMARK  status: ('A' for Active; 'I' for Inactive)
ROOT
ATOM      1  C4' PXY d   1       1.675   0.803   0.093  0.00  0.00     0.077 C 
ATOM      2  C1' PXY d   1      -3.661  -1.391  -0.259  0.00  0.00     0.077 C 
ATOM      3  C1  PXY d   1      -2.261  -0.816  -0.180  0.00  0.00    -0.082 A 
ATOM      4  C2  PXY d   1      -1.550  -0.975   0.924  0.00  0.00     0.003 A 
ATOM      5  C3  PXY d   1      -0.294  -0.434   1.025  0.00  0.00     0.003 A 
ATOM      6  C4  PXY d   1       0.261   0.231  -0.035  0.00  0.00    -0.082 A 
ATOM      7  C5  PXY d   1      -0.455   0.389  -1.169  0.00  0.00     0.003 A 
ATOM      8  C6  PXY d   1      -1.743  -0.132  -1.236  0.00  0.00     0.003 A 
ENDROOT
TORSDOF 0
ENDMDL
