MODEL 1
REMARK minimizedAffinity -4.19490051
REMARK minimizedRMSD -1
REMARK  0 active torsions:
REMARK  status: ('A' for Active; 'I' for Inactive)
ROOT
ATOM      1  C4' PXY d   1       2.231   1.045   0.135  0.00  0.00     0.077 C 
ATOM      2  C1' PXY d   1      -3.187  -0.914  -0.340  0.00  0.00     0.077 C 
ATOM      3  C1  PXY d   1      -1.767  -0.402  -0.203  0.00  0.00    -0.082 A 
ATOM      4  C2  PXY d   1      -1.253   0.363  -1.152  0.00  0.00     0.003 A 
ATOM      5  C3  PXY d   1       0.040   0.809  -1.059  0.00  0.00     0.003 A 
ATOM      6  C4  PXY d   1       0.798   0.513   0.042  0.00  0.00    -0.082 A 
ATOM      7  C5  PXY d   1       0.277  -0.259   1.020  0.00  0.00     0.003 A 
ATOM      8  C6  PXY d   1      -1.024  -0.735   0.887  0.00  0.00     0.003 A 
ENDROOT
TORSDOF 0
ENDMDL
