MODEL 1
REMARK minimizedAffinity -4.47592068
REMARK minimizedRMSD -1
REMARK  0 active torsions:
REMARK  status: ('A' for Active; 'I' for Inactive)
ROOT
ATOM      1  C4' PXY d   1      -2.973  -1.025  -0.684  0.00  0.00     0.077 C 
ATOM      2  C1' PXY d   1       2.282   1.149   0.351  0.00  0.00     0.077 C 
ATOM      3  C1  PXY d   1       0.901   0.588   0.071  0.00  0.00    -0.082 A 
ATOM      4  C2  PXY d   1       0.301  -0.158   0.984  0.00  0.00     0.003 A 
ATOM      5  C3  PXY d   1      -0.934  -0.699   0.734  0.00  0.00     0.003 A 
ATOM      6  C4  PXY d   1      -1.583  -0.431  -0.441  0.00  0.00    -0.082 A 
ATOM      7  C5  PXY d   1      -0.982   0.338  -1.373  0.00  0.00     0.003 A 
ATOM      8  C6  PXY d   1       0.289   0.845  -1.117  0.00  0.00     0.003 A 
ENDROOT
TORSDOF 0
ENDMDL
