MODEL 1
REMARK minimizedAffinity 1.53159726
REMARK minimizedRMSD -1
REMARK  0 active torsions:
REMARK  status: ('A' for Active; 'I' for Inactive)
ROOT
ATOM      1  C4' PXY d   1      -1.090  -2.033   2.821  0.00  0.00     0.077 C 
ATOM      2  C1' PXY d   1       0.423   1.128  -1.776  0.00  0.00     0.077 C 
ATOM      3  C1  PXY d   1       0.015   0.305  -0.570  0.00  0.00    -0.082 A 
ATOM      4  C2  PXY d   1       0.945  -0.194   0.227  0.00  0.00     0.003 A 
ATOM      5  C3  PXY d   1       0.595  -0.968   1.303  0.00  0.00     0.003 A 
ATOM      6  C4  PXY d   1      -0.724  -1.188   1.598  0.00  0.00    -0.082 A 
ATOM      7  C5  PXY d   1      -1.680  -0.673   0.795  0.00  0.00     0.003 A 
ATOM      8  C6  PXY d   1      -1.302   0.074  -0.316  0.00  0.00     0.003 A 
ENDROOT
TORSDOF 0
ENDMDL
