MODEL 1
REMARK minimizedAffinity -4.45706606
REMARK minimizedRMSD -1
REMARK  0 active torsions:
REMARK  status: ('A' for Active; 'I' for Inactive)
ROOT
ATOM      1  C4' PXY d   1       2.281   1.406   0.816  0.00  0.00     0.077 C 
ATOM      2  C1' PXY d   1      -2.869  -1.053  -0.102  0.00  0.00     0.077 C 
ATOM      3  C1  PXY d   1      -1.516  -0.417   0.148  0.00  0.00    -0.082 A 
ATOM      4  C2  PXY d   1      -1.316   0.848  -0.186  0.00  0.00     0.003 A 
ATOM      5  C3  PXY d   1      -0.089   1.430   0.004  0.00  0.00     0.003 A 
ATOM      6  C4  PXY d   1       0.928   0.725   0.590  0.00  0.00    -0.082 A 
ATOM      7  C5  PXY d   1       0.729  -0.563   0.943  0.00  0.00     0.003 A 
ATOM      8  C6  PXY d   1      -0.511  -1.147   0.704  0.00  0.00     0.003 A 
ENDROOT
TORSDOF 0
ENDMDL
