MODEL 1
REMARK minimizedAffinity -5.60225153
REMARK minimizedRMSD -1
REMARK  0 active torsions:
REMARK  status: ('A' for Active; 'I' for Inactive)
ROOT
ATOM      1  C4' PXY d   1       1.762   0.092   0.177  0.00  0.00     0.077 C 
ATOM      2  C1' PXY d   1      -3.734  -1.691   0.354  0.00  0.00     0.077 C 
ATOM      3  C1  PXY d   1      -2.294  -1.220   0.295  0.00  0.00    -0.082 A 
ATOM      4  C2  PXY d   1      -1.410  -1.712   1.147  0.00  0.00     0.003 A 
ATOM      5  C3  PXY d   1      -0.111  -1.274   1.129  0.00  0.00     0.003 A 
ATOM      6  C4  PXY d   1       0.299  -0.361   0.194  0.00  0.00    -0.082 A 
ATOM      7  C5  PXY d   1      -0.595   0.138  -0.685  0.00  0.00     0.003 A 
ATOM      8  C6  PXY d   1      -1.918  -0.290  -0.623  0.00  0.00     0.003 A 
ENDROOT
TORSDOF 0
ENDMDL
