MODEL 1
REMARK minimizedAffinity -4.62837744
REMARK minimizedRMSD -1
REMARK  0 active torsions:
REMARK  status: ('A' for Active; 'I' for Inactive)
ROOT
ATOM      1  C4' PXY d   1       1.596   0.575   0.638  0.00  0.00     0.077 C 
ATOM      2  C1' PXY d   1      -3.689  -1.510  -0.425  0.00  0.00     0.077 C 
ATOM      3  C1  PXY d   1      -2.305  -0.964  -0.133  0.00  0.00    -0.082 A 
ATOM      4  C2  PXY d   1      -1.701  -0.200  -1.029  0.00  0.00     0.003 A 
ATOM      5  C3  PXY d   1      -0.437   0.276  -0.795  0.00  0.00     0.003 A 
ATOM      6  C4  PXY d   1       0.195   0.010   0.390  0.00  0.00    -0.082 A 
ATOM      7  C5  PXY d   1      -0.419  -0.760   1.314  0.00  0.00     0.003 A 
ATOM      8  C6  PXY d   1      -1.686  -1.267   1.040  0.00  0.00     0.003 A 
ENDROOT
TORSDOF 0
ENDMDL
