MODEL 1
REMARK minimizedAffinity 1.85366905
REMARK minimizedRMSD -1
REMARK  0 active torsions:
REMARK  status: ('A' for Active; 'I' for Inactive)
ROOT
ATOM      1  C   UNL d   1       2.293   3.744  -5.579  0.00  0.00     0.023 A 
ATOM      2  C1  UNL d   1       1.241   2.930  -6.000  0.00  0.00     0.003 A 
ATOM      3  C2  UNL d   1       1.128   1.625  -5.516  0.00  0.00     0.048 A 
ATOM      4  C3  UNL d   1       2.071   1.140  -4.610  0.00  0.00     0.023 A 
ATOM      5  C4  UNL d   1       3.125   1.951  -4.185  0.00  0.00     0.048 A 
ATOM      6  C5  UNL d   1       3.234   3.255  -4.673  0.00  0.00     0.003 A 
ATOM      7  I   UNL d   1       1.906  -0.801  -3.887  0.00  0.00    -0.146 I 
ENDROOT
TORSDOF 0
ENDMDL
