MODEL 1
REMARK minimizedAffinity -1.9023006
REMARK minimizedRMSD -1
REMARK  0 active torsions:
REMARK  status: ('A' for Active; 'I' for Inactive)
ROOT
ATOM      1  C   UNL d   1      -0.025   0.004   0.743  0.00  0.00     0.023 A 
ATOM      2  C1  UNL d   1      -0.059   0.825  -0.384  0.00  0.00     0.003 A 
ATOM      3  C2  UNL d   1       0.143   0.278  -1.653  0.00  0.00     0.048 A 
ATOM      4  C3  UNL d   1       0.376  -1.090  -1.788  0.00  0.00     0.023 A 
ATOM      5  C4  UNL d   1       0.410  -1.915  -0.663  0.00  0.00     0.048 A 
ATOM      6  C5  UNL d   1       0.209  -1.364   0.604  0.00  0.00     0.003 A 
ATOM      7  I   UNL d   1       0.676  -1.906  -3.676  0.00  0.00    -0.146 I 
ENDROOT
TORSDOF 0
ENDMDL
