MODEL 1
REMARK minimizedAffinity -0.485279083
REMARK minimizedRMSD -1
REMARK  0 active torsions:
REMARK  status: ('A' for Active; 'I' for Inactive)
ROOT
ATOM      1  C   UNL d   1       1.271  -0.845  -4.537  0.00  0.00     0.023 A 
ATOM      2  C1  UNL d   1       0.179  -1.557  -4.042  0.00  0.00     0.003 A 
ATOM      3  C2  UNL d   1      -0.286  -1.315  -2.747  0.00  0.00     0.048 A 
ATOM      4  C3  UNL d   1       0.346  -0.358  -1.954  0.00  0.00     0.023 A 
ATOM      5  C4  UNL d   1       1.438   0.359  -2.446  0.00  0.00     0.048 A 
ATOM      6  C5  UNL d   1       1.900   0.112  -3.740  0.00  0.00     0.003 A 
ATOM      7  I   UNL d   1      -0.344   0.005  -0.027  0.00  0.00    -0.146 I 
ENDROOT
TORSDOF 0
ENDMDL
