MODEL 1
REMARK minimizedAffinity -1.23452759
REMARK minimizedRMSD -1
REMARK  0 active torsions:
REMARK  status: ('A' for Active; 'I' for Inactive)
ROOT
ATOM      1  C   UNL d   1      -0.401  -0.140   2.609  0.00  0.00     0.023 A 
ATOM      2  C1  UNL d   1       0.777   0.383   2.075  0.00  0.00     0.003 A 
ATOM      3  C2  UNL d   1       0.902   0.559   0.695  0.00  0.00     0.048 A 
ATOM      4  C3  UNL d   1      -0.155   0.211  -0.145  0.00  0.00     0.023 A 
ATOM      5  C4  UNL d   1      -1.336  -0.312   0.385  0.00  0.00     0.048 A 
ATOM      6  C5  UNL d   1      -1.456  -0.487   1.765  0.00  0.00     0.003 A 
ATOM      7  I   UNL d   1       0.028   0.472  -2.199  0.00  0.00    -0.146 I 
ENDROOT
TORSDOF 0
ENDMDL
