MODEL 1
REMARK minimizedAffinity -2.11946559
REMARK minimizedRMSD -1
REMARK  0 active torsions:
REMARK  status: ('A' for Active; 'I' for Inactive)
ROOT
ATOM      1  C   UNL d   1       0.023  -0.092   2.590  0.00  0.00     0.023 A 
ATOM      2  C1  UNL d   1       1.250   0.216   2.002  0.00  0.00     0.003 A 
ATOM      3  C2  UNL d   1       1.373   0.237   0.611  0.00  0.00     0.048 A 
ATOM      4  C3  UNL d   1       0.266  -0.049  -0.186  0.00  0.00     0.023 A 
ATOM      5  C4  UNL d   1      -0.965  -0.356   0.398  0.00  0.00     0.048 A 
ATOM      6  C5  UNL d   1      -1.083  -0.378   1.789  0.00  0.00     0.003 A 
ATOM      7  I   UNL d   1       0.447  -0.017  -2.256  0.00  0.00    -0.146 I 
ENDROOT
TORSDOF 0
ENDMDL
