MODEL 1
REMARK minimizedAffinity -2.11716771
REMARK minimizedRMSD -1
REMARK  0 active torsions:
REMARK  status: ('A' for Active; 'I' for Inactive)
ROOT
ATOM      1  C   UNL d   1      -0.502  -0.039   2.482  0.00  0.00     0.023 A 
ATOM      2  C1  UNL d   1      -1.512  -0.399   1.590  0.00  0.00     0.003 A 
ATOM      3  C2  UNL d   1      -1.274  -0.369   0.215  0.00  0.00     0.048 A 
ATOM      4  C3  UNL d   1      -0.023   0.020  -0.262  0.00  0.00     0.023 A 
ATOM      5  C4  UNL d   1       0.991   0.380   0.626  0.00  0.00     0.048 A 
ATOM      6  C5  UNL d   1       0.748   0.350   2.001  0.00  0.00     0.003 A 
ATOM      7  I   UNL d   1       0.333   0.064  -2.310  0.00  0.00    -0.146 I 
ENDROOT
TORSDOF 0
ENDMDL
