MODEL 1
REMARK minimizedAffinity -1.74779975
REMARK minimizedRMSD -1
REMARK  0 active torsions:
REMARK  status: ('A' for Active; 'I' for Inactive)
ROOT
ATOM      1  C   UNL d   1      -0.745  -0.606   2.847  0.00  0.00     0.023 A 
ATOM      2  C1  UNL d   1       0.403   0.063   2.424  0.00  0.00     0.003 A 
ATOM      3  C2  UNL d   1       0.590   0.343   1.069  0.00  0.00     0.048 A 
ATOM      4  C3  UNL d   1      -0.376  -0.048   0.142  0.00  0.00     0.023 A 
ATOM      5  C4  UNL d   1      -1.527  -0.717   0.562  0.00  0.00     0.048 A 
ATOM      6  C5  UNL d   1      -1.709  -0.995   1.917  0.00  0.00     0.003 A 
ATOM      7  I   UNL d   1      -0.100   0.368  -1.875  0.00  0.00    -0.146 I 
ENDROOT
TORSDOF 0
ENDMDL
