MODEL 1
REMARK minimizedAffinity -1.79580808
REMARK minimizedRMSD -1
REMARK  0 active torsions:
REMARK  status: ('A' for Active; 'I' for Inactive)
ROOT
ATOM      1  C   UNL d   1      -1.837  -0.709   0.966  0.00  0.00     0.023 A 
ATOM      2  C1  UNL d   1      -2.266   0.098  -0.088  0.00  0.00     0.003 A 
ATOM      3  C2  UNL d   1      -1.418   0.347  -1.169  0.00  0.00     0.048 A 
ATOM      4  C3  UNL d   1      -0.142  -0.217  -1.191  0.00  0.00     0.023 A 
ATOM      5  C4  UNL d   1       0.291  -1.026  -0.140  0.00  0.00     0.048 A 
ATOM      6  C5  UNL d   1      -0.560  -1.271   0.940  0.00  0.00     0.003 A 
ATOM      7  I   UNL d   1       1.121   0.151  -2.799  0.00  0.00    -0.146 I 
ENDROOT
TORSDOF 0
ENDMDL
