MODEL 1
REMARK minimizedAffinity -4.18158627
REMARK minimizedRMSD -1
REMARK  0 active torsions:
REMARK  status: ('A' for Active; 'I' for Inactive)
ROOT
ATOM      1  C   UNL d   1      -0.274  -0.335   3.127  0.00  0.00     0.023 A 
ATOM      2  C1  UNL d   1       0.785   0.395   2.589  0.00  0.00     0.003 A 
ATOM      3  C2  UNL d   1       1.055   0.331   1.220  0.00  0.00     0.048 A 
ATOM      4  C3  UNL d   1       0.262  -0.465   0.395  0.00  0.00     0.023 A 
ATOM      5  C4  UNL d   1      -0.800  -1.197   0.929  0.00  0.00     0.048 A 
ATOM      6  C5  UNL d   1      -1.066  -1.131   2.298  0.00  0.00     0.003 A 
ATOM      7  I   UNL d   1       0.661  -0.562  -1.642  0.00  0.00    -0.146 I 
ENDROOT
TORSDOF 0
ENDMDL
