MODEL 1
REMARK minimizedAffinity -3.31332994
REMARK minimizedRMSD -1
REMARK  0 active torsions:
REMARK  status: ('A' for Active; 'I' for Inactive)
ROOT
ATOM      1  C   UNL d   1       0.040   1.232  -1.426  0.00  0.00     0.023 A 
ATOM      2  C1  UNL d   1       1.085   0.993  -0.533  0.00  0.00     0.003 A 
ATOM      3  C2  UNL d   1       0.851   0.272   0.640  0.00  0.00     0.048 A 
ATOM      4  C3  UNL d   1      -0.429  -0.207   0.914  0.00  0.00     0.023 A 
ATOM      5  C4  UNL d   1      -1.477   0.029   0.022  0.00  0.00     0.048 A 
ATOM      6  C5  UNL d   1      -1.239   0.751  -1.149  0.00  0.00     0.003 A 
ATOM      7  I   UNL d   1      -0.780  -1.280   2.659  0.00  0.00    -0.146 I 
ENDROOT
TORSDOF 0
ENDMDL
