MODEL 1
REMARK minimizedAffinity -0.219778359
REMARK minimizedRMSD -1
REMARK  0 active torsions:
REMARK  status: ('A' for Active; 'I' for Inactive)
ROOT
ATOM      1  C   UNL d   1      -0.002  -0.011   1.296  0.00  0.00     0.023 A 
ATOM      2  C1  UNL d   1      -1.054  -0.359   0.449  0.00  0.00     0.003 A 
ATOM      3  C2  UNL d   1      -0.808  -0.628  -0.899  0.00  0.00     0.048 A 
ATOM      4  C3  UNL d   1       0.493  -0.548  -1.393  0.00  0.00     0.023 A 
ATOM      5  C4  UNL d   1       1.550  -0.201  -0.549  0.00  0.00     0.048 A 
ATOM      6  C5  UNL d   1       1.299   0.068   0.797  0.00  0.00     0.003 A 
ATOM      7  I   UNL d   1       0.862  -0.948  -3.399  0.00  0.00    -0.146 I 
ENDROOT
TORSDOF 0
ENDMDL
