MODEL 1
REMARK minimizedAffinity -4.70973825
REMARK minimizedRMSD -1
REMARK  0 active torsions:
REMARK  status: ('A' for Active; 'I' for Inactive)
ROOT
ATOM      1  C   UNL d   1      -1.032  -0.409   3.503  0.00  0.00     0.023 A 
ATOM      2  C1  UNL d   1      -1.691  -1.191   2.554  0.00  0.00     0.003 A 
ATOM      3  C2  UNL d   1      -1.364  -1.073   1.202  0.00  0.00     0.048 A 
ATOM      4  C3  UNL d   1      -0.376  -0.173   0.805  0.00  0.00     0.023 A 
ATOM      5  C4  UNL d   1       0.287   0.611   1.751  0.00  0.00     0.048 A 
ATOM      6  C5  UNL d   1      -0.044   0.491   3.102  0.00  0.00     0.003 A 
ATOM      7  I   UNL d   1       0.113   0.004  -1.208  0.00  0.00    -0.146 I 
ENDROOT
TORSDOF 0
ENDMDL
