MODEL 1
REMARK minimizedAffinity -4.32849693
REMARK minimizedRMSD -1
REMARK  0 active torsions:
REMARK  status: ('A' for Active; 'I' for Inactive)
ROOT
ATOM      1  C   UNL d   1       1.758  -0.059   1.516  0.00  0.00     0.023 A 
ATOM      2  C1  UNL d   1       0.798  -0.395   2.470  0.00  0.00     0.003 A 
ATOM      3  C2  UNL d   1      -0.558  -0.368   2.138  0.00  0.00     0.048 A 
ATOM      4  C3  UNL d   1      -0.947  -0.005   0.849  0.00  0.00     0.023 A 
ATOM      5  C4  UNL d   1       0.010   0.331  -0.110  0.00  0.00     0.048 A 
ATOM      6  C5  UNL d   1       1.365   0.304   0.227  0.00  0.00     0.003 A 
ATOM      7  I   UNL d   1      -2.965   0.036   0.352  0.00  0.00    -0.146 I 
ENDROOT
TORSDOF 0
ENDMDL
