MODEL 1
REMARK minimizedAffinity -2.92198873
REMARK minimizedRMSD -1
REMARK  0 active torsions:
REMARK  status: ('A' for Active; 'I' for Inactive)
ROOT
ATOM      1  C   UNL d   1      -0.195   0.107   2.917  0.00  0.00     0.023 A 
ATOM      2  C1  UNL d   1       1.107   0.298   2.455  0.00  0.00     0.003 A 
ATOM      3  C2  UNL d   1       1.379   0.244   1.087  0.00  0.00     0.048 A 
ATOM      4  C3  UNL d   1       0.344  -0.001   0.185  0.00  0.00     0.023 A 
ATOM      5  C4  UNL d   1      -0.961  -0.192   0.643  0.00  0.00     0.048 A 
ATOM      6  C5  UNL d   1      -1.228  -0.137   2.012  0.00  0.00     0.003 A 
ATOM      7  I   UNL d   1       0.746  -0.082  -1.852  0.00  0.00    -0.146 I 
ENDROOT
TORSDOF 0
ENDMDL
