MODEL 1
REMARK minimizedAffinity -2.76076889
REMARK minimizedRMSD -1
REMARK  0 active torsions:
REMARK  status: ('A' for Active; 'I' for Inactive)
ROOT
ATOM      1  C   UNL d   1      -0.819   0.640  -1.634  0.00  0.00     0.023 A 
ATOM      2  C1  UNL d   1       0.463   0.438  -1.122  0.00  0.00     0.003 A 
ATOM      3  C2  UNL d   1       0.642   0.188   0.240  0.00  0.00     0.048 A 
ATOM      4  C3  UNL d   1      -0.467   0.141   1.085  0.00  0.00     0.023 A 
ATOM      5  C4  UNL d   1      -1.751   0.342   0.578  0.00  0.00     0.048 A 
ATOM      6  C5  UNL d   1      -1.924   0.593  -0.785  0.00  0.00     0.003 A 
ATOM      7  I   UNL d   1      -0.204  -0.231   3.113  0.00  0.00    -0.146 I 
ENDROOT
TORSDOF 0
ENDMDL
