MODEL 1
REMARK minimizedAffinity 3.84138823
REMARK minimizedRMSD -1
REMARK  0 active torsions:
REMARK  status: ('A' for Active; 'I' for Inactive)
ROOT
ATOM      1  C   UNL d   1       3.420  -2.961  -4.850  0.00  0.00     0.172 C 
ATOM      2  N   UNL d   1       4.208  -3.503  -3.768  0.00  0.00    -0.070 N 
ATOM      3  C1  UNL d   1       3.737  -4.299  -2.758  0.00  0.00    -0.004 A 
ATOM      4  C2  UNL d   1       4.796  -4.603  -1.931  0.00  0.00    -0.047 A 
ATOM      5  C3  UNL d   1       5.944  -3.967  -2.461  0.00  0.00    -0.047 A 
ATOM      6  C4  UNL d   1       5.551  -3.293  -3.598  0.00  0.00    -0.004 A 
ENDROOT
TORSDOF 0
ENDMDL
