MODEL 1
REMARK minimizedAffinity 4.34624529
REMARK minimizedRMSD -1
REMARK  0 active torsions:
REMARK  status: ('A' for Active; 'I' for Inactive)
ROOT
ATOM      1  C   UNL d   1      -1.484   1.076   2.648  0.00  0.00     0.172 C 
ATOM      2  N   UNL d   1      -1.071   2.074   1.689  0.00  0.00    -0.070 N 
ATOM      3  C1  UNL d   1      -1.288   3.422   1.797  0.00  0.00    -0.004 A 
ATOM      4  C2  UNL d   1      -0.744   4.027   0.684  0.00  0.00    -0.047 A 
ATOM      5  C3  UNL d   1      -0.181   3.007  -0.120  0.00  0.00    -0.047 A 
ATOM      6  C4  UNL d   1      -0.398   1.808   0.526  0.00  0.00    -0.004 A 
ENDROOT
TORSDOF 0
ENDMDL
