MODEL 1
REMARK minimizedAffinity 0.0188690107
REMARK minimizedRMSD -1
REMARK  0 active torsions:
REMARK  status: ('A' for Active; 'I' for Inactive)
ROOT
ATOM      1  C   UNL d   1      -0.366   2.348  -1.090  0.00  0.00     0.172 C 
ATOM      2  N   UNL d   1      -0.358   1.348  -2.132  0.00  0.00    -0.070 N 
ATOM      3  C1  UNL d   1       0.741   0.946  -2.844  0.00  0.00    -0.004 A 
ATOM      4  C2  UNL d   1       0.333  -0.020  -3.738  0.00  0.00    -0.047 A 
ATOM      5  C3  UNL d   1      -1.058  -0.204  -3.558  0.00  0.00    -0.047 A 
ATOM      6  C4  UNL d   1      -1.460   0.655  -2.558  0.00  0.00    -0.004 A 
ENDROOT
TORSDOF 0
ENDMDL
