MODEL 1
REMARK minimizedAffinity 6.70382404
REMARK minimizedRMSD -1
REMARK  0 active torsions:
REMARK  status: ('A' for Active; 'I' for Inactive)
ROOT
ATOM      1  C   UNL d   1       0.503  -3.361  -6.000  0.00  0.00     0.172 C 
ATOM      2  N   UNL d   1       1.125  -3.491  -4.703  0.00  0.00    -0.070 N 
ATOM      3  C1  UNL d   1       0.495  -3.344  -3.497  0.00  0.00    -0.004 A 
ATOM      4  C2  UNL d   1       1.430  -3.546  -2.505  0.00  0.00    -0.047 A 
ATOM      5  C3  UNL d   1       2.665  -3.824  -3.137  0.00  0.00    -0.047 A 
ATOM      6  C4  UNL d   1       2.448  -3.783  -4.498  0.00  0.00    -0.004 A 
ENDROOT
TORSDOF 0
ENDMDL
