MODEL 1
REMARK minimizedAffinity 4.05279493
REMARK minimizedRMSD -1
REMARK  0 active torsions:
REMARK  status: ('A' for Active; 'I' for Inactive)
ROOT
ATOM      1  C   UNL d   1      -1.514   1.979   2.188  0.00  0.00     0.172 C 
ATOM      2  N   UNL d   1      -1.006   2.763   1.087  0.00  0.00    -0.070 N 
ATOM      3  C1  UNL d   1      -1.198   4.107   0.908  0.00  0.00    -0.004 A 
ATOM      4  C2  UNL d   1      -0.555   4.473  -0.255  0.00  0.00    -0.047 A 
ATOM      5  C3  UNL d   1       0.043   3.310  -0.794  0.00  0.00    -0.047 A 
ATOM      6  C4  UNL d   1      -0.252   2.265   0.057  0.00  0.00    -0.004 A 
ENDROOT
TORSDOF 0
ENDMDL
