MODEL 1
REMARK minimizedAffinity 8.30405045
REMARK minimizedRMSD -1
REMARK  0 active torsions:
REMARK  status: ('A' for Active; 'I' for Inactive)
ROOT
ATOM      1  C   UNL d   1       1.880  -3.374  -0.152  0.00  0.00     0.172 C 
ATOM      2  N   UNL d   1       2.142  -4.441  -1.089  0.00  0.00    -0.070 N 
ATOM      3  C1  UNL d   1       1.218  -5.020  -1.918  0.00  0.00    -0.004 A 
ATOM      4  C2  UNL d   1       1.861  -5.993  -2.652  0.00  0.00    -0.047 A 
ATOM      5  C3  UNL d   1       3.218  -6.000  -2.250  0.00  0.00    -0.047 A 
ATOM      6  C4  UNL d   1       3.364  -5.029  -1.282  0.00  0.00    -0.004 A 
ENDROOT
TORSDOF 0
ENDMDL
