MODEL 1
REMARK minimizedAffinity 3.24056983
REMARK minimizedRMSD -1
REMARK  0 active torsions:
REMARK  status: ('A' for Active; 'I' for Inactive)
ROOT
ATOM      1  C   UNL d   1       1.522  -3.298  -0.378  0.00  0.00     0.172 C 
ATOM      2  N   UNL d   1       2.079  -4.397  -1.130  0.00  0.00    -0.070 N 
ATOM      3  C1  UNL d   1       1.498  -4.998  -2.214  0.00  0.00    -0.004 A 
ATOM      4  C2  UNL d   1       2.342  -5.999  -2.645  0.00  0.00    -0.047 A 
ATOM      5  C3  UNL d   1       3.469  -6.000  -1.789  0.00  0.00    -0.047 A 
ATOM      6  C4  UNL d   1       3.280  -4.998  -0.860  0.00  0.00    -0.004 A 
ENDROOT
TORSDOF 0
ENDMDL
