MODEL 1
REMARK minimizedAffinity 2.65846682
REMARK minimizedRMSD -1
REMARK  0 active torsions:
REMARK  status: ('A' for Active; 'I' for Inactive)
ROOT
ATOM      1  C   UNL d   1      -1.153   2.992  -2.971  0.00  0.00     0.172 C 
ATOM      2  N   UNL d   1      -0.689   2.863  -1.610  0.00  0.00    -0.070 N 
ATOM      3  C1  UNL d   1      -1.120   1.931  -0.705  0.00  0.00    -0.004 A 
ATOM      4  C2  UNL d   1      -0.437   2.140   0.474  0.00  0.00    -0.047 A 
ATOM      5  C3  UNL d   1       0.434   3.236   0.270  0.00  0.00    -0.047 A 
ATOM      6  C4  UNL d   1       0.257   3.665  -1.028  0.00  0.00    -0.004 A 
ENDROOT
TORSDOF 0
ENDMDL
