MODEL 1
REMARK minimizedAffinity 0.881575882
REMARK minimizedRMSD -1
REMARK  0 active torsions:
REMARK  status: ('A' for Active; 'I' for Inactive)
ROOT
ATOM      1  C   UNL d   1      -0.422   1.900   2.732  0.00  0.00     0.172 C 
ATOM      2  N   UNL d   1      -0.490   2.459   1.402  0.00  0.00    -0.070 N 
ATOM      3  C1  UNL d   1      -1.595   3.032   0.832  0.00  0.00    -0.004 A 
ATOM      4  C2  UNL d   1      -1.251   3.440  -0.439  0.00  0.00    -0.047 A 
ATOM      5  C3  UNL d   1       0.108   3.100  -0.639  0.00  0.00    -0.047 A 
ATOM      6  C4  UNL d   1       0.554   2.494   0.516  0.00  0.00    -0.004 A 
ENDROOT
TORSDOF 0
ENDMDL
