MODEL 1
REMARK minimizedAffinity 9.1443882
REMARK minimizedRMSD -1
REMARK  0 active torsions:
REMARK  status: ('A' for Active; 'I' for Inactive)
ROOT
ATOM      1  C   UNL d   1       0.210   1.258   1.958  0.00  0.00     0.172 C 
ATOM      2  N   UNL d   1       0.002   1.882   0.672  0.00  0.00    -0.070 N 
ATOM      3  C1  UNL d   1      -1.125   1.769  -0.097  0.00  0.00    -0.004 A 
ATOM      4  C2  UNL d   1      -0.931   2.510  -1.243  0.00  0.00    -0.047 A 
ATOM      5  C3  UNL d   1       0.358   3.088  -1.159  0.00  0.00    -0.047 A 
ATOM      6  C4  UNL d   1       0.913   2.683   0.036  0.00  0.00    -0.004 A 
ENDROOT
TORSDOF 0
ENDMDL
