MODEL 1
REMARK minimizedAffinity 2.53768992
REMARK minimizedRMSD -1
REMARK  0 active torsions:
REMARK  status: ('A' for Active; 'I' for Inactive)
ROOT
ATOM      1  C   UNL d   1      -0.536   2.616   0.752  0.00  0.00     0.172 C 
ATOM      2  N   UNL d   1      -0.449   3.877   0.054  0.00  0.00    -0.070 N 
ATOM      3  C1  UNL d   1       0.340   4.133  -1.035  0.00  0.00    -0.004 A 
ATOM      4  C2  UNL d   1       0.138   5.446  -1.403  0.00  0.00    -0.047 A 
ATOM      5  C3  UNL d   1      -0.805   5.998  -0.503  0.00  0.00    -0.047 A 
ATOM      6  C4  UNL d   1      -1.151   5.005   0.389  0.00  0.00    -0.004 A 
ENDROOT
TORSDOF 0
ENDMDL
