MODEL 1
REMARK minimizedAffinity 3.2260344
REMARK minimizedRMSD -1
REMARK  0 active torsions:
REMARK  status: ('A' for Active; 'I' for Inactive)
ROOT
ATOM      1  C   UNL d   1      -0.878   2.343   1.512  0.00  0.00     0.172 C 
ATOM      2  N   UNL d   1      -0.730   3.263   0.409  0.00  0.00    -0.070 N 
ATOM      3  C1  UNL d   1      -0.108   2.992  -0.780  0.00  0.00    -0.004 A 
ATOM      4  C2  UNL d   1      -0.180   4.124  -1.562  0.00  0.00    -0.047 A 
ATOM      5  C3  UNL d   1      -0.868   5.111  -0.817  0.00  0.00    -0.047 A 
ATOM      6  C4  UNL d   1      -1.198   4.551   0.399  0.00  0.00    -0.004 A 
ENDROOT
TORSDOF 0
ENDMDL
