MODEL 1
REMARK minimizedAffinity -3.08010817
REMARK minimizedRMSD -1
REMARK  0 active torsions:
REMARK  status: ('A' for Active; 'I' for Inactive)
ROOT
ATOM      1  C   UNL d   1      -1.661   1.513   2.245  0.00  0.00     0.172 C 
ATOM      2  N   UNL d   1      -0.950   2.203   1.195  0.00  0.00    -0.070 N 
ATOM      3  C1  UNL d   1      -0.821   1.773  -0.099  0.00  0.00    -0.004 A 
ATOM      4  C2  UNL d   1      -0.075   2.708  -0.782  0.00  0.00    -0.047 A 
ATOM      5  C3  UNL d   1       0.257   3.736   0.132  0.00  0.00    -0.047 A 
ATOM      6  C4  UNL d   1      -0.298   3.398   1.348  0.00  0.00    -0.004 A 
ENDROOT
TORSDOF 0
ENDMDL
