MODEL 1
REMARK minimizedAffinity 2.20365024
REMARK minimizedRMSD -1
REMARK  0 active torsions:
REMARK  status: ('A' for Active; 'I' for Inactive)
ROOT
ATOM      1  C   UNL d   1       0.985   2.878   2.239  0.00  0.00     0.172 C 
ATOM      2  N   UNL d   1      -0.251   2.401   1.664  0.00  0.00    -0.070 N 
ATOM      3  C1  UNL d   1      -1.467   2.379   2.293  0.00  0.00    -0.004 A 
ATOM      4  C2  UNL d   1      -2.388   1.855   1.413  0.00  0.00    -0.047 A 
ATOM      5  C3  UNL d   1      -1.701   1.550   0.213  0.00  0.00    -0.047 A 
ATOM      6  C4  UNL d   1      -0.380   1.899   0.397  0.00  0.00    -0.004 A 
ENDROOT
TORSDOF 0
ENDMDL
