MODEL 1
REMARK minimizedAffinity 11.9566603
REMARK minimizedRMSD -1
REMARK  0 active torsions:
REMARK  status: ('A' for Active; 'I' for Inactive)
ROOT
ATOM      1  C   UNL d   1      -5.059   6.000   2.419  0.00  0.00     0.172 C 
ATOM      2  N   UNL d   1      -4.841   5.785   1.008  0.00  0.00    -0.070 N 
ATOM      3  C1  UNL d   1      -5.810   5.785   0.041  0.00  0.00    -0.004 A 
ATOM      4  C2  UNL d   1      -5.199   5.546  -1.171  0.00  0.00    -0.047 A 
ATOM      5  C3  UNL d   1      -3.813   5.396  -0.923  0.00  0.00    -0.047 A 
ATOM      6  C4  UNL d   1      -3.620   5.549   0.433  0.00  0.00    -0.004 A 
ENDROOT
TORSDOF 0
ENDMDL
