MODEL 1
REMARK minimizedAffinity 3.7963376
REMARK minimizedRMSD -1
REMARK  0 active torsions:
REMARK  status: ('A' for Active; 'I' for Inactive)
ROOT
ATOM      1  C   UNL d   1      -1.455   3.405  -3.007  0.00  0.00     0.172 C 
ATOM      2  N   UNL d   1      -0.686   3.169  -1.808  0.00  0.00    -0.070 N 
ATOM      3  C1  UNL d   1       0.449   3.842  -1.441  0.00  0.00    -0.004 A 
ATOM      4  C2  UNL d   1       0.878   3.323  -0.239  0.00  0.00    -0.047 A 
ATOM      5  C3  UNL d   1      -0.030   2.302   0.130  0.00  0.00    -0.047 A 
ATOM      6  C4  UNL d   1      -0.988   2.227  -0.859  0.00  0.00    -0.004 A 
ENDROOT
TORSDOF 0
ENDMDL
