MODEL 1
REMARK minimizedAffinity 8.11374569
REMARK minimizedRMSD -1
REMARK  0 active torsions:
REMARK  status: ('A' for Active; 'I' for Inactive)
ROOT
ATOM      1  C   UNL d   1       1.493  -3.323  -0.725  0.00  0.00     0.172 C 
ATOM      2  N   UNL d   1       2.073  -4.410  -1.479  0.00  0.00    -0.070 N 
ATOM      3  C1  UNL d   1       3.273  -5.014  -1.215  0.00  0.00    -0.004 A 
ATOM      4  C2  UNL d   1       3.465  -6.000  -2.158  0.00  0.00    -0.047 A 
ATOM      5  C3  UNL d   1       2.343  -5.987  -3.019  0.00  0.00    -0.047 A 
ATOM      6  C4  UNL d   1       1.496  -4.993  -2.576  0.00  0.00    -0.004 A 
ENDROOT
TORSDOF 0
ENDMDL
