MODEL 1
REMARK minimizedAffinity 2.74456954
REMARK minimizedRMSD -1
REMARK  0 active torsions:
REMARK  status: ('A' for Active; 'I' for Inactive)
ROOT
ATOM      1  C   UNL d   1      -1.799   2.934  -3.177  0.00  0.00     0.172 C 
ATOM      2  N   UNL d   1      -1.046   2.924  -1.946  0.00  0.00    -0.070 N 
ATOM      3  C1  UNL d   1       0.245   3.355  -1.796  0.00  0.00    -0.004 A 
ATOM      4  C2  UNL d   1       0.598   3.180  -0.475  0.00  0.00    -0.047 A 
ATOM      5  C3  UNL d   1      -0.519   2.624   0.192  0.00  0.00    -0.047 A 
ATOM      6  C4  UNL d   1      -1.523   2.476  -0.742  0.00  0.00    -0.004 A 
ENDROOT
TORSDOF 0
ENDMDL
