MODEL 1
REMARK minimizedAffinity -4.05714989
REMARK minimizedRMSD -1
REMARK  0 active torsions:
REMARK  status: ('A' for Active; 'I' for Inactive)
ROOT
ATOM      1  C   UNL d   1      -1.067   2.928   1.198  0.00  0.00    -0.002 A 
ATOM      2  C1  UNL d   1      -1.212   2.907  -0.182  0.00  0.00     0.010 A 
ATOM      3  C2  UNL d   1      -0.764   1.815  -0.927  0.00  0.00     0.041 A 
ATOM      4  C3  UNL d   1      -0.164   0.732  -0.255  0.00  0.00    -0.075 A 
ATOM      5  S   UNL d   1       0.458  -0.713  -0.961  0.00  0.00     0.015 SA
ATOM      6  C4  UNL d   1       0.931  -1.337   0.552  0.00  0.00     0.022 A 
ATOM      7  C5  UNL d   1       0.629  -0.478   1.582  0.00  0.00     0.026 A 
ATOM      8  C6  UNL d   1      -0.007   0.729   1.134  0.00  0.00    -0.082 A 
ATOM      9  C7  UNL d   1      -0.470   1.852   1.861  0.00  0.00     0.045 A 
ENDROOT
TORSDOF 0
ENDMDL
