MODEL 1
REMARK minimizedAffinity 0.0874660611
REMARK minimizedRMSD -1
REMARK  0 active torsions:
REMARK  status: ('A' for Active; 'I' for Inactive)
ROOT
ATOM      1  C   UNL d   1      -0.347   1.821   1.949  0.00  0.00    -0.002 A 
ATOM      2  C1  UNL d   1      -0.541   2.713   0.904  0.00  0.00     0.010 A 
ATOM      3  C2  UNL d   1      -0.371   2.303  -0.420  0.00  0.00     0.041 A 
ATOM      4  C3  UNL d   1      -0.002   0.968  -0.678  0.00  0.00    -0.075 A 
ATOM      5  S   UNL d   1       0.261   0.242  -2.220  0.00  0.00     0.015 SA
ATOM      6  C4  UNL d   1       0.636  -1.269  -1.527  0.00  0.00     0.022 A 
ATOM      7  C5  UNL d   1       0.568  -1.238  -0.154  0.00  0.00     0.026 A 
ATOM      8  C6  UNL d   1       0.198   0.051   0.358  0.00  0.00    -0.082 A 
ATOM      9  C7  UNL d   1       0.020   0.498   1.689  0.00  0.00     0.045 A 
ENDROOT
TORSDOF 0
ENDMDL
