MODEL 1
REMARK minimizedAffinity -2.16349268
REMARK minimizedRMSD -1
REMARK  0 active torsions:
REMARK  status: ('A' for Active; 'I' for Inactive)
ROOT
ATOM      1  C   UNL d   1      -1.294  -3.923  -1.813  0.00  0.00    -0.002 A 
ATOM      2  C1  UNL d   1      -0.312  -4.157  -0.860  0.00  0.00     0.010 A 
ATOM      3  C2  UNL d   1       0.418  -3.098  -0.318  0.00  0.00     0.041 A 
ATOM      4  C3  UNL d   1       0.142  -1.787  -0.753  0.00  0.00    -0.075 A 
ATOM      5  S   UNL d   1       0.909  -0.334  -0.228  0.00  0.00     0.015 SA
ATOM      6  C4  UNL d   1      -0.049   0.631  -1.256  0.00  0.00     0.022 A 
ATOM      7  C5  UNL d   1      -0.937  -0.120  -1.989  0.00  0.00     0.026 A 
ATOM      8  C6  UNL d   1      -0.842  -1.526  -1.711  0.00  0.00    -0.082 A 
ATOM      9  C7  UNL d   1      -1.565  -2.621  -2.242  0.00  0.00     0.045 A 
ENDROOT
TORSDOF 0
ENDMDL
