MODEL 1
REMARK minimizedAffinity -5.88625288
REMARK minimizedRMSD -1
REMARK  0 active torsions:
REMARK  status: ('A' for Active; 'I' for Inactive)
ROOT
ATOM      1  C   UNL d   1      -1.012   3.931   0.538  0.00  0.00    -0.002 A 
ATOM      2  C1  UNL d   1      -0.984   3.689  -0.828  0.00  0.00     0.010 A 
ATOM      3  C2  UNL d   1      -0.599   2.440  -1.319  0.00  0.00     0.041 A 
ATOM      4  C3  UNL d   1      -0.242   1.428  -0.406  0.00  0.00    -0.075 A 
ATOM      5  S   UNL d   1       0.261  -0.178  -0.778  0.00  0.00     0.015 SA
ATOM      6  C4  UNL d   1       0.448  -0.581   0.867  0.00  0.00     0.022 A 
ATOM      7  C5  UNL d   1       0.140   0.473   1.694  0.00  0.00     0.026 A 
ATOM      8  C6  UNL d   1      -0.264   1.648   0.974  0.00  0.00    -0.082 A 
ATOM      9  C7  UNL d   1      -0.658   2.925   1.441  0.00  0.00     0.045 A 
ENDROOT
TORSDOF 0
ENDMDL
