MODEL 1
REMARK minimizedAffinity -5.7619586
REMARK minimizedRMSD -1
REMARK  0 active torsions:
REMARK  status: ('A' for Active; 'I' for Inactive)
ROOT
ATOM      1  C   UNL d   1      -0.813   4.230  -0.612  0.00  0.00    -0.002 A 
ATOM      2  C1  UNL d   1      -0.316   3.396  -1.603  0.00  0.00     0.010 A 
ATOM      3  C2  UNL d   1       0.017   2.071  -1.316  0.00  0.00     0.041 A 
ATOM      4  C3  UNL d   1      -0.161   1.593  -0.003  0.00  0.00    -0.075 A 
ATOM      5  S   UNL d   1       0.178   0.006   0.580  0.00  0.00     0.015 SA
ATOM      6  C4  UNL d   1      -0.330   0.398   2.159  0.00  0.00     0.022 A 
ATOM      7  C5  UNL d   1      -0.750   1.703   2.257  0.00  0.00     0.026 A 
ATOM      8  C6  UNL d   1      -0.661   2.413   1.012  0.00  0.00    -0.082 A 
ATOM      9  C7  UNL d   1      -0.988   3.752   0.690  0.00  0.00     0.045 A 
ENDROOT
TORSDOF 0
ENDMDL
