MODEL 1
REMARK minimizedAffinity -1.39185584
REMARK minimizedRMSD -1
REMARK  2 active torsions:
REMARK  status: ('A' for Active; 'I' for Inactive)
REMARK    1  A    between atoms: C2'_3  and  C1'_4 
REMARK    2  A    between atoms: C1'_4  and  C1_5 
ROOT
ATOM      1  C1  I4B d   1      -0.355   0.481   0.251  0.00  0.00    -0.075 A 
ATOM      2  C2  I4B d   1      -0.147   1.560  -0.571  0.00  0.00     0.003 A 
ATOM      3  C3  I4B d   1       0.671   1.434  -1.720  0.00  0.00     0.002 A 
ATOM      4  C4  I4B d   1       1.297   0.232  -1.980  0.00  0.00    -0.004 A 
ATOM      5  C5  I4B d   1       1.067  -0.868  -1.158  0.00  0.00     0.002 A 
ATOM      6  C6  I4B d   1       0.226  -0.746  -0.042  0.00  0.00     0.003 A 
ENDROOT
BRANCH   1   7
ATOM      7  C1' I4B d   1      -1.197   0.658   1.474  0.00  0.00     0.060 C 
BRANCH   7   8
ATOM      8  C2' I4B d   1      -1.062   2.096   1.930  0.00  0.00    -0.013 C 
ATOM      9  C4' I4B d   1      -2.384   2.814   1.872  0.00  0.00     0.013 C 
ATOM     10  C3' I4B d   1      -0.510   2.090   3.324  0.00  0.00     0.013 C 
ENDBRANCH   7   8
ENDBRANCH   1   7
TORSDOF 2
ENDMDL
