MODEL 1
REMARK minimizedAffinity 5.31178188
REMARK minimizedRMSD -1
REMARK  2 active torsions:
REMARK  status: ('A' for Active; 'I' for Inactive)
REMARK    1  A    between atoms: C2'_3  and  C1'_4 
REMARK    2  A    between atoms: C1'_4  and  C1_5 
ROOT
ATOM      1  C1  I4B d   1      -0.742  -1.074  -0.748  0.00  0.00    -0.075 A 
ATOM      2  C2  I4B d   1       0.114  -0.882   0.308  0.00  0.00     0.003 A 
ATOM      3  C3  I4B d   1       0.535   0.424   0.656  0.00  0.00     0.002 A 
ATOM      4  C4  I4B d   1       0.119   1.498  -0.106  0.00  0.00    -0.004 A 
ATOM      5  C5  I4B d   1      -0.766   1.303  -1.162  0.00  0.00     0.002 A 
ATOM      6  C6  I4B d   1      -1.209   0.011  -1.478  0.00  0.00     0.003 A 
ENDROOT
BRANCH   1   7
ATOM      7  C1' I4B d   1      -1.140  -2.470  -1.108  0.00  0.00     0.060 C 
BRANCH   7   8
ATOM      8  C2' I4B d   1      -0.143  -2.993  -2.123  0.00  0.00    -0.013 C 
ATOM      9  C4' I4B d   1       0.588  -4.200  -1.596  0.00  0.00     0.013 C 
ATOM     10  C3' I4B d   1      -0.891  -3.319  -3.381  0.00  0.00     0.013 C 
ENDBRANCH   7   8
ENDBRANCH   1   7
TORSDOF 2
ENDMDL
