MODEL 1
REMARK minimizedAffinity -2.00212646
REMARK minimizedRMSD -1
REMARK  2 active torsions:
REMARK  status: ('A' for Active; 'I' for Inactive)
REMARK    1  A    between atoms: C2'_3  and  C1'_4 
REMARK    2  A    between atoms: C1'_4  and  C1_5 
ROOT
ATOM      1  C1  I4B d   1       0.734  -0.409  -0.652  0.00  0.00    -0.075 A 
ATOM      2  C2  I4B d   1      -0.123  -0.509   0.416  0.00  0.00     0.003 A 
ATOM      3  C3  I4B d   1      -0.899   0.606   0.813  0.00  0.00     0.002 A 
ATOM      4  C4  I4B d   1      -0.750   1.808   0.152  0.00  0.00    -0.004 A 
ATOM      5  C5  I4B d   1       0.103   1.901  -0.944  0.00  0.00     0.002 A 
ATOM      6  C6  I4B d   1       0.840   0.782  -1.356  0.00  0.00     0.003 A 
ENDROOT
BRANCH   1   7
ATOM      7  C1' I4B d   1       1.563  -1.598  -1.024  0.00  0.00     0.060 C 
BRANCH   7   8
ATOM      8  C2' I4B d   1       0.626  -2.692  -1.494  0.00  0.00    -0.013 C 
ATOM      9  C4' I4B d   1       0.602  -2.781  -2.997  0.00  0.00     0.013 C 
ATOM     10  C3' I4B d   1       1.079  -3.984  -0.882  0.00  0.00     0.013 C 
ENDBRANCH   7   8
ENDBRANCH   1   7
TORSDOF 2
ENDMDL
