MODEL 1
REMARK minimizedAffinity -7.01507759
REMARK minimizedRMSD -1
REMARK  2 active torsions:
REMARK  status: ('A' for Active; 'I' for Inactive)
REMARK    1  A    between atoms: C2'_3  and  C1'_4 
REMARK    2  A    between atoms: C1'_4  and  C1_5 
ROOT
ATOM      1  C1  I4B d   1      -0.453   1.038   0.139  0.00  0.00    -0.075 A 
ATOM      2  C2  I4B d   1      -1.153   1.530   1.213  0.00  0.00     0.003 A 
ATOM      3  C3  I4B d   1      -1.249   2.927   1.421  0.00  0.00     0.002 A 
ATOM      4  C4  I4B d   1      -0.592   3.788   0.566  0.00  0.00    -0.004 A 
ATOM      5  C5  I4B d   1       0.098   3.289  -0.535  0.00  0.00     0.002 A 
ATOM      6  C6  I4B d   1       0.157   1.905  -0.757  0.00  0.00     0.003 A 
ENDROOT
BRANCH   1   7
ATOM      7  C1' I4B d   1      -0.345  -0.444  -0.033  0.00  0.00     0.060 C 
BRANCH   7   8
ATOM      8  C2' I4B d   1       1.088  -0.844   0.255  0.00  0.00    -0.013 C 
ATOM      9  C4' I4B d   1       1.246  -1.319   1.676  0.00  0.00     0.013 C 
ATOM     10  C3' I4B d   1       1.475  -1.915  -0.720  0.00  0.00     0.013 C 
ENDBRANCH   7   8
ENDBRANCH   1   7
TORSDOF 2
ENDMDL
