MODEL 1
REMARK minimizedAffinity -0.768999457
REMARK minimizedRMSD -1
REMARK  2 active torsions:
REMARK  status: ('A' for Active; 'I' for Inactive)
REMARK    1  A    between atoms: C2'_3  and  C1'_4 
REMARK    2  A    between atoms: C1'_4  and  C1_5 
ROOT
ATOM      1  C1  I4B d   1       0.806  -1.749  -1.101  0.00  0.00    -0.075 A 
ATOM      2  C2  I4B d   1       1.618  -2.848  -0.973  0.00  0.00     0.003 A 
ATOM      3  C3  I4B d   1       1.363  -4.015  -1.733  0.00  0.00     0.002 A 
ATOM      4  C4  I4B d   1       0.265  -4.057  -2.567  0.00  0.00    -0.004 A 
ATOM      5  C5  I4B d   1      -0.544  -2.934  -2.713  0.00  0.00     0.002 A 
ATOM      6  C6  I4B d   1      -0.265  -1.768  -1.985  0.00  0.00     0.003 A 
ENDROOT
BRANCH   1   7
ATOM      7  C1' I4B d   1       1.084  -0.545  -0.258  0.00  0.00     0.060 C 
BRANCH   7   8
ATOM      8  C2' I4B d   1       0.697   0.683  -1.057  0.00  0.00    -0.013 C 
ATOM      9  C4' I4B d   1       0.145   1.762  -0.163  0.00  0.00     0.013 C 
ATOM     10  C3' I4B d   1       1.913   1.159  -1.793  0.00  0.00     0.013 C 
ENDBRANCH   7   8
ENDBRANCH   1   7
TORSDOF 2
ENDMDL
