MODEL 1
REMARK minimizedAffinity 2.51062655
REMARK minimizedRMSD -1
REMARK  2 active torsions:
REMARK  status: ('A' for Active; 'I' for Inactive)
REMARK    1  A    between atoms: C2'_3  and  C1'_4 
REMARK    2  A    between atoms: C1'_4  and  C1_5 
ROOT
ATOM      1  C1  I4B d   1      -0.011   0.467   1.047  0.00  0.00    -0.075 A 
ATOM      2  C2  I4B d   1       0.079   1.339  -0.009  0.00  0.00     0.003 A 
ATOM      3  C3  I4B d   1       0.831   0.993  -1.157  0.00  0.00     0.002 A 
ATOM      4  C4  I4B d   1       1.514  -0.206  -1.187  0.00  0.00    -0.004 A 
ATOM      5  C5  I4B d   1       1.403  -1.099  -0.125  0.00  0.00     0.002 A 
ATOM      6  C6  I4B d   1       0.626  -0.766   0.994  0.00  0.00     0.003 A 
ENDROOT
BRANCH   1   7
ATOM      7  C1' I4B d   1      -0.786   0.879   2.258  0.00  0.00     0.060 C 
BRANCH   7   8
ATOM      8  C2' I4B d   1      -0.912   2.389   2.241  0.00  0.00    -0.013 C 
ATOM      9  C4' I4B d   1      -2.340   2.814   2.023  0.00  0.00     0.013 C 
ATOM     10  C3' I4B d   1      -0.383   2.913   3.543  0.00  0.00     0.013 C 
ENDBRANCH   7   8
ENDBRANCH   1   7
TORSDOF 2
ENDMDL
