MODEL 1
REMARK minimizedAffinity -2.71761847
REMARK minimizedRMSD -1
REMARK  2 active torsions:
REMARK  status: ('A' for Active; 'I' for Inactive)
REMARK    1  A    between atoms: C2'_3  and  C1'_4 
REMARK    2  A    between atoms: C1'_4  and  C1_5 
ROOT
ATOM      1  C1  I4B d   1      -0.374   0.370   0.248  0.00  0.00    -0.075 A 
ATOM      2  C2  I4B d   1      -0.976   0.672   1.443  0.00  0.00     0.003 A 
ATOM      3  C3  I4B d   1      -1.421   1.991   1.704  0.00  0.00     0.002 A 
ATOM      4  C4  I4B d   1      -1.199   2.981   0.769  0.00  0.00    -0.004 A 
ATOM      5  C5  I4B d   1      -0.608   2.668  -0.452  0.00  0.00     0.002 A 
ATOM      6  C6  I4B d   1      -0.204   1.352  -0.720  0.00  0.00     0.003 A 
ENDROOT
BRANCH   1   7
ATOM      7  C1' I4B d   1       0.113  -1.026   0.018  0.00  0.00     0.060 C 
BRANCH   7   8
ATOM      8  C2' I4B d   1       0.790  -1.067  -1.337  0.00  0.00    -0.013 C 
ATOM      9  C4' I4B d   1       2.264  -0.779  -1.219  0.00  0.00     0.013 C 
ATOM     10  C3' I4B d   1       0.549  -2.422  -1.933  0.00  0.00     0.013 C 
ENDBRANCH   7   8
ENDBRANCH   1   7
TORSDOF 2
ENDMDL
