MODEL 1
REMARK minimizedAffinity -0.818330288
REMARK minimizedRMSD -1
REMARK  2 active torsions:
REMARK  status: ('A' for Active; 'I' for Inactive)
REMARK    1  A    between atoms: C2'_3  and  C1'_4 
REMARK    2  A    between atoms: C1'_4  and  C1_5 
ROOT
ATOM      1  C1  I4B d   1      -0.775   0.996   1.465  0.00  0.00    -0.075 A 
ATOM      2  C2  I4B d   1      -0.189  -0.163   1.909  0.00  0.00     0.003 A 
ATOM      3  C3  I4B d   1       0.347  -0.236   3.217  0.00  0.00     0.002 A 
ATOM      4  C4  I4B d   1       0.321   0.882   4.025  0.00  0.00    -0.004 A 
ATOM      5  C5  I4B d   1      -0.293   2.050   3.583  0.00  0.00     0.002 A 
ATOM      6  C6  I4B d   1      -0.856   2.104   2.299  0.00  0.00     0.003 A 
ENDROOT
BRANCH   1   7
ATOM      7  C1' I4B d   1      -1.301   1.048   0.066  0.00  0.00     0.060 C 
BRANCH   7   8
ATOM      8  C2' I4B d   1      -0.142   1.361  -0.857  0.00  0.00    -0.013 C 
ATOM      9  C4' I4B d   1       0.291   0.138  -1.623  0.00  0.00     0.013 C 
ATOM     10  C3' I4B d   1      -0.572   2.457  -1.786  0.00  0.00     0.013 C 
ENDBRANCH   7   8
ENDBRANCH   1   7
TORSDOF 2
ENDMDL
