MODEL 1
REMARK minimizedAffinity -4.60897589
REMARK minimizedRMSD -1
REMARK  2 active torsions:
REMARK  status: ('A' for Active; 'I' for Inactive)
REMARK    1  A    between atoms: C2'_3  and  C1'_4 
REMARK    2  A    between atoms: C1'_4  and  C1_5 
ROOT
ATOM      1  C1  I4B d   1       0.400  -0.280  -0.224  0.00  0.00    -0.075 A 
ATOM      2  C2  I4B d   1       0.460  -0.757   1.062  0.00  0.00     0.003 A 
ATOM      3  C3  I4B d   1      -0.313  -0.154   2.083  0.00  0.00     0.002 A 
ATOM      4  C4  I4B d   1      -1.090   0.948   1.787  0.00  0.00    -0.004 A 
ATOM      5  C5  I4B d   1      -1.168   1.416   0.478  0.00  0.00     0.002 A 
ATOM      6  C6  I4B d   1      -0.428   0.791  -0.536  0.00  0.00     0.003 A 
ENDROOT
BRANCH   1   7
ATOM      7  C1' I4B d   1       1.256  -0.919  -1.271  0.00  0.00     0.060 C 
BRANCH   7   8
ATOM      8  C2' I4B d   1       0.621  -2.242  -1.648  0.00  0.00    -0.013 C 
ATOM      9  C4' I4B d   1       0.155  -2.235  -3.080  0.00  0.00     0.013 C 
ATOM     10  C3' I4B d   1       1.631  -3.325  -1.413  0.00  0.00     0.013 C 
ENDBRANCH   7   8
ENDBRANCH   1   7
TORSDOF 2
ENDMDL
