MODEL 1
REMARK minimizedAffinity -5.50458002
REMARK minimizedRMSD -1
REMARK  2 active torsions:
REMARK  status: ('A' for Active; 'I' for Inactive)
REMARK    1  A    between atoms: C2'_3  and  C1'_4 
REMARK    2  A    between atoms: C1'_4  and  C1_5 
ROOT
ATOM      1  C1  I4B d   1       0.349  -0.149  -0.131  0.00  0.00    -0.075 A 
ATOM      2  C2  I4B d   1      -0.504   0.874  -0.463  0.00  0.00     0.003 A 
ATOM      3  C3  I4B d   1      -1.402   1.394   0.501  0.00  0.00     0.002 A 
ATOM      4  C4  I4B d   1      -1.448   0.831   1.760  0.00  0.00    -0.004 A 
ATOM      5  C5  I4B d   1      -0.567  -0.191   2.101  0.00  0.00     0.002 A 
ATOM      6  C6  I4B d   1       0.346  -0.676   1.154  0.00  0.00     0.003 A 
ENDROOT
BRANCH   1   7
ATOM      7  C1' I4B d   1       1.261  -0.697  -1.183  0.00  0.00     0.060 C 
BRANCH   7   8
ATOM      8  C2' I4B d   1       0.686  -2.015  -1.659  0.00  0.00    -0.013 C 
ATOM      9  C4' I4B d   1       0.473  -2.011  -3.150  0.00  0.00     0.013 C 
ATOM     10  C3' I4B d   1       1.631  -3.106  -1.250  0.00  0.00     0.013 C 
ENDBRANCH   7   8
ENDBRANCH   1   7
TORSDOF 2
ENDMDL
