MODEL 1
REMARK minimizedAffinity -4.41750193
REMARK minimizedRMSD -1
REMARK  2 active torsions:
REMARK  status: ('A' for Active; 'I' for Inactive)
REMARK    1  A    between atoms: C2'_3  and  C1'_4 
REMARK    2  A    between atoms: C1'_4  and  C1_5 
ROOT
ATOM      1  C1  I4B d   1       0.230  -0.064   0.163  0.00  0.00    -0.075 A 
ATOM      2  C2  I4B d   1       0.168  -0.726   1.364  0.00  0.00     0.003 A 
ATOM      3  C3  I4B d   1      -0.636  -0.222   2.416  0.00  0.00     0.002 A 
ATOM      4  C4  I4B d   1      -1.316   0.966   2.241  0.00  0.00    -0.004 A 
ATOM      5  C5  I4B d   1      -1.270   1.624   1.015  0.00  0.00     0.002 A 
ATOM      6  C6  I4B d   1      -0.502   1.100  -0.035  0.00  0.00     0.003 A 
ENDROOT
BRANCH   1   7
ATOM      7  C1' I4B d   1       1.114  -0.607  -0.914  0.00  0.00     0.060 C 
BRANCH   7   8
ATOM      8  C2' I4B d   1       0.460  -1.855  -1.470  0.00  0.00    -0.013 C 
ATOM      9  C4' I4B d   1       0.027  -1.654  -2.898  0.00  0.00     0.013 C 
ATOM     10  C3' I4B d   1       1.442  -2.983  -1.356  0.00  0.00     0.013 C 
ENDBRANCH   7   8
ENDBRANCH   1   7
TORSDOF 2
ENDMDL
