MODEL 1
REMARK minimizedAffinity -3.35387635
REMARK minimizedRMSD -1
REMARK  2 active torsions:
REMARK  status: ('A' for Active; 'I' for Inactive)
REMARK    1  A    between atoms: C2'_3  and  C1'_4 
REMARK    2  A    between atoms: C1'_4  and  C1_5 
ROOT
ATOM      1  C1  I4B d   1      -1.336   1.555   0.715  0.00  0.00    -0.075 A 
ATOM      2  C2  I4B d   1      -0.546   1.073  -0.299  0.00  0.00     0.003 A 
ATOM      3  C3  I4B d   1       0.052   1.966  -1.221  0.00  0.00     0.002 A 
ATOM      4  C4  I4B d   1      -0.205   3.318  -1.123  0.00  0.00    -0.004 A 
ATOM      5  C5  I4B d   1      -0.987   3.806  -0.080  0.00  0.00     0.002 A 
ATOM      6  C6  I4B d   1      -1.547   2.921   0.852  0.00  0.00     0.003 A 
ENDROOT
BRANCH   1   7
ATOM      7  C1' I4B d   1      -1.979   0.582   1.652  0.00  0.00     0.060 C 
BRANCH   7   8
ATOM      8  C2' I4B d   1      -0.883  -0.086   2.457  0.00  0.00    -0.013 C 
ATOM      9  C4' I4B d   1       0.104  -0.784   1.559  0.00  0.00     0.013 C 
ATOM     10  C3' I4B d   1      -0.210   0.967   3.286  0.00  0.00     0.013 C 
ENDBRANCH   7   8
ENDBRANCH   1   7
TORSDOF 2
ENDMDL
