MODEL 1
REMARK minimizedAffinity -5.30002499
REMARK minimizedRMSD -1
REMARK  2 active torsions:
REMARK  status: ('A' for Active; 'I' for Inactive)
REMARK    1  A    between atoms: C2'_3  and  C1'_4 
REMARK    2  A    between atoms: C1'_4  and  C1_5 
ROOT
ATOM      1  C1  I4B d   1       0.241   0.004  -0.587  0.00  0.00    -0.075 A 
ATOM      2  C2  I4B d   1      -0.514  -0.312   0.515  0.00  0.00     0.003 A 
ATOM      3  C3  I4B d   1      -1.255   0.693   1.183  0.00  0.00     0.002 A 
ATOM      4  C4  I4B d   1      -1.173   2.000   0.749  0.00  0.00    -0.004 A 
ATOM      5  C5  I4B d   1      -0.426   2.315  -0.382  0.00  0.00     0.002 A 
ATOM      6  C6  I4B d   1       0.276   1.309  -1.062  0.00  0.00     0.003 A 
ENDROOT
BRANCH   1   7
ATOM      7  C1' I4B d   1       1.038  -1.075  -1.248  0.00  0.00     0.060 C 
BRANCH   7   8
ATOM      8  C2' I4B d   1       0.153  -2.299  -1.372  0.00  0.00    -0.013 C 
ATOM      9  C4' I4B d   1      -0.128  -2.625  -2.816  0.00  0.00     0.013 C 
ATOM     10  C3' I4B d   1       0.841  -3.440  -0.683  0.00  0.00     0.013 C 
ENDBRANCH   7   8
ENDBRANCH   1   7
TORSDOF 2
ENDMDL
