MODEL 1
REMARK minimizedAffinity -1.35184503
REMARK minimizedRMSD -1
REMARK  1 active torsions:
REMARK  status: ('A' for Active; 'I' for Inactive)
REMARK    1  A    between atoms: C1_2  and  C2_3 
ROOT
ATOM      1  C2  UNL d   1      -1.991  -0.447  -3.103  0.00  0.00    -0.076 A 
ATOM      2  C3  UNL d   1      -1.922  -0.026  -4.442  0.00  0.00     0.004 A 
ATOM      3  C4  UNL d   1      -2.408   1.222  -4.828  0.00  0.00    -0.003 A 
ATOM      4  C5  UNL d   1      -2.970   2.070  -3.881  0.00  0.00     0.000 A 
ATOM      5  C6  UNL d   1      -3.031   1.676  -2.545  0.00  0.00     0.000 A 
ATOM      6  C7  UNL d   1      -2.531   0.428  -2.136  0.00  0.00    -0.073 A 
ATOM      7  C8  UNL d   1      -2.628   0.052  -0.683  0.00  0.00     0.078 C 
ENDROOT
BRANCH   1   8
ATOM      8  C1  UNL d   1      -1.473  -1.822  -2.748  0.00  0.00     0.053 C 
ATOM      9  C   UNL d   1      -0.203  -1.769  -1.913  0.00  0.00     0.018 C 
ENDBRANCH   1   8
TORSDOF 1
ENDMDL
