MODEL 1
REMARK minimizedAffinity 1.20132875
REMARK minimizedRMSD -1
REMARK  1 active torsions:
REMARK  status: ('A' for Active; 'I' for Inactive)
REMARK    1  A    between atoms: C1_2  and  C2_3 
ROOT
ATOM      1  C2  UNL d   1      -0.790  -0.936  -2.343  0.00  0.00    -0.076 A 
ATOM      2  C3  UNL d   1      -0.851  -0.600  -0.979  0.00  0.00     0.004 A 
ATOM      3  C4  UNL d   1      -0.587   0.699  -0.548  0.00  0.00    -0.003 A 
ATOM      4  C5  UNL d   1      -0.260   1.684  -1.473  0.00  0.00     0.000 A 
ATOM      5  C6  UNL d   1      -0.212   1.372  -2.832  0.00  0.00     0.000 A 
ATOM      6  C7  UNL d   1      -0.491   0.071  -3.285  0.00  0.00    -0.073 A 
ATOM      7  C8  UNL d   1      -0.419  -0.210  -4.761  0.00  0.00     0.078 C 
ENDROOT
BRANCH   1   8
ATOM      8  C1  UNL d   1      -1.059  -2.367  -2.749  0.00  0.00     0.053 C 
ATOM      9  C   UNL d   1      -0.785  -3.353  -1.623  0.00  0.00     0.018 C 
ENDBRANCH   1   8
TORSDOF 1
ENDMDL
