MODEL 1
REMARK minimizedAffinity -2.45214391
REMARK minimizedRMSD -1
REMARK  1 active torsions:
REMARK  status: ('A' for Active; 'I' for Inactive)
REMARK    1  A    between atoms: C1_2  and  C2_3 
ROOT
ATOM      1  C2  UNL d   1      -3.948   2.627  -2.697  0.00  0.00    -0.076 A 
ATOM      2  C3  UNL d   1      -3.343   2.635  -3.965  0.00  0.00     0.004 A 
ATOM      3  C4  UNL d   1      -4.056   3.022  -5.098  0.00  0.00    -0.003 A 
ATOM      4  C5  UNL d   1      -5.387   3.408  -4.981  0.00  0.00     0.000 A 
ATOM      5  C6  UNL d   1      -5.998   3.424  -3.728  0.00  0.00     0.000 A 
ATOM      6  C7  UNL d   1      -5.288   3.053  -2.573  0.00  0.00    -0.073 A 
ATOM      7  C8  UNL d   1      -5.999   3.082  -1.248  0.00  0.00     0.078 C 
ENDROOT
BRANCH   1   8
ATOM      8  C1  UNL d   1      -3.132   2.172  -1.508  0.00  0.00     0.053 C 
ATOM      9  C   UNL d   1      -3.694   0.915  -0.862  0.00  0.00     0.018 C 
ENDBRANCH   1   8
TORSDOF 1
ENDMDL
