MODEL 1
REMARK minimizedAffinity 1.27157104
REMARK minimizedRMSD -1
REMARK  1 active torsions:
REMARK  status: ('A' for Active; 'I' for Inactive)
REMARK    1  A    between atoms: C1_2  and  C2_3 
ROOT
ATOM      1  C2  UNL d   1       0.400   2.260   1.006  0.00  0.00    -0.076 A 
ATOM      2  C3  UNL d   1       0.049   3.517   1.527  0.00  0.00     0.004 A 
ATOM      3  C4  UNL d   1      -0.374   4.549   0.690  0.00  0.00    -0.003 A 
ATOM      4  C5  UNL d   1      -0.453   4.339  -0.682  0.00  0.00     0.000 A 
ATOM      5  C6  UNL d   1      -0.126   3.093  -1.215  0.00  0.00     0.000 A 
ATOM      6  C7  UNL d   1       0.287   2.037  -0.383  0.00  0.00    -0.073 A 
ATOM      7  C8  UNL d   1       0.633   0.716  -1.012  0.00  0.00     0.078 C 
ENDROOT
BRANCH   1   8
ATOM      8  C1  UNL d   1       0.877   1.188   1.959  0.00  0.00     0.053 C 
ATOM      9  C   UNL d   1       0.174   1.251   3.306  0.00  0.00     0.018 C 
ENDBRANCH   1   8
TORSDOF 1
ENDMDL
