MODEL 1
REMARK minimizedAffinity 8.98066139
REMARK minimizedRMSD -1
REMARK  1 active torsions:
REMARK  status: ('A' for Active; 'I' for Inactive)
REMARK    1  A    between atoms: C1_2  and  C2_3 
ROOT
ATOM      1  C2  UNL d   1      -1.066   3.618  -1.210  0.00  0.00    -0.076 A 
ATOM      2  C3  UNL d   1      -1.263   5.009  -1.227  0.00  0.00     0.004 A 
ATOM      3  C4  UNL d   1      -0.204   5.887  -1.001  0.00  0.00    -0.003 A 
ATOM      4  C5  UNL d   1       1.069   5.386  -0.754  0.00  0.00     0.000 A 
ATOM      5  C6  UNL d   1       1.287   4.009  -0.751  0.00  0.00     0.000 A 
ATOM      6  C7  UNL d   1       0.233   3.111  -0.993  0.00  0.00    -0.073 A 
ATOM      7  C8  UNL d   1       0.523   1.635  -0.972  0.00  0.00     0.078 C 
ENDROOT
BRANCH   1   8
ATOM      8  C1  UNL d   1      -2.258   2.715  -1.436  0.00  0.00     0.053 C 
ATOM      9  C   UNL d   1      -3.227   3.274  -2.466  0.00  0.00     0.018 C 
ENDBRANCH   1   8
TORSDOF 1
ENDMDL
