MODEL 1
REMARK minimizedAffinity 14.427372
REMARK minimizedRMSD -1
REMARK  1 active torsions:
REMARK  status: ('A' for Active; 'I' for Inactive)
REMARK    1  A    between atoms: C1_2  and  C2_3 
ROOT
ATOM      1  C2  UNL d   1       0.984   4.986  -0.848  0.00  0.00    -0.076 A 
ATOM      2  C3  UNL d   1       1.882   4.178  -0.130  0.00  0.00     0.004 A 
ATOM      3  C4  UNL d   1       1.423   3.245   0.798  0.00  0.00    -0.003 A 
ATOM      4  C5  UNL d   1       0.058   3.104   1.023  0.00  0.00     0.000 A 
ATOM      5  C6  UNL d   1      -0.848   3.886   0.306  0.00  0.00     0.000 A 
ATOM      6  C7  UNL d   1      -0.403   4.820  -0.645  0.00  0.00    -0.073 A 
ATOM      7  C8  UNL d   1      -1.424   5.640  -1.384  0.00  0.00     0.078 C 
ENDROOT
BRANCH   1   8
ATOM      8  C1  UNL d   1       1.541   6.000  -1.821  0.00  0.00     0.053 C 
ATOM      9  C   UNL d   1       1.565   5.483  -3.251  0.00  0.00     0.018 C 
ENDBRANCH   1   8
TORSDOF 1
ENDMDL
