MODEL 1
REMARK minimizedAffinity 8.94574928
REMARK minimizedRMSD -1
REMARK  0 active torsions:
REMARK  status: ('A' for Active; 'I' for Inactive)
ROOT
ATOM      1  C   UNL d   1       3.498   0.605  -0.349  0.00  0.00     0.020 A 
ATOM      2  C1  UNL d   1       3.428  -0.431   0.582  0.00  0.00     0.020 A 
ATOM      3  C2  UNL d   1       2.602  -0.309   1.701  0.00  0.00     0.034 A 
ATOM      4  C3  UNL d   1       1.844   0.852   1.893  0.00  0.00     0.017 A 
ATOM      5  C4  UNL d   1       1.915   1.891   0.959  0.00  0.00     0.017 A 
ATOM      6  C5  UNL d   1       2.744   1.764  -0.160  0.00  0.00     0.034 A 
ATOM      7 Cl   UNL d   1       1.010   3.353   1.128  0.00  0.00    -0.070 Cl
ATOM      8 Cl1  UNL d   1       0.844   0.934   3.300  0.00  0.00    -0.070 Cl
ENDROOT
TORSDOF 0
ENDMDL
