MODEL 1
REMARK minimizedAffinity 16.3769474
REMARK minimizedRMSD -1
REMARK  0 active torsions:
REMARK  status: ('A' for Active; 'I' for Inactive)
ROOT
ATOM      1  C   UNL d   1       1.171   1.836   1.512  0.00  0.00     0.020 A 
ATOM      2  C1  UNL d   1       1.714   0.716   2.142  0.00  0.00     0.020 A 
ATOM      3  C2  UNL d   1       2.740  -0.003   1.525  0.00  0.00     0.034 A 
ATOM      4  C3  UNL d   1       3.226   0.396   0.275  0.00  0.00     0.017 A 
ATOM      5  C4  UNL d   1       2.681   1.520  -0.356  0.00  0.00     0.017 A 
ATOM      6  C5  UNL d   1       1.654   2.237   0.266  0.00  0.00     0.034 A 
ATOM      7 Cl   UNL d   1       3.230   2.074  -1.899  0.00  0.00    -0.070 Cl
ATOM      8 Cl1  UNL d   1       4.497  -0.540  -0.428  0.00  0.00    -0.070 Cl
ENDROOT
TORSDOF 0
ENDMDL
