MODEL 1
REMARK minimizedAffinity 19.2172012
REMARK minimizedRMSD -1
REMARK  0 active torsions:
REMARK  status: ('A' for Active; 'I' for Inactive)
ROOT
ATOM      1  C   UNL d   1      -5.999  -5.427  -2.915  0.00  0.00     0.020 A 
ATOM      2  C1  UNL d   1      -5.612  -4.155  -3.334  0.00  0.00     0.020 A 
ATOM      3  C2  UNL d   1      -4.674  -3.432  -2.594  0.00  0.00     0.034 A 
ATOM      4  C3  UNL d   1      -4.121  -3.980  -1.431  0.00  0.00     0.017 A 
ATOM      5  C4  UNL d   1      -4.510  -5.257  -1.011  0.00  0.00     0.017 A 
ATOM      6  C5  UNL d   1      -5.449  -5.977  -1.756  0.00  0.00     0.034 A 
ATOM      7 Cl   UNL d   1      -3.871  -6.000   0.413  0.00  0.00    -0.070 Cl
ATOM      8 Cl1  UNL d   1      -2.966  -3.029  -0.565  0.00  0.00    -0.070 Cl
ENDROOT
TORSDOF 0
ENDMDL
