MODEL 1
REMARK minimizedAffinity 6.92981005
REMARK minimizedRMSD -1
REMARK  0 active torsions:
REMARK  status: ('A' for Active; 'I' for Inactive)
ROOT
ATOM      1  C   UNL d   1       3.627   0.715   0.277  0.00  0.00     0.020 A 
ATOM      2  C1  UNL d   1       2.435   1.100   0.891  0.00  0.00     0.020 A 
ATOM      3  C2  UNL d   1       1.389   1.615   0.123  0.00  0.00     0.034 A 
ATOM      4  C3  UNL d   1       1.531   1.746  -1.264  0.00  0.00     0.017 A 
ATOM      5  C4  UNL d   1       2.727   1.359  -1.879  0.00  0.00     0.017 A 
ATOM      6  C5  UNL d   1       3.772   0.844  -1.105  0.00  0.00     0.034 A 
ATOM      7 Cl   UNL d   1       2.977   1.490  -3.584  0.00  0.00    -0.070 Cl
ATOM      8 Cl1  UNL d   1       0.196   2.390  -2.151  0.00  0.00    -0.070 Cl
ENDROOT
TORSDOF 0
ENDMDL
