MODEL 1
REMARK minimizedAffinity 3.76082397
REMARK minimizedRMSD -1
REMARK  0 active torsions:
REMARK  status: ('A' for Active; 'I' for Inactive)
ROOT
ATOM      1  C   UNL d   1       4.112   0.081   0.178  0.00  0.00     0.020 A 
ATOM      2  C1  UNL d   1       2.862   0.289   0.760  0.00  0.00     0.020 A 
ATOM      3  C2  UNL d   1       1.854   0.931   0.038  0.00  0.00     0.034 A 
ATOM      4  C3  UNL d   1       2.094   1.369  -1.269  0.00  0.00     0.017 A 
ATOM      5  C4  UNL d   1       3.349   1.160  -1.853  0.00  0.00     0.017 A 
ATOM      6  C5  UNL d   1       4.355   0.516  -1.125  0.00  0.00     0.034 A 
ATOM      7 Cl   UNL d   1       3.720   1.671  -3.461  0.00  0.00    -0.070 Cl
ATOM      8 Cl1  UNL d   1       0.801   2.156  -2.103  0.00  0.00    -0.070 Cl
ENDROOT
TORSDOF 0
ENDMDL
