MODEL 1
REMARK minimizedAffinity 12.022047
REMARK minimizedRMSD -1
REMARK  0 active torsions:
REMARK  status: ('A' for Active; 'I' for Inactive)
ROOT
ATOM      1  C   UNL d   1      -4.504  -5.728  -1.173  0.00  0.00     0.020 A 
ATOM      2  C1  UNL d   1      -5.639  -6.000  -1.936  0.00  0.00     0.020 A 
ATOM      3  C2  UNL d   1      -6.000  -5.145  -2.980  0.00  0.00     0.034 A 
ATOM      4  C3  UNL d   1      -5.225  -4.014  -3.263  0.00  0.00     0.017 A 
ATOM      5  C4  UNL d   1      -4.086  -3.742  -2.497  0.00  0.00     0.017 A 
ATOM      6  C5  UNL d   1      -3.729  -4.602  -1.453  0.00  0.00     0.034 A 
ATOM      7 Cl   UNL d   1      -3.080  -2.367  -2.787  0.00  0.00    -0.070 Cl
ATOM      8 Cl1  UNL d   1      -5.730  -3.000  -4.568  0.00  0.00    -0.070 Cl
ENDROOT
TORSDOF 0
ENDMDL
