MODEL 1
REMARK minimizedAffinity 5.90264797
REMARK minimizedRMSD -1
REMARK  0 active torsions:
REMARK  status: ('A' for Active; 'I' for Inactive)
ROOT
ATOM      1  C   UNL d   1      -1.715  -5.485   2.348  0.00  0.00     0.020 A 
ATOM      2  C1  UNL d   1      -2.889  -5.613   1.606  0.00  0.00     0.020 A 
ATOM      3  C2  UNL d   1      -3.211  -4.659   0.639  0.00  0.00     0.034 A 
ATOM      4  C3  UNL d   1      -2.359  -3.572   0.412  0.00  0.00     0.017 A 
ATOM      5  C4  UNL d   1      -1.182  -3.444   1.157  0.00  0.00     0.017 A 
ATOM      6  C5  UNL d   1      -0.864  -4.402   2.124  0.00  0.00     0.034 A 
ATOM      7 Cl   UNL d   1      -0.081  -2.130   0.933  0.00  0.00    -0.070 Cl
ATOM      8 Cl1  UNL d   1      -2.821  -2.429  -0.800  0.00  0.00    -0.070 Cl
ENDROOT
TORSDOF 0
ENDMDL
