MODEL 1
REMARK minimizedAffinity 18.9428825
REMARK minimizedRMSD -1
REMARK  0 active torsions:
REMARK  status: ('A' for Active; 'I' for Inactive)
ROOT
ATOM      1  C   UNL d   1      -5.931  -4.159  -2.844  0.00  0.00     0.020 A 
ATOM      2  C1  UNL d   1      -5.854  -5.451  -2.324  0.00  0.00     0.020 A 
ATOM      3  C2  UNL d   1      -4.612  -6.000  -1.998  0.00  0.00     0.034 A 
ATOM      4  C3  UNL d   1      -3.442  -5.256  -2.192  0.00  0.00     0.017 A 
ATOM      5  C4  UNL d   1      -3.520  -3.960  -2.713  0.00  0.00     0.017 A 
ATOM      6  C5  UNL d   1      -4.766  -3.416  -3.038  0.00  0.00     0.034 A 
ATOM      7 Cl   UNL d   1      -2.120  -2.982  -2.979  0.00  0.00    -0.070 Cl
ATOM      8 Cl1  UNL d   1      -1.940  -5.997  -1.766  0.00  0.00    -0.070 Cl
ENDROOT
TORSDOF 0
ENDMDL
