MODEL 1
REMARK minimizedAffinity 8.07612801
REMARK minimizedRMSD -1
REMARK  0 active torsions:
REMARK  status: ('A' for Active; 'I' for Inactive)
ROOT
ATOM      1  C   UNL d   1      -3.177  -2.762  -1.856  0.00  0.00     0.020 A 
ATOM      2  C1  UNL d   1      -2.049  -2.323  -2.549  0.00  0.00     0.020 A 
ATOM      3  C2  UNL d   1      -0.824  -2.211  -1.888  0.00  0.00     0.034 A 
ATOM      4  C3  UNL d   1      -0.724  -2.537  -0.530  0.00  0.00     0.017 A 
ATOM      5  C4  UNL d   1      -1.857  -2.977   0.164  0.00  0.00     0.017 A 
ATOM      6  C5  UNL d   1      -3.081  -3.088  -0.503  0.00  0.00     0.034 A 
ATOM      7 Cl   UNL d   1      -1.811  -3.398   1.840  0.00  0.00    -0.070 Cl
ATOM      8 Cl1  UNL d   1       0.822  -2.374   0.223  0.00  0.00    -0.070 Cl
ENDROOT
TORSDOF 0
ENDMDL
