MODEL 1
REMARK minimizedAffinity 19.2060013
REMARK minimizedRMSD -1
REMARK  0 active torsions:
REMARK  status: ('A' for Active; 'I' for Inactive)
ROOT
ATOM      1  C   UNL d   1      -1.528  -1.967  -5.530  0.00  0.00     0.020 A 
ATOM      2  C1  UNL d   1      -1.385  -3.272  -6.000  0.00  0.00     0.020 A 
ATOM      3  C2  UNL d   1      -1.576  -4.351  -5.134  0.00  0.00     0.034 A 
ATOM      4  C3  UNL d   1      -1.912  -4.127  -3.794  0.00  0.00     0.017 A 
ATOM      5  C4  UNL d   1      -2.056  -2.817  -3.323  0.00  0.00     0.017 A 
ATOM      6  C5  UNL d   1      -1.863  -1.741  -4.194  0.00  0.00     0.034 A 
ATOM      7 Cl   UNL d   1      -2.468  -2.462  -1.683  0.00  0.00    -0.070 Cl
ATOM      8 Cl1  UNL d   1      -2.134  -5.509  -2.780  0.00  0.00    -0.070 Cl
ENDROOT
TORSDOF 0
ENDMDL
