MODEL 1
REMARK minimizedAffinity 2.89632702
REMARK minimizedRMSD -1
REMARK  0 active torsions:
REMARK  status: ('A' for Active; 'I' for Inactive)
ROOT
ATOM      1  C   UNL d   1      -2.501  -2.600  -1.624  0.00  0.00     0.020 A 
ATOM      2  C1  UNL d   1      -3.288  -3.713  -1.914  0.00  0.00     0.020 A 
ATOM      3  C2  UNL d   1      -3.461  -4.715  -0.957  0.00  0.00     0.034 A 
ATOM      4  C3  UNL d   1      -2.845  -4.607   0.295  0.00  0.00     0.017 A 
ATOM      5  C4  UNL d   1      -2.054  -3.489   0.586  0.00  0.00     0.017 A 
ATOM      6  C5  UNL d   1      -1.885  -2.488  -0.376  0.00  0.00     0.034 A 
ATOM      7 Cl   UNL d   1      -1.262  -3.284   2.108  0.00  0.00    -0.070 Cl
ATOM      8 Cl1  UNL d   1      -3.101  -5.883   1.431  0.00  0.00    -0.070 Cl
ENDROOT
TORSDOF 0
ENDMDL
