MODEL 1
REMARK minimizedAffinity 11.7582302
REMARK minimizedRMSD -1
REMARK  0 active torsions:
REMARK  status: ('A' for Active; 'I' for Inactive)
ROOT
ATOM      1  C   UNL d   1      -2.499  -5.997   2.251  0.00  0.00     0.020 A 
ATOM      2  C1  UNL d   1      -3.712  -5.984   1.563  0.00  0.00     0.020 A 
ATOM      3  C2  UNL d   1      -4.019  -4.922   0.710  0.00  0.00     0.034 A 
ATOM      4  C3  UNL d   1      -3.112  -3.869   0.542  0.00  0.00     0.017 A 
ATOM      5  C4  UNL d   1      -1.895  -3.884   1.233  0.00  0.00     0.017 A 
ATOM      6  C5  UNL d   1      -1.593  -4.949   2.086  0.00  0.00     0.034 A 
ATOM      7 Cl   UNL d   1      -0.725  -2.620   1.077  0.00  0.00    -0.070 Cl
ATOM      8 Cl1  UNL d   1      -3.557  -2.588  -0.530  0.00  0.00    -0.070 Cl
ENDROOT
TORSDOF 0
ENDMDL
