MODEL 1
REMARK minimizedAffinity 1.18690944
REMARK minimizedRMSD -1
REMARK  0 active torsions:
REMARK  status: ('A' for Active; 'I' for Inactive)
ROOT
ATOM      1  C   UNL d   1       2.326   1.001   1.433  0.00  0.00     0.020 A 
ATOM      2  C1  UNL d   1       3.182   0.209   2.196  0.00  0.00     0.020 A 
ATOM      3  C2  UNL d   1       4.282  -0.409   1.596  0.00  0.00     0.034 A 
ATOM      4  C3  UNL d   1       4.527  -0.236   0.229  0.00  0.00     0.017 A 
ATOM      5  C4  UNL d   1       3.667   0.559  -0.536  0.00  0.00     0.017 A 
ATOM      6  C5  UNL d   1       2.567   1.176   0.069  0.00  0.00     0.034 A 
ATOM      7 Cl   UNL d   1       3.905   0.820  -2.228  0.00  0.00    -0.070 Cl
ATOM      8 Cl1  UNL d   1       5.906  -1.029  -0.446  0.00  0.00    -0.070 Cl
ENDROOT
TORSDOF 0
ENDMDL
