MODEL 1
REMARK minimizedAffinity 5.90975046
REMARK minimizedRMSD -1
REMARK  0 active torsions:
REMARK  status: ('A' for Active; 'I' for Inactive)
ROOT
ATOM      1  C   UNL d   1       2.557   0.396   1.972  0.00  0.00     0.020 A 
ATOM      2  C1  UNL d   1       1.756   1.202   1.165  0.00  0.00     0.020 A 
ATOM      3  C2  UNL d   1       2.148   1.489  -0.144  0.00  0.00     0.034 A 
ATOM      4  C3  UNL d   1       3.345   0.970  -0.650  0.00  0.00     0.017 A 
ATOM      5  C4  UNL d   1       4.149   0.161   0.161  0.00  0.00     0.017 A 
ATOM      6  C5  UNL d   1       3.752  -0.124   1.471  0.00  0.00     0.034 A 
ATOM      7 Cl   UNL d   1       5.640  -0.516  -0.393  0.00  0.00    -0.070 Cl
ATOM      8 Cl1  UNL d   1       3.768   1.366  -2.278  0.00  0.00    -0.070 Cl
ENDROOT
TORSDOF 0
ENDMDL
