MODEL 1
REMARK minimizedAffinity 2.81815886
REMARK minimizedRMSD -1
REMARK  0 active torsions:
REMARK  status: ('A' for Active; 'I' for Inactive)
ROOT
ATOM      1  C   UNL d   1      -3.542   5.999  -3.586  0.00  0.00     0.020 A 
ATOM      2  C1  UNL d   1      -4.892   5.913  -3.249  0.00  0.00     0.020 A 
ATOM      3  C2  UNL d   1      -5.266   5.577  -1.946  0.00  0.00     0.034 A 
ATOM      4  C3  UNL d   1      -4.289   5.325  -0.976  0.00  0.00     0.017 A 
ATOM      5  C4  UNL d   1      -2.934   5.412  -1.316  0.00  0.00     0.017 A 
ATOM      6  C5  UNL d   1      -2.565   5.750  -2.621  0.00  0.00     0.034 A 
ATOM      7 Cl   UNL d   1      -1.672   5.117  -0.173  0.00  0.00    -0.070 Cl
ATOM      8 Cl1  UNL d   1      -4.824   4.915   0.615  0.00  0.00    -0.070 Cl
ENDROOT
TORSDOF 0
ENDMDL
