MODEL 1
REMARK minimizedAffinity 8.06438828
REMARK minimizedRMSD -1
REMARK  0 active torsions:
REMARK  status: ('A' for Active; 'I' for Inactive)
ROOT
ATOM      1  C   UNL d   1      -3.048  -2.234  -2.154  0.00  0.00     0.020 A 
ATOM      2  C1  UNL d   1      -2.559  -3.373  -1.516  0.00  0.00     0.020 A 
ATOM      3  C2  UNL d   1      -1.774  -4.286  -2.223  0.00  0.00     0.034 A 
ATOM      4  C3  UNL d   1      -1.476  -4.062  -3.572  0.00  0.00     0.017 A 
ATOM      5  C4  UNL d   1      -1.967  -2.918  -4.211  0.00  0.00     0.017 A 
ATOM      6  C5  UNL d   1      -2.753  -2.007  -3.499  0.00  0.00     0.034 A 
ATOM      7 Cl   UNL d   1      -1.642  -2.573  -5.873  0.00  0.00    -0.070 Cl
ATOM      8 Cl1  UNL d   1      -0.499  -5.233  -4.384  0.00  0.00    -0.070 Cl
ENDROOT
TORSDOF 0
ENDMDL
