MODEL 1
REMARK minimizedAffinity 14.4835863
REMARK minimizedRMSD -1
REMARK  0 active torsions:
REMARK  status: ('A' for Active; 'I' for Inactive)
ROOT
ATOM      1  C   UNL d   1      -1.841  -5.753   3.358  0.00  0.00     0.020 A 
ATOM      2  C1  UNL d   1      -1.939  -5.999   1.989  0.00  0.00     0.020 A 
ATOM      3  C2  UNL d   1      -1.844  -4.943   1.081  0.00  0.00     0.034 A 
ATOM      4  C3  UNL d   1      -1.651  -3.635   1.540  0.00  0.00     0.017 A 
ATOM      5  C4  UNL d   1      -1.553  -3.388   2.915  0.00  0.00     0.017 A 
ATOM      6  C5  UNL d   1      -1.649  -4.450   3.820  0.00  0.00     0.034 A 
ATOM      7 Cl   UNL d   1      -1.315  -1.802   3.557  0.00  0.00    -0.070 Cl
ATOM      8 Cl1  UNL d   1      -1.543  -2.377   0.361  0.00  0.00    -0.070 Cl
ENDROOT
TORSDOF 0
ENDMDL
