MODEL 1
REMARK minimizedAffinity 2.30819678
REMARK minimizedRMSD -1
REMARK  0 active torsions:
REMARK  status: ('A' for Active; 'I' for Inactive)
ROOT
ATOM      1  C   UNL d   1      -1.706   3.048   2.666  0.00  0.00     0.020 A 
ATOM      2  C1  UNL d   1      -1.079   1.872   2.258  0.00  0.00     0.020 A 
ATOM      3  C2  UNL d   1      -1.630   0.634   2.594  0.00  0.00     0.034 A 
ATOM      4  C3  UNL d   1      -2.812   0.569   3.341  0.00  0.00     0.017 A 
ATOM      5  C4  UNL d   1      -3.440   1.751   3.751  0.00  0.00     0.017 A 
ATOM      6  C5  UNL d   1      -2.884   2.988   3.411  0.00  0.00     0.034 A 
ATOM      7 Cl   UNL d   1      -4.901   1.751   4.675  0.00  0.00    -0.070 Cl
ATOM      8 Cl1  UNL d   1      -3.438  -0.996   3.720  0.00  0.00    -0.070 Cl
ENDROOT
TORSDOF 0
ENDMDL
