MODEL 1
REMARK minimizedAffinity -3.86113048
REMARK minimizedRMSD -1
REMARK  1 active torsions:
REMARK  status: ('A' for Active; 'I' for Inactive)
REMARK    1  A    between atoms: C3_4  and  O_7 
ROOT
ATOM      1  C   UNL d   1      -0.293  -0.809   0.387  0.00  0.00    -0.033 A 
ATOM      2  C1  UNL d   1       0.066  -0.462  -0.917  0.00  0.00     0.039 A 
ATOM      3  C2  UNL d   1      -0.017  -1.408  -1.941  0.00  0.00    -0.080 A 
ATOM      4  C3  UNL d   1      -0.461  -2.694  -1.648  0.00  0.00     0.150 A 
ATOM      5  C4  UNL d   1      -0.823  -3.046  -0.352  0.00  0.00    -0.007 A 
ATOM      6  C5  UNL d   1      -0.739  -2.100   0.669  0.00  0.00     0.039 A 
ENDROOT
BRANCH   4   7
ATOM      7  O   UNL d   1      -0.554  -3.653  -2.613  0.00  0.00    -0.526 OA
ATOM      8  H5  UNL d   1      -0.244  -3.275  -3.453  0.00  0.00     0.418 HD
ENDBRANCH   4   7
TORSDOF 1
ENDMDL
