MODEL 1
REMARK minimizedAffinity -1.75979698
REMARK minimizedRMSD -1
REMARK  1 active torsions:
REMARK  status: ('A' for Active; 'I' for Inactive)
REMARK    1  A    between atoms: C3_4  and  O_7 
ROOT
ATOM      1  C   UNL d   1      -1.065  -0.863   1.048  0.00  0.00    -0.033 A 
ATOM      2  C1  UNL d   1      -0.497   0.317   0.565  0.00  0.00     0.039 A 
ATOM      3  C2  UNL d   1      -0.053   0.390  -0.757  0.00  0.00    -0.080 A 
ATOM      4  C3  UNL d   1      -0.184  -0.722  -1.584  0.00  0.00     0.150 A 
ATOM      5  C4  UNL d   1      -0.753  -1.899  -1.111  0.00  0.00    -0.007 A 
ATOM      6  C5  UNL d   1      -1.195  -1.971   0.210  0.00  0.00     0.039 A 
ENDROOT
BRANCH   4   7
ATOM      7  O   UNL d   1       0.239  -0.699  -2.880  0.00  0.00    -0.526 OA
ATOM      8  H5  UNL d   1       0.636   0.169  -3.059  0.00  0.00     0.418 HD
ENDBRANCH   4   7
TORSDOF 1
ENDMDL
