MODEL 1
REMARK minimizedAffinity -3.00316858
REMARK minimizedRMSD -1
REMARK  1 active torsions:
REMARK  status: ('A' for Active; 'I' for Inactive)
REMARK    1  A    between atoms: C3_4  and  O_7 
ROOT
ATOM      1  C   UNL d   1      -0.742  -0.700   0.823  0.00  0.00    -0.033 A 
ATOM      2  C1  UNL d   1      -1.031   0.384  -0.009  0.00  0.00     0.039 A 
ATOM      3  C2  UNL d   1      -0.070   1.372  -0.231  0.00  0.00    -0.080 A 
ATOM      4  C3  UNL d   1       1.175   1.264   0.383  0.00  0.00     0.150 A 
ATOM      5  C4  UNL d   1       1.472   0.185   1.209  0.00  0.00    -0.007 A 
ATOM      6  C5  UNL d   1       0.510  -0.800   1.431  0.00  0.00     0.039 A 
ENDROOT
BRANCH   4   7
ATOM      7  O   UNL d   1       2.144   2.205   0.200  0.00  0.00    -0.526 OA
ATOM      8  H5  UNL d   1       1.788   2.906  -0.372  0.00  0.00     0.418 HD
ENDBRANCH   4   7
TORSDOF 1
ENDMDL
