MODEL 1
REMARK minimizedAffinity -4.15701342
REMARK minimizedRMSD -1
REMARK  1 active torsions:
REMARK  status: ('A' for Active; 'I' for Inactive)
REMARK    1  A    between atoms: C3_4  and  O_7 
ROOT
ATOM      1  C   UNL d   1      -1.107  -0.561   1.592  0.00  0.00    -0.033 A 
ATOM      2  C1  UNL d   1      -0.720   0.496   0.765  0.00  0.00     0.039 A 
ATOM      3  C2  UNL d   1      -0.303   0.244  -0.543  0.00  0.00    -0.080 A 
ATOM      4  C3  UNL d   1      -0.278  -1.066  -1.012  0.00  0.00     0.150 A 
ATOM      5  C4  UNL d   1      -0.666  -2.123  -0.195  0.00  0.00    -0.007 A 
ATOM      6  C5  UNL d   1      -1.081  -1.870   1.111  0.00  0.00     0.039 A 
ENDROOT
BRANCH   4   7
ATOM      7  O   UNL d   1       0.126  -1.362  -2.280  0.00  0.00    -0.526 OA
ATOM      8  H5  UNL d   1       0.392  -0.536  -2.718  0.00  0.00     0.418 HD
ENDBRANCH   4   7
TORSDOF 1
ENDMDL
