MODEL 1
REMARK minimizedAffinity -3.10665035
REMARK minimizedRMSD -1
REMARK  1 active torsions:
REMARK  status: ('A' for Active; 'I' for Inactive)
REMARK    1  A    between atoms: C3_4  and  O_7 
ROOT
ATOM      1  C   UNL d   1       1.163   1.698   0.124  0.00  0.00    -0.033 A 
ATOM      2  C1  UNL d   1       1.759   0.762   0.972  0.00  0.00     0.039 A 
ATOM      3  C2  UNL d   1       1.046  -0.368   1.377  0.00  0.00    -0.080 A 
ATOM      4  C3  UNL d   1      -0.259  -0.551   0.928  0.00  0.00     0.150 A 
ATOM      5  C4  UNL d   1      -0.857   0.376   0.081  0.00  0.00    -0.007 A 
ATOM      6  C5  UNL d   1      -0.144   1.505  -0.322  0.00  0.00     0.039 A 
ENDROOT
BRANCH   4   7
ATOM      7  O   UNL d   1      -0.995  -1.636   1.300  0.00  0.00    -0.526 OA
ATOM      8  H5  UNL d   1      -0.463  -2.175   1.909  0.00  0.00     0.418 HD
ENDBRANCH   4   7
TORSDOF 1
ENDMDL
