MODEL 1
REMARK minimizedAffinity -2.73084188
REMARK minimizedRMSD -1
REMARK  1 active torsions:
REMARK  status: ('A' for Active; 'I' for Inactive)
REMARK    1  A    between atoms: C3_4  and  O_7 
ROOT
ATOM      1  C   UNL d   1      -0.336  -0.820   2.265  0.00  0.00    -0.033 A 
ATOM      2  C1  UNL d   1       0.733   0.073   2.172  0.00  0.00     0.039 A 
ATOM      3  C2  UNL d   1       0.916   0.827   1.011  0.00  0.00    -0.080 A 
ATOM      4  C3  UNL d   1       0.023   0.679  -0.047  0.00  0.00     0.150 A 
ATOM      5  C4  UNL d   1      -1.046  -0.206   0.040  0.00  0.00    -0.007 A 
ATOM      6  C5  UNL d   1      -1.227  -0.959   1.200  0.00  0.00     0.039 A 
ENDROOT
BRANCH   4   7
ATOM      7  O   UNL d   1       0.163   1.389  -1.203  0.00  0.00    -0.526 OA
ATOM      8  H5  UNL d   1       0.962   1.939  -1.131  0.00  0.00     0.418 HD
ENDBRANCH   4   7
TORSDOF 1
ENDMDL
