MODEL 1
REMARK minimizedAffinity -1.27128017
REMARK minimizedRMSD -1
REMARK  1 active torsions:
REMARK  status: ('A' for Active; 'I' for Inactive)
REMARK    1  A    between atoms: C3_4  and  O_7 
ROOT
ATOM      1  C   UNL d   1      -0.579   1.010   1.121  0.00  0.00    -0.033 A 
ATOM      2  C1  UNL d   1      -0.706  -0.380   1.130  0.00  0.00     0.039 A 
ATOM      3  C2  UNL d   1      -0.526  -1.107  -0.049  0.00  0.00    -0.080 A 
ATOM      4  C3  UNL d   1      -0.219  -0.432  -1.227  0.00  0.00     0.150 A 
ATOM      5  C4  UNL d   1      -0.087   0.952  -1.243  0.00  0.00    -0.007 A 
ATOM      6  C5  UNL d   1      -0.268   1.676  -0.065  0.00  0.00     0.039 A 
ENDROOT
BRANCH   4   7
ATOM      7  O   UNL d   1      -0.039  -1.098  -2.403  0.00  0.00    -0.526 OA
ATOM      8  H5  UNL d   1      -0.189  -2.045  -2.247  0.00  0.00     0.418 HD
ENDBRANCH   4   7
TORSDOF 1
ENDMDL
