MODEL 1
REMARK minimizedAffinity -3.85949612
REMARK minimizedRMSD -1
REMARK  1 active torsions:
REMARK  status: ('A' for Active; 'I' for Inactive)
REMARK    1  A    between atoms: C3_4  and  O_7 
ROOT
ATOM      1  C   UNL d   1       0.266   2.201   0.291  0.00  0.00    -0.033 A 
ATOM      2  C1  UNL d   1       0.968   3.352   0.654  0.00  0.00     0.039 A 
ATOM      3  C2  UNL d   1       2.288   3.257   1.098  0.00  0.00    -0.080 A 
ATOM      4  C3  UNL d   1       2.895   2.006   1.173  0.00  0.00     0.150 A 
ATOM      5  C4  UNL d   1       2.203   0.855   0.809  0.00  0.00    -0.007 A 
ATOM      6  C5  UNL d   1       0.885   0.952   0.367  0.00  0.00     0.039 A 
ENDROOT
BRANCH   4   7
ATOM      7  O   UNL d   1       4.180   1.862   1.605  0.00  0.00    -0.526 OA
ATOM      8  H5  UNL d   1       4.522   2.738   1.849  0.00  0.00     0.418 HD
ENDBRANCH   4   7
TORSDOF 1
ENDMDL
