MODEL 1
REMARK minimizedAffinity -2.38345385
REMARK minimizedRMSD -1
REMARK  1 active torsions:
REMARK  status: ('A' for Active; 'I' for Inactive)
REMARK    1  A    between atoms: C3_4  and  O_7 
ROOT
ATOM      1  C   UNL d   1       0.452   1.714  -0.045  0.00  0.00    -0.033 A 
ATOM      2  C1  UNL d   1      -0.811   1.276  -0.448  0.00  0.00     0.039 A 
ATOM      3  C2  UNL d   1      -1.331   0.081   0.055  0.00  0.00    -0.080 A 
ATOM      4  C3  UNL d   1      -0.578  -0.665   0.958  0.00  0.00     0.150 A 
ATOM      5  C4  UNL d   1       0.679  -0.232   1.366  0.00  0.00    -0.007 A 
ATOM      6  C5  UNL d   1       1.196   0.960   0.863  0.00  0.00     0.039 A 
ENDROOT
BRANCH   4   7
ATOM      7  O   UNL d   1      -1.041  -1.840   1.472  0.00  0.00    -0.526 OA
ATOM      8  H5  UNL d   1      -1.910  -2.027   1.079  0.00  0.00     0.418 HD
ENDBRANCH   4   7
TORSDOF 1
ENDMDL
