MODEL 1
REMARK minimizedAffinity -1.34008241
REMARK minimizedRMSD -1
REMARK  1 active torsions:
REMARK  status: ('A' for Active; 'I' for Inactive)
REMARK    1  A    between atoms: C3_4  and  O_7 
ROOT
ATOM      1  C   UNL d   1      -0.147   0.821   0.704  0.00  0.00    -0.033 A 
ATOM      2  C1  UNL d   1      -0.104   1.493  -0.520  0.00  0.00     0.039 A 
ATOM      3  C2  UNL d   1       0.004   0.772  -1.710  0.00  0.00    -0.080 A 
ATOM      4  C3  UNL d   1       0.067  -0.618  -1.664  0.00  0.00     0.150 A 
ATOM      5  C4  UNL d   1       0.021  -1.294  -0.449  0.00  0.00    -0.007 A 
ATOM      6  C5  UNL d   1      -0.086  -0.572   0.739  0.00  0.00     0.039 A 
ENDROOT
BRANCH   4   7
ATOM      7  O   UNL d   1       0.178  -1.364  -2.800  0.00  0.00    -0.526 OA
ATOM      8  H5  UNL d   1       0.228  -0.761  -3.561  0.00  0.00     0.418 HD
ENDBRANCH   4   7
TORSDOF 1
ENDMDL
