MODEL 1
REMARK minimizedAffinity -3.47505522
REMARK minimizedRMSD -1
REMARK  1 active torsions:
REMARK  status: ('A' for Active; 'I' for Inactive)
REMARK    1  A    between atoms: C3_4  and  O_7 
ROOT
ATOM      1  C   UNL d   1      -0.720  -3.109  -0.217  0.00  0.00    -0.033 A 
ATOM      2  C1  UNL d   1      -0.982  -2.321   0.905  0.00  0.00     0.039 A 
ATOM      3  C2  UNL d   1      -0.817  -0.936   0.842  0.00  0.00    -0.080 A 
ATOM      4  C3  UNL d   1      -0.392  -0.352  -0.349  0.00  0.00     0.150 A 
ATOM      5  C4  UNL d   1      -0.133  -1.131  -1.472  0.00  0.00    -0.007 A 
ATOM      6  C5  UNL d   1      -0.298  -2.514  -1.406  0.00  0.00     0.039 A 
ENDROOT
BRANCH   4   7
ATOM      7  O   UNL d   1      -0.212   0.995  -0.458  0.00  0.00    -0.526 OA
ATOM      8  H5  UNL d   1      -0.400   1.401   0.405  0.00  0.00     0.418 HD
ENDBRANCH   4   7
TORSDOF 1
ENDMDL
