MODEL 1
REMARK minimizedAffinity -2.64344859
REMARK minimizedRMSD -1
REMARK  1 active torsions:
REMARK  status: ('A' for Active; 'I' for Inactive)
REMARK    1  A    between atoms: C3_4  and  O_7 
ROOT
ATOM      1  C   UNL d   1      -0.283   1.288   0.519  0.00  0.00    -0.033 A 
ATOM      2  C1  UNL d   1       0.668   0.505  -0.138  0.00  0.00     0.039 A 
ATOM      3  C2  UNL d   1       0.590  -0.888  -0.078  0.00  0.00    -0.080 A 
ATOM      4  C3  UNL d   1      -0.443  -1.484   0.641  0.00  0.00     0.150 A 
ATOM      5  C4  UNL d   1      -1.395  -0.710   1.295  0.00  0.00    -0.007 A 
ATOM      6  C5  UNL d   1      -1.315   0.681   1.235  0.00  0.00     0.039 A 
ENDROOT
BRANCH   4   7
ATOM      7  O   UNL d   1      -0.557  -2.840   0.733  0.00  0.00    -0.526 OA
ATOM      8  H5  UNL d   1       0.187  -3.244   0.256  0.00  0.00     0.418 HD
ENDBRANCH   4   7
TORSDOF 1
ENDMDL
