MODEL 1
REMARK minimizedAffinity -4.10963964
REMARK minimizedRMSD -1
REMARK  1 active torsions:
REMARK  status: ('A' for Active; 'I' for Inactive)
REMARK    1  A    between atoms: C3_4  and  O_7 
ROOT
ATOM      1  C   UNL d   1      -0.108  -1.267  -1.718  0.00  0.00    -0.033 A 
ATOM      2  C1  UNL d   1       0.096  -0.103  -0.975  0.00  0.00     0.039 A 
ATOM      3  C2  UNL d   1      -0.346  -0.030   0.347  0.00  0.00    -0.080 A 
ATOM      4  C3  UNL d   1      -0.989  -1.127   0.914  0.00  0.00     0.150 A 
ATOM      5  C4  UNL d   1      -1.192  -2.291   0.181  0.00  0.00    -0.007 A 
ATOM      6  C5  UNL d   1      -0.751  -2.362  -1.139  0.00  0.00     0.039 A 
ENDROOT
BRANCH   4   7
ATOM      7  O   UNL d   1      -1.442  -1.101   2.200  0.00  0.00    -0.526 OA
ATOM      8  H5  UNL d   1      -1.258  -0.223   2.574  0.00  0.00     0.418 HD
ENDBRANCH   4   7
TORSDOF 1
ENDMDL
