MODEL 1
REMARK minimizedAffinity -3.97764897
REMARK minimizedRMSD -1
REMARK  1 active torsions:
REMARK  status: ('A' for Active; 'I' for Inactive)
REMARK    1  A    between atoms: C3_4  and  O_7 
ROOT
ATOM      1  C   UNL d   1      -0.989  -2.202   1.124  0.00  0.00    -0.033 A 
ATOM      2  C1  UNL d   1      -0.153  -2.283   0.009  0.00  0.00     0.039 A 
ATOM      3  C2  UNL d   1       0.075  -1.154  -0.779  0.00  0.00    -0.080 A 
ATOM      4  C3  UNL d   1      -0.539   0.050  -0.442  0.00  0.00     0.150 A 
ATOM      5  C4  UNL d   1      -1.370   0.139   0.670  0.00  0.00    -0.007 A 
ATOM      6  C5  UNL d   1      -1.597  -0.990   1.455  0.00  0.00     0.039 A 
ENDROOT
BRANCH   4   7
ATOM      7  O   UNL d   1      -0.351   1.178  -1.184  0.00  0.00    -0.526 OA
ATOM      8  H5  UNL d   1       0.224   0.959  -1.936  0.00  0.00     0.418 HD
ENDBRANCH   4   7
TORSDOF 1
ENDMDL
