MODEL 1
REMARK minimizedAffinity -2.65034294
REMARK minimizedRMSD -1
REMARK  1 active torsions:
REMARK  status: ('A' for Active; 'I' for Inactive)
REMARK    1  A    between atoms: C3_4  and  O_7 
ROOT
ATOM      1  C   UNL d   1      -0.794  -1.204   1.648  0.00  0.00    -0.033 A 
ATOM      2  C1  UNL d   1      -0.075  -0.115   1.152  0.00  0.00     0.039 A 
ATOM      3  C2  UNL d   1       0.351  -0.104  -0.177  0.00  0.00    -0.080 A 
ATOM      4  C3  UNL d   1       0.052  -1.187  -0.999  0.00  0.00     0.150 A 
ATOM      5  C4  UNL d   1      -0.667  -2.274  -0.513  0.00  0.00    -0.007 A 
ATOM      6  C5  UNL d   1      -1.091  -2.283   0.815  0.00  0.00     0.039 A 
ENDROOT
BRANCH   4   7
ATOM      7  O   UNL d   1       0.450  -1.224  -2.302  0.00  0.00    -0.526 OA
ATOM      8  H5  UNL d   1       0.962  -0.419  -2.491  0.00  0.00     0.418 HD
ENDBRANCH   4   7
TORSDOF 1
ENDMDL
