MODEL 1
REMARK minimizedAffinity -3.27308416
REMARK minimizedRMSD -1
REMARK  1 active torsions:
REMARK  status: ('A' for Active; 'I' for Inactive)
REMARK    1  A    between atoms: C3_4  and  O_7 
ROOT
ATOM      1  C   UNL d   1      -0.583  -2.591   0.367  0.00  0.00    -0.033 A 
ATOM      2  C1  UNL d   1      -0.632  -1.905   1.582  0.00  0.00     0.039 A 
ATOM      3  C2  UNL d   1      -0.417  -0.526   1.616  0.00  0.00    -0.080 A 
ATOM      4  C3  UNL d   1      -0.155   0.154   0.430  0.00  0.00     0.150 A 
ATOM      5  C4  UNL d   1      -0.108  -0.522  -0.785  0.00  0.00    -0.007 A 
ATOM      6  C5  UNL d   1      -0.322  -1.900  -0.817  0.00  0.00     0.039 A 
ENDROOT
BRANCH   4   7
ATOM      7  O   UNL d   1       0.066   1.499   0.414  0.00  0.00    -0.526 OA
ATOM      8  H5  UNL d   1       0.031   1.828   1.328  0.00  0.00     0.418 HD
ENDBRANCH   4   7
TORSDOF 1
ENDMDL
