MODEL 1
REMARK minimizedAffinity -2.33808231
REMARK minimizedRMSD -1
REMARK  1 active torsions:
REMARK  status: ('A' for Active; 'I' for Inactive)
REMARK    1  A    between atoms: C3_4  and  O_7 
ROOT
ATOM      1  C   UNL d   1       1.990   3.878   0.959  0.00  0.00    -0.033 A 
ATOM      2  C1  UNL d   1       2.213   3.105  -0.181  0.00  0.00     0.039 A 
ATOM      3  C2  UNL d   1       1.426   1.979  -0.429  0.00  0.00    -0.080 A 
ATOM      4  C3  UNL d   1       0.419   1.638   0.470  0.00  0.00     0.150 A 
ATOM      5  C4  UNL d   1       0.188   2.407   1.606  0.00  0.00    -0.007 A 
ATOM      6  C5  UNL d   1       0.976   3.530   1.853  0.00  0.00     0.039 A 
ENDROOT
BRANCH   4   7
ATOM      7  O   UNL d   1      -0.373   0.546   0.273  0.00  0.00    -0.526 OA
ATOM      8  H5  UNL d   1      -0.080   0.095  -0.536  0.00  0.00     0.418 HD
ENDBRANCH   4   7
TORSDOF 1
ENDMDL
