MODEL 1
REMARK minimizedAffinity -0.930340469
REMARK minimizedRMSD -1
REMARK  1 active torsions:
REMARK  status: ('A' for Active; 'I' for Inactive)
REMARK    1  A    between atoms: C1_2  and  C2_3 
ROOT
ATOM      1  C2  UNL d   1       1.108  -1.543   3.989  0.00  0.00    -0.081 A 
ATOM      2  C3  UNL d   1       1.874  -1.306   2.842  0.00  0.00     0.006 A 
ATOM      3  C4  UNL d   1       1.328  -0.623   1.753  0.00  0.00     0.002 A 
ATOM      4  C5  UNL d   1       0.009  -0.157   1.797  0.00  0.00    -0.080 A 
ATOM      5  C6  UNL d   1      -0.580   0.605   0.647  0.00  0.00     0.076 C 
ATOM      6  C7  UNL d   1      -0.763  -0.408   2.936  0.00  0.00     0.002 A 
ATOM      7  C8  UNL d   1      -0.217  -1.093   4.025  0.00  0.00     0.006 A 
ENDROOT
BRANCH   1   8
ATOM      8  C1  UNL d   1       1.714  -2.223   5.190  0.00  0.00     0.054 C 
ATOM      9  C   UNL d   1       3.023  -1.561   5.598  0.00  0.00     0.018 C 
ENDBRANCH   1   8
TORSDOF 1
ENDMDL
