MODEL 1
REMARK minimizedAffinity 0.755305648
REMARK minimizedRMSD -1
REMARK  1 active torsions:
REMARK  status: ('A' for Active; 'I' for Inactive)
REMARK    1  A    between atoms: C1_2  and  C2_3 
ROOT
ATOM      1  C2  UNL d   1       1.815  -2.075   4.334  0.00  0.00    -0.081 A 
ATOM      2  C3  UNL d   1       1.954  -0.907   3.574  0.00  0.00     0.006 A 
ATOM      3  C4  UNL d   1       0.870  -0.395   2.857  0.00  0.00     0.002 A 
ATOM      4  C5  UNL d   1      -0.372  -1.038   2.893  0.00  0.00    -0.080 A 
ATOM      5  C6  UNL d   1      -1.552  -0.483   2.152  0.00  0.00     0.076 C 
ATOM      6  C7  UNL d   1      -0.507  -2.215   3.638  0.00  0.00     0.002 A 
ATOM      7  C8  UNL d   1       0.577  -2.727   4.355  0.00  0.00     0.006 A 
ENDROOT
BRANCH   1   8
ATOM      8  C1  UNL d   1       2.964  -2.593   5.161  0.00  0.00     0.054 C 
ATOM      9  C   UNL d   1       3.857  -1.457   5.639  0.00  0.00     0.018 C 
ENDBRANCH   1   8
TORSDOF 1
ENDMDL
