MODEL 1
REMARK minimizedAffinity 0.819643974
REMARK minimizedRMSD -1
REMARK  1 active torsions:
REMARK  status: ('A' for Active; 'I' for Inactive)
REMARK    1  A    between atoms: C1_2  and  C2_3 
ROOT
ATOM      1  C2  UNL d   1       0.104   0.334   2.677  0.00  0.00    -0.081 A 
ATOM      2  C3  UNL d   1       0.897  -0.779   2.373  0.00  0.00     0.006 A 
ATOM      3  C4  UNL d   1       1.649  -1.405   3.370  0.00  0.00     0.002 A 
ATOM      4  C5  UNL d   1       1.614  -0.935   4.687  0.00  0.00    -0.080 A 
ATOM      5  C6  UNL d   1       2.393  -1.616   5.773  0.00  0.00     0.076 C 
ATOM      6  C7  UNL d   1       0.835   0.188   4.987  0.00  0.00     0.002 A 
ATOM      7  C8  UNL d   1       0.083   0.815   3.991  0.00  0.00     0.006 A 
ENDROOT
BRANCH   1   8
ATOM      8  C1  UNL d   1      -0.759   0.973   1.618  0.00  0.00     0.054 C 
ATOM      9  C   UNL d   1      -1.940   0.084   1.257  0.00  0.00     0.018 C 
ENDBRANCH   1   8
TORSDOF 1
ENDMDL
