MODEL 1
REMARK minimizedAffinity 1.06350207
REMARK minimizedRMSD -1
REMARK  1 active torsions:
REMARK  status: ('A' for Active; 'I' for Inactive)
REMARK    1  A    between atoms: C1_2  and  C2_3 
ROOT
ATOM      1  C2  UNL d   1      -0.538   0.085   1.552  0.00  0.00    -0.081 A 
ATOM      2  C3  UNL d   1       0.859   0.027   1.465  0.00  0.00     0.006 A 
ATOM      3  C4  UNL d   1       1.601  -0.651   2.434  0.00  0.00     0.002 A 
ATOM      4  C5  UNL d   1       0.960  -1.289   3.502  0.00  0.00    -0.080 A 
ATOM      5  C6  UNL d   1       1.743  -2.047   4.533  0.00  0.00     0.076 C 
ATOM      6  C7  UNL d   1      -0.433  -1.216   3.599  0.00  0.00     0.002 A 
ATOM      7  C8  UNL d   1      -1.176  -0.537   2.630  0.00  0.00     0.006 A 
ENDROOT
BRANCH   1   8
ATOM      8  C1  UNL d   1      -1.345   0.761   0.474  0.00  0.00     0.054 C 
ATOM      9  C   UNL d   1      -1.846  -0.244  -0.554  0.00  0.00     0.018 C 
ENDBRANCH   1   8
TORSDOF 1
ENDMDL
