MODEL 1
REMARK minimizedAffinity 1.67178428
REMARK minimizedRMSD -1
REMARK  1 active torsions:
REMARK  status: ('A' for Active; 'I' for Inactive)
REMARK    1  A    between atoms: C1_2  and  C2_3 
ROOT
ATOM      1  C2  UNL d   1      -0.616   0.275   0.909  0.00  0.00    -0.081 A 
ATOM      2  C3  UNL d   1       0.758   0.037   0.782  0.00  0.00     0.006 A 
ATOM      3  C4  UNL d   1       1.471  -0.566   1.821  0.00  0.00     0.002 A 
ATOM      4  C5  UNL d   1       0.822  -0.947   3.000  0.00  0.00    -0.080 A 
ATOM      5  C6  UNL d   1       1.570  -1.622   4.111  0.00  0.00     0.076 C 
ATOM      6  C7  UNL d   1      -0.547  -0.693   3.134  0.00  0.00     0.002 A 
ATOM      7  C8  UNL d   1      -1.261  -0.090   2.096  0.00  0.00     0.006 A 
ENDROOT
BRANCH   1   8
ATOM      8  C1  UNL d   1      -1.400   0.866  -0.235  0.00  0.00     0.054 C 
ATOM      9  C   UNL d   1      -2.466  -0.100  -0.732  0.00  0.00     0.018 C 
ENDBRANCH   1   8
TORSDOF 1
ENDMDL
