MODEL 1
REMARK minimizedAffinity 0.64444387
REMARK minimizedRMSD -1
REMARK  1 active torsions:
REMARK  status: ('A' for Active; 'I' for Inactive)
REMARK    1  A    between atoms: C1_2  and  C2_3 
ROOT
ATOM      1  C2  UNL d   1       0.751  -0.930   3.187  0.00  0.00    -0.081 A 
ATOM      2  C3  UNL d   1       0.957   0.291   2.531  0.00  0.00     0.006 A 
ATOM      3  C4  UNL d   1      -0.016   0.805   1.671  0.00  0.00     0.002 A 
ATOM      4  C5  UNL d   1      -1.213   0.112   1.458  0.00  0.00    -0.080 A 
ATOM      5  C6  UNL d   1      -2.278   0.668   0.560  0.00  0.00     0.076 C 
ATOM      6  C7  UNL d   1      -1.411  -1.116   2.098  0.00  0.00     0.002 A 
ATOM      7  C8  UNL d   1      -0.438  -1.631   2.958  0.00  0.00     0.006 A 
ENDROOT
BRANCH   1   8
ATOM      8  C1  UNL d   1       1.771  -1.455   4.165  0.00  0.00     0.054 C 
ATOM      9  C   UNL d   1       1.621  -0.795   5.528  0.00  0.00     0.018 C 
ENDBRANCH   1   8
TORSDOF 1
ENDMDL
