MODEL 1
REMARK minimizedAffinity -3.73670721
REMARK minimizedRMSD -1
REMARK  1 active torsions:
REMARK  status: ('A' for Active; 'I' for Inactive)
REMARK    1  A    between atoms: C1_2  and  C2_3 
ROOT
ATOM      1  C2  UNL d   1       1.216   0.266   0.406  0.00  0.00    -0.076 A 
ATOM      2  C3  UNL d   1       0.621   1.445  -0.076  0.00  0.00     0.004 A 
ATOM      3  C4  UNL d   1      -0.694   1.449  -0.537  0.00  0.00    -0.003 A 
ATOM      4  C5  UNL d   1      -1.437   0.273  -0.522  0.00  0.00     0.000 A 
ATOM      5  C6  UNL d   1      -0.869  -0.902  -0.030  0.00  0.00     0.000 A 
ATOM      6  C7  UNL d   1       0.451  -0.919   0.453  0.00  0.00    -0.073 A 
ATOM      7  C8  UNL d   1       1.015  -2.215   0.966  0.00  0.00     0.078 C 
ENDROOT
BRANCH   1   8
ATOM      8  C1  UNL d   1       2.655   0.317   0.867  0.00  0.00     0.053 C 
ATOM      9  C   UNL d   1       2.825   1.104   2.158  0.00  0.00     0.018 C 
ENDBRANCH   1   8
TORSDOF 1
ENDMDL
