MODEL 1
REMARK minimizedAffinity -1.9490416
REMARK minimizedRMSD -1
REMARK  1 active torsions:
REMARK  status: ('A' for Active; 'I' for Inactive)
REMARK    1  A    between atoms: C1_2  and  C2_3 
ROOT
ATOM      1  C2  UNL d   1       1.542   0.277   0.702  0.00  0.00    -0.076 A 
ATOM      2  C3  UNL d   1       1.342  -1.113   0.747  0.00  0.00     0.004 A 
ATOM      3  C4  UNL d   1       0.101  -1.670   0.444  0.00  0.00    -0.003 A 
ATOM      4  C5  UNL d   1      -0.961  -0.845   0.089  0.00  0.00     0.000 A 
ATOM      5  C6  UNL d   1      -0.776   0.535   0.022  0.00  0.00     0.000 A 
ATOM      6  C7  UNL d   1       0.473   1.112   0.309  0.00  0.00    -0.073 A 
ATOM      7  C8  UNL d   1       0.614   2.607   0.227  0.00  0.00     0.078 C 
ENDROOT
BRANCH   1   8
ATOM      8  C1  UNL d   1       2.902   0.826   1.068  0.00  0.00     0.053 C 
ATOM      9  C   UNL d   1       3.997  -0.225   0.980  0.00  0.00     0.018 C 
ENDBRANCH   1   8
TORSDOF 1
ENDMDL
