MODEL 1
REMARK minimizedAffinity -2.71492457
REMARK minimizedRMSD -1
REMARK  1 active torsions:
REMARK  status: ('A' for Active; 'I' for Inactive)
REMARK    1  A    between atoms: C1_2  and  C2_3 
ROOT
ATOM      1  C2  UNL d   1       1.607   0.033   1.439  0.00  0.00    -0.076 A 
ATOM      2  C3  UNL d   1       1.449   1.309   0.871  0.00  0.00     0.004 A 
ATOM      3  C4  UNL d   1       0.447   1.558  -0.065  0.00  0.00    -0.003 A 
ATOM      4  C5  UNL d   1      -0.413   0.535  -0.449  0.00  0.00     0.000 A 
ATOM      5  C6  UNL d   1      -0.282  -0.733   0.117  0.00  0.00     0.000 A 
ATOM      6  C7  UNL d   1       0.713  -0.996   1.075  0.00  0.00    -0.073 A 
ATOM      7  C8  UNL d   1       0.814  -2.383   1.648  0.00  0.00     0.078 C 
ENDROOT
BRANCH   1   8
ATOM      8  C1  UNL d   1       2.729  -0.185   2.429  0.00  0.00     0.053 C 
ATOM      9  C   UNL d   1       3.967  -0.787   1.784  0.00  0.00     0.018 C 
ENDBRANCH   1   8
TORSDOF 1
ENDMDL
