MODEL 1
REMARK minimizedAffinity -4.66528034
REMARK minimizedRMSD -1
REMARK  1 active torsions:
REMARK  status: ('A' for Active; 'I' for Inactive)
REMARK    1  A    between atoms: C1_2  and  C2_3 
ROOT
ATOM      1  C2  UNL d   1       0.411  -0.575   0.425  0.00  0.00    -0.076 A 
ATOM      2  C3  UNL d   1       1.014   0.635   0.039  0.00  0.00     0.004 A 
ATOM      3  C4  UNL d   1       2.363   0.877   0.293  0.00  0.00    -0.003 A 
ATOM      4  C5  UNL d   1       3.131  -0.087   0.935  0.00  0.00     0.000 A 
ATOM      5  C6  UNL d   1       2.554  -1.300   1.309  0.00  0.00     0.000 A 
ATOM      6  C7  UNL d   1       1.199  -1.567   1.046  0.00  0.00    -0.073 A 
ATOM      7  C8  UNL d   1       0.627  -2.889   1.477  0.00  0.00     0.078 C 
ENDROOT
BRANCH   1   8
ATOM      8  C1  UNL d   1      -1.063  -0.770   0.148  0.00  0.00     0.053 C 
ATOM      9  C   UNL d   1      -1.646   0.340  -0.713  0.00  0.00     0.018 C 
ENDBRANCH   1   8
TORSDOF 1
ENDMDL
