MODEL 1
REMARK minimizedAffinity -4.51929045
REMARK minimizedRMSD -1
REMARK  1 active torsions:
REMARK  status: ('A' for Active; 'I' for Inactive)
REMARK    1  A    between atoms: C1_2  and  C2_3 
ROOT
ATOM      1  C2  UNL d   1       0.937  -0.440   0.634  0.00  0.00    -0.076 A 
ATOM      2  C3  UNL d   1       2.243   0.078   0.687  0.00  0.00     0.004 A 
ATOM      3  C4  UNL d   1       3.224  -0.530   1.468  0.00  0.00    -0.003 A 
ATOM      4  C5  UNL d   1       2.916  -1.666   2.209  0.00  0.00     0.000 A 
ATOM      5  C6  UNL d   1       1.630  -2.203   2.154  0.00  0.00     0.000 A 
ATOM      6  C7  UNL d   1       0.633  -1.612   1.359  0.00  0.00    -0.073 A 
ATOM      7  C8  UNL d   1      -0.738  -2.231   1.342  0.00  0.00     0.078 C 
ENDROOT
BRANCH   1   8
ATOM      8  C1  UNL d   1      -0.093   0.277  -0.210  0.00  0.00     0.053 C 
ATOM      9  C   UNL d   1      -0.091   1.780   0.022  0.00  0.00     0.018 C 
ENDBRANCH   1   8
TORSDOF 1
ENDMDL
