MODEL 1
REMARK minimizedAffinity -2.54885459
REMARK minimizedRMSD -1
REMARK  0 active torsions:
REMARK  status: ('A' for Active; 'I' for Inactive)
ROOT
ATOM      1  C   UNL d   1       3.137   3.262   1.508  0.00  0.00     0.023 A 
ATOM      2  C1  UNL d   1       2.286   3.677   0.484  0.00  0.00     0.003 A 
ATOM      3  C2  UNL d   1       1.359   2.785  -0.060  0.00  0.00     0.048 A 
ATOM      4  C3  UNL d   1       1.288   1.480   0.426  0.00  0.00     0.023 A 
ATOM      5  C4  UNL d   1       2.138   1.061   1.452  0.00  0.00     0.048 A 
ATOM      6  C5  UNL d   1       3.063   1.956   1.991  0.00  0.00     0.003 A 
ATOM      7  I   UNL d   1      -0.091   0.151  -0.381  0.00  0.00    -0.146 I 
ENDROOT
TORSDOF 0
ENDMDL
