MODEL 1
REMARK minimizedAffinity -3.99016976
REMARK minimizedRMSD -1
REMARK  0 active torsions:
REMARK  status: ('A' for Active; 'I' for Inactive)
ROOT
ATOM      1  C   UNL d   1      -2.982  -2.186   0.156  0.00  0.00     0.023 A 
ATOM      2  C1  UNL d   1      -2.802  -1.072  -0.664  0.00  0.00     0.003 A 
ATOM      3  C2  UNL d   1      -1.593  -0.373  -0.640  0.00  0.00     0.048 A 
ATOM      4  C3  UNL d   1      -0.568  -0.795   0.206  0.00  0.00     0.023 A 
ATOM      5  C4  UNL d   1      -0.743  -1.910   1.027  0.00  0.00     0.048 A 
ATOM      6  C5  UNL d   1      -1.954  -2.604   1.000  0.00  0.00     0.003 A 
ATOM      7  I   UNL d   1       1.232   0.243   0.243  0.00  0.00    -0.146 I 
ENDROOT
TORSDOF 0
ENDMDL
