MODEL 1
REMARK minimizedAffinity -0.965770483
REMARK minimizedRMSD -1
REMARK  0 active torsions:
REMARK  status: ('A' for Active; 'I' for Inactive)
ROOT
ATOM      1  C   UNL d   1      -2.997  -2.232  -0.978  0.00  0.00     0.023 A 
ATOM      2  C1  UNL d   1      -2.704  -1.030  -1.622  0.00  0.00     0.003 A 
ATOM      3  C2  UNL d   1      -1.532  -0.338  -1.311  0.00  0.00     0.048 A 
ATOM      4  C3  UNL d   1      -0.657  -0.854  -0.356  0.00  0.00     0.023 A 
ATOM      5  C4  UNL d   1      -0.945  -2.057   0.290  0.00  0.00     0.048 A 
ATOM      6  C5  UNL d   1      -2.119  -2.745  -0.024  0.00  0.00     0.003 A 
ATOM      7  I   UNL d   1       1.089   0.174   0.109  0.00  0.00    -0.146 I 
ENDROOT
TORSDOF 0
ENDMDL
