MODEL 1
REMARK minimizedAffinity -4.02456474
REMARK minimizedRMSD -1
REMARK  0 active torsions:
REMARK  status: ('A' for Active; 'I' for Inactive)
ROOT
ATOM      1  C   UNL d   1      -2.445  -1.196  -0.854  0.00  0.00     0.023 A 
ATOM      2  C1  UNL d   1      -1.992  -0.048  -1.505  0.00  0.00     0.003 A 
ATOM      3  C2  UNL d   1      -0.740   0.485  -1.192  0.00  0.00     0.048 A 
ATOM      4  C3  UNL d   1       0.055  -0.136  -0.229  0.00  0.00     0.023 A 
ATOM      5  C4  UNL d   1      -0.393  -1.285   0.423  0.00  0.00     0.048 A 
ATOM      6  C5  UNL d   1      -1.647  -1.814   0.108  0.00  0.00     0.003 A 
ATOM      7  I   UNL d   1       1.919   0.656   0.237  0.00  0.00    -0.146 I 
ENDROOT
TORSDOF 0
ENDMDL
