MODEL 1
REMARK minimizedAffinity -2.67258406
REMARK minimizedRMSD -1
REMARK  0 active torsions:
REMARK  status: ('A' for Active; 'I' for Inactive)
ROOT
ATOM      1  C   UNL d   1      -1.927  -0.843  -1.132  0.00  0.00     0.023 A 
ATOM      2  C1  UNL d   1      -1.309  -1.496  -0.065  0.00  0.00     0.003 A 
ATOM      3  C2  UNL d   1      -0.189  -0.930   0.547  0.00  0.00     0.048 A 
ATOM      4  C3  UNL d   1       0.309   0.288   0.087  0.00  0.00     0.023 A 
ATOM      5  C4  UNL d   1      -0.306   0.946  -0.980  0.00  0.00     0.048 A 
ATOM      6  C5  UNL d   1      -1.426   0.376  -1.589  0.00  0.00     0.003 A 
ATOM      7  I   UNL d   1       1.977   1.132   0.996  0.00  0.00    -0.146 I 
ENDROOT
TORSDOF 0
ENDMDL
