MODEL 1
REMARK minimizedAffinity 0.843207598
REMARK minimizedRMSD -1
REMARK  0 active torsions:
REMARK  status: ('A' for Active; 'I' for Inactive)
ROOT
ATOM      1  C   UNL d   1      -5.983   4.241  -0.006  0.00  0.00     0.023 A 
ATOM      2  C1  UNL d   1      -5.227   3.313   0.710  0.00  0.00     0.003 A 
ATOM      3  C2  UNL d   1      -4.470   3.724   1.808  0.00  0.00     0.048 A 
ATOM      4  C3  UNL d   1      -4.475   5.066   2.187  0.00  0.00     0.023 A 
ATOM      5  C4  UNL d   1      -5.230   5.999   1.474  0.00  0.00     0.048 A 
ATOM      6  C5  UNL d   1      -5.984   5.583   0.376  0.00  0.00     0.003 A 
ATOM      7  I   UNL d   1      -3.349   5.682   3.822  0.00  0.00    -0.146 I 
ENDROOT
TORSDOF 0
ENDMDL
