MODEL 1
REMARK minimizedAffinity -1.54846144
REMARK minimizedRMSD -1
REMARK  0 active torsions:
REMARK  status: ('A' for Active; 'I' for Inactive)
ROOT
ATOM      1  C   UNL d   1       2.892   3.397   1.401  0.00  0.00     0.023 A 
ATOM      2  C1  UNL d   1       1.598   3.192   1.880  0.00  0.00     0.003 A 
ATOM      3  C2  UNL d   1       0.816   2.159   1.360  0.00  0.00     0.048 A 
ATOM      4  C3  UNL d   1       1.334   1.334   0.362  0.00  0.00     0.023 A 
ATOM      5  C4  UNL d   1       2.628   1.535  -0.119  0.00  0.00     0.048 A 
ATOM      6  C5  UNL d   1       3.407   2.570   0.403  0.00  0.00     0.003 A 
ATOM      7  I   UNL d   1       0.171  -0.204  -0.413  0.00  0.00    -0.146 I 
ENDROOT
TORSDOF 0
ENDMDL
