MODEL 1
REMARK minimizedAffinity -2.25921202
REMARK minimizedRMSD -1
REMARK  0 active torsions:
REMARK  status: ('A' for Active; 'I' for Inactive)
ROOT
ATOM      1  C   UNL d   1       2.268   3.105   1.709  0.00  0.00     0.023 A 
ATOM      2  C1  UNL d   1       2.845   2.038   1.021  0.00  0.00     0.003 A 
ATOM      3  C2  UNL d   1       2.037   1.128   0.337  0.00  0.00     0.048 A 
ATOM      4  C3  UNL d   1       0.652   1.292   0.343  0.00  0.00     0.023 A 
ATOM      5  C4  UNL d   1       0.070   2.359   1.030  0.00  0.00     0.048 A 
ATOM      6  C5  UNL d   1       0.882   3.266   1.714  0.00  0.00     0.003 A 
ATOM      7  I   UNL d   1      -0.553  -0.060  -0.675  0.00  0.00    -0.146 I 
ENDROOT
TORSDOF 0
ENDMDL
