MODEL 1
REMARK minimizedAffinity -3.4665637
REMARK minimizedRMSD -1
REMARK  0 active torsions:
REMARK  status: ('A' for Active; 'I' for Inactive)
ROOT
ATOM      1  C   UNL d   1       1.103  -0.345   1.041  0.00  0.00     0.023 A 
ATOM      2  C1  UNL d   1       0.384  -1.328   1.720  0.00  0.00     0.003 A 
ATOM      3  C2  UNL d   1      -0.920  -1.637   1.327  0.00  0.00     0.048 A 
ATOM      4  C3  UNL d   1      -1.498  -0.960   0.254  0.00  0.00     0.023 A 
ATOM      5  C4  UNL d   1      -0.782   0.025  -0.428  0.00  0.00     0.048 A 
ATOM      6  C5  UNL d   1       0.521   0.331  -0.032  0.00  0.00     0.003 A 
ATOM      7  I   UNL d   1      -3.439  -1.418  -0.332  0.00  0.00    -0.146 I 
ENDROOT
TORSDOF 0
ENDMDL
