MODEL 1
REMARK minimizedAffinity -1.12585282
REMARK minimizedRMSD -1
REMARK  0 active torsions:
REMARK  status: ('A' for Active; 'I' for Inactive)
ROOT
ATOM      1  C   UNL d   1      -1.452  -0.499  -1.211  0.00  0.00     0.023 A 
ATOM      2  C1  UNL d   1      -1.104  -0.669   0.129  0.00  0.00     0.003 A 
ATOM      3  C2  UNL d   1       0.034  -0.042   0.640  0.00  0.00     0.048 A 
ATOM      4  C3  UNL d   1       0.818   0.755  -0.193  0.00  0.00     0.023 A 
ATOM      5  C4  UNL d   1       0.473   0.928  -1.535  0.00  0.00     0.048 A 
ATOM      6  C5  UNL d   1      -0.665   0.298  -2.042  0.00  0.00     0.003 A 
ATOM      7  I   UNL d   1       2.512   1.690   0.566  0.00  0.00    -0.146 I 
ENDROOT
TORSDOF 0
ENDMDL
