MODEL 1
REMARK minimizedAffinity 6.89450407
REMARK minimizedRMSD -1
REMARK  0 active torsions:
REMARK  status: ('A' for Active; 'I' for Inactive)
ROOT
ATOM      1  C   UNL d   1      -1.866   0.134  -1.329  0.00  0.00     0.023 A 
ATOM      2  C1  UNL d   1      -0.608  -0.366  -0.991  0.00  0.00     0.003 A 
ATOM      3  C2  UNL d   1      -0.499  -1.465  -0.136  0.00  0.00     0.048 A 
ATOM      4  C3  UNL d   1      -1.651  -2.060   0.376  0.00  0.00     0.023 A 
ATOM      5  C4  UNL d   1      -2.912  -1.564   0.040  0.00  0.00     0.048 A 
ATOM      6  C5  UNL d   1      -3.016  -0.465  -0.814  0.00  0.00     0.003 A 
ATOM      7  I   UNL d   1      -1.491  -3.695   1.649  0.00  0.00    -0.146 I 
ENDROOT
TORSDOF 0
ENDMDL
