MODEL 1
REMARK minimizedAffinity -2.24805045
REMARK minimizedRMSD -1
REMARK  0 active torsions:
REMARK  status: ('A' for Active; 'I' for Inactive)
ROOT
ATOM      1  C   UNL d   1       2.182   2.609   1.907  0.00  0.00     0.023 A 
ATOM      2  C1  UNL d   1       1.864   1.258   2.049  0.00  0.00     0.003 A 
ATOM      3  C2  UNL d   1       1.012   0.640   1.132  0.00  0.00     0.048 A 
ATOM      4  C3  UNL d   1       0.481   1.379   0.075  0.00  0.00     0.023 A 
ATOM      5  C4  UNL d   1       0.797   2.731  -0.071  0.00  0.00     0.048 A 
ATOM      6  C5  UNL d   1       1.649   3.344   0.849  0.00  0.00     0.003 A 
ATOM      7  I   UNL d   1      -0.788   0.461  -1.292  0.00  0.00    -0.146 I 
ENDROOT
TORSDOF 0
ENDMDL
