MODEL 1
REMARK minimizedAffinity -2.25164461
REMARK minimizedRMSD -1
REMARK  0 active torsions:
REMARK  status: ('A' for Active; 'I' for Inactive)
ROOT
ATOM      1  C   UNL d   1      -2.316  -3.064   0.055  0.00  0.00     0.023 A 
ATOM      2  C1  UNL d   1      -1.301  -3.066   1.012  0.00  0.00     0.003 A 
ATOM      3  C2  UNL d   1      -0.438  -1.974   1.119  0.00  0.00     0.048 A 
ATOM      4  C3  UNL d   1      -0.595  -0.882   0.266  0.00  0.00     0.023 A 
ATOM      5  C4  UNL d   1      -1.609  -0.875  -0.693  0.00  0.00     0.048 A 
ATOM      6  C5  UNL d   1      -2.469  -1.970  -0.797  0.00  0.00     0.003 A 
ATOM      7  I   UNL d   1       0.689   0.744   0.423  0.00  0.00    -0.146 I 
ENDROOT
TORSDOF 0
ENDMDL
