MODEL 1
REMARK minimizedAffinity -1.20883787
REMARK minimizedRMSD -1
REMARK  0 active torsions:
REMARK  status: ('A' for Active; 'I' for Inactive)
ROOT
ATOM      1  C   UNL d   1       3.418   1.962   1.393  0.00  0.00     0.023 A 
ATOM      2  C1  UNL d   1       2.816   2.675   0.356  0.00  0.00     0.003 A 
ATOM      3  C2  UNL d   1       1.743   2.120  -0.344  0.00  0.00     0.048 A 
ATOM      4  C3  UNL d   1       1.276   0.852  -0.001  0.00  0.00     0.023 A 
ATOM      5  C4  UNL d   1       1.874   0.135   1.036  0.00  0.00     0.048 A 
ATOM      6  C5  UNL d   1       2.947   0.694   1.733  0.00  0.00     0.003 A 
ATOM      7  I   UNL d   1      -0.321   0.024  -1.042  0.00  0.00    -0.146 I 
ENDROOT
TORSDOF 0
ENDMDL
