MODEL 1
REMARK minimizedAffinity -3.43503666
REMARK minimizedRMSD -1
REMARK  0 active torsions:
REMARK  status: ('A' for Active; 'I' for Inactive)
ROOT
ATOM      1  C   UNL d   1      -2.637  -1.867  -0.419  0.00  0.00     0.023 A 
ATOM      2  C1  UNL d   1      -1.829  -2.251   0.651  0.00  0.00     0.003 A 
ATOM      3  C2  UNL d   1      -0.690  -1.509   0.969  0.00  0.00     0.048 A 
ATOM      4  C3  UNL d   1      -0.365  -0.383   0.213  0.00  0.00     0.023 A 
ATOM      5  C4  UNL d   1      -1.170   0.005  -0.858  0.00  0.00     0.048 A 
ATOM      6  C5  UNL d   1      -2.308  -0.740  -1.173  0.00  0.00     0.003 A 
ATOM      7  I   UNL d   1       1.331   0.723   0.685  0.00  0.00    -0.146 I 
ENDROOT
TORSDOF 0
ENDMDL
