MODEL 1
REMARK minimizedAffinity 8.13877583
REMARK minimizedRMSD -1
REMARK  0 active torsions:
REMARK  status: ('A' for Active; 'I' for Inactive)
ROOT
ATOM      1  O1  BZF d   1       4.853   1.882  -4.778  0.00  0.00    -0.204 OA
ATOM      2  C2  BZF d   1       4.123   2.275  -5.884  0.00  0.00     0.174 A 
ATOM      3  C3  BZF d   1       2.998   1.541  -6.000  0.00  0.00    -0.012 A 
ATOM      4  C3A BZF d   1       2.979   0.695  -4.846  0.00  0.00    -0.107 A 
ATOM      5  C4  BZF d   1       2.106  -0.249  -4.388  0.00  0.00     0.055 A 
ATOM      6  C5  BZF d   1       2.417  -0.948  -3.265  0.00  0.00    -0.016 A 
ATOM      7  C6  BZF d   1       3.594  -0.732  -2.579  0.00  0.00     0.022 A 
ATOM      8  C7  BZF d   1       4.490   0.198  -2.992  0.00  0.00     0.029 A 
ATOM      9  C7A BZF d   1       4.163   0.928  -4.108  0.00  0.00     0.058 A 
ENDROOT
TORSDOF 0
ENDMDL
