MODEL 1
REMARK minimizedAffinity 10.8464661
REMARK minimizedRMSD -1
REMARK  0 active torsions:
REMARK  status: ('A' for Active; 'I' for Inactive)
ROOT
ATOM      1  O1  BZF d   1      -0.045  -5.958   1.819  0.00  0.00    -0.204 OA
ATOM      2  C2  BZF d   1       1.104  -5.951   1.052  0.00  0.00     0.174 A 
ATOM      3  C3  BZF d   1       2.202  -5.906   1.835  0.00  0.00    -0.012 A 
ATOM      4  C3A BZF d   1       1.710  -5.978   3.177  0.00  0.00    -0.107 A 
ATOM      5  C4  BZF d   1       2.318  -5.992   4.400  0.00  0.00     0.055 A 
ATOM      6  C5  BZF d   1       1.548  -5.994   5.520  0.00  0.00    -0.016 A 
ATOM      7  C6  BZF d   1       0.170  -5.977   5.454  0.00  0.00     0.022 A 
ATOM      8  C7  BZF d   1      -0.478  -5.968   4.263  0.00  0.00     0.029 A 
ATOM      9  C7A BZF d   1       0.297  -5.999   3.130  0.00  0.00     0.058 A 
ENDROOT
TORSDOF 0
ENDMDL
