MODEL 1
REMARK minimizedAffinity 4.73433733
REMARK minimizedRMSD -1
REMARK  0 active torsions:
REMARK  status: ('A' for Active; 'I' for Inactive)
ROOT
ATOM      1  O1  BZF d   1      -5.943  -1.304   3.770  0.00  0.00    -0.204 OA
ATOM      2  C2  BZF d   1      -5.912  -1.939   4.996  0.00  0.00     0.174 A 
ATOM      3  C3  BZF d   1      -5.860  -1.040   6.000  0.00  0.00    -0.012 A 
ATOM      4  C3A BZF d   1      -5.953   0.239   5.365  0.00  0.00    -0.107 A 
ATOM      5  C4  BZF d   1      -5.971   1.521   5.834  0.00  0.00     0.055 A 
ATOM      6  C5  BZF d   1      -5.996   2.549   4.946  0.00  0.00    -0.016 A 
ATOM      7  C6  BZF d   1      -5.998   2.332   3.584  0.00  0.00     0.022 A 
ATOM      8  C7  BZF d   1      -5.985   1.077   3.071  0.00  0.00     0.029 A 
ATOM      9  C7A BZF d   1      -5.993   0.036   3.966  0.00  0.00     0.058 A 
ENDROOT
TORSDOF 0
ENDMDL
