MODEL 1
REMARK minimizedAffinity 8.26573086
REMARK minimizedRMSD -1
REMARK  0 active torsions:
REMARK  status: ('A' for Active; 'I' for Inactive)
ROOT
ATOM      1  O1  BZF d   1      -0.235  -5.849   1.124  0.00  0.00    -0.204 OA
ATOM      2  C2  BZF d   1      -1.616  -5.868   1.120  0.00  0.00     0.174 A 
ATOM      3  C3  BZF d   1      -2.097  -5.975   2.376  0.00  0.00    -0.012 A 
ATOM      4  C3A BZF d   1      -0.945  -5.935   3.224  0.00  0.00    -0.107 A 
ATOM      5  C4  BZF d   1      -0.775  -5.983   4.578  0.00  0.00     0.055 A 
ATOM      6  C5  BZF d   1       0.486  -5.994   5.085  0.00  0.00    -0.016 A 
ATOM      7  C6  BZF d   1       1.597  -5.964   4.268  0.00  0.00     0.022 A 
ATOM      8  C7  BZF d   1       1.478  -5.910   2.919  0.00  0.00     0.029 A 
ATOM      9  C7A BZF d   1       0.205  -5.865   2.405  0.00  0.00     0.058 A 
ENDROOT
TORSDOF 0
ENDMDL
