MODEL 1
REMARK minimizedAffinity 4.74027252
REMARK minimizedRMSD -1
REMARK  0 active torsions:
REMARK  status: ('A' for Active; 'I' for Inactive)
ROOT
ATOM      1  O1  BZF d   1      -2.643  -4.482   1.612  0.00  0.00    -0.204 OA
ATOM      2  C2  BZF d   1      -2.627  -3.133   1.312  0.00  0.00     0.174 A 
ATOM      3  C3  BZF d   1      -1.518  -2.546   1.807  0.00  0.00    -0.012 A 
ATOM      4  C3A BZF d   1      -0.751  -3.611   2.378  0.00  0.00    -0.107 A 
ATOM      5  C4  BZF d   1       0.458  -3.663   3.009  0.00  0.00     0.055 A 
ATOM      6  C5  BZF d   1       0.890  -4.849   3.513  0.00  0.00    -0.016 A 
ATOM      7  C6  BZF d   1       0.137  -6.000   3.407  0.00  0.00     0.022 A 
ATOM      8  C7  BZF d   1      -1.067  -5.999   2.785  0.00  0.00     0.029 A 
ATOM      9  C7A BZF d   1      -1.491  -4.809   2.247  0.00  0.00     0.058 A 
ENDROOT
TORSDOF 0
ENDMDL
