MODEL 1
REMARK minimizedAffinity 6.17812347
REMARK minimizedRMSD -1
REMARK  0 active torsions:
REMARK  status: ('A' for Active; 'I' for Inactive)
ROOT
ATOM      1  O1  BZF d   1      -1.058  -5.961   3.499  0.00  0.00    -0.204 OA
ATOM      2  C2  BZF d   1      -1.426  -5.958   2.167  0.00  0.00     0.174 A 
ATOM      3  C3  BZF d   1      -0.339  -5.913   1.371  0.00  0.00    -0.012 A 
ATOM      4  C3A BZF d   1       0.781  -5.979   2.259  0.00  0.00    -0.107 A 
ATOM      5  C4  BZF d   1       2.133  -5.991   2.066  0.00  0.00     0.055 A 
ATOM      6  C5  BZF d   1       2.955  -5.988   3.148  0.00  0.00    -0.016 A 
ATOM      7  C6  BZF d   1       2.460  -5.969   4.436  0.00  0.00     0.022 A 
ATOM      8  C7  BZF d   1       1.126  -5.962   4.677  0.00  0.00     0.029 A 
ATOM      9  C7A BZF d   1       0.293  -5.998   3.586  0.00  0.00     0.058 A 
ENDROOT
TORSDOF 0
ENDMDL
