MODEL 1
REMARK minimizedAffinity 5.75130939
REMARK minimizedRMSD -1
REMARK  0 active torsions:
REMARK  status: ('A' for Active; 'I' for Inactive)
ROOT
ATOM      1  O1  BZF d   1       2.466  -5.952   4.709  0.00  0.00    -0.204 OA
ATOM      2  C2  BZF d   1       1.654  -5.932   5.827  0.00  0.00     0.174 A 
ATOM      3  C3  BZF d   1       0.354  -5.885   5.473  0.00  0.00    -0.012 A 
ATOM      4  C3A BZF d   1       0.349  -5.967   4.044  0.00  0.00    -0.107 A 
ATOM      5  C4  BZF d   1      -0.645  -5.985   3.108  0.00  0.00     0.055 A 
ATOM      6  C5  BZF d   1      -0.312  -5.999   1.791  0.00  0.00    -0.016 A 
ATOM      7  C6  BZF d   1       1.004  -5.991   1.375  0.00  0.00     0.022 A 
ATOM      8  C7  BZF d   1       2.024  -5.979   2.267  0.00  0.00     0.029 A 
ATOM      9  C7A BZF d   1       1.691  -5.998   3.599  0.00  0.00     0.058 A 
ENDROOT
TORSDOF 0
ENDMDL
