MODEL 1
REMARK minimizedAffinity 2.17817068
REMARK minimizedRMSD -1
REMARK  0 active torsions:
REMARK  status: ('A' for Active; 'I' for Inactive)
ROOT
ATOM      1  O1  BZF d   1      -0.970  -5.962   1.264  0.00  0.00    -0.204 OA
ATOM      2  C2  BZF d   1      -2.145  -5.950   1.990  0.00  0.00     0.174 A 
ATOM      3  C3  BZF d   1      -1.890  -5.999   3.314  0.00  0.00    -0.012 A 
ATOM      4  C3A BZF d   1      -0.464  -5.953   3.424  0.00  0.00    -0.107 A 
ATOM      5  C4  BZF d   1       0.396  -5.954   4.484  0.00  0.00     0.055 A 
ATOM      6  C5  BZF d   1       1.735  -5.975   4.249  0.00  0.00    -0.016 A 
ATOM      7  C6  BZF d   1       2.246  -6.000   2.968  0.00  0.00     0.022 A 
ATOM      8  C7  BZF d   1       1.433  -5.994   1.885  0.00  0.00     0.029 A 
ATOM      9  C7A BZF d   1       0.080  -5.940   2.119  0.00  0.00     0.058 A 
ENDROOT
TORSDOF 0
ENDMDL
