MODEL 1
REMARK minimizedAffinity 10.7740927
REMARK minimizedRMSD -1
REMARK  0 active torsions:
REMARK  status: ('A' for Active; 'I' for Inactive)
ROOT
ATOM      1  O1  BZF d   1      -0.478  -5.791   4.342  0.00  0.00    -0.204 OA
ATOM      2  C2  BZF d   1      -0.797  -5.803   2.998  0.00  0.00     0.174 A 
ATOM      3  C3  BZF d   1       0.319  -5.824   2.242  0.00  0.00    -0.012 A 
ATOM      4  C3A BZF d   1       1.403  -5.918   3.172  0.00  0.00    -0.107 A 
ATOM      5  C4  BZF d   1       2.759  -5.992   3.030  0.00  0.00     0.055 A 
ATOM      6  C5  BZF d   1       3.540  -6.000   4.141  0.00  0.00    -0.016 A 
ATOM      7  C6  BZF d   1       3.000  -5.929   5.409  0.00  0.00     0.022 A 
ATOM      8  C7  BZF d   1       1.660  -5.859   5.601  0.00  0.00     0.029 A 
ATOM      9  C7A BZF d   1       0.866  -5.885   4.480  0.00  0.00     0.058 A 
ENDROOT
TORSDOF 0
ENDMDL
