MODEL 1
REMARK minimizedAffinity 8.06904411
REMARK minimizedRMSD -1
REMARK  0 active torsions:
REMARK  status: ('A' for Active; 'I' for Inactive)
ROOT
ATOM      1  O1  BZF d   1      -0.749  -2.404  -5.064  0.00  0.00    -0.204 OA
ATOM      2  C2  BZF d   1      -1.497  -3.565  -5.107  0.00  0.00     0.174 A 
ATOM      3  C3  BZF d   1      -2.423  -3.575  -4.127  0.00  0.00    -0.012 A 
ATOM      4  C3A BZF d   1      -2.304  -2.302  -3.484  0.00  0.00    -0.107 A 
ATOM      5  C4  BZF d   1      -2.964  -1.710  -2.446  0.00  0.00     0.055 A 
ATOM      6  C5  BZF d   1      -2.556  -0.487  -2.016  0.00  0.00    -0.016 A 
ATOM      7  C6  BZF d   1      -1.490   0.169  -2.596  0.00  0.00     0.022 A 
ATOM      8  C7  BZF d   1      -0.808  -0.377  -3.632  0.00  0.00     0.029 A 
ATOM      9  C7A BZF d   1      -1.238  -1.598  -4.091  0.00  0.00     0.058 A 
ENDROOT
TORSDOF 0
ENDMDL
