MODEL 1
REMARK minimizedAffinity 5.16544437
REMARK minimizedRMSD -1
REMARK  0 active torsions:
REMARK  status: ('A' for Active; 'I' for Inactive)
ROOT
ATOM      1  O1  BZF d   1      -1.334  -5.957   3.819  0.00  0.00    -0.204 OA
ATOM      2  C2  BZF d   1      -1.911  -5.961   2.564  0.00  0.00     0.174 A 
ATOM      3  C3  BZF d   1      -0.965  -5.922   1.603  0.00  0.00    -0.012 A 
ATOM      4  C3A BZF d   1       0.283  -5.985   2.300  0.00  0.00    -0.107 A 
ATOM      5  C4  BZF d   1       1.586  -5.999   1.893  0.00  0.00     0.055 A 
ATOM      6  C5  BZF d   1       2.571  -5.991   2.829  0.00  0.00    -0.016 A 
ATOM      7  C6  BZF d   1       2.289  -5.964   4.179  0.00  0.00     0.022 A 
ATOM      8  C7  BZF d   1       1.011  -5.954   4.632  0.00  0.00     0.029 A 
ATOM      9  C7A BZF d   1       0.014  -5.996   3.688  0.00  0.00     0.058 A 
ENDROOT
TORSDOF 0
ENDMDL
