MODEL 1
REMARK minimizedAffinity 1.46309543
REMARK minimizedRMSD -1
REMARK  0 active torsions:
REMARK  status: ('A' for Active; 'I' for Inactive)
ROOT
ATOM      1  O1  BZF d   1      -1.335  -5.617   3.452  0.00  0.00    -0.204 OA
ATOM      2  C2  BZF d   1      -1.569  -6.000   2.145  0.00  0.00     0.174 A 
ATOM      3  C3  BZF d   1      -0.423  -6.000   1.434  0.00  0.00    -0.012 A 
ATOM      4  C3A BZF d   1       0.605  -5.681   2.377  0.00  0.00    -0.107 A 
ATOM      5  C4  BZF d   1       1.960  -5.547   2.279  0.00  0.00     0.055 A 
ATOM      6  C5  BZF d   1       2.666  -5.157   3.372  0.00  0.00    -0.016 A 
ATOM      7  C6  BZF d   1       2.050  -4.888   4.577  0.00  0.00     0.022 A 
ATOM      8  C7  BZF d   1       0.708  -5.012   4.724  0.00  0.00     0.029 A 
ATOM      9  C7A BZF d   1      -0.004  -5.438   3.630  0.00  0.00     0.058 A 
ENDROOT
TORSDOF 0
ENDMDL
