MODEL 1
REMARK minimizedAffinity 10.4579487
REMARK minimizedRMSD -1
REMARK  0 active torsions:
REMARK  status: ('A' for Active; 'I' for Inactive)
ROOT
ATOM      1  O1  BZF d   1       2.274  -5.875   4.727  0.00  0.00    -0.204 OA
ATOM      2  C2  BZF d   1       1.759  -5.546   5.966  0.00  0.00     0.174 A 
ATOM      3  C3  BZF d   1       0.462  -5.192   5.867  0.00  0.00    -0.012 A 
ATOM      4  C3A BZF d   1       0.120  -5.394   4.493  0.00  0.00    -0.107 A 
ATOM      5  C4  BZF d   1      -1.032  -5.233   3.778  0.00  0.00     0.055 A 
ATOM      6  C5  BZF d   1      -1.013  -5.449   2.436  0.00  0.00    -0.016 A 
ATOM      7  C6  BZF d   1       0.140  -5.821   1.777  0.00  0.00     0.022 A 
ATOM      8  C7  BZF d   1       1.307  -5.998   2.444  0.00  0.00     0.029 A 
ATOM      9  C7A BZF d   1       1.283  -5.813   3.805  0.00  0.00     0.058 A 
ENDROOT
TORSDOF 0
ENDMDL
