MODEL 1
REMARK minimizedAffinity 1.72644722
REMARK minimizedRMSD -1
REMARK  0 active torsions:
REMARK  status: ('A' for Active; 'I' for Inactive)
ROOT
ATOM      1  O1  BZF d   1       2.778  -5.946   4.503  0.00  0.00    -0.204 OA
ATOM      2  C2  BZF d   1       3.609  -5.939   3.399  0.00  0.00     0.174 A 
ATOM      3  C3  BZF d   1       2.892  -6.000   2.259  0.00  0.00    -0.012 A 
ATOM      4  C3A BZF d   1       1.523  -5.955   2.673  0.00  0.00    -0.107 A 
ATOM      5  C4  BZF d   1       0.336  -5.966   1.997  0.00  0.00     0.055 A 
ATOM      6  C5  BZF d   1      -0.825  -5.985   2.701  0.00  0.00    -0.016 A 
ATOM      7  C6  BZF d   1      -0.838  -6.000   4.081  0.00  0.00     0.022 A 
ATOM      8  C7  BZF d   1       0.313  -5.984   4.796  0.00  0.00     0.029 A 
ATOM      9  C7A BZF d   1       1.489  -5.931   4.087  0.00  0.00     0.058 A 
ENDROOT
TORSDOF 0
ENDMDL
