MODEL 1
REMARK minimizedAffinity 12.4522543
REMARK minimizedRMSD -1
REMARK  0 active torsions:
REMARK  status: ('A' for Active; 'I' for Inactive)
ROOT
ATOM      1  O1  BZF d   1       0.987  -1.813  -3.293  0.00  0.00    -0.204 OA
ATOM      2  C2  BZF d   1      -0.057  -2.164  -4.126  0.00  0.00     0.174 A 
ATOM      3  C3  BZF d   1      -1.216  -2.229  -3.440  0.00  0.00    -0.012 A 
ATOM      4  C3A BZF d   1      -0.891  -1.809  -2.112  0.00  0.00    -0.107 A 
ATOM      5  C4  BZF d   1      -1.626  -1.649  -0.972  0.00  0.00     0.055 A 
ATOM      6  C5  BZF d   1      -0.993  -1.294   0.177  0.00  0.00    -0.016 A 
ATOM      7  C6  BZF d   1       0.372  -1.097   0.224  0.00  0.00     0.022 A 
ATOM      8  C7  BZF d   1       1.142  -1.239  -0.883  0.00  0.00     0.029 A 
ATOM      9  C7A BZF d   1       0.500  -1.565  -2.053  0.00  0.00     0.058 A 
ENDROOT
TORSDOF 0
ENDMDL
