MODEL 1
REMARK minimizedAffinity 11.3841457
REMARK minimizedRMSD -1
REMARK  0 active torsions:
REMARK  status: ('A' for Active; 'I' for Inactive)
ROOT
ATOM      1  O1  BZF d   1      -1.693  -0.334  -2.612  0.00  0.00    -0.204 OA
ATOM      2  C2  BZF d   1      -2.757  -0.849  -1.896  0.00  0.00     0.174 A 
ATOM      3  C3  BZF d   1      -3.114  -2.058  -2.373  0.00  0.00    -0.012 A 
ATOM      4  C3A BZF d   1      -2.159  -2.357  -3.395  0.00  0.00    -0.107 A 
ATOM      5  C4  BZF d   1      -1.976  -3.425  -4.227  0.00  0.00     0.055 A 
ATOM      6  C5  BZF d   1      -0.992  -3.373  -5.162  0.00  0.00    -0.016 A 
ATOM      7  C6  BZF d   1      -0.177  -2.268  -5.298  0.00  0.00     0.022 A 
ATOM      8  C7  BZF d   1      -0.317  -1.187  -4.493  0.00  0.00     0.029 A 
ATOM      9  C7A BZF d   1      -1.289  -1.250  -3.525  0.00  0.00     0.058 A 
ENDROOT
TORSDOF 0
ENDMDL
