MODEL 1
REMARK minimizedAffinity -1.56418955
REMARK minimizedRMSD -1
REMARK  0 active torsions:
REMARK  status: ('A' for Active; 'I' for Inactive)
ROOT
ATOM      1  C2' OXE d   1       1.125  -0.277  -2.736  0.00  0.00     0.078 C 
ATOM      2  C1' OXE d   1       0.774   1.524  -4.861  0.00  0.00     0.078 C 
ATOM      3  C1  OXE d   1       0.014   0.222  -4.909  0.00  0.00    -0.078 A 
ATOM      4  C2  OXE d   1       0.228  -0.673  -3.888  0.00  0.00    -0.078 A 
ATOM      5  C3  OXE d   1      -0.489  -1.866  -3.856  0.00  0.00     0.003 A 
ATOM      6  C4  OXE d   1      -1.309  -2.229  -4.931  0.00  0.00    -0.002 A 
ATOM      7  C5  OXE d   1      -1.510  -1.349  -6.000  0.00  0.00    -0.002 A 
ATOM      8  C6  OXE d   1      -0.890  -0.105  -5.984  0.00  0.00     0.003 A 
ENDROOT
TORSDOF 0
ENDMDL
