MODEL 1
REMARK minimizedAffinity -5.12102556
REMARK minimizedRMSD -1
REMARK  0 active torsions:
REMARK  status: ('A' for Active; 'I' for Inactive)
ROOT
ATOM      1  C2' OXE d   1      -0.298   0.984   4.213  0.00  0.00     0.078 C 
ATOM      2  C1' OXE d   1       2.143  -0.137   3.398  0.00  0.00     0.078 C 
ATOM      3  C1  OXE d   1       1.126   0.184   2.332  0.00  0.00    -0.078 A 
ATOM      4  C2  OXE d   1      -0.084   0.689   2.744  0.00  0.00    -0.078 A 
ATOM      5  C3  OXE d   1      -1.037   1.054   1.797  0.00  0.00     0.003 A 
ATOM      6  C4  OXE d   1      -0.835   0.769   0.442  0.00  0.00    -0.002 A 
ATOM      7  C5  OXE d   1       0.374   0.218   0.005  0.00  0.00    -0.002 A 
ATOM      8  C6  OXE d   1       1.379  -0.040   0.930  0.00  0.00     0.003 A 
ENDROOT
TORSDOF 0
ENDMDL
