MODEL 1
REMARK minimizedAffinity -5.57125092
REMARK minimizedRMSD -1
REMARK  0 active torsions:
REMARK  status: ('A' for Active; 'I' for Inactive)
ROOT
ATOM      1  C2' OXE d   1      -0.027  -0.260  -1.485  0.00  0.00     0.078 C 
ATOM      2  C1' OXE d   1      -2.632  -0.480  -0.460  0.00  0.00     0.078 C 
ATOM      3  C1  OXE d   1      -1.565   0.086   0.444  0.00  0.00    -0.078 A 
ATOM      4  C2  OXE d   1      -0.284   0.147  -0.050  0.00  0.00    -0.078 A 
ATOM      5  C3  OXE d   1       0.727   0.711   0.723  0.00  0.00     0.003 A 
ATOM      6  C4  OXE d   1       0.483   1.075   2.053  0.00  0.00    -0.002 A 
ATOM      7  C5  OXE d   1      -0.806   0.985   2.589  0.00  0.00    -0.002 A 
ATOM      8  C6  OXE d   1      -1.848   0.533   1.786  0.00  0.00     0.003 A 
ENDROOT
TORSDOF 0
ENDMDL
