MODEL 1
REMARK minimizedAffinity -5.11284828
REMARK minimizedRMSD -1
REMARK  0 active torsions:
REMARK  status: ('A' for Active; 'I' for Inactive)
ROOT
ATOM      1  C2' OXE d   1       0.247  -0.547  -1.125  0.00  0.00     0.078 C 
ATOM      2  C1' OXE d   1      -2.427  -0.411  -0.280  0.00  0.00     0.078 C 
ATOM      3  C1  OXE d   1      -1.367   0.127   0.649  0.00  0.00    -0.078 A 
ATOM      4  C2  OXE d   1      -0.058   0.014   0.247  0.00  0.00    -0.078 A 
ATOM      5  C3  OXE d   1       0.955   0.544   1.041  0.00  0.00     0.003 A 
ATOM      6  C4  OXE d   1       0.666   1.052   2.314  0.00  0.00    -0.002 A 
ATOM      7  C5  OXE d   1      -0.657   1.140   2.759  0.00  0.00    -0.002 A 
ATOM      8  C6  OXE d   1      -1.687   0.722   1.923  0.00  0.00     0.003 A 
ENDROOT
TORSDOF 0
ENDMDL
