MODEL 1
REMARK minimizedAffinity -3.1689508
REMARK minimizedRMSD -1
REMARK  0 active torsions:
REMARK  status: ('A' for Active; 'I' for Inactive)
ROOT
ATOM      1  C2' OXE d   1      -2.511  -0.650  -0.086  0.00  0.00     0.078 C 
ATOM      2  C1' OXE d   1       0.188  -0.834  -0.837  0.00  0.00     0.078 C 
ATOM      3  C1  OXE d   1      -0.130  -0.200   0.494  0.00  0.00    -0.078 A 
ATOM      4  C2  OXE d   1      -1.456  -0.072   0.832  0.00  0.00    -0.078 A 
ATOM      5  C3  OXE d   1      -1.803   0.456   2.073  0.00  0.00     0.003 A 
ATOM      6  C4  OXE d   1      -0.822   0.998   2.912  0.00  0.00    -0.002 A 
ATOM      7  C5  OXE d   1       0.531   0.914   2.569  0.00  0.00    -0.002 A 
ATOM      8  C6  OXE d   1       0.896   0.281   1.385  0.00  0.00     0.003 A 
ENDROOT
TORSDOF 0
ENDMDL
