MODEL 1
REMARK minimizedAffinity -4.06822348
REMARK minimizedRMSD -1
REMARK  0 active torsions:
REMARK  status: ('A' for Active; 'I' for Inactive)
ROOT
ATOM      1  C2' OXE d   1       2.370  -0.154   2.124  0.00  0.00     0.078 C 
ATOM      2  C1' OXE d   1      -0.118   1.143   2.217  0.00  0.00     0.078 C 
ATOM      3  C1  OXE d   1       0.195   0.308   1.000  0.00  0.00    -0.078 A 
ATOM      4  C2  OXE d   1       1.433  -0.285   0.942  0.00  0.00    -0.078 A 
ATOM      5  C3  OXE d   1       1.753  -1.111  -0.132  0.00  0.00     0.003 A 
ATOM      6  C4  OXE d   1       0.885  -1.219  -1.225  0.00  0.00    -0.002 A 
ATOM      7  C5  OXE d   1      -0.365  -0.591  -1.204  0.00  0.00    -0.002 A 
ATOM      8  C6  OXE d   1      -0.742   0.140  -0.083  0.00  0.00     0.003 A 
ENDROOT
TORSDOF 0
ENDMDL
