MODEL 1
REMARK minimizedAffinity -5.7151742
REMARK minimizedRMSD -1
REMARK  0 active torsions:
REMARK  status: ('A' for Active; 'I' for Inactive)
ROOT
ATOM      1  C2' OXE d   1       0.073  -0.995  -0.734  0.00  0.00     0.078 C 
ATOM      2  C1' OXE d   1      -2.282   0.185   0.237  0.00  0.00     0.078 C 
ATOM      3  C1  OXE d   1      -1.071   0.187   1.137  0.00  0.00    -0.078 A 
ATOM      4  C2  OXE d   1       0.063  -0.433   0.672  0.00  0.00    -0.078 A 
ATOM      5  C3  OXE d   1       1.224  -0.412   1.439  0.00  0.00     0.003 A 
ATOM      6  C4  OXE d   1       1.204   0.100   2.742  0.00  0.00    -0.002 A 
ATOM      7  C5  OXE d   1       0.048   0.701   3.250  0.00  0.00    -0.002 A 
ATOM      8  C6  OXE d   1      -1.083   0.791   2.446  0.00  0.00     0.003 A 
ENDROOT
TORSDOF 0
ENDMDL
