MODEL 1
REMARK minimizedAffinity -4.40601158
REMARK minimizedRMSD -1
REMARK  0 active torsions:
REMARK  status: ('A' for Active; 'I' for Inactive)
ROOT
ATOM      1  C2' OXE d   1      -0.742   1.274   2.840  0.00  0.00     0.078 C 
ATOM      2  C1' OXE d   1       1.825   0.334   2.202  0.00  0.00     0.078 C 
ATOM      3  C1  OXE d   1       0.704   0.029   1.239  0.00  0.00    -0.078 A 
ATOM      4  C2  OXE d   1      -0.557   0.453   1.582  0.00  0.00    -0.078 A 
ATOM      5  C3  OXE d   1      -1.617   0.246   0.704  0.00  0.00     0.003 A 
ATOM      6  C4  OXE d   1      -1.439  -0.523  -0.452  0.00  0.00    -0.002 A 
ATOM      7  C5  OXE d   1      -0.170  -0.998  -0.801  0.00  0.00    -0.002 A 
ATOM      8  C6  OXE d   1       0.917  -0.695   0.010  0.00  0.00     0.003 A 
ENDROOT
TORSDOF 0
ENDMDL
