MODEL 1
REMARK minimizedAffinity -1.87373829
REMARK minimizedRMSD -1
REMARK  0 active torsions:
REMARK  status: ('A' for Active; 'I' for Inactive)
ROOT
ATOM      1  C2' OXE d   1      -2.270  -0.040  -0.142  0.00  0.00     0.078 C 
ATOM      2  C1' OXE d   1      -1.613   0.631   2.504  0.00  0.00     0.078 C 
ATOM      3  C1  OXE d   1      -0.498   0.176   1.595  0.00  0.00    -0.078 A 
ATOM      4  C2  OXE d   1      -0.836  -0.195   0.316  0.00  0.00    -0.078 A 
ATOM      5  C3  OXE d   1       0.161  -0.570  -0.580  0.00  0.00     0.003 A 
ATOM      6  C4  OXE d   1       1.484  -0.720  -0.145  0.00  0.00    -0.002 A 
ATOM      7  C5  OXE d   1       1.843  -0.386   1.165  0.00  0.00    -0.002 A 
ATOM      8  C6  OXE d   1       0.874   0.103   2.034  0.00  0.00     0.003 A 
ENDROOT
TORSDOF 0
ENDMDL
