MODEL 1
REMARK minimizedAffinity 6.79510117
REMARK minimizedRMSD -1
REMARK  1 active torsions:
REMARK  status: ('A' for Active; 'I' for Inactive)
REMARK    1  A    between atoms: N_2  and  C1_3 
ROOT
ATOM      1  C1  UNL d   1       3.640  -0.603  -1.197  0.00  0.00     0.143 A 
ATOM      2  C2  UNL d   1       2.848  -1.515  -0.492  0.00  0.00    -0.057 A 
ATOM      3  C3  UNL d   1       2.516  -2.761  -1.036  0.00  0.00     0.033 A 
ATOM      4  C4  UNL d   1       2.947  -3.107  -2.313  0.00  0.00    -0.042 A 
ATOM      5  C5  UNL d   1       3.714  -2.205  -3.042  0.00  0.00     0.033 A 
ATOM      6  C6  UNL d   1       4.049  -0.965  -2.490  0.00  0.00    -0.057 A 
ENDROOT
BRANCH   1   7
ATOM      7  N   UNL d   1       3.922   0.690  -0.750  0.00  0.00    -0.732 N 
ATOM      8  C   UNL d   1       5.205   1.002  -0.157  0.00  0.00     0.284 C 
ATOM      9  H3  UNL d   1       3.573   1.405  -1.384  0.00  0.00     0.395 HD
ENDBRANCH   1   7
TORSDOF 1
ENDMDL
