MODEL 1
REMARK minimizedAffinity -0.255843103
REMARK minimizedRMSD -1
REMARK  1 active torsions:
REMARK  status: ('A' for Active; 'I' for Inactive)
REMARK    1  A    between atoms: N_2  and  C1_3 
ROOT
ATOM      1  C1  UNL d   1       4.627   2.211  -0.717  0.00  0.00     0.143 A 
ATOM      2  C2  UNL d   1       4.585   3.415  -1.429  0.00  0.00    -0.057 A 
ATOM      3  C3  UNL d   1       5.258   4.554  -0.971  0.00  0.00     0.033 A 
ATOM      4  C4  UNL d   1       5.963   4.517   0.228  0.00  0.00    -0.042 A 
ATOM      5  C5  UNL d   1       5.997   3.339   0.965  0.00  0.00     0.033 A 
ATOM      6  C6  UNL d   1       5.329   2.203   0.499  0.00  0.00    -0.057 A 
ENDROOT
BRANCH   1   7
ATOM      7  N   UNL d   1       3.898   1.073  -1.070  0.00  0.00    -0.732 N 
ATOM      8  C   UNL d   1       4.404  -0.249  -0.768  0.00  0.00     0.284 C 
ATOM      9  H3  UNL d   1       2.900   1.183  -0.904  0.00  0.00     0.395 HD
ENDBRANCH   1   7
TORSDOF 1
ENDMDL
