MODEL 1
REMARK minimizedAffinity 7.0783205
REMARK minimizedRMSD -1
REMARK  1 active torsions:
REMARK  status: ('A' for Active; 'I' for Inactive)
REMARK    1  A    between atoms: N_2  and  C1_3 
ROOT
ATOM      1  C1  UNL d   1       4.940  -0.425   0.397  0.00  0.00     0.143 A 
ATOM      2  C2  UNL d   1       3.786  -1.188   0.188  0.00  0.00    -0.057 A 
ATOM      3  C3  UNL d   1       2.869  -0.857  -0.817  0.00  0.00     0.033 A 
ATOM      4  C4  UNL d   1       3.077   0.263  -1.615  0.00  0.00    -0.042 A 
ATOM      5  C5  UNL d   1       4.204   1.050  -1.408  0.00  0.00     0.033 A 
ATOM      6  C6  UNL d   1       5.119   0.711  -0.407  0.00  0.00    -0.057 A 
ENDROOT
BRANCH   1   7
ATOM      7  N   UNL d   1       5.839  -0.646   1.444  0.00  0.00    -0.732 N 
ATOM      8  C   UNL d   1       5.998  -1.966   2.013  0.00  0.00     0.284 C 
ATOM      9  H3  UNL d   1       6.712  -0.139   1.319  0.00  0.00     0.395 HD
ENDBRANCH   1   7
TORSDOF 1
ENDMDL
