MODEL 1
REMARK minimizedAffinity 4.85143089
REMARK minimizedRMSD -1
REMARK  1 active torsions:
REMARK  status: ('A' for Active; 'I' for Inactive)
REMARK    1  A    between atoms: N_2  and  C1_3 
ROOT
ATOM      1  C1  UNL d   1       5.368   0.606  -0.792  0.00  0.00     0.143 A 
ATOM      2  C2  UNL d   1       6.000  -0.316   0.049  0.00  0.00    -0.057 A 
ATOM      3  C3  UNL d   1       5.331  -1.457   0.508  0.00  0.00     0.033 A 
ATOM      4  C4  UNL d   1       4.004  -1.682   0.156  0.00  0.00    -0.042 A 
ATOM      5  C5  UNL d   1       3.349  -0.766  -0.659  0.00  0.00     0.033 A 
ATOM      6  C6  UNL d   1       4.024   0.368  -1.120  0.00  0.00    -0.057 A 
ENDROOT
BRANCH   1   7
ATOM      7  N   UNL d   1       5.948   1.809  -1.202  0.00  0.00    -0.732 N 
ATOM      8  C   UNL d   1       5.161   3.022  -1.266  0.00  0.00     0.284 C 
ATOM      9  H3  UNL d   1       6.883   1.939  -0.821  0.00  0.00     0.395 HD
ENDBRANCH   1   7
TORSDOF 1
ENDMDL
