MODEL 1
REMARK minimizedAffinity 0.817396224
REMARK minimizedRMSD -1
REMARK  1 active torsions:
REMARK  status: ('A' for Active; 'I' for Inactive)
REMARK    1  A    between atoms: N_2  and  C1_3 
ROOT
ATOM      1  C1  UNL d   1       2.079  -1.826  -0.457  0.00  0.00     0.143 A 
ATOM      2  C2  UNL d   1       1.141  -1.539  -1.454  0.00  0.00    -0.057 A 
ATOM      3  C3  UNL d   1       0.087  -2.418  -1.733  0.00  0.00     0.033 A 
ATOM      4  C4  UNL d   1      -0.031  -3.616  -1.037  0.00  0.00    -0.042 A 
ATOM      5  C5  UNL d   1       0.905  -3.933  -0.059  0.00  0.00     0.033 A 
ATOM      6  C6  UNL d   1       1.952  -3.049   0.220  0.00  0.00    -0.057 A 
ENDROOT
BRANCH   1   7
ATOM      7  N   UNL d   1       3.206  -1.040  -0.200  0.00  0.00    -0.732 N 
ATOM      8  C   UNL d   1       3.180   0.387  -0.442  0.00  0.00     0.284 C 
ATOM      9  H3  UNL d   1       3.678  -1.308   0.661  0.00  0.00     0.395 HD
ENDBRANCH   1   7
TORSDOF 1
ENDMDL
