MODEL 1
REMARK minimizedAffinity 5.80661917
REMARK minimizedRMSD -1
REMARK  1 active torsions:
REMARK  status: ('A' for Active; 'I' for Inactive)
REMARK    1  A    between atoms: N_2  and  C1_3 
ROOT
ATOM      1  C1  UNL d   1       0.519  -3.350   4.288  0.00  0.00     0.143 A 
ATOM      2  C2  UNL d   1      -0.868  -3.333   4.470  0.00  0.00    -0.057 A 
ATOM      3  C3  UNL d   1      -1.498  -4.243   5.327  0.00  0.00     0.033 A 
ATOM      4  C4  UNL d   1      -0.753  -5.207   5.998  0.00  0.00    -0.042 A 
ATOM      5  C5  UNL d   1       0.624  -5.258   5.813  0.00  0.00     0.033 A 
ATOM      6  C6  UNL d   1       1.248  -4.343   4.960  0.00  0.00    -0.057 A 
ENDROOT
BRANCH   1   7
ATOM      7  N   UNL d   1       1.193  -2.536   3.373  0.00  0.00    -0.732 N 
ATOM      8  C   UNL d   1       1.238  -2.885   1.970  0.00  0.00     0.284 C 
ATOM      9  H3  UNL d   1       1.045  -1.546   3.552  0.00  0.00     0.395 HD
ENDBRANCH   1   7
TORSDOF 1
ENDMDL
