MODEL 1
REMARK minimizedAffinity 3.21140671
REMARK minimizedRMSD -1
REMARK  0 active torsions:
REMARK  status: ('A' for Active; 'I' for Inactive)
ROOT
ATOM      1  C1  BNZ d   1      -1.263  -0.258   0.702  0.00  0.00     0.000 A 
ATOM      2  C2  BNZ d   1      -2.181   0.089   1.657  0.00  0.00     0.000 A 
ATOM      3  C3  BNZ d   1      -1.936   1.118   2.522  0.00  0.00     0.000 A 
ATOM      4  C4  BNZ d   1      -0.758   1.773   2.457  0.00  0.00     0.000 A 
ATOM      5  C5  BNZ d   1       0.181   1.429   1.506  0.00  0.00     0.000 A 
ATOM      6  C6  BNZ d   1      -0.085   0.418   0.611  0.00  0.00     0.000 A 
ENDROOT
TORSDOF 0
ENDMDL
