MODEL 1
REMARK minimizedAffinity -0.832670927
REMARK minimizedRMSD -1
REMARK  0 active torsions:
REMARK  status: ('A' for Active; 'I' for Inactive)
ROOT
ATOM      1  C1  BNZ d   1      -0.000   1.311   1.971  0.00  0.00     0.000 A 
ATOM      2  C2  BNZ d   1       0.171   1.451   0.620  0.00  0.00     0.000 A 
ATOM      3  C3  BNZ d   1      -0.633   0.782  -0.260  0.00  0.00     0.000 A 
ATOM      4  C4  BNZ d   1      -1.579  -0.055   0.211  0.00  0.00     0.000 A 
ATOM      5  C5  BNZ d   1      -1.759  -0.214   1.571  0.00  0.00     0.000 A 
ATOM      6  C6  BNZ d   1      -0.973   0.491   2.454  0.00  0.00     0.000 A 
ENDROOT
TORSDOF 0
ENDMDL
