MODEL 1
REMARK minimizedAffinity 1.46637762
REMARK minimizedRMSD -1
REMARK  0 active torsions:
REMARK  status: ('A' for Active; 'I' for Inactive)
ROOT
ATOM      1  C1  BNZ d   1      -0.516   0.371   0.383  0.00  0.00     0.000 A 
ATOM      2  C2  BNZ d   1      -1.732   0.415   1.011  0.00  0.00     0.000 A 
ATOM      3  C3  BNZ d   1      -1.861   0.984   2.247  0.00  0.00     0.000 A 
ATOM      4  C4  BNZ d   1      -0.769   1.471   2.870  0.00  0.00     0.000 A 
ATOM      5  C5  BNZ d   1       0.466   1.425   2.254  0.00  0.00     0.000 A 
ATOM      6  C6  BNZ d   1       0.585   0.887   0.993  0.00  0.00     0.000 A 
ENDROOT
TORSDOF 0
ENDMDL
