MODEL 1
REMARK minimizedAffinity 0.474138409
REMARK minimizedRMSD -1
REMARK  0 active torsions:
REMARK  status: ('A' for Active; 'I' for Inactive)
ROOT
ATOM      1  C1  BNZ d   1      -1.875   1.570   2.181  0.00  0.00     0.000 A 
ATOM      2  C2  BNZ d   1      -1.891   0.728   1.101  0.00  0.00     0.000 A 
ATOM      3  C3  BNZ d   1      -0.738   0.422   0.435  0.00  0.00     0.000 A 
ATOM      4  C4  BNZ d   1       0.423   0.988   0.824  0.00  0.00     0.000 A 
ATOM      5  C5  BNZ d   1       0.454   1.846   1.905  0.00  0.00     0.000 A 
ATOM      6  C6  BNZ d   1      -0.703   2.121   2.597  0.00  0.00     0.000 A 
ENDROOT
TORSDOF 0
ENDMDL
