MODEL 1
REMARK minimizedAffinity 1.58836353
REMARK minimizedRMSD -1
REMARK  0 active torsions:
REMARK  status: ('A' for Active; 'I' for Inactive)
ROOT
ATOM      1  C1  BNZ d   1       1.433  -5.983   3.914  0.00  0.00     0.000 A 
ATOM      2  C2  BNZ d   1       0.096  -5.978   4.209  0.00  0.00     0.000 A 
ATOM      3  C3  BNZ d   1      -0.840  -6.000   3.213  0.00  0.00     0.000 A 
ATOM      4  C4  BNZ d   1      -0.439  -5.986   1.925  0.00  0.00     0.000 A 
ATOM      5  C5  BNZ d   1       0.905  -5.981   1.612  0.00  0.00     0.000 A 
ATOM      6  C6  BNZ d   1       1.845  -5.998   2.617  0.00  0.00     0.000 A 
ENDROOT
TORSDOF 0
ENDMDL
