MODEL 1
REMARK minimizedAffinity 0.441637963
REMARK minimizedRMSD -1
REMARK  0 active torsions:
REMARK  status: ('A' for Active; 'I' for Inactive)
ROOT
ATOM      1  C1  BNZ d   1       1.848  -5.982   3.284  0.00  0.00     0.000 A 
ATOM      2  C2  BNZ d   1       2.575  -5.976   4.445  0.00  0.00     0.000 A 
ATOM      3  C3  BNZ d   1       1.951  -5.999   5.661  0.00  0.00     0.000 A 
ATOM      4  C4  BNZ d   1       0.604  -5.988   5.716  0.00  0.00     0.000 A 
ATOM      5  C5  BNZ d   1      -0.143  -5.984   4.555  0.00  0.00     0.000 A 
ATOM      6  C6  BNZ d   1       0.488  -6.000   3.332  0.00  0.00     0.000 A 
ENDROOT
TORSDOF 0
ENDMDL
