MODEL 1
REMARK minimizedAffinity 1.633762
REMARK minimizedRMSD -1
REMARK  0 active torsions:
REMARK  status: ('A' for Active; 'I' for Inactive)
ROOT
ATOM      1  C1  BNZ d   1      -0.258   0.756   2.148  0.00  0.00     0.000 A 
ATOM      2  C2  BNZ d   1      -1.023  -0.060   2.939  0.00  0.00     0.000 A 
ATOM      3  C3  BNZ d   1      -1.355  -1.321   2.530  0.00  0.00     0.000 A 
ATOM      4  C4  BNZ d   1      -0.956  -1.750   1.315  0.00  0.00     0.000 A 
ATOM      5  C5  BNZ d   1      -0.192  -0.937   0.502  0.00  0.00     0.000 A 
ATOM      6  C6  BNZ d   1       0.173   0.318   0.934  0.00  0.00     0.000 A 
ENDROOT
TORSDOF 0
ENDMDL
