MODEL 1
REMARK minimizedAffinity 3.6152041
REMARK minimizedRMSD -1
REMARK  0 active torsions:
REMARK  status: ('A' for Active; 'I' for Inactive)
ROOT
ATOM      1  C1  BNZ d   1       0.629  -0.058   0.194  0.00  0.00     0.000 A 
ATOM      2  C2  BNZ d   1      -0.111  -1.131   0.614  0.00  0.00     0.000 A 
ATOM      3  C3  BNZ d   1      -0.888  -1.049   1.736  0.00  0.00     0.000 A 
ATOM      4  C4  BNZ d   1      -0.892   0.090   2.458  0.00  0.00     0.000 A 
ATOM      5  C5  BNZ d   1      -0.143   1.177   2.053  0.00  0.00     0.000 A 
ATOM      6  C6  BNZ d   1       0.607   1.104   0.901  0.00  0.00     0.000 A 
ENDROOT
TORSDOF 0
ENDMDL
