MODEL 1
REMARK minimizedAffinity 3.19851589
REMARK minimizedRMSD -1
REMARK  0 active torsions:
REMARK  status: ('A' for Active; 'I' for Inactive)
ROOT
ATOM      1  C1  BNZ d   1      -0.034   1.144   0.749  0.00  0.00     0.000 A 
ATOM      2  C2  BNZ d   1       0.763   1.209   1.861  0.00  0.00     0.000 A 
ATOM      3  C3  BNZ d   1       1.997   0.622   1.873  0.00  0.00     0.000 A 
ATOM      4  C4  BNZ d   1       2.417  -0.062   0.789  0.00  0.00     0.000 A 
ATOM      5  C5  BNZ d   1       1.621  -0.144  -0.336  0.00  0.00     0.000 A 
ATOM      6  C6  BNZ d   1       0.396   0.480  -0.359  0.00  0.00     0.000 A 
ENDROOT
TORSDOF 0
ENDMDL
