MODEL 1
REMARK minimizedAffinity -0.0819237158
REMARK minimizedRMSD -1
REMARK  0 active torsions:
REMARK  status: ('A' for Active; 'I' for Inactive)
ROOT
ATOM      1  C1  BNZ d   1       1.274  -5.989   2.262  0.00  0.00     0.000 A 
ATOM      2  C2  BNZ d   1      -0.002  -5.990   2.761  0.00  0.00     0.000 A 
ATOM      3  C3  BNZ d   1      -0.227  -5.972   4.109  0.00  0.00     0.000 A 
ATOM      4  C4  BNZ d   1       0.822  -5.992   4.956  0.00  0.00     0.000 A 
ATOM      5  C5  BNZ d   1       2.114  -6.000   4.469  0.00  0.00     0.000 A 
ATOM      6  C6  BNZ d   1       2.337  -5.979   3.112  0.00  0.00     0.000 A 
ENDROOT
TORSDOF 0
ENDMDL
