MODEL 1
REMARK minimizedAffinity 5.63148069
REMARK minimizedRMSD -1
REMARK  0 active torsions:
REMARK  status: ('A' for Active; 'I' for Inactive)
ROOT
ATOM      1  C1  BNZ d   1      -3.184  -4.083  -4.823  0.00  0.00     0.000 A 
ATOM      2  C2  BNZ d   1      -2.569  -3.748  -6.000  0.00  0.00     0.000 A 
ATOM      3  C3  BNZ d   1      -1.379  -3.074  -6.000  0.00  0.00     0.000 A 
ATOM      4  C4  BNZ d   1      -0.828  -2.701  -4.827  0.00  0.00     0.000 A 
ATOM      5  C5  BNZ d   1      -1.441  -3.024  -3.633  0.00  0.00     0.000 A 
ATOM      6  C6  BNZ d   1      -2.619  -3.737  -3.635  0.00  0.00     0.000 A 
ENDROOT
TORSDOF 0
ENDMDL
