MODEL 1
REMARK minimizedAffinity -0.926619589
REMARK minimizedRMSD -1
REMARK  0 active torsions:
REMARK  status: ('A' for Active; 'I' for Inactive)
ROOT
ATOM      1  C1  BNZ d   1       1.464  -5.999   2.098  0.00  0.00     0.000 A 
ATOM      2  C2  BNZ d   1       1.108  -5.994   3.420  0.00  0.00     0.000 A 
ATOM      3  C3  BNZ d   1      -0.208  -6.000   3.791  0.00  0.00     0.000 A 
ATOM      4  C4  BNZ d   1      -1.164  -5.969   2.840  0.00  0.00     0.000 A 
ATOM      5  C5  BNZ d   1      -0.821  -5.964   1.503  0.00  0.00     0.000 A 
ATOM      6  C6  BNZ d   1       0.504  -5.998   1.134  0.00  0.00     0.000 A 
ENDROOT
TORSDOF 0
ENDMDL
