MODEL 1
REMARK minimizedAffinity 4.90707016
REMARK minimizedRMSD -1
REMARK  0 active torsions:
REMARK  status: ('A' for Active; 'I' for Inactive)
ROOT
ATOM      1  C1  BNZ d   1       0.155  -6.000   4.031  0.00  0.00     0.000 A 
ATOM      2  C2  BNZ d   1       0.306  -6.000   2.670  0.00  0.00     0.000 A 
ATOM      3  C3  BNZ d   1       1.287  -5.258   2.075  0.00  0.00     0.000 A 
ATOM      4  C4  BNZ d   1       2.090  -4.487   2.837  0.00  0.00     0.000 A 
ATOM      5  C5  BNZ d   1       1.944  -4.469   4.210  0.00  0.00     0.000 A 
ATOM      6  C6  BNZ d   1       0.980  -5.248   4.809  0.00  0.00     0.000 A 
ENDROOT
TORSDOF 0
ENDMDL
