MODEL 1
REMARK minimizedAffinity 1.41674602
REMARK minimizedRMSD -1
REMARK  0 active torsions:
REMARK  status: ('A' for Active; 'I' for Inactive)
ROOT
ATOM      1  C1  BNZ d   1      -0.032  -5.986   2.931  0.00  0.00     0.000 A 
ATOM      2  C2  BNZ d   1       1.295  -5.980   2.594  0.00  0.00     0.000 A 
ATOM      3  C3  BNZ d   1       2.262  -5.995   3.560  0.00  0.00     0.000 A 
ATOM      4  C4  BNZ d   1       1.902  -5.975   4.860  0.00  0.00     0.000 A 
ATOM      5  C5  BNZ d   1       0.568  -5.971   5.215  0.00  0.00     0.000 A 
ATOM      6  C6  BNZ d   1      -0.403  -5.996   4.240  0.00  0.00     0.000 A 
ENDROOT
TORSDOF 0
ENDMDL
