MODEL 1
REMARK minimizedAffinity 1.94997239
REMARK minimizedRMSD -1
REMARK  0 active torsions:
REMARK  status: ('A' for Active; 'I' for Inactive)
ROOT
ATOM      1  C1  BNZ d   1       2.028  -5.996   3.152  0.00  0.00     0.000 A 
ATOM      2  C2  BNZ d   1       1.197  -6.000   2.064  0.00  0.00     0.000 A 
ATOM      3  C3  BNZ d   1      -0.160  -5.979   2.219  0.00  0.00     0.000 A 
ATOM      4  C4  BNZ d   1      -0.686  -5.995   3.461  0.00  0.00     0.000 A 
ATOM      5  C5  BNZ d   1       0.138  -6.000   4.569  0.00  0.00     0.000 A 
ATOM      6  C6  BNZ d   1       1.505  -5.981   4.409  0.00  0.00     0.000 A 
ENDROOT
TORSDOF 0
ENDMDL
