MODEL 1
REMARK minimizedAffinity 4.92751026
REMARK minimizedRMSD -1
REMARK  0 active torsions:
REMARK  status: ('A' for Active; 'I' for Inactive)
ROOT
ATOM      1  C1  BNZ d   1      -0.329  -5.997   3.866  0.00  0.00     0.000 A 
ATOM      2  C2  BNZ d   1       0.687  -5.962   4.785  0.00  0.00     0.000 A 
ATOM      3  C3  BNZ d   1       1.992  -5.913   4.383  0.00  0.00     0.000 A 
ATOM      4  C4  BNZ d   1       2.282  -5.938   3.066  0.00  0.00     0.000 A 
ATOM      5  C5  BNZ d   1       1.270  -5.983   2.128  0.00  0.00     0.000 A 
ATOM      6  C6  BNZ d   1      -0.044  -5.993   2.536  0.00  0.00     0.000 A 
ENDROOT
TORSDOF 0
ENDMDL
