MODEL 1
REMARK minimizedAffinity -5.26260519
REMARK minimizedRMSD -1
REMARK  3 active torsions:
REMARK  status: ('A' for Active; 'I' for Inactive)
REMARK    1  A    between atoms: C3'_2  and  C2'_3 
REMARK    2  A    between atoms: C2'_3  and  C1'_4 
REMARK    3  A    between atoms: C1'_4  and  C1_5 
ROOT
ATOM      1  C1  N4B d   1       0.007   0.050  -0.067  0.00  0.00    -0.075 A 
ATOM      2  C2  N4B d   1       1.043   0.977  -0.318  0.00  0.00     0.002 A 
ATOM      3  C3  N4B d   1       0.770   2.323  -0.334  0.00  0.00     0.002 A 
ATOM      4  C4  N4B d   1      -0.528   2.762  -0.121  0.00  0.00    -0.004 A 
ATOM      5  C5  N4B d   1      -1.517   1.862   0.146  0.00  0.00     0.002 A 
ATOM      6  C6  N4B d   1      -1.257   0.506   0.169  0.00  0.00     0.002 A 
ENDROOT
BRANCH   1   7
ATOM      7  C1' N4B d   1       0.240  -1.435  -0.124  0.00  0.00     0.057 C 
BRANCH   7   8
ATOM      8  C2' N4B d   1      -1.081  -2.138  -0.421  0.00  0.00     0.009 C 
BRANCH   8   9
ATOM      9  C3' N4B d   1      -0.989  -3.024  -1.651  0.00  0.00     0.004 C 
ATOM     10  C4' N4B d   1       0.392  -3.065  -2.236  0.00  0.00     0.003 C 
ENDBRANCH   8   9
ENDBRANCH   7   8
ENDBRANCH   1   7
TORSDOF 3
ENDMDL
