MODEL 1
REMARK minimizedAffinity -4.47382545
REMARK minimizedRMSD -1
REMARK  3 active torsions:
REMARK  status: ('A' for Active; 'I' for Inactive)
REMARK    1  A    between atoms: C3'_2  and  C2'_3 
REMARK    2  A    between atoms: C2'_3  and  C1'_4 
REMARK    3  A    between atoms: C1'_4  and  C1_5 
ROOT
ATOM      1  C1  N4B d   1       0.097   0.334   0.074  0.00  0.00    -0.075 A 
ATOM      2  C2  N4B d   1       1.256   1.024  -0.348  0.00  0.00     0.002 A 
ATOM      3  C3  N4B d   1       1.252   2.395  -0.416  0.00  0.00     0.002 A 
ATOM      4  C4  N4B d   1       0.100   3.095  -0.086  0.00  0.00    -0.004 A 
ATOM      5  C5  N4B d   1      -1.006   2.423   0.345  0.00  0.00     0.002 A 
ATOM      6  C6  N4B d   1      -1.015   1.045   0.422  0.00  0.00     0.002 A 
ENDROOT
BRANCH   1   7
ATOM      7  C1' N4B d   1       0.026  -1.168   0.082  0.00  0.00     0.057 C 
BRANCH   7   8
ATOM      8  C2' N4B d   1       0.373  -1.693  -1.308  0.00  0.00     0.009 C 
BRANCH   8   9
ATOM      9  C3' N4B d   1      -0.640  -2.712  -1.800  0.00  0.00     0.004 C 
ATOM     10  C4' N4B d   1      -0.312  -3.248  -3.162  0.00  0.00     0.003 C 
ENDBRANCH   8   9
ENDBRANCH   7   8
ENDBRANCH   1   7
TORSDOF 3
ENDMDL
