MODEL 1
REMARK minimizedAffinity -4.99730015
REMARK minimizedRMSD -1
REMARK  3 active torsions:
REMARK  status: ('A' for Active; 'I' for Inactive)
REMARK    1  A    between atoms: C3'_2  and  C2'_3 
REMARK    2  A    between atoms: C2'_3  and  C1'_4 
REMARK    3  A    between atoms: C1'_4  and  C1_5 
ROOT
ATOM      1  C1  N4B d   1       0.303  -0.003  -0.049  0.00  0.00    -0.075 A 
ATOM      2  C2  N4B d   1       1.295   0.788  -0.669  0.00  0.00     0.002 A 
ATOM      3  C3  N4B d   1       1.133   2.149  -0.757  0.00  0.00     0.002 A 
ATOM      4  C4  N4B d   1      -0.017   2.737  -0.252  0.00  0.00    -0.004 A 
ATOM      5  C5  N4B d   1      -0.959   1.969   0.368  0.00  0.00     0.002 A 
ATOM      6  C6  N4B d   1      -0.807   0.601   0.467  0.00  0.00     0.002 A 
ENDROOT
BRANCH   1   7
ATOM      7  C1' N4B d   1       0.396  -1.503  -0.006  0.00  0.00     0.057 C 
BRANCH   7   8
ATOM      8  C2' N4B d   1      -0.918  -2.101  -0.503  0.00  0.00     0.009 C 
BRANCH   8   9
ATOM      9  C3' N4B d   1      -0.691  -3.326  -1.371  0.00  0.00     0.004 C 
ATOM     10  C4' N4B d   1       0.073  -3.017  -2.624  0.00  0.00     0.003 C 
ENDBRANCH   8   9
ENDBRANCH   7   8
ENDBRANCH   1   7
TORSDOF 3
ENDMDL
