MODEL 1
REMARK minimizedAffinity -5.4103303
REMARK minimizedRMSD -1
REMARK  3 active torsions:
REMARK  status: ('A' for Active; 'I' for Inactive)
REMARK    1  A    between atoms: C3'_2  and  C2'_3 
REMARK    2  A    between atoms: C2'_3  and  C1'_4 
REMARK    3  A    between atoms: C1'_4  and  C1_5 
ROOT
ATOM      1  C1  N4B d   1       0.341   0.207   0.001  0.00  0.00    -0.075 A 
ATOM      2  C2  N4B d   1      -1.001   0.570   0.247  0.00  0.00     0.002 A 
ATOM      3  C3  N4B d   1      -1.356   1.896   0.295  0.00  0.00     0.002 A 
ATOM      4  C4  N4B d   1      -0.387   2.872   0.121  0.00  0.00    -0.004 A 
ATOM      5  C5  N4B d   1       0.903   2.513  -0.142  0.00  0.00     0.002 A 
ATOM      6  C6  N4B d   1       1.273   1.185  -0.197  0.00  0.00     0.002 A 
ENDROOT
BRANCH   1   7
ATOM      7  C1' N4B d   1       0.793  -1.227   0.024  0.00  0.00     0.057 C 
BRANCH   7   8
ATOM      8  C2' N4B d   1      -0.358  -2.122  -0.426  0.00  0.00     0.009 C 
BRANCH   8   9
ATOM      9  C3' N4B d   1      -0.209  -2.554  -1.874  0.00  0.00     0.004 C 
ATOM     10  C4' N4B d   1      -1.192  -3.617  -2.268  0.00  0.00     0.003 C 
ENDBRANCH   8   9
ENDBRANCH   7   8
ENDBRANCH   1   7
TORSDOF 3
ENDMDL
