MODEL 1
REMARK minimizedAffinity -1.47287428
REMARK minimizedRMSD -1
REMARK  1 active torsions:
REMARK  status: ('A' for Active; 'I' for Inactive)
REMARK    1  A    between atoms: C1_2  and  C2_3 
ROOT
ATOM      1  C2  UNL d   1       1.032  -0.420   0.077  0.00  0.00    -0.076 A 
ATOM      2  C3  UNL d   1      -0.145   0.332  -0.087  0.00  0.00     0.004 A 
ATOM      3  C4  UNL d   1      -0.205   1.666   0.315  0.00  0.00    -0.003 A 
ATOM      4  C5  UNL d   1       0.909   2.269   0.886  0.00  0.00     0.000 A 
ATOM      5  C6  UNL d   1       2.090   1.543   1.041  0.00  0.00     0.000 A 
ATOM      6  C7  UNL d   1       2.173   0.202   0.626  0.00  0.00    -0.073 A 
ATOM      7  C8  UNL d   1       3.470  -0.535   0.822  0.00  0.00     0.078 C 
ENDROOT
BRANCH   1   8
ATOM      8  C1  UNL d   1       1.030  -1.870  -0.352  0.00  0.00     0.053 C 
ATOM      9  C   UNL d   1       0.551  -2.803   0.749  0.00  0.00     0.018 C 
ENDBRANCH   1   8
TORSDOF 1
ENDMDL
