MODEL 1
REMARK minimizedAffinity -4.22665596
REMARK minimizedRMSD -1
REMARK  1 active torsions:
REMARK  status: ('A' for Active; 'I' for Inactive)
REMARK    1  A    between atoms: C1_2  and  C2_3 
ROOT
ATOM      1  C2  UNL d   1       1.032  -0.376   0.471  0.00  0.00    -0.076 A 
ATOM      2  C3  UNL d   1       0.615   0.813  -0.152  0.00  0.00     0.004 A 
ATOM      3  C4  UNL d   1      -0.739   1.092  -0.332  0.00  0.00    -0.003 A 
ATOM      4  C5  UNL d   1      -1.698   0.187   0.109  0.00  0.00     0.000 A 
ATOM      5  C6  UNL d   1      -1.303  -0.989   0.745  0.00  0.00     0.000 A 
ATOM      6  C7  UNL d   1       0.058  -1.279   0.949  0.00  0.00    -0.073 A 
ATOM      7  C8  UNL d   1       0.427  -2.565   1.635  0.00  0.00     0.078 C 
ENDROOT
BRANCH   1   8
ATOM      8  C1  UNL d   1       2.514  -0.638   0.614  0.00  0.00     0.053 C 
ATOM      9  C   UNL d   1       3.181   0.310   1.599  0.00  0.00     0.018 C 
ENDBRANCH   1   8
TORSDOF 1
ENDMDL
