MODEL 1
REMARK minimizedAffinity -4.79519272
REMARK minimizedRMSD -1
REMARK  1 active torsions:
REMARK  status: ('A' for Active; 'I' for Inactive)
REMARK    1  A    between atoms: C1_2  and  C2_3 
ROOT
ATOM      1  C2  UNL d   1       0.037   0.250  -0.113  0.00  0.00    -0.076 A 
ATOM      2  C3  UNL d   1       0.440   1.546  -0.481  0.00  0.00     0.004 A 
ATOM      3  C4  UNL d   1       1.769   1.947  -0.355  0.00  0.00    -0.003 A 
ATOM      4  C5  UNL d   1       2.717   1.059   0.140  0.00  0.00     0.000 A 
ATOM      5  C6  UNL d   1       2.339  -0.236   0.494  0.00  0.00     0.000 A 
ATOM      6  C7  UNL d   1       1.006  -0.662   0.357  0.00  0.00    -0.073 A 
ATOM      7  C8  UNL d   1       0.653  -2.067   0.759  0.00  0.00     0.078 C 
ENDROOT
BRANCH   1   8
ATOM      8  C1  UNL d   1      -1.423  -0.120  -0.247  0.00  0.00     0.053 C 
ATOM      9  C   UNL d   1      -1.967   0.148  -1.642  0.00  0.00     0.018 C 
ENDBRANCH   1   8
TORSDOF 1
ENDMDL
