MODEL 1
REMARK minimizedAffinity -3.61901641
REMARK minimizedRMSD -1
REMARK  1 active torsions:
REMARK  status: ('A' for Active; 'I' for Inactive)
REMARK    1  A    between atoms: C1_2  and  C2_3 
ROOT
ATOM      1  C2  UNL d   1      -0.923  -0.013  -1.546  0.00  0.00    -0.076 A 
ATOM      2  C3  UNL d   1       0.176   0.379  -2.330  0.00  0.00     0.004 A 
ATOM      3  C4  UNL d   1       1.383   0.749  -1.739  0.00  0.00    -0.003 A 
ATOM      4  C5  UNL d   1       1.511   0.733  -0.354  0.00  0.00     0.000 A 
ATOM      5  C6  UNL d   1       0.437   0.330   0.438  0.00  0.00     0.000 A 
ATOM      6  C7  UNL d   1      -0.782  -0.062  -0.142  0.00  0.00    -0.073 A 
ATOM      7  C8  UNL d   1      -1.910  -0.482   0.760  0.00  0.00     0.078 C 
ENDROOT
BRANCH   1   8
ATOM      8  C1  UNL d   1      -2.215  -0.378  -2.241  0.00  0.00     0.053 C 
ATOM      9  C   UNL d   1      -2.438   0.424  -3.514  0.00  0.00     0.018 C 
ENDBRANCH   1   8
TORSDOF 1
ENDMDL
