MODEL 1
REMARK minimizedAffinity -3.81614947
REMARK minimizedRMSD -1
REMARK  1 active torsions:
REMARK  status: ('A' for Active; 'I' for Inactive)
REMARK    1  A    between atoms: C1_2  and  C2_3 
ROOT
ATOM      1  C2  UNL d   1       0.019   0.101   0.355  0.00  0.00    -0.076 A 
ATOM      2  C3  UNL d   1       0.708   1.288   0.048  0.00  0.00     0.004 A 
ATOM      3  C4  UNL d   1       2.087   1.381   0.220  0.00  0.00    -0.003 A 
ATOM      4  C5  UNL d   1       2.802   0.290   0.702  0.00  0.00     0.000 A 
ATOM      5  C6  UNL d   1       2.137  -0.901   0.995  0.00  0.00     0.000 A 
ATOM      6  C7  UNL d   1       0.749  -1.017   0.811  0.00  0.00    -0.073 A 
ATOM      7  C8  UNL d   1       0.083  -2.323   1.149  0.00  0.00     0.078 C 
ENDROOT
BRANCH   1   8
ATOM      8  C1  UNL d   1      -1.482   0.067   0.174  0.00  0.00     0.053 C 
ATOM      9  C   UNL d   1      -1.893   0.130  -1.289  0.00  0.00     0.018 C 
ENDBRANCH   1   8
TORSDOF 1
ENDMDL
