MODEL 1
REMARK minimizedAffinity -5.70053101
REMARK minimizedRMSD -1
REMARK  1 active torsions:
REMARK  status: ('A' for Active; 'I' for Inactive)
REMARK    1  A    between atoms: C1_2  and  C2_3 
ROOT
ATOM      1  C2  UNL d   1       0.255  -0.282   0.749  0.00  0.00    -0.076 A 
ATOM      2  C3  UNL d   1      -0.396  -1.459   1.156  0.00  0.00     0.004 A 
ATOM      3  C4  UNL d   1       0.312  -2.502   1.751  0.00  0.00    -0.003 A 
ATOM      4  C5  UNL d   1       1.683  -2.384   1.949  0.00  0.00     0.000 A 
ATOM      5  C6  UNL d   1       2.343  -1.216   1.567  0.00  0.00     0.000 A 
ATOM      6  C7  UNL d   1       1.641  -0.148   0.981  0.00  0.00    -0.073 A 
ATOM      7  C8  UNL d   1       2.403   1.086   0.584  0.00  0.00     0.078 C 
ENDROOT
BRANCH   1   8
ATOM      8  C1  UNL d   1      -0.561   0.804   0.085  0.00  0.00     0.053 C 
ATOM      9  C   UNL d   1      -1.632   0.246  -0.839  0.00  0.00     0.018 C 
ENDBRANCH   1   8
TORSDOF 1
ENDMDL
