MODEL 1
REMARK minimizedAffinity 18.7032986
REMARK minimizedRMSD -1
REMARK  1 active torsions:
REMARK  status: ('A' for Active; 'I' for Inactive)
REMARK    1  A    between atoms: C1_2  and  C2_3 
ROOT
ATOM      1  C2  UNL d   1      -4.999   3.494  -1.961  0.00  0.00    -0.076 A 
ATOM      2  C3  UNL d   1      -4.069   3.784  -2.974  0.00  0.00     0.004 A 
ATOM      3  C4  UNL d   1      -3.123   2.841  -3.371  0.00  0.00    -0.003 A 
ATOM      4  C5  UNL d   1      -3.092   1.592  -2.761  0.00  0.00     0.000 A 
ATOM      5  C6  UNL d   1      -4.018   1.280  -1.767  0.00  0.00     0.000 A 
ATOM      6  C7  UNL d   1      -4.989   2.214  -1.366  0.00  0.00    -0.073 A 
ATOM      7  C8  UNL d   1      -5.960   1.827  -0.284  0.00  0.00     0.078 C 
ENDROOT
BRANCH   1   8
ATOM      8  C1  UNL d   1      -5.985   4.566  -1.553  0.00  0.00     0.053 C 
ATOM      9  C   UNL d   1      -5.300   5.855  -1.126  0.00  0.00     0.018 C 
ENDBRANCH   1   8
TORSDOF 1
ENDMDL
