MODEL 1
REMARK minimizedAffinity -2.38416672
REMARK minimizedRMSD -1
REMARK  1 active torsions:
REMARK  status: ('A' for Active; 'I' for Inactive)
REMARK    1  A    between atoms: C1_2  and  C2_3 
ROOT
ATOM      1  C2  UNL d   1       0.991  -1.017  -0.255  0.00  0.00    -0.076 A 
ATOM      2  C3  UNL d   1       0.626   0.088  -1.044  0.00  0.00     0.004 A 
ATOM      3  C4  UNL d   1      -0.703   0.499  -1.133  0.00  0.00    -0.003 A 
ATOM      4  C5  UNL d   1      -1.689  -0.188  -0.433  0.00  0.00     0.000 A 
ATOM      5  C6  UNL d   1      -1.343  -1.275   0.369  0.00  0.00     0.000 A 
ATOM      6  C7  UNL d   1      -0.006  -1.692   0.482  0.00  0.00    -0.073 A 
ATOM      7  C8  UNL d   1       0.310  -2.874   1.357  0.00  0.00     0.078 C 
ENDROOT
BRANCH   1   8
ATOM      8  C1  UNL d   1       2.444  -1.433  -0.218  0.00  0.00     0.053 C 
ATOM      9  C   UNL d   1       3.236  -0.689   0.845  0.00  0.00     0.018 C 
ENDBRANCH   1   8
TORSDOF 1
ENDMDL
