MODEL 1
REMARK minimizedAffinity 2.33946848
REMARK minimizedRMSD -1
REMARK  0 active torsions:
REMARK  status: ('A' for Active; 'I' for Inactive)
ROOT
ATOM      1  C1  DEN d   1       0.684  -1.008  -1.958  0.00  0.00     0.130 A 
ATOM      2  C2  DEN d   1      -0.701  -0.592  -2.162  0.00  0.00    -0.031 A 
ATOM      3  C3  DEN d   1      -1.223  -0.095  -0.874  0.00  0.00     0.027 A 
ATOM      4  C4  DEN d   1      -0.027   0.076   1.405  0.00  0.00     0.027 A 
ATOM      5  C5  DEN d   1       1.152  -0.166   2.074  0.00  0.00    -0.003 A 
ATOM      6  C6  DEN d   1       2.238  -0.732   1.461  0.00  0.00     0.001 A 
ATOM      7  C7  DEN d   1       2.181  -1.034   0.126  0.00  0.00     0.017 A 
ATOM      8  C8  DEN d   1       0.994  -0.800  -0.555  0.00  0.00    -0.094 A 
ATOM      9  C9  DEN d   1      -0.089  -0.215   0.081  0.00  0.00    -0.072 A 
ENDROOT
TORSDOF 0
ENDMDL
