MODEL 1
REMARK minimizedAffinity -2.33311129
REMARK minimizedRMSD -1
REMARK  0 active torsions:
REMARK  status: ('A' for Active; 'I' for Inactive)
ROOT
ATOM      1  C1  DEN d   1       0.362  -1.136  -0.636  0.00  0.00     0.130 A 
ATOM      2  C2  DEN d   1       0.260   0.041   0.223  0.00  0.00    -0.031 A 
ATOM      3  C3  DEN d   1      -1.150   0.181   0.640  0.00  0.00     0.027 A 
ATOM      4  C4  DEN d   1      -3.173  -1.305   0.047  0.00  0.00     0.027 A 
ATOM      5  C5  DEN d   1      -3.582  -2.413  -0.662  0.00  0.00    -0.003 A 
ATOM      6  C6  DEN d   1      -2.720  -3.147  -1.432  0.00  0.00     0.001 A 
ATOM      7  C7  DEN d   1      -1.393  -2.808  -1.476  0.00  0.00     0.017 A 
ATOM      8  C8  DEN d   1      -0.974  -1.688  -0.771  0.00  0.00    -0.094 A 
ATOM      9  C9  DEN d   1      -1.859  -0.966   0.012  0.00  0.00    -0.072 A 
ENDROOT
TORSDOF 0
ENDMDL
