MODEL 1
REMARK minimizedAffinity -0.236324057
REMARK minimizedRMSD -1
REMARK  0 active torsions:
REMARK  status: ('A' for Active; 'I' for Inactive)
ROOT
ATOM      1  C1  DEN d   1      -2.452  -1.079  -0.394  0.00  0.00     0.130 A 
ATOM      2  C2  DEN d   1      -2.156  -2.115  -1.379  0.00  0.00    -0.031 A 
ATOM      3  C3  DEN d   1      -0.694  -2.321  -1.400  0.00  0.00     0.027 A 
ATOM      4  C4  DEN d   1       1.130  -1.144  -0.007  0.00  0.00     0.027 A 
ATOM      5  C5  DEN d   1       1.365  -0.184   0.953  0.00  0.00    -0.003 A 
ATOM      6  C6  DEN d   1       0.356   0.562   1.502  0.00  0.00     0.001 A 
ATOM      7  C7  DEN d   1      -0.941   0.330   1.128  0.00  0.00     0.017 A 
ATOM      8  C8  DEN d   1      -1.185  -0.631   0.155  0.00  0.00    -0.094 A 
ATOM      9  C9  DEN d   1      -0.153  -1.384  -0.379  0.00  0.00    -0.072 A 
ENDROOT
TORSDOF 0
ENDMDL
