MODEL 1
REMARK minimizedAffinity -1.50727487
REMARK minimizedRMSD -1
REMARK  0 active torsions:
REMARK  status: ('A' for Active; 'I' for Inactive)
ROOT
ATOM      1  C1  BNZ d   1       2.160  -1.838  -0.572  0.00  0.00     0.000 A 
ATOM      2  C2  BNZ d   1       0.831  -2.168  -0.588  0.00  0.00     0.000 A 
ATOM      3  C3  BNZ d   1      -0.124  -1.242  -0.271  0.00  0.00     0.000 A 
ATOM      4  C4  BNZ d   1       0.253  -0.001   0.099  0.00  0.00     0.000 A 
ATOM      5  C5  BNZ d   1       1.590   0.344   0.129  0.00  0.00     0.000 A 
ATOM      6  C6  BNZ d   1       2.546  -0.579  -0.228  0.00  0.00     0.000 A 
ENDROOT
TORSDOF 0
ENDMDL
