MODEL 1
REMARK minimizedAffinity -2.34212661
REMARK minimizedRMSD -1
REMARK  0 active torsions:
REMARK  status: ('A' for Active; 'I' for Inactive)
ROOT
ATOM      1  C1  BNZ d   1       2.242   0.541  -0.130  0.00  0.00     0.000 A 
ATOM      2  C2  BNZ d   1       0.890   0.759  -0.172  0.00  0.00     0.000 A 
ATOM      3  C3  BNZ d   1       0.018  -0.282  -0.322  0.00  0.00     0.000 A 
ATOM      4  C4  BNZ d   1       0.498  -1.534  -0.469  0.00  0.00     0.000 A 
ATOM      5  C5  BNZ d   1       1.859  -1.769  -0.438  0.00  0.00     0.000 A 
ATOM      6  C6  BNZ d   1       2.732  -0.723  -0.248  0.00  0.00     0.000 A 
ENDROOT
TORSDOF 0
ENDMDL
