MODEL 1
REMARK minimizedAffinity -2.71507621
REMARK minimizedRMSD -1
REMARK  0 active torsions:
REMARK  status: ('A' for Active; 'I' for Inactive)
ROOT
ATOM      1  C1  BNZ d   1      -0.447  -1.663  -0.847  0.00  0.00     0.000 A 
ATOM      2  C2  BNZ d   1      -1.063  -0.446  -0.726  0.00  0.00     0.000 A 
ATOM      3  C3  BNZ d   1      -0.353   0.664  -0.361  0.00  0.00     0.000 A 
ATOM      4  C4  BNZ d   1       0.960   0.548  -0.079  0.00  0.00     0.000 A 
ATOM      5  C5  BNZ d   1       1.593  -0.674  -0.188  0.00  0.00     0.000 A 
ATOM      6  C6  BNZ d   1       0.884  -1.782  -0.593  0.00  0.00     0.000 A 
ENDROOT
TORSDOF 0
ENDMDL
