MODEL 1
REMARK minimizedAffinity 10.9092321
REMARK minimizedRMSD -1
REMARK  0 active torsions:
REMARK  status: ('A' for Active; 'I' for Inactive)
ROOT
ATOM      1  C2' OXE d   1       0.376   5.083   1.372  0.00  0.00     0.078 C 
ATOM      2  C1' OXE d   1       0.344   3.717   3.824  0.00  0.00     0.078 C 
ATOM      3  C1  OXE d   1       1.639   4.358   3.393  0.00  0.00    -0.078 A 
ATOM      4  C2  OXE d   1       1.658   4.985   2.170  0.00  0.00    -0.078 A 
ATOM      5  C3  OXE d   1       2.812   5.641   1.749  0.00  0.00     0.003 A 
ATOM      6  C4  OXE d   1       3.996   5.537   2.488  0.00  0.00    -0.002 A 
ATOM      7  C5  OXE d   1       4.009   4.869   3.718  0.00  0.00    -0.002 A 
ATOM      8  C6  OXE d   1       2.831   4.312   4.203  0.00  0.00     0.003 A 
ENDROOT
TORSDOF 0
ENDMDL
