MODEL 1
REMARK minimizedAffinity 4.5879302
REMARK minimizedRMSD -1
REMARK  0 active torsions:
REMARK  status: ('A' for Active; 'I' for Inactive)
ROOT
ATOM      1  C2' OXE d   1       5.541   2.341  -2.178  0.00  0.00     0.078 C 
ATOM      2  C1' OXE d   1       5.318   2.260   0.619  0.00  0.00     0.078 C 
ATOM      3  C1  OXE d   1       4.364   1.414  -0.188  0.00  0.00    -0.078 A 
ATOM      4  C2  OXE d   1       4.450   1.496  -1.557  0.00  0.00    -0.078 A 
ATOM      5  C3  OXE d   1       3.631   0.696  -2.348  0.00  0.00     0.003 A 
ATOM      6  C4  OXE d   1       2.618  -0.075  -1.765  0.00  0.00    -0.002 A 
ATOM      7  C5  OXE d   1       2.487  -0.142  -0.374  0.00  0.00    -0.002 A 
ATOM      8  C6  OXE d   1       3.378   0.562   0.429  0.00  0.00     0.003 A 
ENDROOT
TORSDOF 0
ENDMDL
