MODEL 1
REMARK minimizedAffinity 3.2139647
REMARK minimizedRMSD -1
REMARK  0 active torsions:
REMARK  status: ('A' for Active; 'I' for Inactive)
ROOT
ATOM      1  C2' OXE d   1       3.097   1.068   1.099  0.00  0.00     0.078 C 
ATOM      2  C1' OXE d   1       1.624   0.024  -1.051  0.00  0.00     0.078 C 
ATOM      3  C1  OXE d   1       2.879   0.800  -1.368  0.00  0.00    -0.078 A 
ATOM      4  C2  OXE d   1       3.568   1.347  -0.313  0.00  0.00    -0.078 A 
ATOM      5  C3  OXE d   1       4.761   2.025  -0.546  0.00  0.00     0.003 A 
ATOM      6  C4  OXE d   1       5.183   2.287  -1.854  0.00  0.00    -0.002 A 
ATOM      7  C5  OXE d   1       4.475   1.772  -2.946  0.00  0.00    -0.002 A 
ATOM      8  C6  OXE d   1       3.346   0.992  -2.719  0.00  0.00     0.003 A 
ENDROOT
TORSDOF 0
ENDMDL
