MODEL 1
REMARK minimizedAffinity 1.70640314
REMARK minimizedRMSD -1
REMARK  0 active torsions:
REMARK  status: ('A' for Active; 'I' for Inactive)
ROOT
ATOM      1  C2' OXE d   1       5.759   2.349  -2.198  0.00  0.00     0.078 C 
ATOM      2  C1' OXE d   1       5.474   2.158   0.588  0.00  0.00     0.078 C 
ATOM      3  C1  OXE d   1       4.451   1.461  -0.273  0.00  0.00    -0.078 A 
ATOM      4  C2  OXE d   1       4.571   1.599  -1.635  0.00  0.00    -0.078 A 
ATOM      5  C3  OXE d   1       3.686   0.931  -2.477  0.00  0.00     0.003 A 
ATOM      6  C4  OXE d   1       2.584   0.248  -1.948  0.00  0.00    -0.002 A 
ATOM      7  C5  OXE d   1       2.420   0.129  -0.564  0.00  0.00    -0.002 A 
ATOM      8  C6  OXE d   1       3.366   0.692   0.285  0.00  0.00     0.003 A 
ENDROOT
TORSDOF 0
ENDMDL
