MODEL 1
REMARK minimizedAffinity 7.90288925
REMARK minimizedRMSD -1
REMARK  0 active torsions:
REMARK  status: ('A' for Active; 'I' for Inactive)
ROOT
ATOM      1  C2' OXE d   1      -0.135   3.689   0.483  0.00  0.00     0.078 C 
ATOM      2  C1' OXE d   1       2.304   2.989   1.682  0.00  0.00     0.078 C 
ATOM      3  C1  OXE d   1       1.769   2.088   0.597  0.00  0.00    -0.078 A 
ATOM      4  C2  OXE d   1       0.552   2.413   0.049  0.00  0.00    -0.078 A 
ATOM      5  C3  OXE d   1       0.038   1.646  -0.993  0.00  0.00     0.003 A 
ATOM      6  C4  OXE d   1       0.675   0.461  -1.382  0.00  0.00    -0.002 A 
ATOM      7  C5  OXE d   1       1.896   0.090  -0.809  0.00  0.00    -0.002 A 
ATOM      8  C6  OXE d   1       2.476   0.913   0.150  0.00  0.00     0.003 A 
ENDROOT
TORSDOF 0
ENDMDL
