MODEL 1
REMARK minimizedAffinity 2.31591582
REMARK minimizedRMSD -1
REMARK  0 active torsions:
REMARK  status: ('A' for Active; 'I' for Inactive)
ROOT
ATOM      1  C2' OXE d   1       3.221   0.362   1.290  0.00  0.00     0.078 C 
ATOM      2  C1' OXE d   1       1.954  -0.073  -1.177  0.00  0.00     0.078 C 
ATOM      3  C1  OXE d   1       3.215   0.754  -1.170  0.00  0.00    -0.078 A 
ATOM      4  C2  OXE d   1       3.803   1.001   0.048  0.00  0.00    -0.078 A 
ATOM      5  C3  OXE d   1       4.998   1.712   0.105  0.00  0.00     0.003 A 
ATOM      6  C4  OXE d   1       5.524   2.308  -1.048  0.00  0.00    -0.002 A 
ATOM      7  C5  OXE d   1       4.920   2.102  -2.293  0.00  0.00    -0.002 A 
ATOM      8  C6  OXE d   1       3.791   1.294  -2.377  0.00  0.00     0.003 A 
ENDROOT
TORSDOF 0
ENDMDL
