MODEL 1
REMARK minimizedAffinity 7.12050533
REMARK minimizedRMSD -1
REMARK  0 active torsions:
REMARK  status: ('A' for Active; 'I' for Inactive)
ROOT
ATOM      1  C2' OXE d   1      -1.605   0.276  -1.301  0.00  0.00     0.078 C 
ATOM      2  C1' OXE d   1       1.045   1.082  -0.847  0.00  0.00     0.078 C 
ATOM      3  C1  OXE d   1      -0.059   1.971  -0.331  0.00  0.00    -0.078 A 
ATOM      4  C2  OXE d   1      -1.352   1.593  -0.599  0.00  0.00    -0.078 A 
ATOM      5  C3  OXE d   1      -2.409   2.348  -0.099  0.00  0.00     0.003 A 
ATOM      6  C4  OXE d   1      -2.166   3.570   0.541  0.00  0.00    -0.002 A 
ATOM      7  C5  OXE d   1      -0.857   3.994   0.788  0.00  0.00    -0.002 A 
ATOM      8  C6  OXE d   1       0.206   3.187   0.397  0.00  0.00     0.003 A 
ENDROOT
TORSDOF 0
ENDMDL
