MODEL 1
REMARK minimizedAffinity -2.28169894
REMARK minimizedRMSD -1
REMARK  0 active torsions:
REMARK  status: ('A' for Active; 'I' for Inactive)
ROOT
ATOM      1  C2' OXE d   1      -3.425  -0.138  -2.607  0.00  0.00     0.078 C 
ATOM      2  C1' OXE d   1      -5.927  -0.930  -3.603  0.00  0.00     0.078 C 
ATOM      3  C1  OXE d   1      -5.278   0.287  -4.216  0.00  0.00    -0.078 A 
ATOM      4  C2  OXE d   1      -4.076   0.694  -3.690  0.00  0.00    -0.078 A 
ATOM      5  C3  OXE d   1      -3.409   1.778  -4.255  0.00  0.00     0.003 A 
ATOM      6  C4  OXE d   1      -4.023   2.548  -5.250  0.00  0.00    -0.002 A 
ATOM      7  C5  OXE d   1      -5.265   2.174  -5.772  0.00  0.00    -0.002 A 
ATOM      8  C6  OXE d   1      -5.886   1.024  -5.296  0.00  0.00     0.003 A 
ENDROOT
TORSDOF 0
ENDMDL
