MODEL 1
REMARK minimizedAffinity 4.21925402
REMARK minimizedRMSD -1
REMARK  0 active torsions:
REMARK  status: ('A' for Active; 'I' for Inactive)
ROOT
ATOM      1  C2' OXE d   1       4.191   1.548  -2.879  0.00  0.00     0.078 C 
ATOM      2  C1' OXE d   1       2.739   0.880  -0.571  0.00  0.00     0.078 C 
ATOM      3  C1  OXE d   1       2.618  -0.031  -1.766  0.00  0.00    -0.078 A 
ATOM      4  C2  OXE d   1       3.295   0.328  -2.907  0.00  0.00    -0.078 A 
ATOM      5  C3  OXE d   1       3.262  -0.506  -4.020  0.00  0.00     0.003 A 
ATOM      6  C4  OXE d   1       2.423  -1.627  -4.042  0.00  0.00    -0.002 A 
ATOM      7  C5  OXE d   1       1.693  -1.989  -2.904  0.00  0.00    -0.002 A 
ATOM      8  C6  OXE d   1       1.813  -1.228  -1.747  0.00  0.00     0.003 A 
ENDROOT
TORSDOF 0
ENDMDL
