MODEL 1
REMARK minimizedAffinity 6.38279104
REMARK minimizedRMSD -1
REMARK  0 active torsions:
REMARK  status: ('A' for Active; 'I' for Inactive)
ROOT
ATOM      1  C2' OXE d   1       3.436   0.226  -3.909  0.00  0.00     0.078 C 
ATOM      2  C1' OXE d   1       5.257   2.093  -2.870  0.00  0.00     0.078 C 
ATOM      3  C1  OXE d   1       4.280   1.456  -1.914  0.00  0.00    -0.078 A 
ATOM      4  C2  OXE d   1       3.362   0.578  -2.439  0.00  0.00    -0.078 A 
ATOM      5  C3  OXE d   1       2.475  -0.079  -1.592  0.00  0.00     0.003 A 
ATOM      6  C4  OXE d   1       2.406   0.260  -0.235  0.00  0.00    -0.002 A 
ATOM      7  C5  OXE d   1       3.306   1.180   0.313  0.00  0.00    -0.002 A 
ATOM      8  C6  OXE d   1       4.275   1.754  -0.503  0.00  0.00     0.003 A 
ENDROOT
TORSDOF 0
ENDMDL
