MODEL 1
REMARK minimizedAffinity 12.3873672
REMARK minimizedRMSD -1
REMARK  0 active torsions:
REMARK  status: ('A' for Active; 'I' for Inactive)
ROOT
ATOM      1  C2' OXE d   1      -1.254   2.165  -0.668  0.00  0.00     0.078 C 
ATOM      2  C1' OXE d   1      -2.676   4.581  -0.517  0.00  0.00     0.078 C 
ATOM      3  C1  OXE d   1      -1.475   4.415   0.380  0.00  0.00    -0.078 A 
ATOM      4  C2  OXE d   1      -0.813   3.212   0.333  0.00  0.00    -0.078 A 
ATOM      5  C3  OXE d   1       0.334   3.026   1.099  0.00  0.00     0.003 A 
ATOM      6  C4  OXE d   1       0.730   3.995   2.030  0.00  0.00    -0.002 A 
ATOM      7  C5  OXE d   1       0.046   5.212   2.122  0.00  0.00    -0.002 A 
ATOM      8  C6  OXE d   1      -1.030   5.454   1.275  0.00  0.00     0.003 A 
ENDROOT
TORSDOF 0
ENDMDL
