MODEL 1
REMARK minimizedAffinity 3.86114407
REMARK minimizedRMSD -1
REMARK  0 active torsions:
REMARK  status: ('A' for Active; 'I' for Inactive)
ROOT
ATOM      1  C2' OXE d   1      -1.961   3.249   0.050  0.00  0.00     0.078 C 
ATOM      2  C1' OXE d   1      -0.293   3.704   2.261  0.00  0.00     0.078 C 
ATOM      3  C1  OXE d   1       0.190   2.746   1.201  0.00  0.00    -0.078 A 
ATOM      4  C2  OXE d   1      -0.653   2.494   0.145  0.00  0.00    -0.078 A 
ATOM      5  C3  OXE d   1      -0.234   1.661  -0.888  0.00  0.00     0.003 A 
ATOM      6  C4  OXE d   1       0.973   0.958  -0.787  0.00  0.00    -0.002 A 
ATOM      7  C5  OXE d   1       1.829   1.170   0.299  0.00  0.00    -0.002 A 
ATOM      8  C6  OXE d   1       1.472   2.090   1.278  0.00  0.00     0.003 A 
ENDROOT
TORSDOF 0
ENDMDL
