MODEL 1
REMARK minimizedAffinity 14.5907497
REMARK minimizedRMSD -1
REMARK  0 active torsions:
REMARK  status: ('A' for Active; 'I' for Inactive)
ROOT
ATOM      1  C2' OXE d   1       2.166   0.761   4.793  0.00  0.00     0.078 C 
ATOM      2  C1' OXE d   1       3.274  -0.057   2.347  0.00  0.00     0.078 C 
ATOM      3  C1  OXE d   1       4.006  -0.432   3.611  0.00  0.00    -0.078 A 
ATOM      4  C2  OXE d   1       3.482   0.013   4.801  0.00  0.00    -0.078 A 
ATOM      5  C3  OXE d   1       4.088  -0.351   6.000  0.00  0.00     0.003 A 
ATOM      6  C4  OXE d   1       5.310  -1.035   5.997  0.00  0.00    -0.002 A 
ATOM      7  C5  OXE d   1       5.882  -1.462   4.794  0.00  0.00    -0.002 A 
ATOM      8  C6  OXE d   1       5.222  -1.206   3.597  0.00  0.00     0.003 A 
ENDROOT
TORSDOF 0
ENDMDL
