MODEL 1
REMARK minimizedAffinity -3.16790891
REMARK minimizedRMSD -1
REMARK  0 active torsions:
REMARK  status: ('A' for Active; 'I' for Inactive)
ROOT
ATOM      1  C   UNL d   1       1.283   0.674   0.872  0.00  0.00     0.020 A 
ATOM      2  C1  UNL d   1       2.396   0.571   0.039  0.00  0.00     0.020 A 
ATOM      3  C2  UNL d   1       2.382  -0.319  -1.038  0.00  0.00     0.034 A 
ATOM      4  C3  UNL d   1       1.253  -1.108  -1.285  0.00  0.00     0.017 A 
ATOM      5  C4  UNL d   1       0.136  -1.003  -0.448  0.00  0.00     0.017 A 
ATOM      6  C5  UNL d   1       0.155  -0.111   0.628  0.00  0.00     0.034 A 
ATOM      7 Cl   UNL d   1      -1.294  -1.943  -0.689  0.00  0.00    -0.070 Cl
ATOM      8 Cl1  UNL d   1       1.305  -2.186  -2.634  0.00  0.00    -0.070 Cl
ENDROOT
TORSDOF 0
ENDMDL
