MODEL 1
REMARK minimizedAffinity -4.53384924
REMARK minimizedRMSD -1
REMARK  0 active torsions:
REMARK  status: ('A' for Active; 'I' for Inactive)
ROOT
ATOM      1  C   UNL d   1       2.648   0.078  -1.952  0.00  0.00     0.020 A 
ATOM      2  C1  UNL d   1       2.285  -1.124  -1.345  0.00  0.00     0.020 A 
ATOM      3  C2  UNL d   1       1.031  -1.252  -0.745  0.00  0.00     0.034 A 
ATOM      4  C3  UNL d   1       0.135  -0.177  -0.750  0.00  0.00     0.017 A 
ATOM      5  C4  UNL d   1       0.500   1.029  -1.359  0.00  0.00     0.017 A 
ATOM      6  C5  UNL d   1       1.757   1.152  -1.958  0.00  0.00     0.034 A 
ATOM      7 Cl   UNL d   1      -0.552   2.400  -1.405  0.00  0.00    -0.070 Cl
ATOM      8 Cl1  UNL d   1      -1.400  -0.407   0.011  0.00  0.00    -0.070 Cl
ENDROOT
TORSDOF 0
ENDMDL
