MODEL 1
REMARK minimizedAffinity -2.80100346
REMARK minimizedRMSD -1
REMARK  0 active torsions:
REMARK  status: ('A' for Active; 'I' for Inactive)
ROOT
ATOM      1  C   UNL d   1       1.833   1.237  -0.098  0.00  0.00     0.020 A 
ATOM      2  C1  UNL d   1       0.635   1.175   0.613  0.00  0.00     0.020 A 
ATOM      3  C2  UNL d   1      -0.186   0.051   0.500  0.00  0.00     0.034 A 
ATOM      4  C3  UNL d   1       0.189  -1.014  -0.326  0.00  0.00     0.017 A 
ATOM      5  C4  UNL d   1       1.391  -0.951  -1.040  0.00  0.00     0.017 A 
ATOM      6  C5  UNL d   1       2.210   0.177  -0.922  0.00  0.00     0.034 A 
ATOM      7 Cl   UNL d   1       1.921  -2.226  -2.079  0.00  0.00    -0.070 Cl
ATOM      8 Cl1  UNL d   1      -0.875  -2.373  -0.419  0.00  0.00    -0.070 Cl
ENDROOT
TORSDOF 0
ENDMDL
