MODEL 1
REMARK minimizedAffinity -3.26714635
REMARK minimizedRMSD -1
REMARK  0 active torsions:
REMARK  status: ('A' for Active; 'I' for Inactive)
ROOT
ATOM      1  C   UNL d   1       2.576  -0.901  -0.982  0.00  0.00     0.020 A 
ATOM      2  C1  UNL d   1       1.795  -1.760  -0.209  0.00  0.00     0.020 A 
ATOM      3  C2  UNL d   1       0.564  -1.326   0.289  0.00  0.00     0.034 A 
ATOM      4  C3  UNL d   1       0.112  -0.030   0.015  0.00  0.00     0.017 A 
ATOM      5  C4  UNL d   1       0.896   0.831  -0.761  0.00  0.00     0.017 A 
ATOM      6  C5  UNL d   1       2.127   0.391  -1.257  0.00  0.00     0.034 A 
ATOM      7 Cl   UNL d   1       0.405   2.443  -1.141  0.00  0.00    -0.070 Cl
ATOM      8 Cl1  UNL d   1      -1.420   0.440   0.663  0.00  0.00    -0.070 Cl
ENDROOT
TORSDOF 0
ENDMDL
