MODEL 1
REMARK minimizedAffinity -3.81613207
REMARK minimizedRMSD -1
REMARK  0 active torsions:
REMARK  status: ('A' for Active; 'I' for Inactive)
ROOT
ATOM      1  C   UNL d   1      -1.488   0.798  -0.432  0.00  0.00     0.020 A 
ATOM      2  C1  UNL d   1      -0.486   1.566  -1.026  0.00  0.00     0.020 A 
ATOM      3  C2  UNL d   1       0.781   1.018  -1.238  0.00  0.00     0.034 A 
ATOM      4  C3  UNL d   1       1.050  -0.301  -0.855  0.00  0.00     0.017 A 
ATOM      5  C4  UNL d   1       0.044  -1.071  -0.259  0.00  0.00     0.017 A 
ATOM      6  C5  UNL d   1      -1.223  -0.517  -0.049  0.00  0.00     0.034 A 
ATOM      7 Cl   UNL d   1       0.301  -2.706   0.240  0.00  0.00    -0.070 Cl
ATOM      8 Cl1  UNL d   1       2.638  -0.914  -1.147  0.00  0.00    -0.070 Cl
ENDROOT
TORSDOF 0
ENDMDL
