MODEL 1
REMARK minimizedAffinity -1.96120691
REMARK minimizedRMSD -1
REMARK  0 active torsions:
REMARK  status: ('A' for Active; 'I' for Inactive)
ROOT
ATOM      1  C   UNL d   1      -5.285   5.342   4.928  0.00  0.00     0.020 A 
ATOM      2  C1  UNL d   1      -4.598   4.773   6.000  0.00  0.00     0.020 A 
ATOM      3  C2  UNL d   1      -3.400   4.091   5.778  0.00  0.00     0.034 A 
ATOM      4  C3  UNL d   1      -2.884   3.978   4.482  0.00  0.00     0.017 A 
ATOM      5  C4  UNL d   1      -3.574   4.550   3.407  0.00  0.00     0.017 A 
ATOM      6  C5  UNL d   1      -4.774   5.231   3.635  0.00  0.00     0.034 A 
ATOM      7 Cl   UNL d   1      -3.000   4.451   1.779  0.00  0.00    -0.070 Cl
ATOM      8 Cl1  UNL d   1      -1.397   3.121   4.281  0.00  0.00    -0.070 Cl
ENDROOT
TORSDOF 0
ENDMDL
