MODEL 1
REMARK minimizedAffinity -4.11727142
REMARK minimizedRMSD -1
REMARK  0 active torsions:
REMARK  status: ('A' for Active; 'I' for Inactive)
ROOT
ATOM      1  C   UNL d   1      -1.251  -0.000   0.375  0.00  0.00     0.020 A 
ATOM      2  C1  UNL d   1      -0.562  -1.208   0.470  0.00  0.00     0.020 A 
ATOM      3  C2  UNL d   1       0.750  -1.303   0.000  0.00  0.00     0.034 A 
ATOM      4  C3  UNL d   1       1.377  -0.187  -0.566  0.00  0.00     0.017 A 
ATOM      5  C4  UNL d   1       0.684   1.026  -0.660  0.00  0.00     0.017 A 
ATOM      6  C5  UNL d   1      -0.629   1.115  -0.189  0.00  0.00     0.034 A 
ATOM      7 Cl   UNL d   1       1.391   2.446  -1.346  0.00  0.00    -0.070 Cl
ATOM      8 Cl1  UNL d   1       3.000  -0.375  -1.125  0.00  0.00    -0.070 Cl
ENDROOT
TORSDOF 0
ENDMDL
