MODEL 1
REMARK minimizedAffinity -4.8531642
REMARK minimizedRMSD -1
REMARK  0 active torsions:
REMARK  status: ('A' for Active; 'I' for Inactive)
ROOT
ATOM      1  C   UNL d   1       2.637   0.705  -1.810  0.00  0.00     0.020 A 
ATOM      2  C1  UNL d   1       2.682  -0.166  -0.722  0.00  0.00     0.020 A 
ATOM      3  C2  UNL d   1       1.613  -0.218   0.175  0.00  0.00     0.034 A 
ATOM      4  C3  UNL d   1       0.495   0.602  -0.014  0.00  0.00     0.017 A 
ATOM      5  C4  UNL d   1       0.451   1.476  -1.107  0.00  0.00     0.017 A 
ATOM      6  C5  UNL d   1       1.524   1.524  -2.002  0.00  0.00     0.034 A 
ATOM      7 Cl   UNL d   1      -0.895   2.518  -1.407  0.00  0.00    -0.070 Cl
ATOM      8 Cl1  UNL d   1      -0.791   0.486   1.134  0.00  0.00    -0.070 Cl
ENDROOT
TORSDOF 0
ENDMDL
