MODEL 1
REMARK minimizedAffinity -2.92686129
REMARK minimizedRMSD -1
REMARK  0 active torsions:
REMARK  status: ('A' for Active; 'I' for Inactive)
ROOT
ATOM      1  C   UNL d   1       2.181  -0.516  -1.462  0.00  0.00     0.020 A 
ATOM      2  C1  UNL d   1       1.817   0.796  -1.162  0.00  0.00     0.020 A 
ATOM      3  C2  UNL d   1       0.624   1.052  -0.482  0.00  0.00     0.034 A 
ATOM      4  C3  UNL d   1      -0.209  -0.007  -0.100  0.00  0.00     0.017 A 
ATOM      5  C4  UNL d   1       0.158  -1.323  -0.402  0.00  0.00     0.017 A 
ATOM      6  C5  UNL d   1       1.353  -1.573  -1.083  0.00  0.00     0.034 A 
ATOM      7 Cl   UNL d   1      -0.818  -2.681   0.037  0.00  0.00    -0.070 Cl
ATOM      8 Cl1  UNL d   1      -1.669   0.382   0.738  0.00  0.00    -0.070 Cl
ENDROOT
TORSDOF 0
ENDMDL
