MODEL 1
REMARK minimizedAffinity -3.69546103
REMARK minimizedRMSD -1
REMARK  0 active torsions:
REMARK  status: ('A' for Active; 'I' for Inactive)
ROOT
ATOM      1  C   UNL d   1      -1.744   0.100  -0.629  0.00  0.00     0.020 A 
ATOM      2  C1  UNL d   1      -1.167  -1.163  -0.505  0.00  0.00     0.020 A 
ATOM      3  C2  UNL d   1       0.207  -1.326  -0.697  0.00  0.00     0.034 A 
ATOM      4  C3  UNL d   1       1.008  -0.223  -1.015  0.00  0.00     0.017 A 
ATOM      5  C4  UNL d   1       0.429   1.045  -1.139  0.00  0.00     0.017 A 
ATOM      6  C5  UNL d   1      -0.947   1.202  -0.945  0.00  0.00     0.034 A 
ATOM      7 Cl   UNL d   1       1.353   2.452  -1.528  0.00  0.00    -0.070 Cl
ATOM      8 Cl1  UNL d   1       2.699  -0.497  -1.238  0.00  0.00    -0.070 Cl
ENDROOT
TORSDOF 0
ENDMDL
