MODEL 1
REMARK minimizedAffinity -2.75863695
REMARK minimizedRMSD -1
REMARK  0 active torsions:
REMARK  status: ('A' for Active; 'I' for Inactive)
ROOT
ATOM      1  C   UNL d   1       2.701  -0.639  -1.257  0.00  0.00     0.020 A 
ATOM      2  C1  UNL d   1       2.448   0.620  -0.713  0.00  0.00     0.020 A 
ATOM      3  C2  UNL d   1       1.209   0.891  -0.128  0.00  0.00     0.034 A 
ATOM      4  C3  UNL d   1       0.219  -0.098  -0.085  0.00  0.00     0.017 A 
ATOM      5  C4  UNL d   1       0.475  -1.361  -0.631  0.00  0.00     0.017 A 
ATOM      6  C5  UNL d   1       1.717  -1.627  -1.216  0.00  0.00     0.034 A 
ATOM      7 Cl   UNL d   1      -0.697  -2.631  -0.616  0.00  0.00    -0.070 Cl
ATOM      8 Cl1  UNL d   1      -1.289   0.307   0.654  0.00  0.00    -0.070 Cl
ENDROOT
TORSDOF 0
ENDMDL
