MODEL 1
REMARK minimizedAffinity -4.34541416
REMARK minimizedRMSD -1
REMARK  0 active torsions:
REMARK  status: ('A' for Active; 'I' for Inactive)
ROOT
ATOM      1  C   UNL d   1       2.216  -1.077  -1.483  0.00  0.00     0.020 A 
ATOM      2  C1  UNL d   1       2.058   0.220  -0.997  0.00  0.00     0.020 A 
ATOM      3  C2  UNL d   1       0.886   0.577  -0.327  0.00  0.00     0.034 A 
ATOM      4  C3  UNL d   1      -0.133  -0.365  -0.141  0.00  0.00     0.017 A 
ATOM      5  C4  UNL d   1       0.027  -1.667  -0.629  0.00  0.00     0.017 A 
ATOM      6  C5  UNL d   1       1.203  -2.019  -1.299  0.00  0.00     0.034 A 
ATOM      7 Cl   UNL d   1      -1.186  -2.884  -0.438  0.00  0.00    -0.070 Cl
ATOM      8 Cl1  UNL d   1      -1.555   0.145   0.697  0.00  0.00    -0.070 Cl
ENDROOT
TORSDOF 0
ENDMDL
