MODEL 1
REMARK minimizedAffinity 0.35631308
REMARK minimizedRMSD -1
REMARK  0 active torsions:
REMARK  status: ('A' for Active; 'I' for Inactive)
ROOT
ATOM      1  C   UNL d   1      -1.145  -0.127  -0.005  0.00  0.00     0.020 A 
ATOM      2  C1  UNL d   1      -0.476   1.017   0.429  0.00  0.00     0.020 A 
ATOM      3  C2  UNL d   1      -0.739   1.541   1.696  0.00  0.00     0.034 A 
ATOM      4  C3  UNL d   1      -1.674   0.922   2.534  0.00  0.00     0.017 A 
ATOM      5  C4  UNL d   1      -2.345  -0.226   2.098  0.00  0.00     0.017 A 
ATOM      6  C5  UNL d   1      -2.077  -0.747   0.828  0.00  0.00     0.034 A 
ATOM      7 Cl   UNL d   1      -3.511  -1.046   3.076  0.00  0.00    -0.070 Cl
ATOM      8 Cl1  UNL d   1      -1.949   1.625   4.088  0.00  0.00    -0.070 Cl
ENDROOT
TORSDOF 0
ENDMDL
