MODEL 1
REMARK minimizedAffinity -1.64244068
REMARK minimizedRMSD -1
REMARK  0 active torsions:
REMARK  status: ('A' for Active; 'I' for Inactive)
ROOT
ATOM      1  C   UNL d   1       0.499   1.376  -1.361  0.00  0.00     0.020 A 
ATOM      2  C1  UNL d   1      -0.668   2.127  -1.225  0.00  0.00     0.020 A 
ATOM      3  C2  UNL d   1      -1.636   1.751  -0.291  0.00  0.00     0.034 A 
ATOM      4  C3  UNL d   1      -1.438   0.621   0.511  0.00  0.00     0.017 A 
ATOM      5  C4  UNL d   1      -0.266  -0.132   0.373  0.00  0.00     0.017 A 
ATOM      6  C5  UNL d   1       0.699   0.249  -0.564  0.00  0.00     0.034 A 
ATOM      7 Cl   UNL d   1       0.049  -1.539   1.327  0.00  0.00    -0.070 Cl
ATOM      8 Cl1  UNL d   1      -2.676   0.214   1.645  0.00  0.00    -0.070 Cl
ENDROOT
TORSDOF 0
ENDMDL
