MODEL 1
REMARK minimizedAffinity -3.30280447
REMARK minimizedRMSD -1
REMARK  0 active torsions:
REMARK  status: ('A' for Active; 'I' for Inactive)
ROOT
ATOM      1  C   UNL d   1       2.339   0.760  -1.318  0.00  0.00     0.020 A 
ATOM      2  C1  UNL d   1       2.779  -0.562  -1.371  0.00  0.00     0.020 A 
ATOM      3  C2  UNL d   1       1.968  -1.588  -0.880  0.00  0.00     0.034 A 
ATOM      4  C3  UNL d   1       0.714  -1.293  -0.333  0.00  0.00     0.017 A 
ATOM      5  C4  UNL d   1       0.273   0.035  -0.280  0.00  0.00     0.017 A 
ATOM      6  C5  UNL d   1       1.089   1.058  -0.774  0.00  0.00     0.034 A 
ATOM      7 Cl   UNL d   1      -1.262   0.477   0.379  0.00  0.00    -0.070 Cl
ATOM      8 Cl1  UNL d   1      -0.237  -2.610   0.255  0.00  0.00    -0.070 Cl
ENDROOT
TORSDOF 0
ENDMDL
