MODEL 1
REMARK minimizedAffinity -3.80055404
REMARK minimizedRMSD -1
REMARK  0 active torsions:
REMARK  status: ('A' for Active; 'I' for Inactive)
ROOT
ATOM      1  C   UNL d   1      -0.115   1.663  -1.180  0.00  0.00     0.020 A 
ATOM      2  C1  UNL d   1       0.997   0.826  -1.264  0.00  0.00     0.020 A 
ATOM      3  C2  UNL d   1       1.085  -0.302  -0.445  0.00  0.00     0.034 A 
ATOM      4  C3  UNL d   1       0.059  -0.595   0.461  0.00  0.00     0.017 A 
ATOM      5  C4  UNL d   1      -1.057   0.246   0.544  0.00  0.00     0.017 A 
ATOM      6  C5  UNL d   1      -1.139   1.374  -0.278  0.00  0.00     0.034 A 
ATOM      7 Cl   UNL d   1      -2.362  -0.051   1.638  0.00  0.00    -0.070 Cl
ATOM      8 Cl1  UNL d   1       0.233  -2.007   1.443  0.00  0.00    -0.070 Cl
ENDROOT
TORSDOF 0
ENDMDL
