MODEL 1
REMARK minimizedAffinity 3.47501564
REMARK minimizedRMSD -1
REMARK  1 active torsions:
REMARK  status: ('A' for Active; 'I' for Inactive)
REMARK    1  A    between atoms: C1_2  and  C2_3 
ROOT
ATOM      1  C2  UNL d   1       0.945  -1.634   1.553  0.00  0.00    -0.073 A 
ATOM      2  C3  UNL d   1      -0.038  -2.587   1.263  0.00  0.00    -0.002 A 
ATOM      3  C4  UNL d   1       0.260  -3.682   0.450  0.00  0.00     0.004 A 
ATOM      4  C5  UNL d   1       1.543  -3.838  -0.075  0.00  0.00    -0.004 A 
ATOM      5  C6  UNL d   1       2.542  -2.902   0.213  0.00  0.00    -0.075 A 
ATOM      6  C7  UNL d   1       3.926  -3.054  -0.345  0.00  0.00     0.076 C 
ATOM      7  C8  UNL d   1       2.234  -1.804   1.028  0.00  0.00     0.001 A 
ENDROOT
BRANCH   1   8
ATOM      8  C1  UNL d   1       0.630  -0.454   2.436  0.00  0.00     0.053 C 
ATOM      9  C   UNL d   1       0.913  -0.746   3.901  0.00  0.00     0.018 C 
ENDBRANCH   1   8
TORSDOF 1
ENDMDL
