MODEL 1
REMARK minimizedAffinity -1.99430776
REMARK minimizedRMSD -1
REMARK  1 active torsions:
REMARK  status: ('A' for Active; 'I' for Inactive)
REMARK    1  A    between atoms: C1_2  and  C2_3 
ROOT
ATOM      1  C2  UNL d   1       1.370  -2.786   0.088  0.00  0.00    -0.073 A 
ATOM      2  C3  UNL d   1       2.400  -1.932   0.497  0.00  0.00    -0.002 A 
ATOM      3  C4  UNL d   1       2.115  -0.626   0.897  0.00  0.00     0.004 A 
ATOM      4  C5  UNL d   1       0.799  -0.163   0.900  0.00  0.00    -0.004 A 
ATOM      5  C6  UNL d   1      -0.245  -1.006   0.506  0.00  0.00    -0.075 A 
ATOM      6  C7  UNL d   1      -1.666  -0.523   0.500  0.00  0.00     0.076 C 
ATOM      7  C8  UNL d   1       0.049  -2.315   0.102  0.00  0.00     0.001 A 
ENDROOT
BRANCH   1   8
ATOM      8  C1  UNL d   1       1.672  -4.200  -0.339  0.00  0.00     0.053 C 
ATOM      9  C   UNL d   1       3.071  -4.632   0.069  0.00  0.00     0.018 C 
ENDBRANCH   1   8
TORSDOF 1
ENDMDL
