MODEL 1
REMARK minimizedAffinity 4.32564211
REMARK minimizedRMSD -1
REMARK  1 active torsions:
REMARK  status: ('A' for Active; 'I' for Inactive)
REMARK    1  A    between atoms: C1_2  and  C2_3 
ROOT
ATOM      1  C2  UNL d   1       3.621  -4.507   0.236  0.00  0.00    -0.073 A 
ATOM      2  C3  UNL d   1       4.441  -3.384   0.395  0.00  0.00    -0.002 A 
ATOM      3  C4  UNL d   1       3.882  -2.107   0.463  0.00  0.00     0.004 A 
ATOM      4  C5  UNL d   1       2.500  -1.940   0.379  0.00  0.00    -0.004 A 
ATOM      5  C6  UNL d   1       1.663  -3.051   0.232  0.00  0.00    -0.075 A 
ATOM      6  C7  UNL d   1       0.174  -2.888   0.138  0.00  0.00     0.076 C 
ATOM      7  C8  UNL d   1       2.232  -4.330   0.162  0.00  0.00     0.001 A 
ENDROOT
BRANCH   1   8
ATOM      8  C1  UNL d   1       4.219  -5.888   0.168  0.00  0.00     0.053 C 
ATOM      9  C   UNL d   1       5.506  -5.991   0.971  0.00  0.00     0.018 C 
ENDBRANCH   1   8
TORSDOF 1
ENDMDL
