MODEL 1
REMARK minimizedAffinity -0.875093758
REMARK minimizedRMSD -1
REMARK  1 active torsions:
REMARK  status: ('A' for Active; 'I' for Inactive)
REMARK    1  A    between atoms: C1_2  and  C2_3 
ROOT
ATOM      1  C2  UNL d   1       1.269  -2.831   0.480  0.00  0.00    -0.073 A 
ATOM      2  C3  UNL d   1       2.348  -1.945   0.577  0.00  0.00    -0.002 A 
ATOM      3  C4  UNL d   1       2.124  -0.581   0.764  0.00  0.00     0.004 A 
ATOM      4  C5  UNL d   1       0.823  -0.089   0.864  0.00  0.00    -0.004 A 
ATOM      5  C6  UNL d   1      -0.268  -0.961   0.782  0.00  0.00    -0.075 A 
ATOM      6  C7  UNL d   1      -1.675  -0.448   0.885  0.00  0.00     0.076 C 
ATOM      7  C8  UNL d   1      -0.036  -2.329   0.590  0.00  0.00     0.001 A 
ENDROOT
BRANCH   1   8
ATOM      8  C1  UNL d   1       1.505  -4.306   0.283  0.00  0.00     0.053 C 
ATOM      9  C   UNL d   1       2.978  -4.627   0.086  0.00  0.00     0.018 C 
ENDBRANCH   1   8
TORSDOF 1
ENDMDL
