MODEL 1
REMARK minimizedAffinity 1.25437379
REMARK minimizedRMSD -1
REMARK  1 active torsions:
REMARK  status: ('A' for Active; 'I' for Inactive)
REMARK    1  A    between atoms: C1_2  and  C2_3 
ROOT
ATOM      1  C2  UNL d   1       3.597  -4.618  -0.008  0.00  0.00    -0.073 A 
ATOM      2  C3  UNL d   1       4.379  -3.487  -0.270  0.00  0.00    -0.002 A 
ATOM      3  C4  UNL d   1       3.809  -2.214  -0.239  0.00  0.00     0.004 A 
ATOM      4  C5  UNL d   1       2.456  -2.058   0.060  0.00  0.00    -0.004 A 
ATOM      5  C6  UNL d   1       1.661  -3.175   0.336  0.00  0.00    -0.075 A 
ATOM      6  C7  UNL d   1       0.203  -3.024   0.658  0.00  0.00     0.076 C 
ATOM      7  C8  UNL d   1       2.240  -4.450   0.301  0.00  0.00     0.001 A 
ENDROOT
BRANCH   1   8
ATOM      8  C1  UNL d   1       4.210  -5.995  -0.034  0.00  0.00     0.053 C 
ATOM      9  C   UNL d   1       5.661  -5.981   0.418  0.00  0.00     0.018 C 
ENDBRANCH   1   8
TORSDOF 1
ENDMDL
