MODEL 1
REMARK minimizedAffinity -5.0913434
REMARK minimizedRMSD -1
REMARK  1 active torsions:
REMARK  status: ('A' for Active; 'I' for Inactive)
REMARK    1  A    between atoms: C1_2  and  C2_3 
ROOT
ATOM      1  C2  UNL d   1       1.104  -3.373   0.076  0.00  0.00    -0.073 A 
ATOM      2  C3  UNL d   1      -0.241  -3.566  -0.256  0.00  0.00    -0.002 A 
ATOM      3  C4  UNL d   1      -1.144  -2.504  -0.184  0.00  0.00     0.004 A 
ATOM      4  C5  UNL d   1      -0.710  -1.239   0.214  0.00  0.00    -0.004 A 
ATOM      5  C6  UNL d   1       0.633  -1.024   0.538  0.00  0.00    -0.075 A 
ATOM      6  C7  UNL d   1       1.115   0.329   0.970  0.00  0.00     0.076 C 
ATOM      7  C8  UNL d   1       1.533  -2.096   0.466  0.00  0.00     0.001 A 
ENDROOT
BRANCH   1   8
ATOM      8  C1  UNL d   1       2.084  -4.515  -0.007  0.00  0.00     0.053 C 
ATOM      9  C   UNL d   1       3.497  -4.034  -0.299  0.00  0.00     0.018 C 
ENDBRANCH   1   8
TORSDOF 1
ENDMDL
