MODEL 1
REMARK minimizedAffinity -1.18774092
REMARK minimizedRMSD -1
REMARK  1 active torsions:
REMARK  status: ('A' for Active; 'I' for Inactive)
REMARK    1  A    between atoms: C1_2  and  C2_3 
ROOT
ATOM      1  C2  UNL d   1       0.838  -2.237   0.416  0.00  0.00    -0.073 A 
ATOM      2  C3  UNL d   1       1.614  -1.079   0.544  0.00  0.00    -0.002 A 
ATOM      3  C4  UNL d   1       3.007  -1.156   0.494  0.00  0.00     0.004 A 
ATOM      4  C5  UNL d   1       3.636  -2.387   0.309  0.00  0.00    -0.004 A 
ATOM      5  C6  UNL d   1       2.877  -3.553   0.167  0.00  0.00    -0.075 A 
ATOM      6  C7  UNL d   1       3.539  -4.885  -0.031  0.00  0.00     0.076 C 
ATOM      7  C8  UNL d   1       1.479  -3.468   0.221  0.00  0.00     0.001 A 
ENDROOT
BRANCH   1   8
ATOM      8  C1  UNL d   1      -0.666  -2.158   0.463  0.00  0.00     0.053 C 
ATOM      9  C   UNL d   1      -1.152  -0.780   0.881  0.00  0.00     0.018 C 
ENDBRANCH   1   8
TORSDOF 1
ENDMDL
