MODEL 1
REMARK minimizedAffinity 0.895580113
REMARK minimizedRMSD -1
REMARK  1 active torsions:
REMARK  status: ('A' for Active; 'I' for Inactive)
REMARK    1  A    between atoms: C1_2  and  C2_3 
ROOT
ATOM      1  C2  UNL d   1       3.459  -4.451  -0.051  0.00  0.00    -0.073 A 
ATOM      2  C3  UNL d   1       4.331  -3.357  -0.105  0.00  0.00    -0.002 A 
ATOM      3  C4  UNL d   1       3.832  -2.055  -0.042  0.00  0.00     0.004 A 
ATOM      4  C5  UNL d   1       2.461  -1.834   0.083  0.00  0.00    -0.004 A 
ATOM      5  C6  UNL d   1       1.575  -2.914   0.151  0.00  0.00    -0.075 A 
ATOM      6  C7  UNL d   1       0.097  -2.693   0.283  0.00  0.00     0.076 C 
ATOM      7  C8  UNL d   1       2.083  -4.218   0.084  0.00  0.00     0.001 A 
ENDROOT
BRANCH   1   8
ATOM      8  C1  UNL d   1       3.994  -5.858  -0.112  0.00  0.00     0.053 C 
ATOM      9  C   UNL d   1       5.394  -5.963   0.472  0.00  0.00     0.018 C 
ENDBRANCH   1   8
TORSDOF 1
ENDMDL
