MODEL 1
REMARK minimizedAffinity 7.63264418
REMARK minimizedRMSD -1
REMARK  1 active torsions:
REMARK  status: ('A' for Active; 'I' for Inactive)
REMARK    1  A    between atoms: C1_2  and  C2_3 
ROOT
ATOM      1  C2  UNL d   1      -2.306   3.082   0.860  0.00  0.00    -0.073 A 
ATOM      2  C3  UNL d   1      -1.587   2.499   1.909  0.00  0.00    -0.002 A 
ATOM      3  C4  UNL d   1      -1.706   1.133   2.172  0.00  0.00     0.004 A 
ATOM      4  C5  UNL d   1      -2.540   0.337   1.386  0.00  0.00    -0.004 A 
ATOM      5  C6  UNL d   1      -3.257   0.900   0.325  0.00  0.00    -0.075 A 
ATOM      6  C7  UNL d   1      -4.160   0.058  -0.528  0.00  0.00     0.076 C 
ATOM      7  C8  UNL d   1      -3.134   2.272   0.069  0.00  0.00     0.001 A 
ENDROOT
BRANCH   1   8
ATOM      8  C1  UNL d   1      -2.175   4.555   0.568  0.00  0.00     0.053 C 
ATOM      9  C   UNL d   1      -0.799   5.088   0.933  0.00  0.00     0.018 C 
ENDBRANCH   1   8
TORSDOF 1
ENDMDL
