MODEL 1
REMARK minimizedAffinity -4.93205452
REMARK minimizedRMSD -1
REMARK  0 active torsions:
REMARK  status: ('A' for Active; 'I' for Inactive)
ROOT
ATOM      1  O1  BZF d   1      -2.222  -0.141  -2.726  0.00  0.00    -0.204 OA
ATOM      2  C2  BZF d   1      -0.973   0.385  -2.994  0.00  0.00     0.174 A 
ATOM      3  C3  BZF d   1      -0.226   0.437  -1.872  0.00  0.00    -0.012 A 
ATOM      4  C3A BZF d   1      -1.028  -0.175  -0.857  0.00  0.00    -0.107 A 
ATOM      5  C4  BZF d   1      -0.827  -0.435   0.468  0.00  0.00     0.055 A 
ATOM      6  C5  BZF d   1      -1.838  -0.978   1.195  0.00  0.00    -0.016 A 
ATOM      7  C6  BZF d   1      -3.063  -1.270   0.631  0.00  0.00     0.022 A 
ATOM      8  C7  BZF d   1      -3.307  -1.035  -0.681  0.00  0.00     0.029 A 
ATOM      9  C7A BZF d   1      -2.277  -0.516  -1.426  0.00  0.00     0.058 A 
ENDROOT
TORSDOF 0
ENDMDL
