MODEL 1
REMARK minimizedAffinity -5.79750252
REMARK minimizedRMSD -1
REMARK  0 active torsions:
REMARK  status: ('A' for Active; 'I' for Inactive)
ROOT
ATOM      1  O1  BZF d   1       0.873  -0.988   1.180  0.00  0.00    -0.204 OA
ATOM      2  C2  BZF d   1       1.747  -0.369   0.307  0.00  0.00     0.174 A 
ATOM      3  C3  BZF d   1       1.091   0.095  -0.777  0.00  0.00    -0.012 A 
ATOM      4  C3A BZF d   1      -0.291  -0.175  -0.524  0.00  0.00    -0.107 A 
ATOM      5  C4  BZF d   1      -1.438   0.065  -1.225  0.00  0.00     0.055 A 
ATOM      6  C5  BZF d   1      -2.620  -0.390  -0.734  0.00  0.00    -0.016 A 
ATOM      7  C6  BZF d   1      -2.692  -1.093   0.451  0.00  0.00     0.022 A 
ATOM      8  C7  BZF d   1      -1.582  -1.351   1.184  0.00  0.00     0.029 A 
ATOM      9  C7A BZF d   1      -0.390  -0.864   0.707  0.00  0.00     0.058 A 
ENDROOT
TORSDOF 0
ENDMDL
