MODEL 1
REMARK minimizedAffinity -4.79885292
REMARK minimizedRMSD -1
REMARK  0 active torsions:
REMARK  status: ('A' for Active; 'I' for Inactive)
ROOT
ATOM      1  O1  BZF d   1      -0.028   0.299   1.411  0.00  0.00    -0.204 OA
ATOM      2  C2  BZF d   1       1.163   0.760   0.884  0.00  0.00     0.174 A 
ATOM      3  C3  BZF d   1       1.155   0.677  -0.462  0.00  0.00    -0.012 A 
ATOM      4  C3A BZF d   1      -0.156   0.214  -0.802  0.00  0.00    -0.107 A 
ATOM      5  C4  BZF d   1      -0.779  -0.051  -1.988  0.00  0.00     0.055 A 
ATOM      6  C5  BZF d   1      -2.039  -0.559  -1.972  0.00  0.00    -0.016 A 
ATOM      7  C6  BZF d   1      -2.703  -0.818  -0.791  0.00  0.00     0.022 A 
ATOM      8  C7  BZF d   1      -2.128  -0.566   0.410  0.00  0.00     0.029 A 
ATOM      9  C7A BZF d   1      -0.867  -0.022   0.397  0.00  0.00     0.058 A 
ENDROOT
TORSDOF 0
ENDMDL
