MODEL 1
REMARK minimizedAffinity -5.01447105
REMARK minimizedRMSD -1
REMARK  0 active torsions:
REMARK  status: ('A' for Active; 'I' for Inactive)
ROOT
ATOM      1  O1  BZF d   1       0.268  -1.306   0.723  0.00  0.00    -0.204 OA
ATOM      2  C2  BZF d   1       1.347  -0.508   0.392  0.00  0.00     0.174 A 
ATOM      3  C3  BZF d   1       0.996   0.411  -0.530  0.00  0.00    -0.012 A 
ATOM      4  C3A BZF d   1      -0.410   0.233  -0.724  0.00  0.00    -0.107 A 
ATOM      5  C4  BZF d   1      -1.337   0.861  -1.506  0.00  0.00     0.055 A 
ATOM      6  C5  BZF d   1      -2.615   0.397  -1.517  0.00  0.00    -0.016 A 
ATOM      7  C6  BZF d   1      -2.998  -0.693  -0.763  0.00  0.00     0.022 A 
ATOM      8  C7  BZF d   1      -2.115  -1.344   0.032  0.00  0.00     0.029 A 
ATOM      9  C7A BZF d   1      -0.831  -0.858   0.071  0.00  0.00     0.058 A 
ENDROOT
TORSDOF 0
ENDMDL
