MODEL 1
REMARK minimizedAffinity -0.337639779
REMARK minimizedRMSD -1
REMARK  0 active torsions:
REMARK  status: ('A' for Active; 'I' for Inactive)
ROOT
ATOM      1  O1  BZF d   1      -1.068  -0.356  -2.401  0.00  0.00    -0.204 OA
ATOM      2  C2  BZF d   1      -2.217  -1.110  -2.262  0.00  0.00     0.174 A 
ATOM      3  C3  BZF d   1      -2.300  -1.630  -1.021  0.00  0.00    -0.012 A 
ATOM      4  C3A BZF d   1      -1.177  -1.098  -0.313  0.00  0.00    -0.107 A 
ATOM      5  C4  BZF d   1      -0.723  -1.234   0.968  0.00  0.00     0.055 A 
ATOM      6  C5  BZF d   1       0.446  -0.639   1.321  0.00  0.00    -0.016 A 
ATOM      7  C6  BZF d   1       1.190   0.094   0.420  0.00  0.00     0.022 A 
ATOM      8  C7  BZF d   1       0.778   0.262  -0.861  0.00  0.00     0.029 A 
ATOM      9  C7A BZF d   1      -0.420  -0.311  -1.212  0.00  0.00     0.058 A 
ENDROOT
TORSDOF 0
ENDMDL
