MODEL 1
REMARK minimizedAffinity -4.73129416
REMARK minimizedRMSD -1
REMARK  0 active torsions:
REMARK  status: ('A' for Active; 'I' for Inactive)
ROOT
ATOM      1  O1  BZF d   1       0.322  -1.482   1.077  0.00  0.00    -0.204 OA
ATOM      2  C2  BZF d   1       1.593  -1.007   0.818  0.00  0.00     0.174 A 
ATOM      3  C3  BZF d   1       1.592  -0.201  -0.263  0.00  0.00    -0.012 A 
ATOM      4  C3A BZF d   1       0.219  -0.097  -0.653  0.00  0.00    -0.107 A 
ATOM      5  C4  BZF d   1      -0.425   0.577  -1.651  0.00  0.00     0.055 A 
ATOM      6  C5  BZF d   1      -1.765   0.409  -1.803  0.00  0.00    -0.016 A 
ATOM      7  C6  BZF d   1      -2.490  -0.428  -0.981  0.00  0.00     0.022 A 
ATOM      8  C7  BZF d   1      -1.896  -1.114   0.026  0.00  0.00     0.029 A 
ATOM      9  C7A BZF d   1      -0.548  -0.921   0.203  0.00  0.00     0.058 A 
ENDROOT
TORSDOF 0
ENDMDL
