MODEL 1
REMARK minimizedAffinity -1.68386376
REMARK minimizedRMSD -1
REMARK  0 active torsions:
REMARK  status: ('A' for Active; 'I' for Inactive)
ROOT
ATOM      1  O1  BZF d   1      -2.820  -0.749  -1.139  0.00  0.00    -0.204 OA
ATOM      2  C2  BZF d   1      -3.497  -0.834   0.062  0.00  0.00     0.174 A 
ATOM      3  C3  BZF d   1      -2.694  -0.487   1.089  0.00  0.00    -0.012 A 
ATOM      4  C3A BZF d   1      -1.465  -0.077   0.483  0.00  0.00    -0.107 A 
ATOM      5  C4  BZF d   1      -0.283   0.392   0.982  0.00  0.00     0.055 A 
ATOM      6  C5  BZF d   1       0.746   0.631   0.128  0.00  0.00    -0.016 A 
ATOM      7  C6  BZF d   1       0.631   0.408  -1.229  0.00  0.00     0.022 A 
ATOM      8  C7  BZF d   1      -0.523  -0.053  -1.771  0.00  0.00     0.029 A 
ATOM      9  C7A BZF d   1      -1.576  -0.264  -0.914  0.00  0.00     0.058 A 
ENDROOT
TORSDOF 0
ENDMDL
