MODEL 1
REMARK minimizedAffinity -4.56311512
REMARK minimizedRMSD -1
REMARK  0 active torsions:
REMARK  status: ('A' for Active; 'I' for Inactive)
ROOT
ATOM      1  O1  BZF d   1      -2.751   0.022  -1.624  0.00  0.00    -0.204 OA
ATOM      2  C2  BZF d   1      -3.398  -0.499  -0.520  0.00  0.00     0.174 A 
ATOM      3  C3  BZF d   1      -2.538  -0.665   0.505  0.00  0.00    -0.012 A 
ATOM      4  C3A BZF d   1      -1.293  -0.134   0.041  0.00  0.00    -0.107 A 
ATOM      5  C4  BZF d   1      -0.059   0.001   0.610  0.00  0.00     0.055 A 
ATOM      6  C5  BZF d   1       0.963   0.494  -0.137  0.00  0.00    -0.016 A 
ATOM      7  C6  BZF d   1       0.789   0.856  -1.457  0.00  0.00     0.022 A 
ATOM      8  C7  BZF d   1      -0.418   0.745  -2.064  0.00  0.00     0.029 A 
ATOM      9  C7A BZF d   1      -1.461   0.278  -1.302  0.00  0.00     0.058 A 
ENDROOT
TORSDOF 0
ENDMDL
