MODEL 1
REMARK minimizedAffinity -3.11003447
REMARK minimizedRMSD -1
REMARK  0 active torsions:
REMARK  status: ('A' for Active; 'I' for Inactive)
ROOT
ATOM      1  O1  BZF d   1       0.154  -0.689   0.888  0.00  0.00    -0.204 OA
ATOM      2  C2  BZF d   1       1.179   0.104   0.410  0.00  0.00     0.174 A 
ATOM      3  C3  BZF d   1       0.790   0.776  -0.692  0.00  0.00    -0.012 A 
ATOM      4  C3A BZF d   1      -0.593   0.449  -0.864  0.00  0.00    -0.107 A 
ATOM      5  C4  BZF d   1      -1.539   0.820  -1.775  0.00  0.00     0.055 A 
ATOM      6  C5  BZF d   1      -2.777   0.264  -1.706  0.00  0.00    -0.016 A 
ATOM      7  C6  BZF d   1      -3.101  -0.669  -0.742  0.00  0.00     0.022 A 
ATOM      8  C7  BZF d   1      -2.197  -1.065   0.187  0.00  0.00     0.029 A 
ATOM      9  C7A BZF d   1      -0.955  -0.480   0.139  0.00  0.00     0.058 A 
ENDROOT
TORSDOF 0
ENDMDL
