MODEL 1
REMARK minimizedAffinity -2.18606758
REMARK minimizedRMSD -1
REMARK  0 active torsions:
REMARK  status: ('A' for Active; 'I' for Inactive)
ROOT
ATOM      1  O1  BZF d   1      -2.392  -1.743   0.541  0.00  0.00    -0.204 OA
ATOM      2  C2  BZF d   1      -3.104  -1.008  -0.387  0.00  0.00     0.174 A 
ATOM      3  C3  BZF d   1      -2.317  -0.079  -0.967  0.00  0.00    -0.012 A 
ATOM      4  C3A BZF d   1      -1.010  -0.306  -0.431  0.00  0.00    -0.107 A 
ATOM      5  C4  BZF d   1       0.204   0.287  -0.634  0.00  0.00     0.055 A 
ATOM      6  C5  BZF d   1       1.271  -0.124   0.102  0.00  0.00    -0.016 A 
ATOM      7  C6  BZF d   1       1.159  -1.119   1.050  0.00  0.00     0.022 A 
ATOM      8  C7  BZF d   1      -0.023  -1.740   1.283  0.00  0.00     0.029 A 
ATOM      9  C7A BZF d   1      -1.096  -1.350   0.519  0.00  0.00     0.058 A 
ENDROOT
TORSDOF 0
ENDMDL
