MODEL 1
REMARK minimizedAffinity -2.71185184
REMARK minimizedRMSD -1
REMARK  0 active torsions:
REMARK  status: ('A' for Active; 'I' for Inactive)
ROOT
ATOM      1  O1  BZF d   1       0.280   0.354  -1.337  0.00  0.00    -0.204 OA
ATOM      2  C2  BZF d   1       1.264   0.327  -0.367  0.00  0.00     0.174 A 
ATOM      3  C3  BZF d   1       0.760  -0.078   0.816  0.00  0.00    -0.012 A 
ATOM      4  C3A BZF d   1      -0.607  -0.409   0.549  0.00  0.00    -0.107 A 
ATOM      5  C4  BZF d   1      -1.625  -0.887   1.322  0.00  0.00     0.055 A 
ATOM      6  C5  BZF d   1      -2.860  -1.033   0.773  0.00  0.00    -0.016 A 
ATOM      7  C6  BZF d   1      -3.111  -0.706  -0.544  0.00  0.00     0.022 A 
ATOM      8  C7  BZF d   1      -2.132  -0.234  -1.352  0.00  0.00     0.029 A 
ATOM      9  C7A BZF d   1      -0.876  -0.116  -0.808  0.00  0.00     0.058 A 
ENDROOT
TORSDOF 0
ENDMDL
