MODEL 1
REMARK minimizedAffinity -4.89824867
REMARK minimizedRMSD -1
REMARK  0 active torsions:
REMARK  status: ('A' for Active; 'I' for Inactive)
ROOT
ATOM      1  O1  BZF d   1      -2.655  -0.423  -1.363  0.00  0.00    -0.204 OA
ATOM      2  C2  BZF d   1      -3.330  -1.050  -0.333  0.00  0.00     0.174 A 
ATOM      3  C3  BZF d   1      -2.522  -1.224   0.732  0.00  0.00    -0.012 A 
ATOM      4  C3A BZF d   1      -1.291  -0.588   0.379  0.00  0.00    -0.107 A 
ATOM      5  C4  BZF d   1      -0.104  -0.410   1.032  0.00  0.00     0.055 A 
ATOM      6  C5  BZF d   1       0.925   0.191   0.379  0.00  0.00    -0.016 A 
ATOM      7  C6  BZF d   1       0.805   0.622  -0.926  0.00  0.00     0.022 A 
ATOM      8  C7  BZF d   1      -0.354   0.472  -1.613  0.00  0.00     0.029 A 
ATOM      9  C7A BZF d   1      -1.406  -0.105  -0.945  0.00  0.00     0.058 A 
ENDROOT
TORSDOF 0
ENDMDL
