MODEL 1
REMARK minimizedAffinity -2.6927619
REMARK minimizedRMSD -1
REMARK  0 active torsions:
REMARK  status: ('A' for Active; 'I' for Inactive)
ROOT
ATOM      1  O1  BZF d   1      -0.861   0.203  -1.248  0.00  0.00    -0.204 OA
ATOM      2  C2  BZF d   1       0.328   0.861  -1.493  0.00  0.00     0.174 A 
ATOM      3  C3  BZF d   1       1.259   0.526  -0.576  0.00  0.00    -0.012 A 
ATOM      4  C3A BZF d   1       0.638  -0.471   0.242  0.00  0.00    -0.107 A 
ATOM      5  C4  BZF d   1       1.063  -1.203   1.314  0.00  0.00     0.055 A 
ATOM      6  C5  BZF d   1       0.187  -2.039   1.931  0.00  0.00    -0.016 A 
ATOM      7  C6  BZF d   1      -1.119  -2.164   1.507  0.00  0.00     0.022 A 
ATOM      8  C7  BZF d   1      -1.585  -1.462   0.445  0.00  0.00     0.029 A 
ATOM      9  C7A BZF d   1      -0.693  -0.641  -0.201  0.00  0.00     0.058 A 
ENDROOT
TORSDOF 0
ENDMDL
