MODEL 1
REMARK minimizedAffinity -4.99260139
REMARK minimizedRMSD -1
REMARK  0 active torsions:
REMARK  status: ('A' for Active; 'I' for Inactive)
ROOT
ATOM      1  O1  BZF d   1       0.683  -0.383   1.282  0.00  0.00    -0.204 OA
ATOM      2  C2  BZF d   1       1.618   0.259   0.493  0.00  0.00     0.174 A 
ATOM      3  C3  BZF d   1       1.099   0.560  -0.715  0.00  0.00    -0.012 A 
ATOM      4  C3A BZF d   1      -0.272   0.159  -0.646  0.00  0.00    -0.107 A 
ATOM      5  C4  BZF d   1      -1.312   0.214  -1.529  0.00  0.00     0.055 A 
ATOM      6  C5  BZF d   1      -2.507  -0.331  -1.178  0.00  0.00    -0.016 A 
ATOM      7  C6  BZF d   1      -2.695  -0.942   0.044  0.00  0.00     0.022 A 
ATOM      8  C7  BZF d   1      -1.694  -1.016   0.955  0.00  0.00     0.029 A 
ATOM      9  C7A BZF d   1      -0.496  -0.438   0.616  0.00  0.00     0.058 A 
ENDROOT
TORSDOF 0
ENDMDL
