MODEL 1
REMARK minimizedAffinity -3.80122089
REMARK minimizedRMSD -1
REMARK  0 active torsions:
REMARK  status: ('A' for Active; 'I' for Inactive)
ROOT
ATOM      1  O1  BZF d   1       0.674  -1.266   1.713  0.00  0.00    -0.204 OA
ATOM      2  C2  BZF d   1       1.756  -0.660   1.105  0.00  0.00     0.174 A 
ATOM      3  C3  BZF d   1       1.364   0.053   0.030  0.00  0.00    -0.012 A 
ATOM      4  C3A BZF d   1      -0.064  -0.043   0.015  0.00  0.00    -0.107 A 
ATOM      5  C4  BZF d   1      -1.031   0.468  -0.803  0.00  0.00     0.055 A 
ATOM      6  C5  BZF d   1      -2.328   0.125  -0.586  0.00  0.00    -0.016 A 
ATOM      7  C6  BZF d   1      -2.692  -0.729   0.434  0.00  0.00     0.022 A 
ATOM      8  C7  BZF d   1      -1.769  -1.257   1.274  0.00  0.00     0.029 A 
ATOM      9  C7A BZF d   1      -0.461  -0.886   1.079  0.00  0.00     0.058 A 
ENDROOT
TORSDOF 0
ENDMDL
