MODEL 1
REMARK minimizedAffinity -5.767766
REMARK minimizedRMSD -1
REMARK  0 active torsions:
REMARK  status: ('A' for Active; 'I' for Inactive)
ROOT
ATOM      1  O1  BZF d   1      -2.382  -0.582  -1.099  0.00  0.00    -0.204 OA
ATOM      2  C2  BZF d   1      -3.070  -1.172  -0.057  0.00  0.00     0.174 A 
ATOM      3  C3  BZF d   1      -2.295  -1.247   1.045  0.00  0.00    -0.012 A 
ATOM      4  C3A BZF d   1      -1.076  -0.585   0.695  0.00  0.00    -0.107 A 
ATOM      5  C4  BZF d   1       0.078  -0.321   1.375  0.00  0.00     0.055 A 
ATOM      6  C5  BZF d   1       1.107   0.280   0.722  0.00  0.00    -0.016 A 
ATOM      7  C6  BZF d   1       1.018   0.625  -0.611  0.00  0.00     0.022 A 
ATOM      8  C7  BZF d   1      -0.108   0.388  -1.326  0.00  0.00     0.029 A 
ATOM      9  C7A BZF d   1      -1.162  -0.190  -0.660  0.00  0.00     0.058 A 
ENDROOT
TORSDOF 0
ENDMDL
