MODEL 1
REMARK minimizedAffinity 0.147710145
REMARK minimizedRMSD -1
REMARK  0 active torsions:
REMARK  status: ('A' for Active; 'I' for Inactive)
ROOT
ATOM      1  O1  BZF d   1      -1.996  -1.055   0.993  0.00  0.00    -0.204 OA
ATOM      2  C2  BZF d   1      -2.873  -1.024  -0.074  0.00  0.00     0.174 A 
ATOM      3  C3  BZF d   1      -2.321  -0.390  -1.129  0.00  0.00    -0.012 A 
ATOM      4  C3A BZF d   1      -0.984  -0.080  -0.725  0.00  0.00    -0.107 A 
ATOM      5  C4  BZF d   1       0.066   0.535  -1.345  0.00  0.00     0.055 A 
ATOM      6  C5  BZF d   1       1.213   0.746  -0.648  0.00  0.00    -0.016 A 
ATOM      7  C6  BZF d   1       1.343   0.360   0.670  0.00  0.00     0.022 A 
ATOM      8  C7  BZF d   1       0.331  -0.259   1.326  0.00  0.00     0.029 A 
ATOM      9  C7A BZF d   1      -0.818  -0.503   0.615  0.00  0.00     0.058 A 
ENDROOT
TORSDOF 0
ENDMDL
