MODEL 1
REMARK minimizedAffinity -1.34589088
REMARK minimizedRMSD -1
REMARK  0 active torsions:
REMARK  status: ('A' for Active; 'I' for Inactive)
ROOT
ATOM      1  O1  BZF d   1       0.342   0.956   1.097  0.00  0.00    -0.204 OA
ATOM      2  C2  BZF d   1       0.315   0.026   0.076  0.00  0.00     0.174 A 
ATOM      3  C3  BZF d   1       1.394   0.159  -0.722  0.00  0.00    -0.012 A 
ATOM      4  C3A BZF d   1       2.190   1.179  -0.110  0.00  0.00    -0.107 A 
ATOM      5  C4  BZF d   1       3.392   1.746  -0.425  0.00  0.00     0.055 A 
ATOM      6  C5  BZF d   1       3.859   2.769   0.338  0.00  0.00    -0.016 A 
ATOM      7  C6  BZF d   1       3.149   3.253   1.417  0.00  0.00     0.022 A 
ATOM      8  C7  BZF d   1       1.954   2.719   1.771  0.00  0.00     0.029 A 
ATOM      9  C7A BZF d   1       1.496   1.663   1.022  0.00  0.00     0.058 A 
ENDROOT
TORSDOF 0
ENDMDL
