MODEL 1
REMARK minimizedAffinity -3.19842768
REMARK minimizedRMSD -1
REMARK  0 active torsions:
REMARK  status: ('A' for Active; 'I' for Inactive)
ROOT
ATOM      1  O1  BZF d   1      -2.430  -1.007  -1.487  0.00  0.00    -0.204 OA
ATOM      2  C2  BZF d   1      -3.323  -1.172  -0.446  0.00  0.00     0.174 A 
ATOM      3  C3  BZF d   1      -2.796  -0.724   0.712  0.00  0.00    -0.012 A 
ATOM      4  C3A BZF d   1      -1.528  -0.165   0.356  0.00  0.00    -0.107 A 
ATOM      5  C4  BZF d   1      -0.540   0.451   1.070  0.00  0.00     0.055 A 
ATOM      6  C5  BZF d   1       0.605   0.814   0.436  0.00  0.00    -0.016 A 
ATOM      7  C6  BZF d   1       0.798   0.573  -0.909  0.00  0.00     0.022 A 
ATOM      8  C7  BZF d   1      -0.155  -0.031  -1.660  0.00  0.00     0.029 A 
ATOM      9  C7A BZF d   1      -1.327  -0.369  -1.028  0.00  0.00     0.058 A 
ENDROOT
TORSDOF 0
ENDMDL
