MODEL 1
REMARK minimizedAffinity -1.78505754
REMARK minimizedRMSD -1
REMARK  1 active torsions:
REMARK  status: ('A' for Active; 'I' for Inactive)
REMARK    1  A    between atoms: C3_4  and  O_7 
ROOT
ATOM      1  C   UNL d   1       0.893   0.531  -1.121  0.00  0.00    -0.033 A 
ATOM      2  C1  UNL d   1       0.145  -0.166  -0.170  0.00  0.00     0.039 A 
ATOM      3  C2  UNL d   1      -1.013   0.402   0.364  0.00  0.00    -0.080 A 
ATOM      4  C3  UNL d   1      -1.413   1.665  -0.062  0.00  0.00     0.150 A 
ATOM      5  C4  UNL d   1      -0.675   2.364  -1.012  0.00  0.00    -0.007 A 
ATOM      6  C5  UNL d   1       0.482   1.796  -1.542  0.00  0.00     0.039 A 
ENDROOT
BRANCH   4   7
ATOM      7  O   UNL d   1      -2.534   2.263   0.433  0.00  0.00    -0.526 OA
ATOM      8  H5  UNL d   1      -2.926   1.676   1.101  0.00  0.00     0.418 HD
ENDBRANCH   4   7
TORSDOF 1
ENDMDL
