MODEL 1
REMARK minimizedAffinity -3.42084765
REMARK minimizedRMSD -1
REMARK  1 active torsions:
REMARK  status: ('A' for Active; 'I' for Inactive)
REMARK    1  A    between atoms: C3_4  and  O_7 
ROOT
ATOM      1  C   UNL d   1       0.122   0.252  -0.121  0.00  0.00    -0.033 A 
ATOM      2  C1  UNL d   1      -0.311  -0.149   1.144  0.00  0.00     0.039 A 
ATOM      3  C2  UNL d   1      -1.362   0.524   1.770  0.00  0.00    -0.080 A 
ATOM      4  C3  UNL d   1      -1.971   1.595   1.120  0.00  0.00     0.150 A 
ATOM      5  C4  UNL d   1      -1.546   1.998  -0.142  0.00  0.00    -0.007 A 
ATOM      6  C5  UNL d   1      -0.496   1.325  -0.765  0.00  0.00     0.039 A 
ENDROOT
BRANCH   4   7
ATOM      7  O   UNL d   1      -2.997   2.286   1.693  0.00  0.00    -0.526 OA
ATOM      8  H5  UNL d   1      -3.163   1.914   2.576  0.00  0.00     0.418 HD
ENDBRANCH   4   7
TORSDOF 1
ENDMDL
