MODEL 1
REMARK minimizedAffinity -3.7910409
REMARK minimizedRMSD -1
REMARK  1 active torsions:
REMARK  status: ('A' for Active; 'I' for Inactive)
REMARK    1  A    between atoms: C3_4  and  O_7 
ROOT
ATOM      1  C   UNL d   1       0.639  -0.084  -0.583  0.00  0.00    -0.033 A 
ATOM      2  C1  UNL d   1       0.214  -0.508   0.678  0.00  0.00     0.039 A 
ATOM      3  C2  UNL d   1      -0.734   0.235   1.384  0.00  0.00    -0.080 A 
ATOM      4  C3  UNL d   1      -1.250   1.398   0.819  0.00  0.00     0.150 A 
ATOM      5  C4  UNL d   1      -0.835   1.824  -0.439  0.00  0.00    -0.007 A 
ATOM      6  C5  UNL d   1       0.113   1.081  -1.142  0.00  0.00     0.039 A 
ENDROOT
BRANCH   4   7
ATOM      7  O   UNL d   1      -2.173   2.158   1.472  0.00  0.00    -0.526 OA
ATOM      8  H5  UNL d   1      -2.344   1.757   2.341  0.00  0.00     0.418 HD
ENDBRANCH   4   7
TORSDOF 1
ENDMDL
