MODEL 1
REMARK minimizedAffinity -3.70739865
REMARK minimizedRMSD -1
REMARK  1 active torsions:
REMARK  status: ('A' for Active; 'I' for Inactive)
REMARK    1  A    between atoms: C3_4  and  O_7 
ROOT
ATOM      1  C   UNL d   1       0.660  -0.301  -0.492  0.00  0.00    -0.033 A 
ATOM      2  C1  UNL d   1       0.106  -0.666   0.736  0.00  0.00     0.039 A 
ATOM      3  C2  UNL d   1      -0.906   0.110   1.306  0.00  0.00    -0.080 A 
ATOM      4  C3  UNL d   1      -1.354   1.246   0.637  0.00  0.00     0.150 A 
ATOM      5  C4  UNL d   1      -0.809   1.613  -0.588  0.00  0.00    -0.007 A 
ATOM      6  C5  UNL d   1       0.202   0.838  -1.155  0.00  0.00     0.039 A 
ENDROOT
BRANCH   4   7
ATOM      7  O   UNL d   1      -2.336   2.036   1.156  0.00  0.00    -0.526 OA
ATOM      8  H5  UNL d   1      -2.597   1.676   2.020  0.00  0.00     0.418 HD
ENDBRANCH   4   7
TORSDOF 1
ENDMDL
