MODEL 1
REMARK minimizedAffinity -4.01181269
REMARK minimizedRMSD -1
REMARK  1 active torsions:
REMARK  status: ('A' for Active; 'I' for Inactive)
REMARK    1  A    between atoms: C3_4  and  O_7 
ROOT
ATOM      1  C   UNL d   1       0.527  -0.314   0.224  0.00  0.00    -0.033 A 
ATOM      2  C1  UNL d   1       0.047   0.687  -0.622  0.00  0.00     0.039 A 
ATOM      3  C2  UNL d   1      -0.972   1.539  -0.191  0.00  0.00    -0.080 A 
ATOM      4  C3  UNL d   1      -1.501   1.379   1.087  0.00  0.00     0.150 A 
ATOM      5  C4  UNL d   1      -1.025   0.386   1.936  0.00  0.00    -0.007 A 
ATOM      6  C5  UNL d   1      -0.008  -0.464   1.504  0.00  0.00     0.039 A 
ENDROOT
BRANCH   4   7
ATOM      7  O   UNL d   1      -2.500   2.183   1.550  0.00  0.00    -0.526 OA
ATOM      8  H5  UNL d   1      -2.747   2.803   0.845  0.00  0.00     0.418 HD
ENDBRANCH   4   7
TORSDOF 1
ENDMDL
