MODEL 1
REMARK minimizedAffinity -2.55844593
REMARK minimizedRMSD -1
REMARK  1 active torsions:
REMARK  status: ('A' for Active; 'I' for Inactive)
REMARK    1  A    between atoms: C3_4  and  O_7 
ROOT
ATOM      1  C   UNL d   1      -2.077   1.976   1.550  0.00  0.00    -0.033 A 
ATOM      2  C1  UNL d   1      -1.898   2.512   0.274  0.00  0.00     0.039 A 
ATOM      3  C2  UNL d   1      -1.121   1.835  -0.668  0.00  0.00    -0.080 A 
ATOM      4  C3  UNL d   1      -0.529   0.623  -0.320  0.00  0.00     0.150 A 
ATOM      5  C4  UNL d   1      -0.706   0.081   0.948  0.00  0.00    -0.007 A 
ATOM      6  C5  UNL d   1      -1.482   0.760   1.887  0.00  0.00     0.039 A 
ENDROOT
BRANCH   4   7
ATOM      7  O   UNL d   1       0.242  -0.072  -1.204  0.00  0.00    -0.526 OA
ATOM      8  H5  UNL d   1       0.299   0.437  -2.029  0.00  0.00     0.418 HD
ENDBRANCH   4   7
TORSDOF 1
ENDMDL
