MODEL 1
REMARK minimizedAffinity -1.62412357
REMARK minimizedRMSD -1
REMARK  1 active torsions:
REMARK  status: ('A' for Active; 'I' for Inactive)
REMARK    1  A    between atoms: C3_4  and  O_7 
ROOT
ATOM      1  C   UNL d   1       0.290   0.811   0.769  0.00  0.00    -0.033 A 
ATOM      2  C1  UNL d   1       0.075   1.079  -0.584  0.00  0.00     0.039 A 
ATOM      3  C2  UNL d   1      -0.019   0.028  -1.499  0.00  0.00    -0.080 A 
ATOM      4  C3  UNL d   1       0.103  -1.283  -1.048  0.00  0.00     0.150 A 
ATOM      5  C4  UNL d   1       0.313  -1.557   0.299  0.00  0.00    -0.007 A 
ATOM      6  C5  UNL d   1       0.408  -0.507   1.211  0.00  0.00     0.039 A 
ENDROOT
BRANCH   4   7
ATOM      7  O   UNL d   1       0.022  -2.341  -1.904  0.00  0.00    -0.526 OA
ATOM      8  H5  UNL d   1      -0.096  -1.999  -2.806  0.00  0.00     0.418 HD
ENDBRANCH   4   7
TORSDOF 1
ENDMDL
