MODEL 1
REMARK minimizedAffinity -4.91769123
REMARK minimizedRMSD -1
REMARK  1 active torsions:
REMARK  status: ('A' for Active; 'I' for Inactive)
REMARK    1  A    between atoms: C3_4  and  O_7 
ROOT
ATOM      1  C   UNL d   1       0.264  -0.393   0.039  0.00  0.00    -0.033 A 
ATOM      2  C1  UNL d   1      -0.314   0.611  -0.740  0.00  0.00     0.039 A 
ATOM      3  C2  UNL d   1      -1.144   1.565  -0.148  0.00  0.00    -0.080 A 
ATOM      4  C3  UNL d   1      -1.386   1.505   1.222  0.00  0.00     0.150 A 
ATOM      5  C4  UNL d   1      -0.810   0.509   2.004  0.00  0.00    -0.007 A 
ATOM      6  C5  UNL d   1       0.018  -0.443   1.411  0.00  0.00     0.039 A 
ENDROOT
BRANCH   4   7
ATOM      7  O   UNL d   1      -2.192   2.411   1.844  0.00  0.00    -0.526 OA
ATOM      8  H5  UNL d   1      -2.543   3.022   1.174  0.00  0.00     0.418 HD
ENDBRANCH   4   7
TORSDOF 1
ENDMDL
