MODEL 1
REMARK minimizedAffinity -3.69393587
REMARK minimizedRMSD -1
REMARK  1 active torsions:
REMARK  status: ('A' for Active; 'I' for Inactive)
REMARK    1  A    between atoms: C3_4  and  O_7 
ROOT
ATOM      1  C   UNL d   1       0.701  -0.004  -0.237  0.00  0.00    -0.033 A 
ATOM      2  C1  UNL d   1       0.009  -0.644   0.793  0.00  0.00     0.039 A 
ATOM      3  C2  UNL d   1      -1.062  -0.005   1.420  0.00  0.00    -0.080 A 
ATOM      4  C3  UNL d   1      -1.431   1.273   1.008  0.00  0.00     0.150 A 
ATOM      5  C4  UNL d   1      -0.749   1.915  -0.020  0.00  0.00    -0.007 A 
ATOM      6  C5  UNL d   1       0.321   1.276  -0.644  0.00  0.00     0.039 A 
ENDROOT
BRANCH   4   7
ATOM      7  O   UNL d   1      -2.467   1.939   1.593  0.00  0.00    -0.526 OA
ATOM      8  H5  UNL d   1      -2.826   1.385   2.306  0.00  0.00     0.418 HD
ENDBRANCH   4   7
TORSDOF 1
ENDMDL
