MODEL 1
REMARK minimizedAffinity -3.57283831
REMARK minimizedRMSD -1
REMARK  1 active torsions:
REMARK  status: ('A' for Active; 'I' for Inactive)
REMARK    1  A    between atoms: C3_4  and  O_7 
ROOT
ATOM      1  C   UNL d   1       0.041  -0.547   0.284  0.00  0.00    -0.033 A 
ATOM      2  C1  UNL d   1      -0.223   0.593  -0.476  0.00  0.00     0.039 A 
ATOM      3  C2  UNL d   1      -1.159   1.529  -0.032  0.00  0.00    -0.080 A 
ATOM      4  C3  UNL d   1      -1.822   1.314   1.174  0.00  0.00     0.150 A 
ATOM      5  C4  UNL d   1      -1.560   0.182   1.938  0.00  0.00    -0.007 A 
ATOM      6  C5  UNL d   1      -0.626  -0.752   1.492  0.00  0.00     0.039 A 
ENDROOT
BRANCH   4   7
ATOM      7  O   UNL d   1      -2.747   2.197   1.646  0.00  0.00    -0.526 OA
ATOM      8  H5  UNL d   1      -2.845   2.915   0.999  0.00  0.00     0.418 HD
ENDBRANCH   4   7
TORSDOF 1
ENDMDL
