MODEL 1
REMARK minimizedAffinity -3.47246242
REMARK minimizedRMSD -1
REMARK  1 active torsions:
REMARK  status: ('A' for Active; 'I' for Inactive)
REMARK    1  A    between atoms: C3_4  and  O_7 
ROOT
ATOM      1  C   UNL d   1      -1.879   1.250   1.562  0.00  0.00    -0.033 A 
ATOM      2  C1  UNL d   1      -1.124   0.703   0.522  0.00  0.00     0.039 A 
ATOM      3  C2  UNL d   1      -0.418   1.538  -0.346  0.00  0.00    -0.080 A 
ATOM      4  C3  UNL d   1      -0.474   2.917  -0.162  0.00  0.00     0.150 A 
ATOM      5  C4  UNL d   1      -1.220   3.469   0.874  0.00  0.00    -0.007 A 
ATOM      6  C5  UNL d   1      -1.925   2.634   1.739  0.00  0.00     0.039 A 
ENDROOT
BRANCH   4   7
ATOM      7  O   UNL d   1       0.195   3.773  -0.987  0.00  0.00    -0.526 OA
ATOM      8  H5  UNL d   1       0.643   3.252  -1.673  0.00  0.00     0.418 HD
ENDBRANCH   4   7
TORSDOF 1
ENDMDL
