MODEL 1
REMARK minimizedAffinity -4.45360613
REMARK minimizedRMSD -1
REMARK  1 active torsions:
REMARK  status: ('A' for Active; 'I' for Inactive)
REMARK    1  A    between atoms: C3_4  and  O_7 
ROOT
ATOM      1  C   UNL d   1       0.667  -0.138   0.530  0.00  0.00    -0.033 A 
ATOM      2  C1  UNL d   1       0.170  -0.209   1.832  0.00  0.00     0.039 A 
ATOM      3  C2  UNL d   1      -0.871   0.632   2.232  0.00  0.00    -0.080 A 
ATOM      4  C3  UNL d   1      -1.405   1.538   1.319  0.00  0.00     0.150 A 
ATOM      5  C4  UNL d   1      -0.917   1.612   0.019  0.00  0.00    -0.007 A 
ATOM      6  C5  UNL d   1       0.122   0.772  -0.378  0.00  0.00     0.039 A 
ENDROOT
BRANCH   4   7
ATOM      7  O   UNL d   1      -2.418   2.383   1.664  0.00  0.00    -0.526 OA
ATOM      8  H5  UNL d   1      -2.633   2.240   2.601  0.00  0.00     0.418 HD
ENDBRANCH   4   7
TORSDOF 1
ENDMDL
