MODEL 1
REMARK minimizedAffinity -4.21287966
REMARK minimizedRMSD -1
REMARK  1 active torsions:
REMARK  status: ('A' for Active; 'I' for Inactive)
REMARK    1  A    between atoms: C3_4  and  O_7 
ROOT
ATOM      1  C   UNL d   1       0.131   0.026  -0.055  0.00  0.00    -0.033 A 
ATOM      2  C1  UNL d   1      -0.700   0.880  -0.782  0.00  0.00     0.039 A 
ATOM      3  C2  UNL d   1      -1.538   1.776  -0.116  0.00  0.00    -0.080 A 
ATOM      4  C3  UNL d   1      -1.535   1.808   1.275  0.00  0.00     0.150 A 
ATOM      5  C4  UNL d   1      -0.707   0.963   2.007  0.00  0.00    -0.007 A 
ATOM      6  C5  UNL d   1       0.128   0.068   1.340  0.00  0.00     0.039 A 
ENDROOT
BRANCH   4   7
ATOM      7  O   UNL d   1      -2.340   2.663   1.970  0.00  0.00    -0.526 OA
ATOM      8  H5  UNL d   1      -2.876   3.165   1.334  0.00  0.00     0.418 HD
ENDBRANCH   4   7
TORSDOF 1
ENDMDL
