MODEL 1
REMARK minimizedAffinity -1.40062797
REMARK minimizedRMSD -1
REMARK  1 active torsions:
REMARK  status: ('A' for Active; 'I' for Inactive)
REMARK    1  A    between atoms: C1_2  and  C2_3 
ROOT
ATOM      1  C2  UNL d   1      -1.389   0.362  -0.327  0.00  0.00    -0.081 A 
ATOM      2  C3  UNL d   1      -1.289  -1.023  -0.513  0.00  0.00     0.006 A 
ATOM      3  C4  UNL d   1      -0.040  -1.649  -0.505  0.00  0.00     0.002 A 
ATOM      4  C5  UNL d   1       1.127  -0.904  -0.302  0.00  0.00    -0.080 A 
ATOM      5  C6  UNL d   1       2.470  -1.569  -0.260  0.00  0.00     0.076 C 
ATOM      6  C7  UNL d   1       1.027   0.481  -0.133  0.00  0.00     0.002 A 
ATOM      7  C8  UNL d   1      -0.220   1.108  -0.142  0.00  0.00     0.006 A 
ENDROOT
BRANCH   1   8
ATOM      8  C1  UNL d   1      -2.739   1.031  -0.271  0.00  0.00     0.054 C 
ATOM      9  C   UNL d   1      -3.395   0.841   1.090  0.00  0.00     0.018 C 
ENDBRANCH   1   8
TORSDOF 1
ENDMDL
