MODEL 1
REMARK minimizedAffinity -5.19864178
REMARK minimizedRMSD -1
REMARK  1 active torsions:
REMARK  status: ('A' for Active; 'I' for Inactive)
REMARK    1  A    between atoms: C1_2  and  C2_3 
ROOT
ATOM      1  C2  UNL d   1      -1.159   0.289  -0.020  0.00  0.00    -0.081 A 
ATOM      2  C3  UNL d   1      -1.054  -1.059  -0.382  0.00  0.00     0.006 A 
ATOM      3  C4  UNL d   1       0.172  -1.723  -0.291  0.00  0.00     0.002 A 
ATOM      4  C5  UNL d   1       1.310  -1.053   0.171  0.00  0.00    -0.080 A 
ATOM      5  C6  UNL d   1       2.625  -1.763   0.303  0.00  0.00     0.076 C 
ATOM      6  C7  UNL d   1       1.209   0.299   0.516  0.00  0.00     0.002 A 
ATOM      7  C8  UNL d   1      -0.016   0.964   0.424  0.00  0.00     0.006 A 
ENDROOT
BRANCH   1   8
ATOM      8  C1  UNL d   1      -2.493   0.991  -0.056  0.00  0.00     0.054 C 
ATOM      9  C   UNL d   1      -2.958   1.366   1.344  0.00  0.00     0.018 C 
ENDBRANCH   1   8
TORSDOF 1
ENDMDL
