MODEL 1
REMARK minimizedAffinity 6.88471746
REMARK minimizedRMSD -1
REMARK  1 active torsions:
REMARK  status: ('A' for Active; 'I' for Inactive)
REMARK    1  A    between atoms: C1_2  and  C2_3 
ROOT
ATOM      1  C2  UNL d   1       1.556  -0.964  -0.385  0.00  0.00    -0.081 A 
ATOM      2  C3  UNL d   1       0.205  -0.654  -0.183  0.00  0.00     0.006 A 
ATOM      3  C4  UNL d   1      -0.657  -1.588   0.396  0.00  0.00     0.002 A 
ATOM      4  C5  UNL d   1      -0.182  -2.844   0.789  0.00  0.00    -0.080 A 
ATOM      5  C6  UNL d   1      -1.091  -3.845   1.439  0.00  0.00     0.076 C 
ATOM      6  C7  UNL d   1       1.163  -3.161   0.570  0.00  0.00     0.002 A 
ATOM      7  C8  UNL d   1       2.025  -2.228  -0.009  0.00  0.00     0.006 A 
ENDROOT
BRANCH   1   8
ATOM      8  C1  UNL d   1       2.502   0.064  -0.950  0.00  0.00     0.054 C 
ATOM      9  C   UNL d   1       2.418   1.375  -0.180  0.00  0.00     0.018 C 
ENDBRANCH   1   8
TORSDOF 1
ENDMDL
