MODEL 1
REMARK minimizedAffinity -4.87931776
REMARK minimizedRMSD -1
REMARK  1 active torsions:
REMARK  status: ('A' for Active; 'I' for Inactive)
REMARK    1  A    between atoms: C1_2  and  C2_3 
ROOT
ATOM      1  C2  UNL d   1      -1.820   0.251  -0.385  0.00  0.00    -0.081 A 
ATOM      2  C3  UNL d   1      -1.550  -1.122  -0.321  0.00  0.00     0.006 A 
ATOM      3  C4  UNL d   1      -0.239  -1.579  -0.166  0.00  0.00     0.002 A 
ATOM      4  C5  UNL d   1       0.821  -0.673  -0.065  0.00  0.00    -0.080 A 
ATOM      5  C6  UNL d   1       2.230  -1.149   0.132  0.00  0.00     0.076 C 
ATOM      6  C7  UNL d   1       0.554   0.698  -0.147  0.00  0.00     0.002 A 
ATOM      7  C8  UNL d   1      -0.757   1.156  -0.303  0.00  0.00     0.006 A 
ENDROOT
BRANCH   1   8
ATOM      8  C1  UNL d   1      -3.239   0.749  -0.487  0.00  0.00     0.054 C 
ATOM      9  C   UNL d   1      -4.018   0.467   0.790  0.00  0.00     0.018 C 
ENDBRANCH   1   8
TORSDOF 1
ENDMDL
