MODEL 1
REMARK minimizedAffinity -3.6054697
REMARK minimizedRMSD -1
REMARK  1 active torsions:
REMARK  status: ('A' for Active; 'I' for Inactive)
REMARK    1  A    between atoms: C1_2  and  C2_3 
ROOT
ATOM      1  C2  UNL d   1      -1.105   0.418   0.306  0.00  0.00    -0.081 A 
ATOM      2  C3  UNL d   1      -0.690  -0.403   1.361  0.00  0.00     0.006 A 
ATOM      3  C4  UNL d   1       0.662  -0.483   1.707  0.00  0.00     0.002 A 
ATOM      4  C5  UNL d   1       1.618   0.263   1.009  0.00  0.00    -0.080 A 
ATOM      5  C6  UNL d   1       3.067   0.210   1.390  0.00  0.00     0.076 C 
ATOM      6  C7  UNL d   1       1.204   1.071  -0.056  0.00  0.00     0.002 A 
ATOM      7  C8  UNL d   1      -0.146   1.150  -0.402  0.00  0.00     0.006 A 
ENDROOT
BRANCH   1   8
ATOM      8  C1  UNL d   1      -2.569   0.556  -0.027  0.00  0.00     0.054 C 
ATOM      9  C   UNL d   1      -3.378   0.973   1.193  0.00  0.00     0.018 C 
ENDBRANCH   1   8
TORSDOF 1
ENDMDL
