MODEL 1
REMARK minimizedAffinity -4.57486296
REMARK minimizedRMSD -1
REMARK  1 active torsions:
REMARK  status: ('A' for Active; 'I' for Inactive)
REMARK    1  A    between atoms: C1_2  and  C2_3 
ROOT
ATOM      1  C2  UNL d   1      -1.194   0.378  -0.090  0.00  0.00    -0.081 A 
ATOM      2  C3  UNL d   1      -1.064  -0.904  -0.638  0.00  0.00     0.006 A 
ATOM      3  C4  UNL d   1       0.159  -1.576  -0.583  0.00  0.00     0.002 A 
ATOM      4  C5  UNL d   1       1.269  -0.982   0.027  0.00  0.00    -0.080 A 
ATOM      5  C6  UNL d   1       2.580  -1.706   0.119  0.00  0.00     0.076 C 
ATOM      6  C7  UNL d   1       1.144   0.305   0.559  0.00  0.00     0.002 A 
ATOM      7  C8  UNL d   1      -0.079   0.979   0.504  0.00  0.00     0.006 A 
ENDROOT
BRANCH   1   8
ATOM      8  C1  UNL d   1      -2.529   1.079  -0.089  0.00  0.00     0.054 C 
ATOM      9  C   UNL d   1      -3.236   0.923   1.249  0.00  0.00     0.018 C 
ENDBRANCH   1   8
TORSDOF 1
ENDMDL
