MODEL 1
REMARK minimizedAffinity 5.61336899
REMARK minimizedRMSD -1
REMARK  1 active torsions:
REMARK  status: ('A' for Active; 'I' for Inactive)
REMARK    1  A    between atoms: C1_2  and  C2_3 
ROOT
ATOM      1  C2  UNL d   1      -3.926   0.821  -2.575  0.00  0.00    -0.077 A 
ATOM      2  C3  UNL d   1      -3.354  -0.445  -2.391  0.00  0.00     0.002 A 
ATOM      3  C4  UNL d   1      -3.647  -1.193  -1.249  0.00  0.00     0.002 A 
ATOM      4  C5  UNL d   1      -4.517  -0.686  -0.286  0.00  0.00    -0.004 A 
ATOM      5  C6  UNL d   1      -5.090   0.573  -0.459  0.00  0.00     0.002 A 
ATOM      6  C7  UNL d   1      -4.797   1.323  -1.599  0.00  0.00     0.002 A 
ENDROOT
BRANCH   1   7
ATOM      7  C1  UNL d   1      -3.650   1.609  -3.829  0.00  0.00     0.055 C 
ATOM      8  C   UNL d   1      -2.186   1.511  -4.233  0.00  0.00     0.019 C 
ENDBRANCH   1   7
TORSDOF 1
ENDMDL
