MODEL 1
REMARK minimizedAffinity -1.92853034
REMARK minimizedRMSD -1
REMARK  1 active torsions:
REMARK  status: ('A' for Active; 'I' for Inactive)
REMARK    1  A    between atoms: C1_2  and  C2_3 
ROOT
ATOM      1  C2  UNL d   1       1.698  -1.739  -0.333  0.00  0.00    -0.077 A 
ATOM      2  C3  UNL d   1       0.786  -0.900  -0.988  0.00  0.00     0.002 A 
ATOM      3  C4  UNL d   1       0.807   0.478  -0.765  0.00  0.00     0.002 A 
ATOM      4  C5  UNL d   1       1.741   1.029   0.110  0.00  0.00    -0.004 A 
ATOM      5  C6  UNL d   1       2.652   0.203   0.767  0.00  0.00     0.002 A 
ATOM      6  C7  UNL d   1       2.631  -1.174   0.546  0.00  0.00     0.002 A 
ENDROOT
BRANCH   1   7
ATOM      7  C1  UNL d   1       1.709  -3.220  -0.610  0.00  0.00     0.055 C 
ATOM      8  C   UNL d   1       0.367  -3.855  -0.276  0.00  0.00     0.019 C 
ENDBRANCH   1   7
TORSDOF 1
ENDMDL
