MODEL 1
REMARK minimizedAffinity -0.650895417
REMARK minimizedRMSD -1
REMARK  0 active torsions:
REMARK  status: ('A' for Active; 'I' for Inactive)
ROOT
ATOM      1  C   UNL d   1       5.279  -5.280  -2.250  0.00  0.00     0.078 C 
ATOM      2  C1  UNL d   1       5.064  -4.005  -3.010  0.00  0.00    -0.077 A 
ATOM      3  C2  UNL d   1       3.970  -3.855  -3.871  0.00  0.00    -0.001 A 
ATOM      4  C3  UNL d   1       3.788  -2.666  -4.580  0.00  0.00     0.003 A 
ATOM      5  C4  UNL d   1       4.696  -1.619  -4.435  0.00  0.00    -0.005 A 
ATOM      6  C5  UNL d   1       5.788  -1.760  -3.582  0.00  0.00     0.003 A 
ATOM      7  C6  UNL d   1       5.972  -2.948  -2.873  0.00  0.00    -0.001 A 
ENDROOT
TORSDOF 0
ENDMDL
