MODEL 1
REMARK minimizedAffinity -4.49825001
REMARK minimizedRMSD -1
REMARK  0 active torsions:
REMARK  status: ('A' for Active; 'I' for Inactive)
ROOT
ATOM      1  C   UNL d   1       0.018   1.091   1.644  0.00  0.00     0.078 C 
ATOM      2  C1  UNL d   1       0.387   2.132   0.629  0.00  0.00    -0.077 A 
ATOM      3  C2  UNL d   1       1.548   2.901   0.776  0.00  0.00    -0.001 A 
ATOM      4  C3  UNL d   1       1.874   3.873  -0.171  0.00  0.00     0.003 A 
ATOM      5  C4  UNL d   1       1.045   4.086  -1.271  0.00  0.00    -0.005 A 
ATOM      6  C5  UNL d   1      -0.113   3.326  -1.424  0.00  0.00     0.003 A 
ATOM      7  C6  UNL d   1      -0.441   2.354  -0.478  0.00  0.00    -0.001 A 
ENDROOT
TORSDOF 0
ENDMDL
