MODEL 1
REMARK minimizedAffinity 0.0917017609
REMARK minimizedRMSD -1
REMARK  0 active torsions:
REMARK  status: ('A' for Active; 'I' for Inactive)
ROOT
ATOM      1  C   UNL d   1       2.421   2.839   3.026  0.00  0.00     0.078 C 
ATOM      2  C1  UNL d   1       1.546   2.738   1.813  0.00  0.00    -0.077 A 
ATOM      3  C2  UNL d   1       0.595   1.717   1.692  0.00  0.00    -0.001 A 
ATOM      4  C3  UNL d   1      -0.207   1.630   0.553  0.00  0.00     0.003 A 
ATOM      5  C4  UNL d   1      -0.064   2.560  -0.476  0.00  0.00    -0.005 A 
ATOM      6  C5  UNL d   1       0.881   3.577  -0.366  0.00  0.00     0.003 A 
ATOM      7  C6  UNL d   1       1.683   3.666   0.773  0.00  0.00    -0.001 A 
ENDROOT
TORSDOF 0
ENDMDL
