MODEL 1
REMARK minimizedAffinity -0.75933367
REMARK minimizedRMSD -1
REMARK  0 active torsions:
REMARK  status: ('A' for Active; 'I' for Inactive)
ROOT
ATOM      1  C   UNL d   1       0.792   5.569  -1.175  0.00  0.00     0.078 C 
ATOM      2  C1  UNL d   1       0.594   4.171  -0.671  0.00  0.00    -0.077 A 
ATOM      3  C2  UNL d   1       0.163   3.150  -1.526  0.00  0.00    -0.001 A 
ATOM      4  C3  UNL d   1      -0.027   1.855  -1.041  0.00  0.00     0.003 A 
ATOM      5  C4  UNL d   1       0.211   1.569   0.302  0.00  0.00    -0.005 A 
ATOM      6  C5  UNL d   1       0.638   2.579   1.162  0.00  0.00     0.003 A 
ATOM      7  C6  UNL d   1       0.828   3.875   0.678  0.00  0.00    -0.001 A 
ENDROOT
TORSDOF 0
ENDMDL
