MODEL 1
REMARK minimizedAffinity -2.85415006
REMARK minimizedRMSD -1
REMARK  0 active torsions:
REMARK  status: ('A' for Active; 'I' for Inactive)
ROOT
ATOM      1  C   UNL d   1       0.543   4.931  -1.914  0.00  0.00     0.078 C 
ATOM      2  C1  UNL d   1       0.388   3.786  -0.958  0.00  0.00    -0.077 A 
ATOM      3  C2  UNL d   1       0.526   3.975   0.422  0.00  0.00    -0.001 A 
ATOM      4  C3  UNL d   1       0.389   2.899   1.300  0.00  0.00     0.003 A 
ATOM      5  C4  UNL d   1       0.113   1.625   0.806  0.00  0.00    -0.005 A 
ATOM      6  C5  UNL d   1      -0.024   1.426  -0.566  0.00  0.00     0.003 A 
ATOM      7  C6  UNL d   1       0.113   2.502  -1.445  0.00  0.00    -0.001 A 
ENDROOT
TORSDOF 0
ENDMDL
