MODEL 1
REMARK minimizedAffinity 0.245430529
REMARK minimizedRMSD -1
REMARK  0 active torsions:
REMARK  status: ('A' for Active; 'I' for Inactive)
ROOT
ATOM      1  C   UNL d   1       0.436   4.351  -1.743  0.00  0.00     0.078 C 
ATOM      2  C1  UNL d   1       0.327   3.244  -0.738  0.00  0.00    -0.077 A 
ATOM      3  C2  UNL d   1       1.394   2.937   0.116  0.00  0.00    -0.001 A 
ATOM      4  C3  UNL d   1       1.283   1.898   1.040  0.00  0.00     0.003 A 
ATOM      5  C4  UNL d   1       0.107   1.155   1.119  0.00  0.00    -0.005 A 
ATOM      6  C5  UNL d   1      -0.959   1.450   0.272  0.00  0.00     0.003 A 
ATOM      7  C6  UNL d   1      -0.850   2.490  -0.653  0.00  0.00    -0.001 A 
ENDROOT
TORSDOF 0
ENDMDL
