MODEL 1
REMARK minimizedAffinity 2.78094482
REMARK minimizedRMSD -1
REMARK  0 active torsions:
REMARK  status: ('A' for Active; 'I' for Inactive)
ROOT
ATOM      1  C   UNL d   1       4.498  -1.735  -1.517  0.00  0.00     0.078 C 
ATOM      2  C1  UNL d   1       4.965  -2.250  -2.846  0.00  0.00    -0.077 A 
ATOM      3  C2  UNL d   1       4.800  -1.492  -4.012  0.00  0.00    -0.001 A 
ATOM      4  C3  UNL d   1       5.230  -1.987  -5.243  0.00  0.00     0.003 A 
ATOM      5  C4  UNL d   1       5.828  -3.244  -5.322  0.00  0.00    -0.005 A 
ATOM      6  C5  UNL d   1       5.994  -4.007  -4.168  0.00  0.00     0.003 A 
ATOM      7  C6  UNL d   1       5.564  -3.513  -2.935  0.00  0.00    -0.001 A 
ENDROOT
TORSDOF 0
ENDMDL
