MODEL 1
REMARK minimizedAffinity -2.85532093
REMARK minimizedRMSD -1
REMARK  0 active torsions:
REMARK  status: ('A' for Active; 'I' for Inactive)
ROOT
ATOM      1  C   UNL d   1       0.635   4.715  -1.501  0.00  0.00     0.078 C 
ATOM      2  C1  UNL d   1       0.290   3.447  -0.778  0.00  0.00    -0.077 A 
ATOM      3  C2  UNL d   1       0.592   3.287   0.580  0.00  0.00    -0.001 A 
ATOM      4  C3  UNL d   1       0.273   2.098   1.239  0.00  0.00     0.003 A 
ATOM      5  C4  UNL d   1      -0.348   1.060   0.547  0.00  0.00    -0.005 A 
ATOM      6  C5  UNL d   1      -0.650   1.210  -0.805  0.00  0.00     0.003 A 
ATOM      7  C6  UNL d   1      -0.333   2.398  -1.465  0.00  0.00    -0.001 A 
ENDROOT
TORSDOF 0
ENDMDL
