MODEL 1
REMARK minimizedAffinity 2.60762167
REMARK minimizedRMSD -1
REMARK  0 active torsions:
REMARK  status: ('A' for Active; 'I' for Inactive)
ROOT
ATOM      1  O1  BZF d   1       0.715  -4.007  -0.563  0.00  0.00    -0.204 OA
ATOM      2  C2  BZF d   1      -0.095  -4.684   0.328  0.00  0.00     0.174 A 
ATOM      3  C3  BZF d   1      -0.846  -3.821   1.043  0.00  0.00    -0.012 A 
ATOM      4  C3A BZF d   1      -0.550  -2.529   0.505  0.00  0.00    -0.107 A 
ATOM      5  C4  BZF d   1      -0.995  -1.270   0.788  0.00  0.00     0.055 A 
ATOM      6  C5  BZF d   1      -0.453  -0.213   0.128  0.00  0.00    -0.016 A 
ATOM      7  C6  BZF d   1       0.539  -0.379  -0.817  0.00  0.00     0.022 A 
ATOM      8  C7  BZF d   1       1.010  -1.610  -1.135  0.00  0.00     0.029 A 
ATOM      9  C7A BZF d   1       0.440  -2.682  -0.494  0.00  0.00     0.058 A 
ENDROOT
TORSDOF 0
ENDMDL
