MODEL 1
REMARK minimizedAffinity -2.3453238
REMARK minimizedRMSD -1
REMARK  0 active torsions:
REMARK  status: ('A' for Active; 'I' for Inactive)
ROOT
ATOM      1  O1  BZF d   1      -0.711  -3.671   1.134  0.00  0.00    -0.204 OA
ATOM      2  C2  BZF d   1      -0.507  -2.545   1.908  0.00  0.00     0.174 A 
ATOM      3  C3  BZF d   1       0.070  -1.565   1.183  0.00  0.00    -0.012 A 
ATOM      4  C3A BZF d   1       0.153  -2.081  -0.149  0.00  0.00    -0.107 A 
ATOM      5  C4  BZF d   1       0.618  -1.570  -1.327  0.00  0.00     0.055 A 
ATOM      6  C5  BZF d   1       0.623  -2.359  -2.433  0.00  0.00    -0.016 A 
ATOM      7  C6  BZF d   1       0.177  -3.663  -2.397  0.00  0.00     0.022 A 
ATOM      8  C7  BZF d   1      -0.299  -4.213  -1.253  0.00  0.00     0.029 A 
ATOM      9  C7A BZF d   1      -0.336  -3.408  -0.141  0.00  0.00     0.058 A 
ENDROOT
TORSDOF 0
ENDMDL
