MODEL 1
REMARK minimizedAffinity 0.0670109838
REMARK minimizedRMSD -1
REMARK  0 active torsions:
REMARK  status: ('A' for Active; 'I' for Inactive)
ROOT
ATOM      1  O1  BZF d   1       3.670  -2.091   5.993  0.00  0.00    -0.204 OA
ATOM      2  C2  BZF d   1       3.003  -1.408   4.995  0.00  0.00     0.174 A 
ATOM      3  C3  BZF d   1       3.384  -1.848   3.778  0.00  0.00    -0.012 A 
ATOM      4  C3A BZF d   1       4.281  -2.933   4.034  0.00  0.00    -0.107 A 
ATOM      5  C4  BZF d   1       4.979  -3.784   3.226  0.00  0.00     0.055 A 
ATOM      6  C5  BZF d   1       5.825  -4.686   3.791  0.00  0.00    -0.016 A 
ATOM      7  C6  BZF d   1       6.000  -4.761   5.157  0.00  0.00     0.022 A 
ATOM      8  C7  BZF d   1       5.325  -3.941   5.999  0.00  0.00     0.029 A 
ATOM      9  C7A BZF d   1       4.446  -3.050   5.433  0.00  0.00     0.058 A 
ENDROOT
TORSDOF 0
ENDMDL
