MODEL 1
REMARK minimizedAffinity 6.77380133
REMARK minimizedRMSD -1
REMARK  0 active torsions:
REMARK  status: ('A' for Active; 'I' for Inactive)
ROOT
ATOM      1  O1  BZF d   1      -0.211  -0.367  -1.425  0.00  0.00    -0.204 OA
ATOM      2  C2  BZF d   1       0.925  -0.507  -2.198  0.00  0.00     0.174 A 
ATOM      3  C3  BZF d   1       1.590  -1.633  -1.870  0.00  0.00    -0.012 A 
ATOM      4  C3A BZF d   1       0.773  -2.281  -0.890  0.00  0.00    -0.107 A 
ATOM      5  C4  BZF d   1       0.892  -3.450  -0.193  0.00  0.00     0.055 A 
ATOM      6  C5  BZF d   1      -0.044  -3.758   0.743  0.00  0.00    -0.016 A 
ATOM      7  C6  BZF d   1      -1.106  -2.920   1.011  0.00  0.00     0.022 A 
ATOM      8  C7  BZF d   1      -1.269  -1.753   0.342  0.00  0.00     0.029 A 
ATOM      9  C7A BZF d   1      -0.343  -1.454  -0.628  0.00  0.00     0.058 A 
ENDROOT
TORSDOF 0
ENDMDL
