MODEL 1
REMARK minimizedAffinity 9.86650848
REMARK minimizedRMSD -1
REMARK  0 active torsions:
REMARK  status: ('A' for Active; 'I' for Inactive)
ROOT
ATOM      1  O1  BZF d   1      -0.261  -0.567  -1.300  0.00  0.00    -0.204 OA
ATOM      2  C2  BZF d   1       0.864  -0.563  -2.101  0.00  0.00     0.174 A 
ATOM      3  C3  BZF d   1       1.624  -1.653  -1.864  0.00  0.00    -0.012 A 
ATOM      4  C3A BZF d   1       0.883  -2.429  -0.918  0.00  0.00    -0.107 A 
ATOM      5  C4  BZF d   1       1.109  -3.629  -0.306  0.00  0.00     0.055 A 
ATOM      6  C5  BZF d   1       0.223  -4.073   0.623  0.00  0.00    -0.016 A 
ATOM      7  C6  BZF d   1      -0.895  -3.343   0.968  0.00  0.00     0.022 A 
ATOM      8  C7  BZF d   1      -1.164  -2.150   0.385  0.00  0.00     0.029 A 
ATOM      9  C7A BZF d   1      -0.288  -1.713  -0.578  0.00  0.00     0.058 A 
ENDROOT
TORSDOF 0
ENDMDL
