MODEL 1
REMARK minimizedAffinity 1.42788064
REMARK minimizedRMSD -1
REMARK  0 active torsions:
REMARK  status: ('A' for Active; 'I' for Inactive)
ROOT
ATOM      1  O1  BZF d   1      -0.528  -0.656  -1.454  0.00  0.00    -0.204 OA
ATOM      2  C2  BZF d   1       0.437  -1.229  -2.259  0.00  0.00     0.174 A 
ATOM      3  C3  BZF d   1       1.008  -2.284  -1.644  0.00  0.00    -0.012 A 
ATOM      4  C3A BZF d   1       0.295  -2.434  -0.413  0.00  0.00    -0.107 A 
ATOM      5  C4  BZF d   1       0.388  -3.317   0.625  0.00  0.00     0.055 A 
ATOM      6  C5  BZF d   1      -0.408  -3.144   1.713  0.00  0.00    -0.016 A 
ATOM      7  C6  BZF d   1      -1.302  -2.097   1.799  0.00  0.00     0.022 A 
ATOM      8  C7  BZF d   1      -1.433  -1.198   0.793  0.00  0.00     0.029 A 
ATOM      9  C7A BZF d   1      -0.654  -1.389  -0.322  0.00  0.00     0.058 A 
ENDROOT
TORSDOF 0
ENDMDL
