MODEL 1
REMARK minimizedAffinity 10.3947849
REMARK minimizedRMSD -1
REMARK  0 active torsions:
REMARK  status: ('A' for Active; 'I' for Inactive)
ROOT
ATOM      1  O1  BZF d   1       0.031  -0.870  -1.423  0.00  0.00    -0.204 OA
ATOM      2  C2  BZF d   1       1.122  -1.094  -2.241  0.00  0.00     0.174 A 
ATOM      3  C3  BZF d   1       1.729  -2.255  -1.920  0.00  0.00    -0.012 A 
ATOM      4  C3A BZF d   1       0.915  -2.835  -0.896  0.00  0.00    -0.107 A 
ATOM      5  C4  BZF d   1       0.990  -3.998  -0.184  0.00  0.00     0.055 A 
ATOM      6  C5  BZF d   1       0.077  -4.232   0.795  0.00  0.00    -0.016 A 
ATOM      7  C6  BZF d   1      -0.918  -3.324   1.093  0.00  0.00     0.022 A 
ATOM      8  C7  BZF d   1      -1.035  -2.159   0.410  0.00  0.00     0.029 A 
ATOM      9  C7A BZF d   1      -0.135  -1.935  -0.603  0.00  0.00     0.058 A 
ENDROOT
TORSDOF 0
ENDMDL
