MODEL 1
REMARK minimizedAffinity 10.1563396
REMARK minimizedRMSD -1
REMARK  0 active torsions:
REMARK  status: ('A' for Active; 'I' for Inactive)
ROOT
ATOM      1  O1  BZF d   1       0.282  -0.761  -1.464  0.00  0.00    -0.204 OA
ATOM      2  C2  BZF d   1       0.845  -0.996  -2.703  0.00  0.00     0.174 A 
ATOM      3  C3  BZF d   1       1.253  -2.277  -2.808  0.00  0.00    -0.012 A 
ATOM      4  C3A BZF d   1       0.841  -2.905  -1.590  0.00  0.00    -0.107 A 
ATOM      5  C4  BZF d   1       0.946  -4.178  -1.107  0.00  0.00     0.055 A 
ATOM      6  C5  BZF d   1       0.505  -4.445   0.151  0.00  0.00    -0.016 A 
ATOM      7  C6  BZF d   1      -0.041  -3.465   0.953  0.00  0.00     0.022 A 
ATOM      8  C7  BZF d   1      -0.170  -2.189   0.516  0.00  0.00     0.029 A 
ATOM      9  C7A BZF d   1       0.244  -1.922  -0.766  0.00  0.00     0.058 A 
ENDROOT
TORSDOF 0
ENDMDL
