MODEL 1
REMARK minimizedAffinity 2.68684578
REMARK minimizedRMSD -1
REMARK  0 active torsions:
REMARK  status: ('A' for Active; 'I' for Inactive)
ROOT
ATOM      1  O1  BZF d   1      -0.384  -3.715   1.429  0.00  0.00    -0.204 OA
ATOM      2  C2  BZF d   1      -0.831  -2.534   1.989  0.00  0.00     0.174 A 
ATOM      3  C3  BZF d   1      -0.580  -1.492   1.171  0.00  0.00    -0.012 A 
ATOM      4  C3A BZF d   1      -0.019  -2.069  -0.012  0.00  0.00    -0.107 A 
ATOM      5  C4  BZF d   1       0.420  -1.545  -1.194  0.00  0.00     0.055 A 
ATOM      6  C5  BZF d   1       0.980  -2.372  -2.115  0.00  0.00    -0.016 A 
ATOM      7  C6  BZF d   1       1.120  -3.725  -1.886  0.00  0.00     0.022 A 
ATOM      8  C7  BZF d   1       0.694  -4.292  -0.730  0.00  0.00     0.029 A 
ATOM      9  C7A BZF d   1       0.098  -3.463   0.189  0.00  0.00     0.058 A 
ENDROOT
TORSDOF 0
ENDMDL
