MODEL 1
REMARK minimizedAffinity 4.3130784
REMARK minimizedRMSD -1
REMARK  0 active torsions:
REMARK  status: ('A' for Active; 'I' for Inactive)
ROOT
ATOM      1  O1  BZF d   1       5.124   2.243  -2.684  0.00  0.00    -0.204 OA
ATOM      2  C2  BZF d   1       3.887   1.856  -2.208  0.00  0.00     0.174 A 
ATOM      3  C3  BZF d   1       3.001   2.869  -2.298  0.00  0.00    -0.012 A 
ATOM      4  C3A BZF d   1       3.706   3.929  -2.951  0.00  0.00    -0.107 A 
ATOM      5  C4  BZF d   1       3.356   5.191  -3.337  0.00  0.00     0.055 A 
ATOM      6  C5  BZF d   1       4.301   6.000  -3.884  0.00  0.00    -0.016 A 
ATOM      7  C6  BZF d   1       5.605   5.582  -4.055  0.00  0.00     0.022 A 
ATOM      8  C7  BZF d   1       5.998   4.337  -3.691  0.00  0.00     0.029 A 
ATOM      9  C7A BZF d   1       5.038   3.505  -3.168  0.00  0.00     0.058 A 
ENDROOT
TORSDOF 0
ENDMDL
