MODEL 1
REMARK minimizedAffinity 13.3765163
REMARK minimizedRMSD -1
REMARK  0 active torsions:
REMARK  status: ('A' for Active; 'I' for Inactive)
ROOT
ATOM      1  O1  BZF d   1      -1.971   5.017  -0.576  0.00  0.00    -0.204 OA
ATOM      2  C2  BZF d   1      -1.214   5.999   0.031  0.00  0.00     0.174 A 
ATOM      3  C3  BZF d   1      -0.026   5.506   0.437  0.00  0.00    -0.012 A 
ATOM      4  C3A BZF d   1      -0.005   4.151  -0.022  0.00  0.00    -0.107 A 
ATOM      5  C4  BZF d   1       0.916   3.146   0.060  0.00  0.00     0.055 A 
ATOM      6  C5  BZF d   1       0.599   1.918  -0.427  0.00  0.00    -0.016 A 
ATOM      7  C6  BZF d   1      -0.630   1.658  -0.998  0.00  0.00     0.022 A 
ATOM      8  C7  BZF d   1      -1.574   2.625  -1.106  0.00  0.00     0.029 A 
ATOM      9  C7A BZF d   1      -1.244   3.875  -0.644  0.00  0.00     0.058 A 
ENDROOT
TORSDOF 0
ENDMDL
