MODEL 1
REMARK minimizedAffinity 8.18953705
REMARK minimizedRMSD -1
REMARK  0 active torsions:
REMARK  status: ('A' for Active; 'I' for Inactive)
ROOT
ATOM      1  O1  BZF d   1      -2.028  -3.677   1.531  0.00  0.00    -0.204 OA
ATOM      2  C2  BZF d   1      -2.994  -3.131   0.708  0.00  0.00     0.174 A 
ATOM      3  C3  BZF d   1      -2.428  -2.507  -0.345  0.00  0.00    -0.012 A 
ATOM      4  C3A BZF d   1      -1.024  -2.753  -0.218  0.00  0.00    -0.107 A 
ATOM      5  C4  BZF d   1       0.062  -2.404  -0.969  0.00  0.00     0.055 A 
ATOM      6  C5  BZF d   1       1.304  -2.740  -0.530  0.00  0.00    -0.016 A 
ATOM      7  C6  BZF d   1       1.497  -3.417   0.656  0.00  0.00     0.022 A 
ATOM      8  C7  BZF d   1       0.450  -3.789   1.432  0.00  0.00     0.029 A 
ATOM      9  C7A BZF d   1      -0.808  -3.481   0.975  0.00  0.00     0.058 A 
ENDROOT
TORSDOF 0
ENDMDL
