MODEL 1
REMARK minimizedAffinity 1.41666818
REMARK minimizedRMSD -1
REMARK  0 active torsions:
REMARK  status: ('A' for Active; 'I' for Inactive)
ROOT
ATOM      1  O1  BZF d   1      -0.561   0.374  -1.066  0.00  0.00    -0.204 OA
ATOM      2  C2  BZF d   1      -0.051  -0.219  -2.205  0.00  0.00     0.174 A 
ATOM      3  C3  BZF d   1       0.125  -1.543  -2.017  0.00  0.00    -0.012 A 
ATOM      4  C3A BZF d   1      -0.388  -1.809  -0.709  0.00  0.00    -0.107 A 
ATOM      5  C4  BZF d   1      -0.507  -2.945   0.040  0.00  0.00     0.055 A 
ATOM      6  C5  BZF d   1      -0.985  -2.852   1.309  0.00  0.00    -0.016 A 
ATOM      7  C6  BZF d   1      -1.348  -1.642   1.862  0.00  0.00     0.022 A 
ATOM      8  C7  BZF d   1      -1.253  -0.489   1.156  0.00  0.00     0.029 A 
ATOM      9  C7A BZF d   1      -0.801  -0.583  -0.138  0.00  0.00     0.058 A 
ENDROOT
TORSDOF 0
ENDMDL
