MODEL 1
REMARK minimizedAffinity 0.0498489328
REMARK minimizedRMSD -1
REMARK  0 active torsions:
REMARK  status: ('A' for Active; 'I' for Inactive)
ROOT
ATOM      1  O1  BZF d   1       0.061   1.433   0.842  0.00  0.00    -0.204 OA
ATOM      2  C2  BZF d   1       0.928   1.943  -0.105  0.00  0.00     0.174 A 
ATOM      3  C3  BZF d   1       1.231   1.008  -1.029  0.00  0.00    -0.012 A 
ATOM      4  C3A BZF d   1       0.435  -0.131  -0.686  0.00  0.00    -0.107 A 
ATOM      5  C4  BZF d   1       0.283  -1.371  -1.238  0.00  0.00     0.055 A 
ATOM      6  C5  BZF d   1      -0.517  -2.277  -0.617  0.00  0.00    -0.016 A 
ATOM      7  C6  BZF d   1      -1.176  -1.979   0.558  0.00  0.00     0.022 A 
ATOM      8  C7  BZF d   1      -1.060  -0.761   1.141  0.00  0.00     0.029 A 
ATOM      9  C7A BZF d   1      -0.278   0.168   0.498  0.00  0.00     0.058 A 
ENDROOT
TORSDOF 0
ENDMDL
