MODEL 1
REMARK minimizedAffinity -5.44776773
REMARK minimizedRMSD -1
REMARK  0 active torsions:
REMARK  status: ('A' for Active; 'I' for Inactive)
ROOT
ATOM      1  O1  BZF d   1       0.476   0.451  -1.044  0.00  0.00    -0.204 OA
ATOM      2  C2  BZF d   1      -0.389   1.126  -0.205  0.00  0.00     0.174 A 
ATOM      3  C3  BZF d   1      -1.092   0.261   0.554  0.00  0.00    -0.012 A 
ATOM      4  C3A BZF d   1      -0.573  -1.032   0.230  0.00  0.00    -0.107 A 
ATOM      5  C4  BZF d   1      -0.856  -2.294   0.669  0.00  0.00     0.055 A 
ATOM      6  C5  BZF d   1      -0.218  -3.350   0.098  0.00  0.00    -0.016 A 
ATOM      7  C6  BZF d   1       0.702  -3.181  -0.916  0.00  0.00     0.022 A 
ATOM      8  C7  BZF d   1       1.020  -1.948  -1.380  0.00  0.00     0.029 A 
ATOM      9  C7A BZF d   1       0.402  -0.876  -0.783  0.00  0.00     0.058 A 
ENDROOT
TORSDOF 0
ENDMDL
