MODEL 1
REMARK minimizedAffinity 7.1148262
REMARK minimizedRMSD -1
REMARK  0 active torsions:
REMARK  status: ('A' for Active; 'I' for Inactive)
ROOT
ATOM      1  O1  BZF d   1       3.758  -4.808   5.717  0.00  0.00    -0.204 OA
ATOM      2  C2  BZF d   1       4.928  -5.516   5.525  0.00  0.00     0.174 A 
ATOM      3  C3  BZF d   1       5.980  -4.680   5.408  0.00  0.00    -0.012 A 
ATOM      4  C3A BZF d   1       5.446  -3.371   5.626  0.00  0.00    -0.107 A 
ATOM      5  C4  BZF d   1       6.000  -2.123   5.653  0.00  0.00     0.055 A 
ATOM      6  C5  BZF d   1       5.191  -1.044   5.820  0.00  0.00    -0.016 A 
ATOM      7  C6  BZF d   1       3.824  -1.176   5.957  0.00  0.00     0.022 A 
ATOM      8  C7  BZF d   1       3.229  -2.394   5.942  0.00  0.00     0.029 A 
ATOM      9  C7A BZF d   1       4.048  -3.488   5.807  0.00  0.00     0.058 A 
ENDROOT
TORSDOF 0
ENDMDL
