MODEL 1
REMARK minimizedAffinity -0.148039654
REMARK minimizedRMSD -1
REMARK  0 active torsions:
REMARK  status: ('A' for Active; 'I' for Inactive)
ROOT
ATOM      1  O1  BZF d   1      -0.778  -2.277  -2.464  0.00  0.00    -0.204 OA
ATOM      2  C2  BZF d   1      -1.392  -3.471  -2.140  0.00  0.00     0.174 A 
ATOM      3  C3  BZF d   1      -1.486  -3.613  -0.802  0.00  0.00    -0.012 A 
ATOM      4  C3A BZF d   1      -0.977  -2.391  -0.258  0.00  0.00    -0.107 A 
ATOM      5  C4  BZF d   1      -0.825  -1.922   1.016  0.00  0.00     0.055 A 
ATOM      6  C5  BZF d   1      -0.228  -0.717   1.209  0.00  0.00    -0.016 A 
ATOM      7  C6  BZF d   1       0.233   0.042   0.154  0.00  0.00     0.022 A 
ATOM      8  C7  BZF d   1       0.100  -0.379  -1.128  0.00  0.00     0.029 A 
ATOM      9  C7A BZF d   1      -0.533  -1.581  -1.328  0.00  0.00     0.058 A 
ENDROOT
TORSDOF 0
ENDMDL
