MODEL 1
REMARK minimizedAffinity -2.74561477
REMARK minimizedRMSD -1
REMARK  0 active torsions:
REMARK  status: ('A' for Active; 'I' for Inactive)
ROOT
ATOM      1  O1  BZF d   1       0.117   0.965   0.223  0.00  0.00    -0.204 OA
ATOM      2  C2  BZF d   1      -0.989   1.370   0.945  0.00  0.00     0.174 A 
ATOM      3  C3  BZF d   1      -1.776   0.317   1.245  0.00  0.00    -0.012 A 
ATOM      4  C3A BZF d   1      -1.075  -0.829   0.754  0.00  0.00    -0.107 A 
ATOM      5  C4  BZF d   1      -1.340  -2.169   0.767  0.00  0.00     0.055 A 
ATOM      6  C5  BZF d   1      -0.485  -3.017   0.138  0.00  0.00    -0.016 A 
ATOM      7  C6  BZF d   1       0.640  -2.561  -0.517  0.00  0.00     0.022 A 
ATOM      8  C7  BZF d   1       0.947  -1.241  -0.553  0.00  0.00     0.029 A 
ATOM      9  C7A BZF d   1       0.103  -0.385   0.110  0.00  0.00     0.058 A 
ENDROOT
TORSDOF 0
ENDMDL
