MODEL 1
REMARK minimizedAffinity 2.05135942
REMARK minimizedRMSD -1
REMARK  1 active torsions:
REMARK  status: ('A' for Active; 'I' for Inactive)
REMARK    1  A    between atoms: C1_2  and  C2_3 
ROOT
ATOM      1  C2  UNL d   1      -2.826   1.168   2.573  0.00  0.00    -0.081 A 
ATOM      2  C3  UNL d   1      -2.262  -0.029   2.113  0.00  0.00     0.006 A 
ATOM      3  C4  UNL d   1      -1.050  -0.019   1.418  0.00  0.00     0.002 A 
ATOM      4  C5  UNL d   1      -0.378   1.184   1.179  0.00  0.00    -0.080 A 
ATOM      5  C6  UNL d   1       0.938   1.205   0.461  0.00  0.00     0.076 C 
ATOM      6  C7  UNL d   1      -0.950   2.381   1.623  0.00  0.00     0.002 A 
ATOM      7  C8  UNL d   1      -2.162   2.373   2.317  0.00  0.00     0.006 A 
ENDROOT
BRANCH   1   8
ATOM      8  C1  UNL d   1      -4.100   1.155   3.378  0.00  0.00     0.054 C 
ATOM      9  C   UNL d   1      -4.316   2.481   4.094  0.00  0.00     0.018 C 
ENDBRANCH   1   8
TORSDOF 1
ENDMDL
