MODEL 1
REMARK minimizedAffinity 5.46619225
REMARK minimizedRMSD -1
REMARK  1 active torsions:
REMARK  status: ('A' for Active; 'I' for Inactive)
REMARK    1  A    between atoms: C1_2  and  C2_3 
ROOT
ATOM      1  C2  UNL d   1      -3.316   1.897   3.066  0.00  0.00    -0.081 A 
ATOM      2  C3  UNL d   1      -2.417   2.921   2.743  0.00  0.00     0.006 A 
ATOM      3  C4  UNL d   1      -1.254   2.640   2.022  0.00  0.00     0.002 A 
ATOM      4  C5  UNL d   1      -0.975   1.334   1.605  0.00  0.00    -0.080 A 
ATOM      5  C6  UNL d   1       0.254   1.024   0.805  0.00  0.00     0.076 C 
ATOM      6  C7  UNL d   1      -1.865   0.309   1.944  0.00  0.00     0.002 A 
ATOM      7  C8  UNL d   1      -3.027   0.589   2.665  0.00  0.00     0.006 A 
ENDROOT
BRANCH   1   8
ATOM      8  C1  UNL d   1      -4.603   2.207   3.788  0.00  0.00     0.054 C 
ATOM      9  C   UNL d   1      -4.372   2.380   5.282  0.00  0.00     0.018 C 
ENDBRANCH   1   8
TORSDOF 1
ENDMDL
