MODEL 1
REMARK minimizedAffinity -4.93590117
REMARK minimizedRMSD -1
REMARK  1 active torsions:
REMARK  status: ('A' for Active; 'I' for Inactive)
REMARK    1  A    between atoms: C1_2  and  C2_3 
ROOT
ATOM      1  C2  UNL d   1      -0.740   0.356   1.439  0.00  0.00    -0.081 A 
ATOM      2  C3  UNL d   1       0.429   0.178   0.689  0.00  0.00     0.006 A 
ATOM      3  C4  UNL d   1       1.296   1.250   0.465  0.00  0.00     0.002 A 
ATOM      4  C5  UNL d   1       1.013   2.514   0.992  0.00  0.00    -0.080 A 
ATOM      5  C6  UNL d   1       1.951   3.666   0.784  0.00  0.00     0.076 C 
ATOM      6  C7  UNL d   1      -0.163   2.696   1.727  0.00  0.00     0.002 A 
ATOM      7  C8  UNL d   1      -1.031   1.625   1.951  0.00  0.00     0.006 A 
ENDROOT
BRANCH   1   8
ATOM      8  C1  UNL d   1      -1.644  -0.813   1.738  0.00  0.00     0.054 C 
ATOM      9  C   UNL d   1      -2.698  -0.446   2.773  0.00  0.00     0.018 C 
ENDBRANCH   1   8
TORSDOF 1
ENDMDL
