MODEL 1
REMARK minimizedAffinity 5.73351812
REMARK minimizedRMSD -1
REMARK  1 active torsions:
REMARK  status: ('A' for Active; 'I' for Inactive)
REMARK    1  A    between atoms: C1_2  and  C2_3 
ROOT
ATOM      1  C2  UNL d   1      -1.864   1.015   2.335  0.00  0.00    -0.081 A 
ATOM      2  C3  UNL d   1      -1.475   2.319   2.008  0.00  0.00     0.006 A 
ATOM      3  C4  UNL d   1      -0.471   2.543   1.063  0.00  0.00     0.002 A 
ATOM      4  C5  UNL d   1       0.154   1.467   0.423  0.00  0.00    -0.080 A 
ATOM      5  C6  UNL d   1       1.211   1.694  -0.617  0.00  0.00     0.076 C 
ATOM      6  C7  UNL d   1      -0.223   0.163   0.761  0.00  0.00     0.002 A 
ATOM      7  C8  UNL d   1      -1.226  -0.061   1.707  0.00  0.00     0.006 A 
ENDROOT
BRANCH   1   8
ATOM      8  C1  UNL d   1      -2.991   0.772   3.306  0.00  0.00     0.054 C 
ATOM      9  C   UNL d   1      -3.682   2.073   3.689  0.00  0.00     0.018 C 
ENDBRANCH   1   8
TORSDOF 1
ENDMDL
