MODEL 1
REMARK minimizedAffinity -5.06029844
REMARK minimizedRMSD -1
REMARK  1 active torsions:
REMARK  status: ('A' for Active; 'I' for Inactive)
REMARK    1  A    between atoms: C1_2  and  C2_3 
ROOT
ATOM      1  C2  UNL d   1       0.715   0.814   1.036  0.00  0.00    -0.081 A 
ATOM      2  C3  UNL d   1       0.156   2.044   1.404  0.00  0.00     0.006 A 
ATOM      3  C4  UNL d   1      -1.193   2.131   1.758  0.00  0.00     0.002 A 
ATOM      4  C5  UNL d   1      -2.002   0.990   1.758  0.00  0.00    -0.080 A 
ATOM      5  C6  UNL d   1      -3.443   1.064   2.165  0.00  0.00     0.076 C 
ATOM      6  C7  UNL d   1      -1.447  -0.236   1.373  0.00  0.00     0.002 A 
ATOM      7  C8  UNL d   1      -0.099  -0.323   1.018  0.00  0.00     0.006 A 
ENDROOT
BRANCH   1   8
ATOM      8  C1  UNL d   1       2.184   0.706   0.716  0.00  0.00     0.054 C 
ATOM      9  C   UNL d   1       2.437   0.844  -0.778  0.00  0.00     0.018 C 
ENDBRANCH   1   8
TORSDOF 1
ENDMDL
