MODEL 1
REMARK minimizedAffinity 7.53644085
REMARK minimizedRMSD -1
REMARK  1 active torsions:
REMARK  status: ('A' for Active; 'I' for Inactive)
REMARK    1  A    between atoms: C1_2  and  C2_3 
ROOT
ATOM      1  C2  UNL d   1      -4.380   3.690   3.180  0.00  0.00    -0.081 A 
ATOM      2  C3  UNL d   1      -5.271   4.351   2.326  0.00  0.00     0.006 A 
ATOM      3  C4  UNL d   1      -4.887   4.691   1.026  0.00  0.00     0.002 A 
ATOM      4  C5  UNL d   1      -3.609   4.368   0.557  0.00  0.00    -0.080 A 
ATOM      5  C6  UNL d   1      -3.195   4.700  -0.846  0.00  0.00     0.076 C 
ATOM      6  C7  UNL d   1      -2.713   3.724   1.416  0.00  0.00     0.002 A 
ATOM      7  C8  UNL d   1      -3.096   3.385   2.715  0.00  0.00     0.006 A 
ENDROOT
BRANCH   1   8
ATOM      8  C1  UNL d   1      -4.813   3.265   4.560  0.00  0.00     0.054 C 
ATOM      9  C   UNL d   1      -5.639   4.349   5.239  0.00  0.00     0.018 C 
ENDBRANCH   1   8
TORSDOF 1
ENDMDL
