MODEL 1
REMARK minimizedAffinity -4.11719465
REMARK minimizedRMSD -1
REMARK  1 active torsions:
REMARK  status: ('A' for Active; 'I' for Inactive)
REMARK    1  A    between atoms: C1_2  and  C2_3 
ROOT
ATOM      1  C2  UNL d   1       0.941   0.503   0.697  0.00  0.00    -0.081 A 
ATOM      2  C3  UNL d   1       1.172   1.689   1.405  0.00  0.00     0.006 A 
ATOM      3  C4  UNL d   1       0.131   2.318   2.092  0.00  0.00     0.002 A 
ATOM      4  C5  UNL d   1      -1.155   1.768   2.089  0.00  0.00    -0.080 A 
ATOM      5  C6  UNL d   1      -2.275   2.417   2.847  0.00  0.00     0.076 C 
ATOM      6  C7  UNL d   1      -1.390   0.593   1.367  0.00  0.00     0.002 A 
ATOM      7  C8  UNL d   1      -0.350  -0.036   0.679  0.00  0.00     0.006 A 
ENDROOT
BRANCH   1   8
ATOM      8  C1  UNL d   1       2.076  -0.212   0.009  0.00  0.00     0.054 C 
ATOM      9  C   UNL d   1       2.419   0.446  -1.320  0.00  0.00     0.018 C 
ENDBRANCH   1   8
TORSDOF 1
ENDMDL
