MODEL 1
REMARK minimizedAffinity 3.70535088
REMARK minimizedRMSD -1
REMARK  1 active torsions:
REMARK  status: ('A' for Active; 'I' for Inactive)
REMARK    1  A    between atoms: C1_2  and  C2_3 
ROOT
ATOM      1  C2  UNL d   1      -1.699  -0.053   2.358  0.00  0.00    -0.081 A 
ATOM      2  C3  UNL d   1      -1.489   1.301   2.068  0.00  0.00     0.006 A 
ATOM      3  C4  UNL d   1      -0.462   1.689   1.204  0.00  0.00     0.002 A 
ATOM      4  C5  UNL d   1       0.366   0.730   0.610  0.00  0.00    -0.080 A 
ATOM      5  C6  UNL d   1       1.453   1.131  -0.342  0.00  0.00     0.076 C 
ATOM      6  C7  UNL d   1       0.168  -0.621   0.914  0.00  0.00     0.002 A 
ATOM      7  C8  UNL d   1      -0.858  -1.009   1.778  0.00  0.00     0.006 A 
ENDROOT
BRANCH   1   8
ATOM      8  C1  UNL d   1      -2.846  -0.479   3.238  0.00  0.00     0.054 C 
ATOM      9  C   UNL d   1      -2.425  -1.578   4.203  0.00  0.00     0.018 C 
ENDBRANCH   1   8
TORSDOF 1
ENDMDL
