MODEL 1
REMARK minimizedAffinity -1.62017345
REMARK minimizedRMSD -1
REMARK  1 active torsions:
REMARK  status: ('A' for Active; 'I' for Inactive)
REMARK    1  A    between atoms: C1_2  and  C2_3 
ROOT
ATOM      1  C2  UNL d   1       0.936   2.765   0.485  0.00  0.00    -0.081 A 
ATOM      2  C3  UNL d   1       1.211   1.393   0.543  0.00  0.00     0.006 A 
ATOM      3  C4  UNL d   1       0.246   0.497   1.009  0.00  0.00     0.002 A 
ATOM      4  C5  UNL d   1      -1.012   0.956   1.417  0.00  0.00    -0.080 A 
ATOM      5  C6  UNL d   1      -2.067   0.001   1.890  0.00  0.00     0.076 C 
ATOM      6  C7  UNL d   1      -1.280   2.328   1.375  0.00  0.00     0.002 A 
ATOM      7  C8  UNL d   1      -0.315   3.225   0.910  0.00  0.00     0.006 A 
ENDROOT
BRANCH   1   8
ATOM      8  C1  UNL d   1       1.951   3.726  -0.078  0.00  0.00     0.054 C 
ATOM      9  C   UNL d   1       2.720   4.430   1.031  0.00  0.00     0.018 C 
ENDBRANCH   1   8
TORSDOF 1
ENDMDL
