MODEL 1
REMARK minimizedAffinity -4.95920515
REMARK minimizedRMSD -1
REMARK  1 active torsions:
REMARK  status: ('A' for Active; 'I' for Inactive)
REMARK    1  A    between atoms: C1_2  and  C2_3 
ROOT
ATOM      1  C2  UNL d   1       1.345   0.254   0.432  0.00  0.00    -0.081 A 
ATOM      2  C3  UNL d   1       1.212   1.641   0.570  0.00  0.00     0.006 A 
ATOM      3  C4  UNL d   1       0.122   2.182   1.257  0.00  0.00     0.002 A 
ATOM      4  C5  UNL d   1      -0.846   1.347   1.823  0.00  0.00    -0.080 A 
ATOM      5  C6  UNL d   1      -2.005   1.914   2.589  0.00  0.00     0.076 C 
ATOM      6  C7  UNL d   1      -0.722  -0.038   1.670  0.00  0.00     0.002 A 
ATOM      7  C8  UNL d   1       0.367  -0.580   0.983  0.00  0.00     0.006 A 
ENDROOT
BRANCH   1   8
ATOM      8  C1  UNL d   1       2.553  -0.335  -0.252  0.00  0.00     0.054 C 
ATOM      9  C   UNL d   1       2.893   0.426  -1.525  0.00  0.00     0.018 C 
ENDBRANCH   1   8
TORSDOF 1
ENDMDL
