MODEL 1
REMARK minimizedAffinity 0.850887656
REMARK minimizedRMSD -1
REMARK  1 active torsions:
REMARK  status: ('A' for Active; 'I' for Inactive)
REMARK    1  A    between atoms: C1_2  and  C2_3 
ROOT
ATOM      1  C2  UNL d   1      -2.320   1.661   2.410  0.00  0.00    -0.081 A 
ATOM      2  C3  UNL d   1      -1.225   2.395   1.938  0.00  0.00     0.006 A 
ATOM      3  C4  UNL d   1      -0.261   1.789   1.130  0.00  0.00     0.002 A 
ATOM      4  C5  UNL d   1      -0.379   0.441   0.774  0.00  0.00    -0.080 A 
ATOM      5  C6  UNL d   1       0.633  -0.215  -0.118  0.00  0.00     0.076 C 
ATOM      6  C7  UNL d   1      -1.463  -0.298   1.259  0.00  0.00     0.002 A 
ATOM      7  C8  UNL d   1      -2.427   0.308   2.068  0.00  0.00     0.006 A 
ENDROOT
BRANCH   1   8
ATOM      8  C1  UNL d   1      -3.395   2.328   3.229  0.00  0.00     0.054 C 
ATOM      9  C   UNL d   1      -4.546   1.374   3.513  0.00  0.00     0.018 C 
ENDBRANCH   1   8
TORSDOF 1
ENDMDL
