MODEL 1
REMARK minimizedAffinity 3.88134241
REMARK minimizedRMSD -1
REMARK  1 active torsions:
REMARK  status: ('A' for Active; 'I' for Inactive)
REMARK    1  A    between atoms: C1_2  and  C2_3 
ROOT
ATOM      1  C2  UNL d   1      -1.397   1.456   1.503  0.00  0.00    -0.081 A 
ATOM      2  C3  UNL d   1      -1.272   0.115   1.887  0.00  0.00     0.006 A 
ATOM      3  C4  UNL d   1      -0.137  -0.619   1.536  0.00  0.00     0.002 A 
ATOM      4  C5  UNL d   1       0.895  -0.024   0.803  0.00  0.00    -0.080 A 
ATOM      5  C6  UNL d   1       2.133  -0.792   0.446  0.00  0.00     0.076 C 
ATOM      6  C7  UNL d   1       0.763   1.311   0.405  0.00  0.00     0.002 A 
ATOM      7  C8  UNL d   1      -0.373   2.045   0.755  0.00  0.00     0.006 A 
ENDROOT
BRANCH   1   8
ATOM      8  C1  UNL d   1      -2.591   2.269   1.935  0.00  0.00     0.054 C 
ATOM      9  C   UNL d   1      -2.599   3.637   1.268  0.00  0.00     0.018 C 
ENDBRANCH   1   8
TORSDOF 1
ENDMDL
