MODEL 1
REMARK minimizedAffinity 4.84431791
REMARK minimizedRMSD -1
REMARK  1 active torsions:
REMARK  status: ('A' for Active; 'I' for Inactive)
REMARK    1  A    between atoms: C1_2  and  C2_3 
ROOT
ATOM      1  C2  UNL d   1      -3.343  -4.808  -0.966  0.00  0.00    -0.081 A 
ATOM      2  C3  UNL d   1      -4.116  -3.655  -0.780  0.00  0.00     0.006 A 
ATOM      3  C4  UNL d   1      -3.999  -2.575  -1.657  0.00  0.00     0.002 A 
ATOM      4  C5  UNL d   1      -3.114  -2.631  -2.739  0.00  0.00    -0.080 A 
ATOM      5  C6  UNL d   1      -3.001  -1.491  -3.706  0.00  0.00     0.076 C 
ATOM      6  C7  UNL d   1      -2.329  -3.776  -2.915  0.00  0.00     0.002 A 
ATOM      7  C8  UNL d   1      -2.445  -4.856  -2.038  0.00  0.00     0.006 A 
ENDROOT
BRANCH   1   8
ATOM      8  C1  UNL d   1      -3.514  -6.000  -0.059  0.00  0.00     0.054 C 
ATOM      9  C   UNL d   1      -4.884  -5.999   0.604  0.00  0.00     0.018 C 
ENDBRANCH   1   8
TORSDOF 1
ENDMDL
