MODEL 1
REMARK minimizedAffinity -2.41545415
REMARK minimizedRMSD -1
REMARK  1 active torsions:
REMARK  status: ('A' for Active; 'I' for Inactive)
REMARK    1  A    between atoms: C1_2  and  C2_3 
ROOT
ATOM      1  C2  UNL d   1      -1.996   1.546   1.849  0.00  0.00    -0.081 A 
ATOM      2  C3  UNL d   1      -0.808   2.275   1.719  0.00  0.00     0.006 A 
ATOM      3  C4  UNL d   1       0.371   1.642   1.315  0.00  0.00     0.002 A 
ATOM      4  C5  UNL d   1       0.379   0.273   1.027  0.00  0.00    -0.080 A 
ATOM      5  C6  UNL d   1       1.630  -0.412   0.563  0.00  0.00     0.076 C 
ATOM      6  C7  UNL d   1      -0.804  -0.459   1.175  0.00  0.00     0.002 A 
ATOM      7  C8  UNL d   1      -1.982   0.173   1.579  0.00  0.00     0.006 A 
ENDROOT
BRANCH   1   8
ATOM      8  C1  UNL d   1      -3.282   2.237   2.222  0.00  0.00     0.054 C 
ATOM      9  C   UNL d   1      -4.017   1.483   3.322  0.00  0.00     0.018 C 
ENDBRANCH   1   8
TORSDOF 1
ENDMDL
