MODEL 1
REMARK minimizedAffinity 1.35205376
REMARK minimizedRMSD -1
REMARK  1 active torsions:
REMARK  status: ('A' for Active; 'I' for Inactive)
REMARK    1  A    between atoms: C1_2  and  C2_3 
ROOT
ATOM      1  C2  UNL d   1      -1.978  -0.215   2.179  0.00  0.00    -0.081 A 
ATOM      2  C3  UNL d   1      -0.914  -0.936   1.625  0.00  0.00     0.006 A 
ATOM      3  C4  UNL d   1       0.118  -0.274   0.954  0.00  0.00     0.002 A 
ATOM      4  C5  UNL d   1       0.107   1.119   0.834  0.00  0.00    -0.080 A 
ATOM      5  C6  UNL d   1       1.223   1.845   0.144  0.00  0.00     0.076 C 
ATOM      6  C7  UNL d   1      -0.965   1.839   1.373  0.00  0.00     0.002 A 
ATOM      7  C8  UNL d   1      -1.997   1.178   2.043  0.00  0.00     0.006 A 
ENDROOT
BRANCH   1   8
ATOM      8  C1  UNL d   1      -3.058  -0.920   2.959  0.00  0.00     0.054 C 
ATOM      9  C   UNL d   1      -2.468  -1.793   4.057  0.00  0.00     0.018 C 
ENDBRANCH   1   8
TORSDOF 1
ENDMDL
