MODEL 1
REMARK minimizedAffinity -1.98268723
REMARK minimizedRMSD -1
REMARK  1 active torsions:
REMARK  status: ('A' for Active; 'I' for Inactive)
REMARK    1  A    between atoms: C3_4  and  O_7 
ROOT
ATOM      1  C   UNL d   1       1.781  -2.709  -0.310  0.00  0.00    -0.033 A 
ATOM      2  C1  UNL d   1       1.644  -1.322  -0.220  0.00  0.00     0.039 A 
ATOM      3  C2  UNL d   1       0.846  -0.762   0.779  0.00  0.00    -0.080 A 
ATOM      4  C3  UNL d   1       0.193  -1.597   1.681  0.00  0.00     0.150 A 
ATOM      5  C4  UNL d   1       0.328  -2.979   1.599  0.00  0.00    -0.007 A 
ATOM      6  C5  UNL d   1       1.125  -3.537   0.600  0.00  0.00     0.039 A 
ENDROOT
BRANCH   4   7
ATOM      7  O   UNL d   1      -0.601  -1.096   2.670  0.00  0.00    -0.526 OA
ATOM      8  H5  UNL d   1      -0.623  -0.128   2.586  0.00  0.00     0.418 HD
ENDBRANCH   4   7
TORSDOF 1
ENDMDL
