MODEL 1
REMARK minimizedAffinity -4.02299118
REMARK minimizedRMSD -1
REMARK  1 active torsions:
REMARK  status: ('A' for Active; 'I' for Inactive)
REMARK    1  A    between atoms: C3_4  and  O_7 
ROOT
ATOM      1  C   UNL d   1      -0.069  -0.919   0.646  0.00  0.00    -0.033 A 
ATOM      2  C1  UNL d   1      -0.624  -2.189   0.814  0.00  0.00     0.039 A 
ATOM      3  C2  UNL d   1       0.151  -3.327   0.582  0.00  0.00    -0.080 A 
ATOM      4  C3  UNL d   1       1.477  -3.182   0.185  0.00  0.00     0.150 A 
ATOM      5  C4  UNL d   1       2.037  -1.919   0.019  0.00  0.00    -0.007 A 
ATOM      6  C5  UNL d   1       1.262  -0.784   0.249  0.00  0.00     0.039 A 
ENDROOT
BRANCH   4   7
ATOM      7  O   UNL d   1       2.272  -4.263  -0.058  0.00  0.00    -0.526 OA
ATOM      8  H5  UNL d   1       1.742  -5.068   0.070  0.00  0.00     0.418 HD
ENDBRANCH   4   7
TORSDOF 1
ENDMDL
