MODEL 1
REMARK minimizedAffinity -0.729160786
REMARK minimizedRMSD -1
REMARK  1 active torsions:
REMARK  status: ('A' for Active; 'I' for Inactive)
REMARK    1  A    between atoms: C3_4  and  O_7 
ROOT
ATOM      1  C   UNL d   1       0.354  -1.212   0.719  0.00  0.00    -0.033 A 
ATOM      2  C1  UNL d   1      -0.214  -2.487   0.727  0.00  0.00     0.039 A 
ATOM      3  C2  UNL d   1       0.583  -3.611   0.500  0.00  0.00    -0.080 A 
ATOM      4  C3  UNL d   1       1.946  -3.446   0.267  0.00  0.00     0.150 A 
ATOM      5  C4  UNL d   1       2.519  -2.178   0.261  0.00  0.00    -0.007 A 
ATOM      6  C5  UNL d   1       1.721  -1.058   0.487  0.00  0.00     0.039 A 
ENDROOT
BRANCH   4   7
ATOM      7  O   UNL d   1       2.763  -4.511   0.035  0.00  0.00    -0.526 OA
ATOM      8  H5  UNL d   1       2.224  -5.320   0.041  0.00  0.00     0.418 HD
ENDBRANCH   4   7
TORSDOF 1
ENDMDL
