MODEL 1
REMARK minimizedAffinity -4.67619896
REMARK minimizedRMSD -1
REMARK  1 active torsions:
REMARK  status: ('A' for Active; 'I' for Inactive)
REMARK    1  A    between atoms: C3_4  and  O_7 
ROOT
ATOM      1  C   UNL d   1       1.888  -2.930   0.470  0.00  0.00    -0.033 A 
ATOM      2  C1  UNL d   1       2.282  -1.596   0.585  0.00  0.00     0.039 A 
ATOM      3  C2  UNL d   1       1.323  -0.593   0.743  0.00  0.00    -0.080 A 
ATOM      4  C3  UNL d   1      -0.025  -0.938   0.786  0.00  0.00     0.150 A 
ATOM      5  C4  UNL d   1      -0.425  -2.266   0.676  0.00  0.00    -0.007 A 
ATOM      6  C5  UNL d   1       0.534  -3.265   0.517  0.00  0.00     0.039 A 
ENDROOT
BRANCH   4   7
ATOM      7  O   UNL d   1      -0.997   0.006   0.934  0.00  0.00    -0.526 OA
ATOM      8  H5  UNL d   1      -0.575   0.880   0.968  0.00  0.00     0.418 HD
ENDBRANCH   4   7
TORSDOF 1
ENDMDL
