MODEL 1
REMARK minimizedAffinity -3.65306115
REMARK minimizedRMSD -1
REMARK  1 active torsions:
REMARK  status: ('A' for Active; 'I' for Inactive)
REMARK    1  A    between atoms: C3_4  and  O_7 
ROOT
ATOM      1  C   UNL d   1       4.514   5.993   2.192  0.00  0.00    -0.033 A 
ATOM      2  C1  UNL d   1       3.376   5.250   1.870  0.00  0.00     0.039 A 
ATOM      3  C2  UNL d   1       3.332   4.516   0.684  0.00  0.00    -0.080 A 
ATOM      4  C3  UNL d   1       4.431   4.532  -0.171  0.00  0.00     0.150 A 
ATOM      5  C4  UNL d   1       5.569   5.266   0.144  0.00  0.00    -0.007 A 
ATOM      6  C5  UNL d   1       5.611   6.000   1.329  0.00  0.00     0.039 A 
ENDROOT
BRANCH   4   7
ATOM      7  O   UNL d   1       4.432   3.835  -1.343  0.00  0.00    -0.526 OA
ATOM      8  H5  UNL d   1       3.570   3.398  -1.442  0.00  0.00     0.418 HD
ENDBRANCH   4   7
TORSDOF 1
ENDMDL
