MODEL 1
REMARK minimizedAffinity -3.8822577
REMARK minimizedRMSD -1
REMARK  1 active torsions:
REMARK  status: ('A' for Active; 'I' for Inactive)
REMARK    1  A    between atoms: C3_4  and  O_7 
ROOT
ATOM      1  C   UNL d   1       0.871  -1.322   0.438  0.00  0.00    -0.033 A 
ATOM      2  C1  UNL d   1       2.249  -1.106   0.372  0.00  0.00     0.039 A 
ATOM      3  C2  UNL d   1       3.122  -2.190   0.268  0.00  0.00    -0.080 A 
ATOM      4  C3  UNL d   1       2.606  -3.483   0.229  0.00  0.00     0.150 A 
ATOM      5  C4  UNL d   1       1.234  -3.704   0.290  0.00  0.00    -0.007 A 
ATOM      6  C5  UNL d   1       0.364  -2.621   0.396  0.00  0.00     0.039 A 
ENDROOT
BRANCH   4   7
ATOM      7  O   UNL d   1       3.420  -4.572   0.132  0.00  0.00    -0.526 OA
ATOM      8  H5  UNL d   1       4.343  -4.268   0.128  0.00  0.00     0.418 HD
ENDBRANCH   4   7
TORSDOF 1
ENDMDL
