MODEL 1
REMARK minimizedAffinity -2.57322502
REMARK minimizedRMSD -1
REMARK  1 active torsions:
REMARK  status: ('A' for Active; 'I' for Inactive)
REMARK    1  A    between atoms: C3_4  and  O_7 
ROOT
ATOM      1  C   UNL d   1       1.423  -1.682   0.584  0.00  0.00    -0.033 A 
ATOM      2  C1  UNL d   1       0.943  -2.992   0.512  0.00  0.00     0.039 A 
ATOM      3  C2  UNL d   1       1.814  -4.040   0.210  0.00  0.00    -0.080 A 
ATOM      4  C3  UNL d   1       3.160  -3.767  -0.017  0.00  0.00     0.150 A 
ATOM      5  C4  UNL d   1       3.645  -2.465   0.057  0.00  0.00    -0.007 A 
ATOM      6  C5  UNL d   1       2.774  -1.420   0.358  0.00  0.00     0.039 A 
ENDROOT
BRANCH   4   7
ATOM      7  O   UNL d   1       4.047  -4.757  -0.320  0.00  0.00    -0.526 OA
ATOM      8  H5  UNL d   1       3.565  -5.599  -0.364  0.00  0.00     0.418 HD
ENDBRANCH   4   7
TORSDOF 1
ENDMDL
