MODEL 1
REMARK minimizedAffinity -0.663512588
REMARK minimizedRMSD -1
REMARK  1 active torsions:
REMARK  status: ('A' for Active; 'I' for Inactive)
REMARK    1  A    between atoms: C3_4  and  O_7 
ROOT
ATOM      1  C   UNL d   1      -5.239  -3.709   2.593  0.00  0.00    -0.033 A 
ATOM      2  C1  UNL d   1      -5.674  -5.030   2.465  0.00  0.00     0.039 A 
ATOM      3  C2  UNL d   1      -5.873  -5.814   3.603  0.00  0.00    -0.080 A 
ATOM      4  C3  UNL d   1      -5.635  -5.266   4.861  0.00  0.00     0.150 A 
ATOM      5  C4  UNL d   1      -5.206  -3.950   4.995  0.00  0.00    -0.007 A 
ATOM      6  C5  UNL d   1      -5.007  -3.169   3.858  0.00  0.00     0.039 A 
ENDROOT
BRANCH   4   7
ATOM      7  O   UNL d   1      -5.811  -5.994   6.000  0.00  0.00    -0.526 OA
ATOM      8  H5  UNL d   1      -6.081  -6.894   5.751  0.00  0.00     0.418 HD
ENDBRANCH   4   7
TORSDOF 1
ENDMDL
