MODEL 1
REMARK minimizedAffinity -2.92424345
REMARK minimizedRMSD -1
REMARK  1 active torsions:
REMARK  status: ('A' for Active; 'I' for Inactive)
REMARK    1  A    between atoms: C3_4  and  O_7 
ROOT
ATOM      1  C   UNL d   1       1.191  -2.017   0.595  0.00  0.00    -0.033 A 
ATOM      2  C1  UNL d   1       2.529  -1.639   0.470  0.00  0.00     0.039 A 
ATOM      3  C2  UNL d   1       3.509  -2.604   0.226  0.00  0.00    -0.080 A 
ATOM      4  C3  UNL d   1       3.137  -3.940   0.109  0.00  0.00     0.150 A 
ATOM      5  C4  UNL d   1       1.805  -4.323   0.228  0.00  0.00    -0.007 A 
ATOM      6  C5  UNL d   1       0.829  -3.358   0.472  0.00  0.00     0.039 A 
ENDROOT
BRANCH   4   7
ATOM      7  O   UNL d   1       4.058  -4.918  -0.124  0.00  0.00    -0.526 OA
ATOM      8  H5  UNL d   1       4.940  -4.510  -0.155  0.00  0.00     0.418 HD
ENDBRANCH   4   7
TORSDOF 1
ENDMDL
