MODEL 1
REMARK minimizedAffinity -1.44249773
REMARK minimizedRMSD -1
REMARK  1 active torsions:
REMARK  status: ('A' for Active; 'I' for Inactive)
REMARK    1  A    between atoms: C3_4  and  O_7 
ROOT
ATOM      1  C   UNL d   1       0.426  -0.819   0.907  0.00  0.00    -0.033 A 
ATOM      2  C1  UNL d   1       1.810  -0.977   0.811  0.00  0.00     0.039 A 
ATOM      3  C2  UNL d   1       2.352  -2.219   0.475  0.00  0.00    -0.080 A 
ATOM      4  C3  UNL d   1       1.499  -3.293   0.236  0.00  0.00     0.150 A 
ATOM      5  C4  UNL d   1       0.120  -3.142   0.325  0.00  0.00    -0.007 A 
ATOM      6  C5  UNL d   1      -0.419  -1.901   0.662  0.00  0.00     0.039 A 
ENDROOT
BRANCH   4   7
ATOM      7  O   UNL d   1       1.981  -4.526  -0.091  0.00  0.00    -0.526 OA
ATOM      8  H5  UNL d   1       2.952  -4.488  -0.088  0.00  0.00     0.418 HD
ENDBRANCH   4   7
TORSDOF 1
ENDMDL
