MODEL 1
REMARK minimizedAffinity -0.93580693
REMARK minimizedRMSD -1
REMARK  1 active torsions:
REMARK  status: ('A' for Active; 'I' for Inactive)
REMARK    1  A    between atoms: C3_4  and  O_7 
ROOT
ATOM      1  C   UNL d   1      -0.457  -0.763   1.132  0.00  0.00    -0.033 A 
ATOM      2  C1  UNL d   1       0.516  -0.180   1.946  0.00  0.00     0.039 A 
ATOM      3  C2  UNL d   1       1.866  -0.277   1.602  0.00  0.00    -0.080 A 
ATOM      4  C3  UNL d   1       2.229  -0.959   0.444  0.00  0.00     0.150 A 
ATOM      5  C4  UNL d   1       1.264  -1.540  -0.373  0.00  0.00    -0.007 A 
ATOM      6  C5  UNL d   1      -0.083  -1.442  -0.028  0.00  0.00     0.039 A 
ENDROOT
BRANCH   4   7
ATOM      7  O   UNL d   1       3.534  -1.085   0.070  0.00  0.00    -0.526 OA
ATOM      8  H5  UNL d   1       4.089  -0.660   0.745  0.00  0.00     0.418 HD
ENDBRANCH   4   7
TORSDOF 1
ENDMDL
