MODEL 1
REMARK minimizedAffinity -4.75559616
REMARK minimizedRMSD -1
REMARK  1 active torsions:
REMARK  status: ('A' for Active; 'I' for Inactive)
REMARK    1  A    between atoms: C3_4  and  O_7 
ROOT
ATOM      1  C   UNL d   1       0.048  -0.886   0.624  0.00  0.00    -0.033 A 
ATOM      2  C1  UNL d   1      -0.339  -2.198   0.345  0.00  0.00     0.039 A 
ATOM      3  C2  UNL d   1       0.626  -3.168   0.065  0.00  0.00    -0.080 A 
ATOM      4  C3  UNL d   1       1.972  -2.812   0.067  0.00  0.00     0.150 A 
ATOM      5  C4  UNL d   1       2.364  -1.508   0.348  0.00  0.00    -0.007 A 
ATOM      6  C5  UNL d   1       1.399  -0.541   0.627  0.00  0.00     0.039 A 
ENDROOT
BRANCH   4   7
ATOM      7  O   UNL d   1       2.949  -3.723  -0.205  0.00  0.00    -0.526 OA
ATOM      8  H5  UNL d   1       2.529  -4.575  -0.409  0.00  0.00     0.418 HD
ENDBRANCH   4   7
TORSDOF 1
ENDMDL
