MODEL 1
REMARK minimizedAffinity -1.70385897
REMARK minimizedRMSD -1
REMARK  1 active torsions:
REMARK  status: ('A' for Active; 'I' for Inactive)
REMARK    1  A    between atoms: C3_4  and  O_7 
ROOT
ATOM      1  C   UNL d   1       5.901   5.993   0.149  0.00  0.00    -0.033 A 
ATOM      2  C1  UNL d   1       5.796   6.000   1.541  0.00  0.00     0.039 A 
ATOM      3  C2  UNL d   1       4.554   5.813   2.150  0.00  0.00    -0.080 A 
ATOM      4  C3  UNL d   1       3.426   5.619   1.357  0.00  0.00     0.150 A 
ATOM      5  C4  UNL d   1       3.524   5.607  -0.030  0.00  0.00    -0.007 A 
ATOM      6  C5  UNL d   1       4.765   5.795  -0.637  0.00  0.00     0.039 A 
ENDROOT
BRANCH   4   7
ATOM      7  O   UNL d   1       2.192   5.438   1.906  0.00  0.00    -0.526 OA
ATOM      8  H5  UNL d   1       2.273   5.499   2.873  0.00  0.00     0.418 HD
ENDBRANCH   4   7
TORSDOF 1
ENDMDL
