MODEL 1
REMARK minimizedAffinity -0.756733239
REMARK minimizedRMSD -1
REMARK  1 active torsions:
REMARK  status: ('A' for Active; 'I' for Inactive)
REMARK    1  A    between atoms: C3_4  and  O_7 
ROOT
ATOM      1  C   UNL d   1      -0.465  -1.945   0.710  0.00  0.00    -0.033 A 
ATOM      2  C1  UNL d   1       0.702  -1.188   0.588  0.00  0.00     0.039 A 
ATOM      3  C2  UNL d   1       1.908  -1.809   0.260  0.00  0.00    -0.080 A 
ATOM      4  C3  UNL d   1       1.934  -3.186   0.055  0.00  0.00     0.150 A 
ATOM      5  C4  UNL d   1       0.774  -3.946   0.170  0.00  0.00    -0.007 A 
ATOM      6  C5  UNL d   1      -0.429  -3.324   0.499  0.00  0.00     0.039 A 
ENDROOT
BRANCH   4   7
ATOM      7  O   UNL d   1       3.088  -3.838  -0.262  0.00  0.00    -0.526 OA
ATOM      8  H5  UNL d   1       3.813  -3.190  -0.280  0.00  0.00     0.418 HD
ENDBRANCH   4   7
TORSDOF 1
ENDMDL
