MODEL 1
REMARK minimizedAffinity -1.80054998
REMARK minimizedRMSD -1
REMARK  1 active torsions:
REMARK  status: ('A' for Active; 'I' for Inactive)
REMARK    1  A    between atoms: C3_4  and  O_7 
ROOT
ATOM      1  C   UNL d   1       0.466  -0.096   0.693  0.00  0.00    -0.033 A 
ATOM      2  C1  UNL d   1      -0.087  -1.074   1.522  0.00  0.00     0.039 A 
ATOM      3  C2  UNL d   1       0.202  -2.422   1.304  0.00  0.00    -0.080 A 
ATOM      4  C3  UNL d   1       1.045  -2.779   0.255  0.00  0.00     0.150 A 
ATOM      5  C4  UNL d   1       1.602  -1.810  -0.573  0.00  0.00    -0.007 A 
ATOM      6  C5  UNL d   1       1.312  -0.464  -0.354  0.00  0.00     0.039 A 
ENDROOT
BRANCH   4   7
ATOM      7  O   UNL d   1       1.352  -4.082  -0.000  0.00  0.00    -0.526 OA
ATOM      8  H5  UNL d   1       0.873  -4.642   0.634  0.00  0.00     0.418 HD
ENDBRANCH   4   7
TORSDOF 1
ENDMDL
