MODEL 1
REMARK minimizedAffinity 1.57040727
REMARK minimizedRMSD -1
REMARK  1 active torsions:
REMARK  status: ('A' for Active; 'I' for Inactive)
REMARK    1  A    between atoms: C3_4  and  O_7 
ROOT
ATOM      1  C   UNL d   1       0.044  -0.781   1.017  0.00  0.00    -0.033 A 
ATOM      2  C1  UNL d   1      -0.721  -1.863   0.577  0.00  0.00     0.039 A 
ATOM      3  C2  UNL d   1      -0.106  -3.082   0.285  0.00  0.00    -0.080 A 
ATOM      4  C3  UNL d   1       1.272  -3.207   0.439  0.00  0.00     0.150 A 
ATOM      5  C4  UNL d   1       2.040  -2.134   0.881  0.00  0.00    -0.007 A 
ATOM      6  C5  UNL d   1       1.424  -0.917   1.171  0.00  0.00     0.039 A 
ENDROOT
BRANCH   4   7
ATOM      7  O   UNL d   1       1.917  -4.375   0.163  0.00  0.00    -0.526 OA
ATOM      8  H5  UNL d   1       1.264  -5.018  -0.160  0.00  0.00     0.418 HD
ENDBRANCH   4   7
TORSDOF 1
ENDMDL
