MODEL 1
REMARK minimizedAffinity 0.645532727
REMARK minimizedRMSD -1
REMARK  1 active torsions:
REMARK  status: ('A' for Active; 'I' for Inactive)
REMARK    1  A    between atoms: C3_4  and  O_7 
ROOT
ATOM      1  C   UNL d   1       2.661  -1.894  -0.466  0.00  0.00    -0.033 A 
ATOM      2  C1  UNL d   1       3.426  -1.334   0.559  0.00  0.00     0.039 A 
ATOM      3  C2  UNL d   1       3.022  -1.470   1.888  0.00  0.00    -0.080 A 
ATOM      4  C3  UNL d   1       1.855  -2.170   2.179  0.00  0.00     0.150 A 
ATOM      5  C4  UNL d   1       1.090  -2.734   1.164  0.00  0.00    -0.007 A 
ATOM      6  C5  UNL d   1       1.494  -2.596  -0.163  0.00  0.00     0.039 A 
ENDROOT
BRANCH   4   7
ATOM      7  O   UNL d   1       1.418  -2.325   3.461  0.00  0.00    -0.526 OA
ATOM      8  H5  UNL d   1       2.031  -1.858   4.054  0.00  0.00     0.418 HD
ENDBRANCH   4   7
TORSDOF 1
ENDMDL
