MODEL 1
REMARK minimizedAffinity 0.848803997
REMARK minimizedRMSD -1
REMARK  1 active torsions:
REMARK  status: ('A' for Active; 'I' for Inactive)
REMARK    1  A    between atoms: C3_4  and  O_7 
ROOT
ATOM      1  C   UNL d   1       1.337   2.850   0.113  0.00  0.00    -0.033 A 
ATOM      2  C1  UNL d   1       1.134   1.472   0.011  0.00  0.00     0.039 A 
ATOM      3  C2  UNL d   1       0.205   0.839   0.839  0.00  0.00    -0.080 A 
ATOM      4  C3  UNL d   1      -0.514   1.594   1.762  0.00  0.00     0.150 A 
ATOM      5  C4  UNL d   1      -0.320   2.968   1.866  0.00  0.00    -0.007 A 
ATOM      6  C5  UNL d   1       0.609   3.598   1.039  0.00  0.00     0.039 A 
ENDROOT
BRANCH   4   7
ATOM      7  O   UNL d   1      -1.428   1.020   2.595  0.00  0.00    -0.526 OA
ATOM      8  H5  UNL d   1      -1.436   0.062   2.430  0.00  0.00     0.418 HD
ENDBRANCH   4   7
TORSDOF 1
ENDMDL
