MODEL 1
REMARK minimizedAffinity 3.22820997
REMARK minimizedRMSD -1
REMARK  1 active torsions:
REMARK  status: ('A' for Active; 'I' for Inactive)
REMARK    1  A    between atoms: C3_4  and  O_7 
ROOT
ATOM      1  C   UNL d   1       1.949  -2.152  -0.488  0.00  0.00    -0.033 A 
ATOM      2  C1  UNL d   1       0.727  -1.491  -0.626  0.00  0.00     0.039 A 
ATOM      3  C2  UNL d   1       0.623  -0.136  -0.303  0.00  0.00    -0.080 A 
ATOM      4  C3  UNL d   1       1.747   0.545   0.155  0.00  0.00     0.150 A 
ATOM      5  C4  UNL d   1       2.969  -0.106   0.292  0.00  0.00    -0.007 A 
ATOM      6  C5  UNL d   1       3.070  -1.459  -0.030  0.00  0.00     0.039 A 
ENDROOT
BRANCH   4   7
ATOM      7  O   UNL d   1       1.694   1.866   0.487  0.00  0.00    -0.526 OA
ATOM      8  H5  UNL d   1       0.780   2.176   0.370  0.00  0.00     0.418 HD
ENDBRANCH   4   7
TORSDOF 1
ENDMDL
