MODEL 1
REMARK minimizedAffinity 1.61004722
REMARK minimizedRMSD -1
REMARK  1 active torsions:
REMARK  status: ('A' for Active; 'I' for Inactive)
REMARK    1  A    between atoms: C3_4  and  O_7 
ROOT
ATOM      1  C   UNL d   1       0.731   1.827   1.324  0.00  0.00    -0.033 A 
ATOM      2  C1  UNL d   1       0.214   1.535   2.588  0.00  0.00     0.039 A 
ATOM      3  C2  UNL d   1      -1.167   1.489   2.786  0.00  0.00    -0.080 A 
ATOM      4  C3  UNL d   1      -2.019   1.735   1.713  0.00  0.00     0.150 A 
ATOM      5  C4  UNL d   1      -1.511   2.022   0.450  0.00  0.00    -0.007 A 
ATOM      6  C5  UNL d   1      -0.131   2.069   0.255  0.00  0.00     0.039 A 
ENDROOT
BRANCH   4   7
ATOM      7  O   UNL d   1      -3.374   1.706   1.858  0.00  0.00    -0.526 OA
ATOM      8  H5  UNL d   1      -3.580   1.523   2.790  0.00  0.00     0.418 HD
ENDBRANCH   4   7
TORSDOF 1
ENDMDL
