MODEL 1
REMARK minimizedAffinity 2.38530469
REMARK minimizedRMSD -1
REMARK  1 active torsions:
REMARK  status: ('A' for Active; 'I' for Inactive)
REMARK    1  A    between atoms: C3_4  and  O_7 
ROOT
ATOM      1  C   UNL d   1       3.262  -2.093   0.803  0.00  0.00    -0.033 A 
ATOM      2  C1  UNL d   1       2.576  -1.993  -0.409  0.00  0.00     0.039 A 
ATOM      3  C2  UNL d   1       1.921  -0.808  -0.748  0.00  0.00    -0.080 A 
ATOM      4  C3  UNL d   1       1.960   0.270   0.133  0.00  0.00     0.150 A 
ATOM      5  C4  UNL d   1       2.645   0.179   1.340  0.00  0.00    -0.007 A 
ATOM      6  C5  UNL d   1       3.297  -1.006   1.677  0.00  0.00     0.039 A 
ENDROOT
BRANCH   4   7
ATOM      7  O   UNL d   1       1.332   1.446  -0.152  0.00  0.00    -0.526 OA
ATOM      8  H5  UNL d   1       0.876   1.353  -1.005  0.00  0.00     0.418 HD
ENDBRANCH   4   7
TORSDOF 1
ENDMDL
