MODEL 1
REMARK minimizedAffinity -1.6393131
REMARK minimizedRMSD -1
REMARK  1 active torsions:
REMARK  status: ('A' for Active; 'I' for Inactive)
REMARK    1  A    between atoms: C3_4  and  O_7 
ROOT
ATOM      1  C   UNL d   1      -0.378   2.552   2.019  0.00  0.00    -0.033 A 
ATOM      2  C1  UNL d   1       0.982   2.278   2.176  0.00  0.00     0.039 A 
ATOM      3  C2  UNL d   1       1.893   3.323   2.333  0.00  0.00    -0.080 A 
ATOM      4  C3  UNL d   1       1.433   4.637   2.332  0.00  0.00     0.150 A 
ATOM      5  C4  UNL d   1       0.079   4.918   2.179  0.00  0.00    -0.007 A 
ATOM      6  C5  UNL d   1      -0.830   3.872   2.022  0.00  0.00     0.039 A 
ENDROOT
BRANCH   4   7
ATOM      7  O   UNL d   1       2.285   5.691   2.477  0.00  0.00    -0.526 OA
ATOM      8  H5  UNL d   1       3.192   5.347   2.544  0.00  0.00     0.418 HD
ENDBRANCH   4   7
TORSDOF 1
ENDMDL
