MODEL 1
REMARK minimizedAffinity -4.40005064
REMARK minimizedRMSD -1
REMARK  1 active torsions:
REMARK  status: ('A' for Active; 'I' for Inactive)
REMARK    1  A    between atoms: C1_2  and  C2_3 
ROOT
ATOM      1  C2  UNL d   1       0.113  -0.704  -0.142  0.00  0.00    -0.076 A 
ATOM      2  C3  UNL d   1      -0.396   0.326  -0.953  0.00  0.00     0.004 A 
ATOM      3  C4  UNL d   1      -1.192   1.335  -0.416  0.00  0.00    -0.003 A 
ATOM      4  C5  UNL d   1      -1.493   1.332   0.942  0.00  0.00     0.000 A 
ATOM      5  C6  UNL d   1      -0.982   0.329   1.765  0.00  0.00     0.000 A 
ATOM      6  C7  UNL d   1      -0.164  -0.687   1.242  0.00  0.00    -0.073 A 
ATOM      7  C8  UNL d   1       0.354  -1.748   2.174  0.00  0.00     0.078 C 
ENDROOT
BRANCH   1   8
ATOM      8  C1  UNL d   1       0.949  -1.787  -0.785  0.00  0.00     0.053 C 
ATOM      9  C   UNL d   1       0.371  -2.259  -2.110  0.00  0.00     0.018 C 
ENDBRANCH   1   8
TORSDOF 1
ENDMDL
