MODEL 1
REMARK minimizedAffinity -5.57237673
REMARK minimizedRMSD -1
REMARK  1 active torsions:
REMARK  status: ('A' for Active; 'I' for Inactive)
REMARK    1  A    between atoms: C1_2  and  C2_3 
ROOT
ATOM      1  C2  UNL d   1       0.062   0.244   0.128  0.00  0.00    -0.076 A 
ATOM      2  C3  UNL d   1      -0.428   1.292  -0.671  0.00  0.00     0.004 A 
ATOM      3  C4  UNL d   1      -1.421   2.149  -0.200  0.00  0.00    -0.003 A 
ATOM      4  C5  UNL d   1      -1.940   1.973   1.078  0.00  0.00     0.000 A 
ATOM      5  C6  UNL d   1      -1.452   0.950   1.891  0.00  0.00     0.000 A 
ATOM      6  C7  UNL d   1      -0.440   0.087   1.438  0.00  0.00    -0.073 A 
ATOM      7  C8  UNL d   1       0.044  -1.003   2.354  0.00  0.00     0.078 C 
ENDROOT
BRANCH   1   8
ATOM      8  C1  UNL d   1       1.120  -0.670  -0.446  0.00  0.00     0.053 C 
ATOM      9  C   UNL d   1       0.541  -1.705  -1.399  0.00  0.00     0.018 C 
ENDBRANCH   1   8
TORSDOF 1
ENDMDL
