MODEL 1
REMARK minimizedAffinity -3.42940021
REMARK minimizedRMSD -1
REMARK  1 active torsions:
REMARK  status: ('A' for Active; 'I' for Inactive)
REMARK    1  A    between atoms: C1_2  and  C2_3 
ROOT
ATOM      1  C2  UNL d   1      -0.670   0.941  -0.062  0.00  0.00    -0.076 A 
ATOM      2  C3  UNL d   1      -0.777   2.246  -0.574  0.00  0.00     0.004 A 
ATOM      3  C4  UNL d   1      -1.095   3.318   0.258  0.00  0.00    -0.003 A 
ATOM      4  C5  UNL d   1      -1.310   3.104   1.615  0.00  0.00     0.000 A 
ATOM      5  C6  UNL d   1      -1.190   1.819   2.143  0.00  0.00     0.000 A 
ATOM      6  C7  UNL d   1      -0.855   0.729   1.321  0.00  0.00    -0.073 A 
ATOM      7  C8  UNL d   1      -0.745  -0.636   1.943  0.00  0.00     0.078 C 
ENDROOT
BRANCH   1   8
ATOM      8  C1  UNL d   1      -0.349  -0.187  -1.016  0.00  0.00     0.053 C 
ATOM      9  C   UNL d   1       1.115  -0.596  -0.965  0.00  0.00     0.018 C 
ENDBRANCH   1   8
TORSDOF 1
ENDMDL
