MODEL 1
REMARK minimizedAffinity -0.554583669
REMARK minimizedRMSD -1
REMARK  1 active torsions:
REMARK  status: ('A' for Active; 'I' for Inactive)
REMARK    1  A    between atoms: C1_2  and  C2_3 
ROOT
ATOM      1  C2  UNL d   1       1.000  -1.586  -0.349  0.00  0.00    -0.076 A 
ATOM      2  C3  UNL d   1       0.441  -2.853  -0.107  0.00  0.00     0.004 A 
ATOM      3  C4  UNL d   1       0.363  -3.808  -1.120  0.00  0.00    -0.003 A 
ATOM      4  C5  UNL d   1       0.844  -3.513  -2.390  0.00  0.00     0.000 A 
ATOM      5  C6  UNL d   1       1.419  -2.267  -2.643  0.00  0.00     0.000 A 
ATOM      6  C7  UNL d   1       1.519  -1.299  -1.630  0.00  0.00    -0.073 A 
ATOM      7  C8  UNL d   1       2.142   0.030  -1.960  0.00  0.00     0.078 C 
ENDROOT
BRANCH   1   8
ATOM      8  C1  UNL d   1       1.033  -0.581   0.780  0.00  0.00     0.053 C 
ATOM      9  C   UNL d   1      -0.326  -0.400   1.438  0.00  0.00     0.018 C 
ENDBRANCH   1   8
TORSDOF 1
ENDMDL
