MODEL 1
REMARK minimizedAffinity -1.81959975
REMARK minimizedRMSD -1
REMARK  1 active torsions:
REMARK  status: ('A' for Active; 'I' for Inactive)
REMARK    1  A    between atoms: C1_2  and  C2_3 
ROOT
ATOM      1  C2  UNL d   1       0.410  -0.419  -0.352  0.00  0.00    -0.076 A 
ATOM      2  C3  UNL d   1      -0.353  -0.890   0.730  0.00  0.00     0.004 A 
ATOM      3  C4  UNL d   1      -1.117  -0.018   1.503  0.00  0.00    -0.003 A 
ATOM      4  C5  UNL d   1      -1.133   1.340   1.205  0.00  0.00     0.000 A 
ATOM      5  C6  UNL d   1      -0.397   1.822   0.123  0.00  0.00     0.000 A 
ATOM      6  C7  UNL d   1       0.367   0.954  -0.676  0.00  0.00    -0.073 A 
ATOM      7  C8  UNL d   1       1.147   1.530  -1.826  0.00  0.00     0.078 C 
ENDROOT
BRANCH   1   8
ATOM      8  C1  UNL d   1       1.241  -1.408  -1.138  0.00  0.00     0.053 C 
ATOM      9  C   UNL d   1       0.407  -2.229  -2.109  0.00  0.00     0.018 C 
ENDBRANCH   1   8
TORSDOF 1
ENDMDL
