MODEL 1
REMARK minimizedAffinity -5.82313681
REMARK minimizedRMSD -1
REMARK  1 active torsions:
REMARK  status: ('A' for Active; 'I' for Inactive)
REMARK    1  A    between atoms: C1_2  and  C2_3 
ROOT
ATOM      1  C2  UNL d   1       0.216   0.283   0.150  0.00  0.00    -0.076 A 
ATOM      2  C3  UNL d   1       0.091  -0.351   1.399  0.00  0.00     0.004 A 
ATOM      3  C4  UNL d   1      -0.957  -0.035   2.261  0.00  0.00    -0.003 A 
ATOM      4  C5  UNL d   1      -1.898   0.919   1.888  0.00  0.00     0.000 A 
ATOM      5  C6  UNL d   1      -1.799   1.544   0.646  0.00  0.00     0.000 A 
ATOM      6  C7  UNL d   1      -0.758   1.226  -0.242  0.00  0.00    -0.073 A 
ATOM      7  C8  UNL d   1      -0.696   1.935  -1.567  0.00  0.00     0.078 C 
ENDROOT
BRANCH   1   8
ATOM      8  C1  UNL d   1       1.390  -0.081  -0.732  0.00  0.00     0.053 C 
ATOM      9  C   UNL d   1       1.398  -1.553  -1.113  0.00  0.00     0.018 C 
ENDBRANCH   1   8
TORSDOF 1
ENDMDL
