MODEL 1
REMARK minimizedAffinity 0.641544938
REMARK minimizedRMSD -1
REMARK  1 active torsions:
REMARK  status: ('A' for Active; 'I' for Inactive)
REMARK    1  A    between atoms: C1_2  and  C2_3 
ROOT
ATOM      1  C2  UNL d   1       0.530  -0.581  -0.830  0.00  0.00    -0.076 A 
ATOM      2  C3  UNL d   1       0.765   0.510  -1.685  0.00  0.00     0.004 A 
ATOM      3  C4  UNL d   1       0.115   1.727  -1.491  0.00  0.00    -0.003 A 
ATOM      4  C5  UNL d   1      -0.781   1.874  -0.437  0.00  0.00     0.000 A 
ATOM      5  C6  UNL d   1      -1.013   0.808   0.432  0.00  0.00     0.000 A 
ATOM      6  C7  UNL d   1      -0.353  -0.421   0.260  0.00  0.00    -0.073 A 
ATOM      7  C8  UNL d   1      -0.646  -1.538   1.223  0.00  0.00     0.078 C 
ENDROOT
BRANCH   1   8
ATOM      8  C1  UNL d   1       1.244  -1.885  -1.106  0.00  0.00     0.053 C 
ATOM      9  C   UNL d   1       0.625  -2.654  -2.264  0.00  0.00     0.018 C 
ENDBRANCH   1   8
TORSDOF 1
ENDMDL
