MODEL 1
REMARK minimizedAffinity -4.71640158
REMARK minimizedRMSD -1
REMARK  1 active torsions:
REMARK  status: ('A' for Active; 'I' for Inactive)
REMARK    1  A    between atoms: C1_2  and  C2_3 
ROOT
ATOM      1  C2  UNL d   1       0.022   0.146   0.040  0.00  0.00    -0.076 A 
ATOM      2  C3  UNL d   1      -0.571   1.205  -0.667  0.00  0.00     0.004 A 
ATOM      3  C4  UNL d   1      -1.584   1.972  -0.094  0.00  0.00    -0.003 A 
ATOM      4  C5  UNL d   1      -2.020   1.692   1.196  0.00  0.00     0.000 A 
ATOM      5  C6  UNL d   1      -1.430   0.656   1.919  0.00  0.00     0.000 A 
ATOM      6  C7  UNL d   1      -0.397  -0.117   1.362  0.00  0.00    -0.073 A 
ATOM      7  C8  UNL d   1       0.199  -1.226   2.185  0.00  0.00     0.078 C 
ENDROOT
BRANCH   1   8
ATOM      8  C1  UNL d   1       1.098  -0.669  -0.643  0.00  0.00     0.053 C 
ATOM      9  C   UNL d   1       0.525  -1.749  -1.547  0.00  0.00     0.018 C 
ENDBRANCH   1   8
TORSDOF 1
ENDMDL
