MODEL 1
REMARK minimizedAffinity -4.09154367
REMARK minimizedRMSD -1
REMARK  1 active torsions:
REMARK  status: ('A' for Active; 'I' for Inactive)
REMARK    1  A    between atoms: C1_2  and  C2_3 
ROOT
ATOM      1  C2  UNL d   1       0.393   0.072  -0.323  0.00  0.00    -0.076 A 
ATOM      2  C3  UNL d   1       0.165  -0.772   0.778  0.00  0.00     0.004 A 
ATOM      3  C4  UNL d   1      -0.760  -0.430   1.764  0.00  0.00    -0.003 A 
ATOM      4  C5  UNL d   1      -1.472   0.759   1.663  0.00  0.00     0.000 A 
ATOM      5  C6  UNL d   1      -1.272   1.600   0.568  0.00  0.00     0.000 A 
ATOM      6  C7  UNL d   1      -0.355   1.263  -0.442  0.00  0.00    -0.073 A 
ATOM      7  C8  UNL d   1      -0.174   2.209  -1.597  0.00  0.00     0.078 C 
ENDROOT
BRANCH   1   8
ATOM      8  C1  UNL d   1       1.428  -0.338  -1.346  0.00  0.00     0.053 C 
ATOM      9  C   UNL d   1       1.235  -1.766  -1.831  0.00  0.00     0.018 C 
ENDBRANCH   1   8
TORSDOF 1
ENDMDL
