MODEL 1
REMARK minimizedAffinity -4.64373636
REMARK minimizedRMSD -1
REMARK  1 active torsions:
REMARK  status: ('A' for Active; 'I' for Inactive)
REMARK    1  A    between atoms: C1_2  and  C2_3 
ROOT
ATOM      1  C2  UNL d   1       0.052  -0.185   0.079  0.00  0.00    -0.076 A 
ATOM      2  C3  UNL d   1      -0.356   0.881  -0.742  0.00  0.00     0.004 A 
ATOM      3  C4  UNL d   1      -1.236   1.854  -0.271  0.00  0.00    -0.003 A 
ATOM      4  C5  UNL d   1      -1.721   1.778   1.029  0.00  0.00     0.000 A 
ATOM      5  C6  UNL d   1      -1.314   0.738   1.864  0.00  0.00     0.000 A 
ATOM      6  C7  UNL d   1      -0.415  -0.243   1.410  0.00  0.00    -0.073 A 
ATOM      7  C8  UNL d   1      -0.013  -1.345   2.351  0.00  0.00     0.078 C 
ENDROOT
BRANCH   1   8
ATOM      8  C1  UNL d   1       0.987  -1.225  -0.495  0.00  0.00     0.053 C 
ATOM      9  C   UNL d   1       0.443  -1.859  -1.766  0.00  0.00     0.018 C 
ENDBRANCH   1   8
TORSDOF 1
ENDMDL
