MODEL 1
REMARK minimizedAffinity 7.8478241
REMARK minimizedRMSD -1
REMARK  1 active torsions:
REMARK  status: ('A' for Active; 'I' for Inactive)
REMARK    1  A    between atoms: C1_2  and  C2_3 
ROOT
ATOM      1  C2  UNL d   1       2.730  -0.820  -0.574  0.00  0.00    -0.076 A 
ATOM      2  C3  UNL d   1       3.682  -0.253  -1.438  0.00  0.00     0.004 A 
ATOM      3  C4  UNL d   1       4.172  -0.965  -2.532  0.00  0.00    -0.003 A 
ATOM      4  C5  UNL d   1       3.717  -2.255  -2.779  0.00  0.00     0.000 A 
ATOM      5  C6  UNL d   1       2.759  -2.827  -1.942  0.00  0.00     0.000 A 
ATOM      6  C7  UNL d   1       2.243  -2.116  -0.844  0.00  0.00    -0.073 A 
ATOM      7  C8  UNL d   1       1.216  -2.784   0.029  0.00  0.00     0.078 C 
ENDROOT
BRANCH   1   8
ATOM      8  C1  UNL d   1       2.255  -0.010   0.612  0.00  0.00     0.053 C 
ATOM      9  C   UNL d   1       1.217   1.032   0.228  0.00  0.00     0.018 C 
ENDBRANCH   1   8
TORSDOF 1
ENDMDL
