MODEL 1
REMARK minimizedAffinity 3.80101132
REMARK minimizedRMSD -1
REMARK  1 active torsions:
REMARK  status: ('A' for Active; 'I' for Inactive)
REMARK    1  A    between atoms: C1_2  and  C2_3 
ROOT
ATOM      1  C2  UNL d   1      -3.293   0.156  -1.772  0.00  0.00    -0.076 A 
ATOM      2  C3  UNL d   1      -3.665  -0.474  -0.572  0.00  0.00     0.004 A 
ATOM      3  C4  UNL d   1      -5.006  -0.686  -0.258  0.00  0.00    -0.003 A 
ATOM      4  C5  UNL d   1      -5.998  -0.271  -1.140  0.00  0.00     0.000 A 
ATOM      5  C6  UNL d   1      -5.647   0.341  -2.343  0.00  0.00     0.000 A 
ATOM      6  C7  UNL d   1      -4.298   0.547  -2.682  0.00  0.00    -0.073 A 
ATOM      7  C8  UNL d   1      -3.977   1.216  -3.990  0.00  0.00     0.078 C 
ENDROOT
BRANCH   1   8
ATOM      8  C1  UNL d   1      -1.823   0.383  -2.045  0.00  0.00     0.053 C 
ATOM      9  C   UNL d   1      -1.166   1.272  -1.001  0.00  0.00     0.018 C 
ENDBRANCH   1   8
TORSDOF 1
ENDMDL
