MODEL 1
REMARK minimizedAffinity 2.93032861
REMARK minimizedRMSD -1
REMARK  1 active torsions:
REMARK  status: ('A' for Active; 'I' for Inactive)
REMARK    1  A    between atoms: C1_2  and  C2_3 
ROOT
ATOM      1  C2  UNL d   1       2.602  -1.854  -0.421  0.00  0.00    -0.076 A 
ATOM      2  C3  UNL d   1       2.470  -0.648   0.290  0.00  0.00     0.004 A 
ATOM      3  C4  UNL d   1       3.278   0.449  -0.003  0.00  0.00    -0.003 A 
ATOM      4  C5  UNL d   1       4.231   0.359  -1.011  0.00  0.00     0.000 A 
ATOM      5  C6  UNL d   1       4.364  -0.824  -1.738  0.00  0.00     0.000 A 
ATOM      6  C7  UNL d   1       3.547  -1.934  -1.467  0.00  0.00    -0.073 A 
ATOM      7  C8  UNL d   1       3.738  -3.187  -2.278  0.00  0.00     0.078 C 
ENDROOT
BRANCH   1   8
ATOM      8  C1  UNL d   1       1.717  -3.020  -0.041  0.00  0.00     0.053 C 
ATOM      9  C   UNL d   1       0.348  -2.951  -0.701  0.00  0.00     0.018 C 
ENDBRANCH   1   8
TORSDOF 1
ENDMDL
