MODEL 1
REMARK minimizedAffinity 6.98813534
REMARK minimizedRMSD -1
REMARK  1 active torsions:
REMARK  status: ('A' for Active; 'I' for Inactive)
REMARK    1  A    between atoms: C1_2  and  C2_3 
ROOT
ATOM      1  C2  UNL d   1      -0.822   0.923  -0.769  0.00  0.00    -0.076 A 
ATOM      2  C3  UNL d   1      -0.942   2.027   0.093  0.00  0.00     0.004 A 
ATOM      3  C4  UNL d   1      -2.126   2.760   0.159  0.00  0.00    -0.003 A 
ATOM      4  C5  UNL d   1      -3.209   2.400  -0.635  0.00  0.00     0.000 A 
ATOM      5  C6  UNL d   1      -3.113   1.297  -1.483  0.00  0.00     0.000 A 
ATOM      6  C7  UNL d   1      -1.933   0.538  -1.550  0.00  0.00    -0.073 A 
ATOM      7  C8  UNL d   1      -1.883  -0.638  -2.487  0.00  0.00     0.078 C 
ENDROOT
BRANCH   1   8
ATOM      8  C1  UNL d   1       0.496   0.183  -0.819  0.00  0.00     0.053 C 
ATOM      9  C   UNL d   1       1.568   0.845   0.032  0.00  0.00     0.018 C 
ENDBRANCH   1   8
TORSDOF 1
ENDMDL
