MODEL 1
REMARK minimizedAffinity 2.47746205
REMARK minimizedRMSD -1
REMARK  1 active torsions:
REMARK  status: ('A' for Active; 'I' for Inactive)
REMARK    1  A    between atoms: C1_2  and  C2_3 
ROOT
ATOM      1  C2  UNL d   1       0.893   0.790   0.656  0.00  0.00    -0.076 A 
ATOM      2  C3  UNL d   1       0.223   1.604  -0.275  0.00  0.00     0.004 A 
ATOM      3  C4  UNL d   1      -1.073   2.056  -0.031  0.00  0.00    -0.003 A 
ATOM      4  C5  UNL d   1      -1.719   1.703   1.149  0.00  0.00     0.000 A 
ATOM      5  C6  UNL d   1      -1.064   0.911   2.091  0.00  0.00     0.000 A 
ATOM      6  C7  UNL d   1       0.249   0.460   1.868  0.00  0.00    -0.073 A 
ATOM      7  C8  UNL d   1       0.906  -0.396   2.915  0.00  0.00     0.078 C 
ENDROOT
BRANCH   1   8
ATOM      8  C1  UNL d   1       2.287   0.307   0.325  0.00  0.00     0.053 C 
ATOM      9  C   UNL d   1       3.276   1.451   0.163  0.00  0.00     0.018 C 
ENDBRANCH   1   8
TORSDOF 1
ENDMDL
