MODEL 1
REMARK minimizedAffinity 3.22209287
REMARK minimizedRMSD -1
REMARK  1 active torsions:
REMARK  status: ('A' for Active; 'I' for Inactive)
REMARK    1  A    between atoms: C1_2  and  C2_3 
ROOT
ATOM      1  C2  UNL d   1       1.479   0.440   2.091  0.00  0.00    -0.076 A 
ATOM      2  C3  UNL d   1       1.847   0.946   0.833  0.00  0.00     0.004 A 
ATOM      3  C4  UNL d   1       2.681   0.222  -0.017  0.00  0.00    -0.003 A 
ATOM      4  C5  UNL d   1       3.160  -1.022   0.378  0.00  0.00     0.000 A 
ATOM      5  C6  UNL d   1       2.792  -1.548   1.616  0.00  0.00     0.000 A 
ATOM      6  C7  UNL d   1       1.938  -0.838   2.478  0.00  0.00    -0.073 A 
ATOM      7  C8  UNL d   1       1.578  -1.450   3.803  0.00  0.00     0.078 C 
ENDROOT
BRANCH   1   8
ATOM      8  C1  UNL d   1       0.594   1.283   2.981  0.00  0.00     0.053 C 
ATOM      9  C   UNL d   1      -0.883   1.114   2.661  0.00  0.00     0.018 C 
ENDBRANCH   1   8
TORSDOF 1
ENDMDL
