MODEL 1
REMARK minimizedAffinity 8.4138279
REMARK minimizedRMSD -1
REMARK  1 active torsions:
REMARK  status: ('A' for Active; 'I' for Inactive)
REMARK    1  A    between atoms: C1_2  and  C2_3 
ROOT
ATOM      1  C2  UNL d   1       0.409   0.792   1.886  0.00  0.00    -0.076 A 
ATOM      2  C3  UNL d   1      -0.912   1.204   2.134  0.00  0.00     0.004 A 
ATOM      3  C4  UNL d   1      -1.763   1.555   1.086  0.00  0.00    -0.003 A 
ATOM      4  C5  UNL d   1      -1.306   1.498  -0.226  0.00  0.00     0.000 A 
ATOM      5  C6  UNL d   1      -0.005   1.074  -0.491  0.00  0.00     0.000 A 
ATOM      6  C7  UNL d   1       0.861   0.702   0.552  0.00  0.00    -0.073 A 
ATOM      7  C8  UNL d   1       2.256   0.258   0.208  0.00  0.00     0.078 C 
ENDROOT
BRANCH   1   8
ATOM      8  C1  UNL d   1       1.294   0.450   3.063  0.00  0.00     0.053 C 
ATOM      9  C   UNL d   1       0.533  -0.244   4.182  0.00  0.00     0.018 C 
ENDBRANCH   1   8
TORSDOF 1
ENDMDL
