MODEL 1
REMARK minimizedAffinity -1.24286807
REMARK minimizedRMSD -1
REMARK  0 active torsions:
REMARK  status: ('A' for Active; 'I' for Inactive)
ROOT
ATOM      1  C   UNL d   1       0.085   1.274  -1.111  0.00  0.00     0.124 A 
ATOM      2  C1  UNL d   1      -0.208  -0.083  -1.100  0.00  0.00     0.062 A 
ATOM      3  C2  UNL d   1       0.480  -0.940  -0.245  0.00  0.00     0.162 A 
ATOM      4  C3  UNL d   1       1.466  -0.443   0.606  0.00  0.00    -0.034 A 
ATOM      5  C4  UNL d   1       1.756   0.923   0.588  0.00  0.00     0.162 A 
ATOM      6  C5  UNL d   1       1.066   1.775  -0.268  0.00  0.00     0.062 A 
ATOM      7  F   UNL d   1       1.351   3.086  -0.277  0.00  0.00    -0.097 F 
ATOM      8  F1  UNL d   1       2.699   1.434   1.394  0.00  0.00    -0.096 F 
ATOM      9  I   UNL d   1       2.496  -1.721   1.885  0.00  0.00    -0.060 I 
ATOM     10  F2  UNL d   1       0.176  -2.246  -0.255  0.00  0.00    -0.096 F 
ATOM     11  F3  UNL d   1      -1.155  -0.570  -1.915  0.00  0.00    -0.097 F 
ATOM     12  F4  UNL d   1      -0.577   2.096  -1.935  0.00  0.00    -0.092 F 
ENDROOT
TORSDOF 0
ENDMDL
