MODEL 1
REMARK minimizedAffinity 2.50999045
REMARK minimizedRMSD -1
REMARK  0 active torsions:
REMARK  status: ('A' for Active; 'I' for Inactive)
ROOT
ATOM      1  C   UNL d   1       1.946  -1.819  -0.997  0.00  0.00     0.124 A 
ATOM      2  C1  UNL d   1       0.762  -1.568  -1.676  0.00  0.00     0.062 A 
ATOM      3  C2  UNL d   1      -0.346  -1.075  -0.992  0.00  0.00     0.162 A 
ATOM      4  C3  UNL d   1      -0.275  -0.828   0.379  0.00  0.00    -0.034 A 
ATOM      5  C4  UNL d   1       0.919  -1.085   1.055  0.00  0.00     0.162 A 
ATOM      6  C5  UNL d   1       2.024  -1.578   0.368  0.00  0.00     0.062 A 
ATOM      7  F   UNL d   1       3.167  -1.820   1.025  0.00  0.00    -0.097 F 
ATOM      8  F1  UNL d   1       1.022  -0.859   2.373  0.00  0.00    -0.096 F 
ATOM      9  I   UNL d   1      -1.929  -0.091   1.404  0.00  0.00    -0.060 I 
ATOM     10  F2  UNL d   1      -1.477  -0.841  -1.674  0.00  0.00    -0.096 F 
ATOM     11  F3  UNL d   1       0.684  -1.801  -2.994  0.00  0.00    -0.097 F 
ATOM     12  F4  UNL d   1       3.010  -2.295  -1.657  0.00  0.00    -0.092 F 
ENDROOT
TORSDOF 0
ENDMDL
