MODEL 1
REMARK minimizedAffinity 0.377857387
REMARK minimizedRMSD -1
REMARK  0 active torsions:
REMARK  status: ('A' for Active; 'I' for Inactive)
ROOT
ATOM      1  C   UNL d   1       1.633  -1.583  -0.775  0.00  0.00     0.124 A 
ATOM      2  C1  UNL d   1       1.817  -1.169   0.537  0.00  0.00     0.062 A 
ATOM      3  C2  UNL d   1       0.823  -0.446   1.190  0.00  0.00     0.162 A 
ATOM      4  C3  UNL d   1      -0.367  -0.133   0.531  0.00  0.00    -0.034 A 
ATOM      5  C4  UNL d   1      -0.544  -0.552  -0.789  0.00  0.00     0.162 A 
ATOM      6  C5  UNL d   1       0.453  -1.274  -1.436  0.00  0.00     0.062 A 
ATOM      7  F   UNL d   1       0.273  -1.673  -2.704  0.00  0.00    -0.097 F 
ATOM      8  F1  UNL d   1      -1.675  -0.268  -1.451  0.00  0.00    -0.096 F 
ATOM      9  I   UNL d   1      -1.856   0.948   1.503  0.00  0.00    -0.060 I 
ATOM     10  F2  UNL d   1       1.028  -0.059   2.457  0.00  0.00    -0.096 F 
ATOM     11  F3  UNL d   1       2.957  -1.465   1.178  0.00  0.00    -0.097 F 
ATOM     12  F4  UNL d   1       2.592  -2.277  -1.400  0.00  0.00    -0.092 F 
ENDROOT
TORSDOF 0
ENDMDL
