MODEL 1
REMARK minimizedAffinity 0.403683007
REMARK minimizedRMSD -1
REMARK  0 active torsions:
REMARK  status: ('A' for Active; 'I' for Inactive)
ROOT
ATOM      1  C   UNL d   1       1.884  -0.362  -0.520  0.00  0.00     0.124 A 
ATOM      2  C1  UNL d   1       1.448   0.952  -0.612  0.00  0.00     0.062 A 
ATOM      3  C2  UNL d   1       0.117   1.267  -0.352  0.00  0.00     0.162 A 
ATOM      4  C3  UNL d   1      -0.787   0.266   0.002  0.00  0.00    -0.034 A 
ATOM      5  C4  UNL d   1      -0.341  -1.054   0.091  0.00  0.00     0.162 A 
ATOM      6  C5  UNL d   1       0.990  -1.364  -0.169  0.00  0.00     0.062 A 
ATOM      7  F   UNL d   1       1.410  -2.634  -0.080  0.00  0.00    -0.097 F 
ATOM      8  F1  UNL d   1      -1.184  -2.041   0.430  0.00  0.00    -0.096 F 
ATOM      9  I   UNL d   1      -2.778   0.734   0.391  0.00  0.00    -0.060 I 
ATOM     10  F2  UNL d   1      -0.277   2.546  -0.448  0.00  0.00    -0.096 F 
ATOM     11  F3  UNL d   1       2.310   1.921  -0.952  0.00  0.00    -0.097 F 
ATOM     12  F4  UNL d   1       3.165  -0.663  -0.771  0.00  0.00    -0.092 F 
ENDROOT
TORSDOF 0
ENDMDL
