MODEL 1
REMARK minimizedAffinity -0.0750032812
REMARK minimizedRMSD -1
REMARK  0 active torsions:
REMARK  status: ('A' for Active; 'I' for Inactive)
ROOT
ATOM      1  C   UNL d   1       1.995  -1.463  -0.766  0.00  0.00     0.124 A 
ATOM      2  C1  UNL d   1       2.033  -0.905   0.504  0.00  0.00     0.062 A 
ATOM      3  C2  UNL d   1       0.933  -0.209   0.996  0.00  0.00     0.162 A 
ATOM      4  C3  UNL d   1      -0.215  -0.067   0.218  0.00  0.00    -0.034 A 
ATOM      5  C4  UNL d   1      -0.246  -0.630  -1.059  0.00  0.00     0.162 A 
ATOM      6  C5  UNL d   1       0.856  -1.325  -1.546  0.00  0.00     0.062 A 
ATOM      7  F   UNL d   1       0.817  -1.864  -2.774  0.00  0.00    -0.097 F 
ATOM      8  F1  UNL d   1      -1.335  -0.512  -1.834  0.00  0.00    -0.096 F 
ATOM      9  I   UNL d   1      -1.862   0.974   0.950  0.00  0.00    -0.060 I 
ATOM     10  F2  UNL d   1       0.999   0.320   2.227  0.00  0.00    -0.096 F 
ATOM     11  F3  UNL d   1       3.133  -1.037   1.260  0.00  0.00    -0.097 F 
ATOM     12  F4  UNL d   1       3.055  -2.132  -1.237  0.00  0.00    -0.092 F 
ENDROOT
TORSDOF 0
ENDMDL
