MODEL 1
REMARK minimizedAffinity 1.67571485
REMARK minimizedRMSD -1
REMARK  0 active torsions:
REMARK  status: ('A' for Active; 'I' for Inactive)
ROOT
ATOM      1  C1  BNZ d   1       0.699  -0.804  -0.955  0.00  0.00     0.000 A 
ATOM      2  C2  BNZ d   1       0.062  -0.069   0.010  0.00  0.00     0.000 A 
ATOM      3  C3  BNZ d   1       0.705   0.954   0.648  0.00  0.00     0.000 A 
ATOM      4  C4  BNZ d   1       1.994   1.216   0.351  0.00  0.00     0.000 A 
ATOM      5  C5  BNZ d   1       2.653   0.478  -0.612  0.00  0.00     0.000 A 
ATOM      6  C6  BNZ d   1       1.990  -0.526  -1.281  0.00  0.00     0.000 A 
ENDROOT
TORSDOF 0
ENDMDL
