MODEL 1
REMARK minimizedAffinity -2.63256359
REMARK minimizedRMSD -1
REMARK  0 active torsions:
REMARK  status: ('A' for Active; 'I' for Inactive)
ROOT
ATOM      1  C1  BNZ d   1      -0.542   0.282   0.461  0.00  0.00     0.000 A 
ATOM      2  C2  BNZ d   1       0.381   1.235   0.802  0.00  0.00     0.000 A 
ATOM      3  C3  BNZ d   1       1.691   1.104   0.434  0.00  0.00     0.000 A 
ATOM      4  C4  BNZ d   1       2.084   0.003  -0.239  0.00  0.00     0.000 A 
ATOM      5  C5  BNZ d   1       1.167  -0.971  -0.582  0.00  0.00     0.000 A 
ATOM      6  C6  BNZ d   1      -0.158  -0.817  -0.244  0.00  0.00     0.000 A 
ENDROOT
TORSDOF 0
ENDMDL
