MODEL 1
REMARK minimizedAffinity -2.83317041
REMARK minimizedRMSD -1
REMARK  0 active torsions:
REMARK  status: ('A' for Active; 'I' for Inactive)
ROOT
ATOM      1  C1  BNZ d   1       0.583   1.655   2.500  0.00  0.00     0.000 A 
ATOM      2  C2  BNZ d   1       0.478   0.320   2.212  0.00  0.00     0.000 A 
ATOM      3  C3  BNZ d   1       0.402  -0.112   0.918  0.00  0.00     0.000 A 
ATOM      4  C4  BNZ d   1       0.392   0.791  -0.084  0.00  0.00     0.000 A 
ATOM      5  C5  BNZ d   1       0.488   2.140   0.191  0.00  0.00     0.000 A 
ATOM      6  C6  BNZ d   1       0.604   2.570   1.493  0.00  0.00     0.000 A 
ENDROOT
TORSDOF 0
ENDMDL
