MODEL 1
REMARK minimizedAffinity -0.218807966
REMARK minimizedRMSD -1
REMARK  0 active torsions:
REMARK  status: ('A' for Active; 'I' for Inactive)
ROOT
ATOM      1  C1  BNZ d   1       1.653   1.188  -0.547  0.00  0.00     0.000 A 
ATOM      2  C2  BNZ d   1       1.159   1.826   0.560  0.00  0.00     0.000 A 
ATOM      3  C3  BNZ d   1       0.425   1.146   1.491  0.00  0.00     0.000 A 
ATOM      4  C4  BNZ d   1       0.153  -0.160   1.295  0.00  0.00     0.000 A 
ATOM      5  C5  BNZ d   1       0.636  -0.816   0.180  0.00  0.00     0.000 A 
ATOM      6  C6  BNZ d   1       1.407  -0.137  -0.735  0.00  0.00     0.000 A 
ENDROOT
TORSDOF 0
ENDMDL
