MODEL 1
REMARK minimizedAffinity -4.32850838
REMARK minimizedRMSD -1
REMARK  0 active torsions:
REMARK  status: ('A' for Active; 'I' for Inactive)
ROOT
ATOM      1  C1  BNZ d   1      -0.525  -0.027   0.937  0.00  0.00     0.000 A 
ATOM      2  C2  BNZ d   1      -0.797   0.962   1.844  0.00  0.00     0.000 A 
ATOM      3  C3  BNZ d   1      -0.059   2.113   1.867  0.00  0.00     0.000 A 
ATOM      4  C4  BNZ d   1       0.973   2.256   1.011  0.00  0.00     0.000 A 
ATOM      5  C5  BNZ d   1       1.265   1.264   0.097  0.00  0.00     0.000 A 
ATOM      6  C6  BNZ d   1       0.496   0.124   0.050  0.00  0.00     0.000 A 
ENDROOT
TORSDOF 0
ENDMDL
