MODEL 1
REMARK minimizedAffinity -1.88154054
REMARK minimizedRMSD -1
REMARK  0 active torsions:
REMARK  status: ('A' for Active; 'I' for Inactive)
ROOT
ATOM      1  C1  BNZ d   1      -0.097   1.555  -1.075  0.00  0.00     0.000 A 
ATOM      2  C2  BNZ d   1      -1.199   0.848  -0.672  0.00  0.00     0.000 A 
ATOM      3  C3  BNZ d   1      -1.161   0.079   0.457  0.00  0.00     0.000 A 
ATOM      4  C4  BNZ d   1      -0.013  -0.015   1.158  0.00  0.00     0.000 A 
ATOM      5  C5  BNZ d   1       1.109   0.684   0.759  0.00  0.00     0.000 A 
ATOM      6  C6  BNZ d   1       1.056   1.489  -0.356  0.00  0.00     0.000 A 
ENDROOT
TORSDOF 0
ENDMDL
