MODEL 1
REMARK minimizedAffinity -5.09324312
REMARK minimizedRMSD -1
REMARK  0 active torsions:
REMARK  status: ('A' for Active; 'I' for Inactive)
ROOT
ATOM      1  C1  BNZ d   1      -0.234   1.873   1.856  0.00  0.00     0.000 A 
ATOM      2  C2  BNZ d   1      -0.042   0.565   1.497  0.00  0.00     0.000 A 
ATOM      3  C3  BNZ d   1       0.862   0.232   0.527  0.00  0.00     0.000 A 
ATOM      4  C4  BNZ d   1       1.541   1.207  -0.110  0.00  0.00     0.000 A 
ATOM      5  C5  BNZ d   1       1.352   2.531   0.234  0.00  0.00     0.000 A 
ATOM      6  C6  BNZ d   1       0.470   2.860   1.238  0.00  0.00     0.000 A 
ENDROOT
TORSDOF 0
ENDMDL
