MODEL 1
REMARK minimizedAffinity -3.73047304
REMARK minimizedRMSD -1
REMARK  0 active torsions:
REMARK  status: ('A' for Active; 'I' for Inactive)
ROOT
ATOM      1  C1  BNZ d   1       0.815   1.734   0.601  0.00  0.00     0.000 A 
ATOM      2  C2  BNZ d   1       1.902   1.264  -0.087  0.00  0.00     0.000 A 
ATOM      3  C3  BNZ d   1       1.818   0.120  -0.830  0.00  0.00     0.000 A 
ATOM      4  C4  BNZ d   1       0.662  -0.574  -0.851  0.00  0.00     0.000 A 
ATOM      5  C5  BNZ d   1      -0.440  -0.118  -0.155  0.00  0.00     0.000 A 
ATOM      6  C6  BNZ d   1      -0.364   1.055   0.559  0.00  0.00     0.000 A 
ENDROOT
TORSDOF 0
ENDMDL
