MODEL 1
REMARK minimizedAffinity -4.12449503
REMARK minimizedRMSD -1
REMARK  0 active torsions:
REMARK  status: ('A' for Active; 'I' for Inactive)
ROOT
ATOM      1  C1  BNZ d   1       0.378   1.537   2.662  0.00  0.00     0.000 A 
ATOM      2  C2  BNZ d   1      -0.372   0.592   2.015  0.00  0.00     0.000 A 
ATOM      3  C3  BNZ d   1      -0.403   0.537   0.650  0.00  0.00     0.000 A 
ATOM      4  C4  BNZ d   1       0.283   1.451  -0.066  0.00  0.00     0.000 A 
ATOM      5  C5  BNZ d   1       1.037   2.416   0.572  0.00  0.00     0.000 A 
ATOM      6  C6  BNZ d   1       1.096   2.444   1.946  0.00  0.00     0.000 A 
ENDROOT
TORSDOF 0
ENDMDL
