MODEL 1
REMARK minimizedAffinity 4.06903076
REMARK minimizedRMSD -1
REMARK  0 active torsions:
REMARK  status: ('A' for Active; 'I' for Inactive)
ROOT
ATOM      1  C1  BNZ d   1      -5.088   5.823  -4.198  0.00  0.00     0.000 A 
ATOM      2  C2  BNZ d   1      -3.738   5.620  -4.099  0.00  0.00     0.000 A 
ATOM      3  C3  BNZ d   1      -3.123   5.580  -2.879  0.00  0.00     0.000 A 
ATOM      4  C4  BNZ d   1      -3.852   5.783  -1.763  0.00  0.00     0.000 A 
ATOM      5  C5  BNZ d   1      -5.213   5.999  -1.846  0.00  0.00     0.000 A 
ATOM      6  C6  BNZ d   1      -5.834   6.000  -3.074  0.00  0.00     0.000 A 
ENDROOT
TORSDOF 0
ENDMDL
