MODEL 1
REMARK minimizedAffinity -3.13526511
REMARK minimizedRMSD -1
REMARK  0 active torsions:
REMARK  status: ('A' for Active; 'I' for Inactive)
ROOT
ATOM      1  C1  BNZ d   1       1.920   5.296  -3.416  0.00  0.00     0.000 A 
ATOM      2  C2  BNZ d   1       1.248   5.974  -4.399  0.00  0.00     0.000 A 
ATOM      3  C3  BNZ d   1       1.684   5.941  -5.694  0.00  0.00     0.000 A 
ATOM      4  C4  BNZ d   1       2.810   5.265  -5.998  0.00  0.00     0.000 A 
ATOM      5  C5  BNZ d   1       3.504   4.585  -5.017  0.00  0.00     0.000 A 
ATOM      6  C6  BNZ d   1       3.041   4.587  -3.721  0.00  0.00     0.000 A 
ENDROOT
TORSDOF 0
ENDMDL
