MODEL 1
REMARK minimizedAffinity -3.96993804
REMARK minimizedRMSD -1
REMARK  0 active torsions:
REMARK  status: ('A' for Active; 'I' for Inactive)
ROOT
ATOM      1  C1  BNZ d   1       0.823   1.525   3.742  0.00  0.00     0.000 A 
ATOM      2  C2  BNZ d   1       2.079   1.477   4.288  0.00  0.00     0.000 A 
ATOM      3  C3  BNZ d   1       3.185   1.378   3.490  0.00  0.00     0.000 A 
ATOM      4  C4  BNZ d   1       3.032   1.287   2.153  0.00  0.00     0.000 A 
ATOM      5  C5  BNZ d   1       1.773   1.325   1.589  0.00  0.00     0.000 A 
ATOM      6  C6  BNZ d   1       0.664   1.464   2.392  0.00  0.00     0.000 A 
ENDROOT
TORSDOF 0
ENDMDL
