MODEL 1
REMARK minimizedAffinity -2.46053457
REMARK minimizedRMSD -1
REMARK  0 active torsions:
REMARK  status: ('A' for Active; 'I' for Inactive)
ROOT
ATOM      1  C1  BNZ d   1      -1.876  -3.156   2.569  0.00  0.00     0.000 A 
ATOM      2  C2  BNZ d   1      -1.146  -2.301   1.787  0.00  0.00     0.000 A 
ATOM      3  C3  BNZ d   1      -1.133  -0.958   2.042  0.00  0.00     0.000 A 
ATOM      4  C4  BNZ d   1      -1.881  -0.468   3.052  0.00  0.00     0.000 A 
ATOM      5  C5  BNZ d   1      -2.630  -1.316   3.843  0.00  0.00     0.000 A 
ATOM      6  C6  BNZ d   1      -2.610  -2.672   3.607  0.00  0.00     0.000 A 
ENDROOT
TORSDOF 0
ENDMDL
