MODEL 1
REMARK minimizedAffinity 0.726697803
REMARK minimizedRMSD -1
REMARK  0 active torsions:
REMARK  status: ('A' for Active; 'I' for Inactive)
ROOT
ATOM      1  C1  BNZ d   1      -1.918  -1.278  -4.454  0.00  0.00     0.000 A 
ATOM      2  C2  BNZ d   1      -2.955  -2.090  -4.079  0.00  0.00     0.000 A 
ATOM      3  C3  BNZ d   1      -3.412  -2.091  -2.791  0.00  0.00     0.000 A 
ATOM      4  C4  BNZ d   1      -2.806  -1.313  -1.871  0.00  0.00     0.000 A 
ATOM      5  C5  BNZ d   1      -1.753  -0.496  -2.231  0.00  0.00     0.000 A 
ATOM      6  C6  BNZ d   1      -1.321  -0.468  -3.537  0.00  0.00     0.000 A 
ENDROOT
TORSDOF 0
ENDMDL
