MODEL 1
REMARK minimizedAffinity -3.47330308
REMARK minimizedRMSD -1
REMARK  0 active torsions:
REMARK  status: ('A' for Active; 'I' for Inactive)
ROOT
ATOM      1  C1  BNZ d   1       5.985   3.687   4.723  0.00  0.00     0.000 A 
ATOM      2  C2  BNZ d   1       6.000   4.758   5.576  0.00  0.00     0.000 A 
ATOM      3  C3  BNZ d   1       5.329   5.908   5.267  0.00  0.00     0.000 A 
ATOM      4  C4  BNZ d   1       4.679   6.000   4.089  0.00  0.00     0.000 A 
ATOM      5  C5  BNZ d   1       4.663   4.932   3.214  0.00  0.00     0.000 A 
ATOM      6  C6  BNZ d   1       5.307   3.762   3.546  0.00  0.00     0.000 A 
ENDROOT
TORSDOF 0
ENDMDL
