MODEL 1
REMARK minimizedAffinity 0.193988532
REMARK minimizedRMSD -1
REMARK  1 active torsions:
REMARK  status: ('A' for Active; 'I' for Inactive)
REMARK    1  A    between atoms: C1_2  and  C2_3 
ROOT
ATOM      1  C2  UNL d   1      -0.919  -2.412  -1.218  0.00  0.00    -0.077 A 
ATOM      2  C3  UNL d   1      -1.503  -2.126   0.025  0.00  0.00     0.002 A 
ATOM      3  C4  UNL d   1      -2.882  -1.936   0.130  0.00  0.00     0.002 A 
ATOM      4  C5  UNL d   1      -3.689  -2.033  -1.002  0.00  0.00    -0.004 A 
ATOM      5  C6  UNL d   1      -3.118  -2.315  -2.242  0.00  0.00     0.002 A 
ATOM      6  C7  UNL d   1      -1.739  -2.505  -2.349  0.00  0.00     0.002 A 
ENDROOT
BRANCH   1   7
ATOM      7  C1  UNL d   1       0.561  -2.667  -1.325  0.00  0.00     0.055 C 
ATOM      8  C   UNL d   1       1.095  -2.264  -2.692  0.00  0.00     0.019 C 
ENDBRANCH   1   7
TORSDOF 1
ENDMDL
