MODEL 1
REMARK minimizedAffinity -5.24640369
REMARK minimizedRMSD -1
REMARK  1 active torsions:
REMARK  status: ('A' for Active; 'I' for Inactive)
REMARK    1  A    between atoms: C1_2  and  C2_3 
ROOT
ATOM      1  C2  UNL d   1       0.728   0.246  -0.420  0.00  0.00    -0.077 A 
ATOM      2  C3  UNL d   1      -0.124   0.775   0.560  0.00  0.00     0.002 A 
ATOM      3  C4  UNL d   1      -0.886  -0.074   1.365  0.00  0.00     0.002 A 
ATOM      4  C5  UNL d   1      -0.802  -1.455   1.202  0.00  0.00    -0.004 A 
ATOM      5  C6  UNL d   1       0.040  -1.990   0.228  0.00  0.00     0.002 A 
ATOM      6  C7  UNL d   1       0.802  -1.144  -0.579  0.00  0.00     0.002 A 
ENDROOT
BRANCH   1   7
ATOM      7  C1  UNL d   1       1.588   1.157  -1.257  0.00  0.00     0.055 C 
ATOM      8  C   UNL d   1       2.402   2.102  -0.386  0.00  0.00     0.019 C 
ENDBRANCH   1   7
TORSDOF 1
ENDMDL
