MODEL 1
REMARK minimizedAffinity -4.52763033
REMARK minimizedRMSD -1
REMARK  1 active torsions:
REMARK  status: ('A' for Active; 'I' for Inactive)
REMARK    1  A    between atoms: C1_2  and  C2_3 
ROOT
ATOM      1  C2  UNL d   1       0.399  -1.213  -0.207  0.00  0.00    -0.077 A 
ATOM      2  C3  UNL d   1      -0.237  -0.177   0.491  0.00  0.00     0.002 A 
ATOM      3  C4  UNL d   1      -0.082   1.149   0.082  0.00  0.00     0.002 A 
ATOM      4  C5  UNL d   1       0.705   1.451  -1.027  0.00  0.00    -0.004 A 
ATOM      5  C6  UNL d   1       1.344   0.428  -1.726  0.00  0.00     0.002 A 
ATOM      6  C7  UNL d   1       1.191  -0.898  -1.319  0.00  0.00     0.002 A 
ENDROOT
BRANCH   1   7
ATOM      7  C1  UNL d   1       0.193  -2.648   0.203  0.00  0.00     0.055 C 
ATOM      8  C   UNL d   1      -1.037  -2.801   1.085  0.00  0.00     0.019 C 
ENDBRANCH   1   7
TORSDOF 1
ENDMDL
