MODEL 1
REMARK minimizedAffinity -0.862006903
REMARK minimizedRMSD -1
REMARK  1 active torsions:
REMARK  status: ('A' for Active; 'I' for Inactive)
REMARK    1  A    between atoms: C1_2  and  C2_3 
ROOT
ATOM      1  C2  UNL d   1       0.542   0.848  -0.644  0.00  0.00    -0.077 A 
ATOM      2  C3  UNL d   1       1.830   1.290  -0.308  0.00  0.00     0.002 A 
ATOM      3  C4  UNL d   1       2.872   1.200  -1.232  0.00  0.00     0.002 A 
ATOM      4  C5  UNL d   1       2.637   0.672  -2.500  0.00  0.00    -0.004 A 
ATOM      5  C6  UNL d   1       1.361   0.227  -2.844  0.00  0.00     0.002 A 
ATOM      6  C7  UNL d   1       0.318   0.316  -1.921  0.00  0.00     0.002 A 
ENDROOT
BRANCH   1   7
ATOM      7  C1  UNL d   1      -0.594   0.991   0.334  0.00  0.00     0.055 C 
ATOM      8  C   UNL d   1      -0.895  -0.329   1.029  0.00  0.00     0.019 C 
ENDBRANCH   1   7
TORSDOF 1
ENDMDL
