MODEL 1
REMARK minimizedAffinity 4.21424198
REMARK minimizedRMSD -1
REMARK  1 active torsions:
REMARK  status: ('A' for Active; 'I' for Inactive)
REMARK    1  A    between atoms: C1_2  and  C2_3 
ROOT
ATOM      1  C2  UNL d   1       0.567   1.697   0.781  0.00  0.00    -0.077 A 
ATOM      2  C3  UNL d   1       0.195   2.852   1.484  0.00  0.00     0.002 A 
ATOM      3  C4  UNL d   1       1.159   3.782   1.875  0.00  0.00     0.002 A 
ATOM      4  C5  UNL d   1       2.501   3.569   1.566  0.00  0.00    -0.004 A 
ATOM      5  C6  UNL d   1       2.882   2.423   0.869  0.00  0.00     0.002 A 
ATOM      6  C7  UNL d   1       1.919   1.491   0.478  0.00  0.00     0.002 A 
ENDROOT
BRANCH   1   7
ATOM      7  C1  UNL d   1      -0.478   0.717   0.315  0.00  0.00     0.055 C 
ATOM      8  C   UNL d   1      -1.193   0.069   1.491  0.00  0.00     0.019 C 
ENDBRANCH   1   7
TORSDOF 1
ENDMDL
