MODEL 1
REMARK minimizedAffinity -2.72131586
REMARK minimizedRMSD -1
REMARK  1 active torsions:
REMARK  status: ('A' for Active; 'I' for Inactive)
REMARK    1  A    between atoms: C1_2  and  C2_3 
ROOT
ATOM      1  C2  UNL d   1       0.417   1.405   0.413  0.00  0.00    -0.077 A 
ATOM      2  C3  UNL d   1       1.352   0.684  -0.342  0.00  0.00     0.002 A 
ATOM      3  C4  UNL d   1       2.669   1.136  -0.453  0.00  0.00     0.002 A 
ATOM      4  C5  UNL d   1       3.062   2.307   0.192  0.00  0.00    -0.004 A 
ATOM      5  C6  UNL d   1       2.138   3.032   0.944  0.00  0.00     0.002 A 
ATOM      6  C7  UNL d   1       0.822   2.582   1.055  0.00  0.00     0.002 A 
ENDROOT
BRANCH   1   7
ATOM      7  C1  UNL d   1      -0.991   0.893   0.575  0.00  0.00     0.055 C 
ATOM      8  C   UNL d   1      -1.215   0.319   1.966  0.00  0.00     0.019 C 
ENDBRANCH   1   7
TORSDOF 1
ENDMDL
