MODEL 1
REMARK minimizedAffinity 0.526115894
REMARK minimizedRMSD -1
REMARK  1 active torsions:
REMARK  status: ('A' for Active; 'I' for Inactive)
REMARK    1  A    between atoms: C1_2  and  C2_3 
ROOT
ATOM      1  C2  UNL d   1      -0.449   1.313   0.988  0.00  0.00    -0.077 A 
ATOM      2  C3  UNL d   1      -1.035   0.958   2.211  0.00  0.00     0.002 A 
ATOM      3  C4  UNL d   1      -1.410  -0.364   2.457  0.00  0.00     0.002 A 
ATOM      4  C5  UNL d   1      -1.201  -1.342   1.486  0.00  0.00    -0.004 A 
ATOM      5  C6  UNL d   1      -0.621  -0.998   0.266  0.00  0.00     0.002 A 
ATOM      6  C7  UNL d   1      -0.246   0.323   0.018  0.00  0.00     0.002 A 
ENDROOT
BRANCH   1   7
ATOM      7  C1  UNL d   1       0.001   2.729   0.739  0.00  0.00     0.055 C 
ATOM      8  C   UNL d   1       1.511   2.861   0.875  0.00  0.00     0.019 C 
ENDBRANCH   1   7
TORSDOF 1
ENDMDL
