MODEL 1
REMARK minimizedAffinity -4.09140015
REMARK minimizedRMSD -1
REMARK  1 active torsions:
REMARK  status: ('A' for Active; 'I' for Inactive)
REMARK    1  A    between atoms: C1_2  and  C2_3 
ROOT
ATOM      1  C2  UNL d   1       0.252  -0.644  -0.924  0.00  0.00    -0.077 A 
ATOM      2  C3  UNL d   1      -0.032  -0.121   0.345  0.00  0.00     0.002 A 
ATOM      3  C4  UNL d   1      -0.657  -0.911   1.311  0.00  0.00     0.002 A 
ATOM      4  C5  UNL d   1      -1.001  -2.229   1.020  0.00  0.00    -0.004 A 
ATOM      5  C6  UNL d   1      -0.725  -2.758  -0.240  0.00  0.00     0.002 A 
ATOM      6  C7  UNL d   1      -0.100  -1.970  -1.208  0.00  0.00     0.002 A 
ENDROOT
BRANCH   1   7
ATOM      7  C1  UNL d   1       0.972   0.191  -1.951  0.00  0.00     0.055 C 
ATOM      8  C   UNL d   1       2.471   0.214  -1.694  0.00  0.00     0.019 C 
ENDBRANCH   1   7
TORSDOF 1
ENDMDL
