MODEL 1
REMARK minimizedAffinity -1.54149163
REMARK minimizedRMSD -1
REMARK  1 active torsions:
REMARK  status: ('A' for Active; 'I' for Inactive)
REMARK    1  A    between atoms: C1_2  and  C2_3 
ROOT
ATOM      1  C2  UNL d   1       3.240   2.125   0.160  0.00  0.00    -0.077 A 
ATOM      2  C3  UNL d   1       3.267   3.239   1.010  0.00  0.00     0.002 A 
ATOM      3  C4  UNL d   1       2.099   3.680   1.635  0.00  0.00     0.002 A 
ATOM      4  C5  UNL d   1       0.897   3.011   1.419  0.00  0.00    -0.004 A 
ATOM      5  C6  UNL d   1       0.858   1.903   0.574  0.00  0.00     0.002 A 
ATOM      6  C7  UNL d   1       2.025   1.461  -0.052  0.00  0.00     0.002 A 
ENDROOT
BRANCH   1   7
ATOM      7  C1  UNL d   1       4.508   1.618  -0.476  0.00  0.00     0.055 C 
ATOM      8  C   UNL d   1       4.684   2.176  -1.880  0.00  0.00     0.019 C 
ENDBRANCH   1   7
TORSDOF 1
ENDMDL
