MODEL 1
REMARK minimizedAffinity 3.19462872
REMARK minimizedRMSD -1
REMARK  1 active torsions:
REMARK  status: ('A' for Active; 'I' for Inactive)
REMARK    1  A    between atoms: C1_2  and  C2_3 
ROOT
ATOM      1  C2  UNL d   1       0.398   1.673   0.535  0.00  0.00    -0.077 A 
ATOM      2  C3  UNL d   1       1.590   1.438  -0.166  0.00  0.00     0.002 A 
ATOM      3  C4  UNL d   1       2.645   2.349  -0.088  0.00  0.00     0.002 A 
ATOM      4  C5  UNL d   1       2.522   3.497   0.691  0.00  0.00    -0.004 A 
ATOM      5  C6  UNL d   1       1.340   3.740   1.390  0.00  0.00     0.002 A 
ATOM      6  C7  UNL d   1       0.283   2.832   1.313  0.00  0.00     0.002 A 
ENDROOT
BRANCH   1   7
ATOM      7  C1  UNL d   1      -0.723   0.667   0.492  0.00  0.00     0.055 C 
ATOM      8  C   UNL d   1      -0.745  -0.191   1.749  0.00  0.00     0.019 C 
ENDBRANCH   1   7
TORSDOF 1
ENDMDL
