MODEL 1
REMARK minimizedAffinity -5.20583344
REMARK minimizedRMSD -1
REMARK  1 active torsions:
REMARK  status: ('A' for Active; 'I' for Inactive)
REMARK    1  A    between atoms: C1_2  and  C2_3 
ROOT
ATOM      1  C2  UNL d   1      -0.710  -0.424   0.706  0.00  0.00    -0.077 A 
ATOM      2  C3  UNL d   1      -0.048   0.036  -0.441  0.00  0.00     0.002 A 
ATOM      3  C4  UNL d   1       0.519  -0.870  -1.339  0.00  0.00     0.002 A 
ATOM      4  C5  UNL d   1       0.427  -2.239  -1.102  0.00  0.00    -0.004 A 
ATOM      5  C6  UNL d   1      -0.228  -2.706   0.037  0.00  0.00     0.002 A 
ATOM      6  C7  UNL d   1      -0.795  -1.803   0.936  0.00  0.00     0.002 A 
ENDROOT
BRANCH   1   7
ATOM      7  C1  UNL d   1      -1.366   0.550   1.651  0.00  0.00     0.055 C 
ATOM      8  C   UNL d   1      -1.323   0.043   3.085  0.00  0.00     0.019 C 
ENDBRANCH   1   7
TORSDOF 1
ENDMDL
