MODEL 1
REMARK minimizedAffinity -4.52413368
REMARK minimizedRMSD -1
REMARK  1 active torsions:
REMARK  status: ('A' for Active; 'I' for Inactive)
REMARK    1  A    between atoms: C1_2  and  C2_3 
ROOT
ATOM      1  C2  UNL d   1      -0.166  -0.390  -0.479  0.00  0.00    -0.077 A 
ATOM      2  C3  UNL d   1      -0.096   0.127   0.823  0.00  0.00     0.002 A 
ATOM      3  C4  UNL d   1      -0.557  -0.623   1.906  0.00  0.00     0.002 A 
ATOM      4  C5  UNL d   1      -1.086  -1.895   1.700  0.00  0.00    -0.004 A 
ATOM      5  C6  UNL d   1      -1.162  -2.417   0.410  0.00  0.00     0.002 A 
ATOM      6  C7  UNL d   1      -0.703  -1.668  -0.675  0.00  0.00     0.002 A 
ENDROOT
BRANCH   1   7
ATOM      7  C1  UNL d   1       0.376   0.398  -1.643  0.00  0.00     0.055 C 
ATOM      8  C   UNL d   1       1.895   0.469  -1.604  0.00  0.00     0.019 C 
ENDBRANCH   1   7
TORSDOF 1
ENDMDL
