MODEL 1
REMARK minimizedAffinity -0.687651038
REMARK minimizedRMSD -1
REMARK  1 active torsions:
REMARK  status: ('A' for Active; 'I' for Inactive)
REMARK    1  A    between atoms: C1_2  and  C2_3 
ROOT
ATOM      1  C2  UNL d   1      -0.903   0.806   0.826  0.00  0.00    -0.077 A 
ATOM      2  C3  UNL d   1      -1.136   0.009   1.956  0.00  0.00     0.002 A 
ATOM      3  C4  UNL d   1      -1.232  -1.378   1.835  0.00  0.00     0.002 A 
ATOM      4  C5  UNL d   1      -1.092  -1.982   0.586  0.00  0.00    -0.004 A 
ATOM      5  C6  UNL d   1      -0.862  -1.198  -0.544  0.00  0.00     0.002 A 
ATOM      6  C7  UNL d   1      -0.767   0.189  -0.425  0.00  0.00     0.002 A 
ENDROOT
BRANCH   1   7
ATOM      7  C1  UNL d   1      -0.750   2.298   0.962  0.00  0.00     0.055 C 
ATOM      8  C   UNL d   1       0.707   2.689   1.167  0.00  0.00     0.019 C 
ENDBRANCH   1   7
TORSDOF 1
ENDMDL
