MODEL 1
REMARK minimizedAffinity -3.00649333
REMARK minimizedRMSD -1
REMARK  1 active torsions:
REMARK  status: ('A' for Active; 'I' for Inactive)
REMARK    1  A    between atoms: C1_2  and  C2_3 
ROOT
ATOM      1  C2  UNL d   1      -0.217   2.344   0.598  0.00  0.00    -0.077 A 
ATOM      2  C3  UNL d   1      -1.083   1.929   1.620  0.00  0.00     0.002 A 
ATOM      3  C4  UNL d   1      -1.527   0.606   1.676  0.00  0.00     0.002 A 
ATOM      4  C5  UNL d   1      -1.107  -0.312   0.716  0.00  0.00    -0.004 A 
ATOM      5  C6  UNL d   1      -0.248   0.091  -0.305  0.00  0.00     0.002 A 
ATOM      6  C7  UNL d   1       0.196   1.412  -0.363  0.00  0.00     0.002 A 
ENDROOT
BRANCH   1   7
ATOM      7  C1  UNL d   1       0.302   3.757   0.564  0.00  0.00     0.055 C 
ATOM      8  C   UNL d   1       1.709   3.844   1.136  0.00  0.00     0.019 C 
ENDBRANCH   1   7
TORSDOF 1
ENDMDL
