MODEL 1
REMARK minimizedAffinity 6.18472815
REMARK minimizedRMSD -1
REMARK  1 active torsions:
REMARK  status: ('A' for Active; 'I' for Inactive)
REMARK    1  A    between atoms: C1_2  and  C2_3 
ROOT
ATOM      1  C2  UNL d   1      -1.024   0.267   0.773  0.00  0.00    -0.077 A 
ATOM      2  C3  UNL d   1      -0.933  -0.870  -0.042  0.00  0.00     0.002 A 
ATOM      3  C4  UNL d   1      -1.197  -2.137   0.481  0.00  0.00     0.002 A 
ATOM      4  C5  UNL d   1      -1.557  -2.279   1.820  0.00  0.00    -0.004 A 
ATOM      5  C6  UNL d   1      -1.648  -1.154   2.639  0.00  0.00     0.002 A 
ATOM      6  C7  UNL d   1      -1.384   0.113   2.118  0.00  0.00     0.002 A 
ENDROOT
BRANCH   1   7
ATOM      7  C1  UNL d   1      -0.787   1.639   0.198  0.00  0.00     0.055 C 
ATOM      8  C   UNL d   1      -0.232   2.591   1.247  0.00  0.00     0.019 C 
ENDBRANCH   1   7
TORSDOF 1
ENDMDL
