MODEL 1
REMARK minimizedAffinity -4.67254114
REMARK minimizedRMSD -1
REMARK  1 active torsions:
REMARK  status: ('A' for Active; 'I' for Inactive)
REMARK    1  A    between atoms: C1_2  and  C2_3 
ROOT
ATOM      1  C2  UNL d   1       1.236   1.233  -0.926  0.00  0.00    -0.077 A 
ATOM      2  C3  UNL d   1       0.445   1.743   0.113  0.00  0.00     0.002 A 
ATOM      3  C4  UNL d   1       0.981   2.655   1.025  0.00  0.00     0.002 A 
ATOM      4  C5  UNL d   1       2.306   3.067   0.905  0.00  0.00    -0.004 A 
ATOM      5  C6  UNL d   1       3.101   2.564  -0.124  0.00  0.00     0.002 A 
ATOM      6  C7  UNL d   1       2.568   1.651  -1.036  0.00  0.00     0.002 A 
ENDROOT
BRANCH   1   7
ATOM      7  C1  UNL d   1       0.646   0.287  -1.940  0.00  0.00     0.055 C 
ATOM      8  C   UNL d   1       1.454   0.284  -3.229  0.00  0.00     0.019 C 
ENDBRANCH   1   7
TORSDOF 1
ENDMDL
