MODEL 1
REMARK minimizedAffinity -5.25407219
REMARK minimizedRMSD -1
REMARK  1 active torsions:
REMARK  status: ('A' for Active; 'I' for Inactive)
REMARK    1  A    between atoms: C1_2  and  C2_3 
ROOT
ATOM      1  C2  UNL d   1       0.312   1.152  -0.401  0.00  0.00    -0.077 A 
ATOM      2  C3  UNL d   1      -0.121   0.424  -1.519  0.00  0.00     0.002 A 
ATOM      3  C4  UNL d   1       0.784   0.061  -2.518  0.00  0.00     0.002 A 
ATOM      4  C5  UNL d   1       2.127   0.417  -2.408  0.00  0.00    -0.004 A 
ATOM      5  C6  UNL d   1       2.566   1.142  -1.302  0.00  0.00     0.002 A 
ATOM      6  C7  UNL d   1       1.663   1.507  -0.302  0.00  0.00     0.002 A 
ENDROOT
BRANCH   1   7
ATOM      7  C1  UNL d   1      -0.652   1.502   0.702  0.00  0.00     0.055 C 
ATOM      8  C   UNL d   1      -1.031   0.274   1.517  0.00  0.00     0.019 C 
ENDBRANCH   1   7
TORSDOF 1
ENDMDL
