MODEL 1
REMARK minimizedAffinity -5.06588793
REMARK minimizedRMSD -1
REMARK  1 active torsions:
REMARK  status: ('A' for Active; 'I' for Inactive)
REMARK    1  A    between atoms: C1_2  and  C2_3 
ROOT
ATOM      1  C2  UNL d   1       0.076   1.027   0.168  0.00  0.00    -0.077 A 
ATOM      2  C3  UNL d   1      -0.439   0.129   1.114  0.00  0.00     0.002 A 
ATOM      3  C4  UNL d   1      -0.340  -1.248   0.906  0.00  0.00     0.002 A 
ATOM      4  C5  UNL d   1       0.276  -1.739  -0.243  0.00  0.00    -0.004 A 
ATOM      5  C6  UNL d   1       0.788  -0.854  -1.190  0.00  0.00     0.002 A 
ATOM      6  C7  UNL d   1       0.690   0.523  -0.986  0.00  0.00     0.002 A 
ENDROOT
BRANCH   1   7
ATOM      7  C1  UNL d   1       0.014   2.512   0.413  0.00  0.00     0.055 C 
ATOM      8  C   UNL d   1       1.406   3.126   0.446  0.00  0.00     0.019 C 
ENDBRANCH   1   7
TORSDOF 1
ENDMDL
