MODEL 1
REMARK minimizedAffinity -2.25413227
REMARK minimizedRMSD -1
REMARK  0 active torsions:
REMARK  status: ('A' for Active; 'I' for Inactive)
ROOT
ATOM      1  C   UNL d   1       0.624  -0.230  -0.377  0.00  0.00     0.172 C 
ATOM      2  N   UNL d   1       0.754  -0.020  -1.800  0.00  0.00    -0.070 N 
ATOM      3  C1  UNL d   1       1.740   0.705  -2.414  0.00  0.00    -0.004 A 
ATOM      4  C2  UNL d   1       1.511   0.664  -3.772  0.00  0.00    -0.047 A 
ATOM      5  C3  UNL d   1       0.346  -0.111  -3.982  0.00  0.00    -0.047 A 
ATOM      6  C4  UNL d   1      -0.103  -0.522  -2.744  0.00  0.00    -0.004 A 
ENDROOT
TORSDOF 0
ENDMDL
