MODEL 1
REMARK minimizedAffinity -3.97374296
REMARK minimizedRMSD -1
REMARK  0 active torsions:
REMARK  status: ('A' for Active; 'I' for Inactive)
ROOT
ATOM      1  C   UNL d   1       0.344  -0.389  -0.477  0.00  0.00     0.172 C 
ATOM      2  N   UNL d   1      -0.113   0.188   0.765  0.00  0.00    -0.070 N 
ATOM      3  C1  UNL d   1       0.687   0.727   1.737  0.00  0.00    -0.004 A 
ATOM      4  C2  UNL d   1      -0.128   1.169   2.757  0.00  0.00    -0.047 A 
ATOM      5  C3  UNL d   1      -1.464   0.885   2.385  0.00  0.00    -0.047 A 
ATOM      6  C4  UNL d   1      -1.425   0.278   1.147  0.00  0.00    -0.004 A 
ENDROOT
TORSDOF 0
ENDMDL
