MODEL 1
REMARK minimizedAffinity -0.947978079
REMARK minimizedRMSD -1
REMARK  0 active torsions:
REMARK  status: ('A' for Active; 'I' for Inactive)
ROOT
ATOM      1  C   UNL d   1       1.137  -1.034  -1.068  0.00  0.00     0.172 C 
ATOM      2  N   UNL d   1       1.237  -0.396  -2.359  0.00  0.00    -0.070 N 
ATOM      3  C1  UNL d   1       2.309   0.328  -2.811  0.00  0.00    -0.004 A 
ATOM      4  C2  UNL d   1       2.015   0.767  -4.084  0.00  0.00    -0.047 A 
ATOM      5  C3  UNL d   1       0.722   0.291  -4.408  0.00  0.00    -0.047 A 
ATOM      6  C4  UNL d   1       0.264  -0.425  -3.322  0.00  0.00    -0.004 A 
ENDROOT
TORSDOF 0
ENDMDL
