MODEL 1
REMARK minimizedAffinity -2.93784976
REMARK minimizedRMSD -1
REMARK  1 active torsions:
REMARK  status: ('A' for Active; 'I' for Inactive)
REMARK    1  A    between atoms: N_2  and  C1_3 
ROOT
ATOM      1  C1  UNL d   1       0.342   4.228  -0.794  0.00  0.00     0.143 A 
ATOM      2  C2  UNL d   1       1.223   4.963   0.008  0.00  0.00    -0.057 A 
ATOM      3  C3  UNL d   1       1.738   4.432   1.197  0.00  0.00     0.033 A 
ATOM      4  C4  UNL d   1       1.356   3.164   1.622  0.00  0.00    -0.042 A 
ATOM      5  C5  UNL d   1       0.462   2.426   0.854  0.00  0.00     0.033 A 
ATOM      6  C6  UNL d   1      -0.043   2.959  -0.336  0.00  0.00    -0.057 A 
ENDROOT
BRANCH   1   7
ATOM      7  N   UNL d   1      -0.280   4.739  -1.936  0.00  0.00    -0.732 N 
ATOM      8  C   UNL d   1       0.302   5.849  -2.658  0.00  0.00     0.284 C 
ATOM      9  H3  UNL d   1      -0.657   4.006  -2.533  0.00  0.00     0.395 HD
ENDBRANCH   1   7
TORSDOF 1
ENDMDL
