MODEL 1
REMARK minimizedAffinity 1.33126485
REMARK minimizedRMSD -1
REMARK  1 active torsions:
REMARK  status: ('A' for Active; 'I' for Inactive)
REMARK    1  A    between atoms: N_2  and  C1_3 
ROOT
ATOM      1  C1  UNL d   1       1.005   2.613   1.464  0.00  0.00     0.143 A 
ATOM      2  C2  UNL d   1       1.442   3.720   0.729  0.00  0.00    -0.057 A 
ATOM      3  C3  UNL d   1       0.986   3.952  -0.574  0.00  0.00     0.033 A 
ATOM      4  C4  UNL d   1       0.105   3.062  -1.178  0.00  0.00    -0.042 A 
ATOM      5  C5  UNL d   1      -0.323   1.941  -0.475  0.00  0.00     0.033 A 
ATOM      6  C6  UNL d   1       0.130   1.719   0.828  0.00  0.00    -0.057 A 
ENDROOT
BRANCH   1   7
ATOM      7  N   UNL d   1       1.497   2.275   2.727  0.00  0.00    -0.732 N 
ATOM      8  C   UNL d   1       2.678   2.923   3.257  0.00  0.00     0.284 C 
ATOM      9  H3  UNL d   1       0.755   2.140   3.410  0.00  0.00     0.395 HD
ENDBRANCH   1   7
TORSDOF 1
ENDMDL
