MODEL 1
REMARK minimizedAffinity 2.59845734
REMARK minimizedRMSD -1
REMARK  1 active torsions:
REMARK  status: ('A' for Active; 'I' for Inactive)
REMARK    1  A    between atoms: N_2  and  C1_3 
ROOT
ATOM      1  C1  UNL d   1      -0.180   1.714   0.810  0.00  0.00     0.143 A 
ATOM      2  C2  UNL d   1      -1.488   1.248   0.976  0.00  0.00    -0.057 A 
ATOM      3  C3  UNL d   1      -1.764   0.125   1.767  0.00  0.00     0.033 A 
ATOM      4  C4  UNL d   1      -0.728  -0.570   2.382  0.00  0.00    -0.042 A 
ATOM      5  C5  UNL d   1       0.582  -0.139   2.210  0.00  0.00     0.033 A 
ATOM      6  C6  UNL d   1       0.850   0.986   1.425  0.00  0.00    -0.057 A 
ENDROOT
BRANCH   1   7
ATOM      7  N   UNL d   1       0.168   2.765  -0.042  0.00  0.00    -0.732 N 
ATOM      8  C   UNL d   1      -0.004   2.642  -1.474  0.00  0.00     0.284 C 
ATOM      9  H3  UNL d   1      -0.099   3.673   0.332  0.00  0.00     0.395 HD
ENDBRANCH   1   7
TORSDOF 1
ENDMDL
