MODEL 1
REMARK minimizedAffinity 4.02538633
REMARK minimizedRMSD -1
REMARK  1 active torsions:
REMARK  status: ('A' for Active; 'I' for Inactive)
REMARK    1  A    between atoms: N_2  and  C1_3 
ROOT
ATOM      1  C1  UNL d   1       0.480   1.389   0.907  0.00  0.00     0.143 A 
ATOM      2  C2  UNL d   1       1.281   2.415   1.419  0.00  0.00    -0.057 A 
ATOM      3  C3  UNL d   1       1.604   3.538   0.646  0.00  0.00     0.033 A 
ATOM      4  C4  UNL d   1       1.154   3.639  -0.666  0.00  0.00    -0.042 A 
ATOM      5  C5  UNL d   1       0.377   2.619  -1.203  0.00  0.00     0.033 A 
ATOM      6  C6  UNL d   1       0.053   1.504  -0.425  0.00  0.00    -0.057 A 
ENDROOT
BRANCH   1   7
ATOM      7  N   UNL d   1       0.206   0.202   1.592  0.00  0.00    -0.732 N 
ATOM      8  C   UNL d   1       1.032  -0.970   1.396  0.00  0.00     0.284 C 
ATOM      9  H3  UNL d   1      -0.061   0.365   2.560  0.00  0.00     0.395 HD
ENDBRANCH   1   7
TORSDOF 1
ENDMDL
