MODEL 1
REMARK minimizedAffinity 4.76787663
REMARK minimizedRMSD -1
REMARK  1 active torsions:
REMARK  status: ('A' for Active; 'I' for Inactive)
REMARK    1  A    between atoms: N_2  and  C1_3 
ROOT
ATOM      1  C1  UNL d   1       1.155   2.509   0.503  0.00  0.00     0.143 A 
ATOM      2  C2  UNL d   1       0.359   2.316  -0.631  0.00  0.00    -0.057 A 
ATOM      3  C3  UNL d   1       0.390   3.217  -1.702  0.00  0.00     0.033 A 
ATOM      4  C4  UNL d   1       1.197   4.348  -1.644  0.00  0.00    -0.042 A 
ATOM      5  C5  UNL d   1       1.978   4.574  -0.515  0.00  0.00     0.033 A 
ATOM      6  C6  UNL d   1       1.948   3.666   0.548  0.00  0.00    -0.057 A 
ENDROOT
BRANCH   1   7
ATOM      7  N   UNL d   1       1.096   1.702   1.642  0.00  0.00    -0.732 N 
ATOM      8  C   UNL d   1      -0.172   1.420   2.281  0.00  0.00     0.284 C 
ATOM      9  H3  UNL d   1       1.719   0.899   1.581  0.00  0.00     0.395 HD
ENDBRANCH   1   7
TORSDOF 1
ENDMDL
