MODEL 1
REMARK minimizedAffinity 8.52445412
REMARK minimizedRMSD -1
REMARK  0 active torsions:
REMARK  status: ('A' for Active; 'I' for Inactive)
ROOT
ATOM      1  C   UNL d   1      -5.960  -4.026   0.718  0.00  0.00     0.023 A 
ATOM      2  C1  UNL d   1      -5.755  -5.400   0.583  0.00  0.00     0.003 A 
ATOM      3  C2  UNL d   1      -4.540  -5.967   0.974  0.00  0.00     0.048 A 
ATOM      4  C3  UNL d   1      -3.536  -5.156   1.500  0.00  0.00     0.023 A 
ATOM      5  C4  UNL d   1      -3.737  -3.782   1.638  0.00  0.00     0.048 A 
ATOM      6  C5  UNL d   1      -4.952  -3.218   1.244  0.00  0.00     0.003 A 
ATOM      7  I   UNL d   1      -1.727  -5.999   2.084  0.00  0.00    -0.146 I 
ENDROOT
TORSDOF 0
ENDMDL
