MODEL 1
REMARK minimizedAffinity 5.44235468
REMARK minimizedRMSD -1
REMARK  0 active torsions:
REMARK  status: ('A' for Active; 'I' for Inactive)
ROOT
ATOM      1  C   UNL d   1       2.121  -5.999   3.630  0.00  0.00     0.023 A 
ATOM      2  C1  UNL d   1       2.195  -5.998   2.237  0.00  0.00     0.003 A 
ATOM      3  C2  UNL d   1       1.025  -5.999   1.475  0.00  0.00     0.048 A 
ATOM      4  C3  UNL d   1      -0.215  -5.999   2.112  0.00  0.00     0.023 A 
ATOM      5  C4  UNL d   1      -0.294  -5.999   3.505  0.00  0.00     0.048 A 
ATOM      6  C5  UNL d   1       0.878  -6.000   4.263  0.00  0.00     0.003 A 
ATOM      7  I   UNL d   1      -1.958  -5.999   0.979  0.00  0.00    -0.146 I 
ENDROOT
TORSDOF 0
ENDMDL
