MODEL 1
REMARK minimizedAffinity 1.14148843
REMARK minimizedRMSD -1
REMARK  0 active torsions:
REMARK  status: ('A' for Active; 'I' for Inactive)
ROOT
ATOM      1  C   UNL d   1       2.078  -5.950   4.151  0.00  0.00     0.023 A 
ATOM      2  C1  UNL d   1       0.755  -5.950   4.594  0.00  0.00     0.003 A 
ATOM      3  C2  UNL d   1      -0.292  -5.963   3.670  0.00  0.00     0.048 A 
ATOM      4  C3  UNL d   1      -0.009  -5.978   2.305  0.00  0.00     0.023 A 
ATOM      5  C4  UNL d   1       1.313  -5.979   1.857  0.00  0.00     0.048 A 
ATOM      6  C5  UNL d   1       2.357  -5.965   2.785  0.00  0.00     0.003 A 
ATOM      7  I   UNL d   1      -1.565  -5.998   0.927  0.00  0.00    -0.146 I 
ENDROOT
TORSDOF 0
ENDMDL
