MODEL 1
REMARK minimizedAffinity 0.00707379449
REMARK minimizedRMSD -1
REMARK  0 active torsions:
REMARK  status: ('A' for Active; 'I' for Inactive)
ROOT
ATOM      1  C   UNL d   1       2.390  -5.993   4.698  0.00  0.00     0.023 A 
ATOM      2  C1  UNL d   1       2.788  -5.999   3.361  0.00  0.00     0.003 A 
ATOM      3  C2  UNL d   1       1.830  -5.999   2.346  0.00  0.00     0.048 A 
ATOM      4  C3  UNL d   1       0.475  -5.993   2.674  0.00  0.00     0.023 A 
ATOM      5  C4  UNL d   1       0.071  -5.986   4.010  0.00  0.00     0.048 A 
ATOM      6  C5  UNL d   1       1.033  -5.987   5.022  0.00  0.00     0.003 A 
ATOM      7  I   UNL d   1      -0.954  -5.993   1.164  0.00  0.00    -0.146 I 
ENDROOT
TORSDOF 0
ENDMDL
