MODEL 1
REMARK minimizedAffinity 6.13547087
REMARK minimizedRMSD -1
REMARK  0 active torsions:
REMARK  status: ('A' for Active; 'I' for Inactive)
ROOT
ATOM      1  C   UNL d   1       0.239   0.597   1.417  0.00  0.00     0.023 A 
ATOM      2  C1  UNL d   1       0.345   1.250   0.189  0.00  0.00     0.003 A 
ATOM      3  C2  UNL d   1      -0.469   0.867  -0.879  0.00  0.00     0.048 A 
ATOM      4  C3  UNL d   1      -1.387  -0.169  -0.712  0.00  0.00     0.023 A 
ATOM      5  C4  UNL d   1      -1.497  -0.825   0.516  0.00  0.00     0.048 A 
ATOM      6  C5  UNL d   1      -0.681  -0.439   1.580  0.00  0.00     0.003 A 
ATOM      7  I   UNL d   1      -2.600  -0.741  -2.300  0.00  0.00    -0.146 I 
ENDROOT
TORSDOF 0
ENDMDL
