MODEL 1
REMARK minimizedAffinity 11.5902138
REMARK minimizedRMSD -1
REMARK  0 active torsions:
REMARK  status: ('A' for Active; 'I' for Inactive)
ROOT
ATOM      1  C   UNL d   1       0.520  -0.025   0.865  0.00  0.00     0.023 A 
ATOM      2  C1  UNL d   1      -0.227  -1.194   0.719  0.00  0.00     0.003 A 
ATOM      3  C2  UNL d   1      -1.275  -1.469   1.599  0.00  0.00     0.048 A 
ATOM      4  C3  UNL d   1      -1.573  -0.570   2.622  0.00  0.00     0.023 A 
ATOM      5  C4  UNL d   1      -0.830   0.602   2.771  0.00  0.00     0.048 A 
ATOM      6  C5  UNL d   1       0.219   0.872   1.890  0.00  0.00     0.003 A 
ATOM      7  I   UNL d   1      -3.134  -0.976   3.933  0.00  0.00    -0.146 I 
ENDROOT
TORSDOF 0
ENDMDL
