MODEL 1
REMARK minimizedAffinity 4.96138239
REMARK minimizedRMSD -1
REMARK  0 active torsions:
REMARK  status: ('A' for Active; 'I' for Inactive)
ROOT
ATOM      1  C   UNL d   1       1.938   0.613   1.119  0.00  0.00     0.023 A 
ATOM      2  C1  UNL d   1       1.925  -0.691   1.616  0.00  0.00     0.003 A 
ATOM      3  C2  UNL d   1       0.711  -1.324   1.888  0.00  0.00     0.048 A 
ATOM      4  C3  UNL d   1      -0.488  -0.648   1.660  0.00  0.00     0.023 A 
ATOM      5  C4  UNL d   1      -0.480   0.656   1.163  0.00  0.00     0.048 A 
ATOM      6  C5  UNL d   1       0.737   1.285   0.893  0.00  0.00     0.003 A 
ATOM      7  I   UNL d   1      -2.297  -1.588   2.065  0.00  0.00    -0.146 I 
ENDROOT
TORSDOF 0
ENDMDL
