MODEL 1
REMARK minimizedAffinity 7.70034647
REMARK minimizedRMSD -1
REMARK  0 active torsions:
REMARK  status: ('A' for Active; 'I' for Inactive)
ROOT
ATOM      1  C   UNL d   1      -2.082  -5.972   1.654  0.00  0.00     0.023 A 
ATOM      2  C1  UNL d   1      -1.946  -5.979   3.043  0.00  0.00     0.003 A 
ATOM      3  C2  UNL d   1      -0.675  -5.985   3.621  0.00  0.00     0.048 A 
ATOM      4  C3  UNL d   1       0.456  -5.982   2.805  0.00  0.00     0.023 A 
ATOM      5  C4  UNL d   1       0.324  -5.974   1.415  0.00  0.00     0.048 A 
ATOM      6  C5  UNL d   1      -0.949  -5.969   0.842  0.00  0.00     0.003 A 
ATOM      7  I   UNL d   1       2.349  -5.991   3.663  0.00  0.00    -0.146 I 
ENDROOT
TORSDOF 0
ENDMDL
