MODEL 1
REMARK minimizedAffinity 4.01294088
REMARK minimizedRMSD -1
REMARK  0 active torsions:
REMARK  status: ('A' for Active; 'I' for Inactive)
ROOT
ATOM      1  C   UNL d   1      -0.010  -5.979   0.637  0.00  0.00     0.023 A 
ATOM      2  C1  UNL d   1       1.293  -5.975   1.135  0.00  0.00     0.003 A 
ATOM      3  C2  UNL d   1       1.515  -5.980   2.514  0.00  0.00     0.048 A 
ATOM      4  C3  UNL d   1       0.430  -5.991   3.389  0.00  0.00     0.023 A 
ATOM      5  C4  UNL d   1      -0.876  -5.996   2.895  0.00  0.00     0.048 A 
ATOM      6  C5  UNL d   1      -1.093  -5.989   1.516  0.00  0.00     0.003 A 
ATOM      7  I   UNL d   1       0.758  -6.000   5.441  0.00  0.00    -0.146 I 
ENDROOT
TORSDOF 0
ENDMDL
