MODEL 1
REMARK minimizedAffinity 4.75697756
REMARK minimizedRMSD -1
REMARK  0 active torsions:
REMARK  status: ('A' for Active; 'I' for Inactive)
ROOT
ATOM      1  C   UNL d   1      -2.007  -2.732   1.452  0.00  0.00     0.023 A 
ATOM      2  C1  UNL d   1      -1.599  -2.064   2.606  0.00  0.00     0.003 A 
ATOM      3  C2  UNL d   1      -2.526  -1.344   3.363  0.00  0.00     0.048 A 
ATOM      4  C3  UNL d   1      -3.861  -1.298   2.960  0.00  0.00     0.023 A 
ATOM      5  C4  UNL d   1      -4.274  -1.966   1.806  0.00  0.00     0.048 A 
ATOM      6  C5  UNL d   1      -3.343  -2.683   1.052  0.00  0.00     0.003 A 
ATOM      7  I   UNL d   1      -5.243  -0.227   4.084  0.00  0.00    -0.146 I 
ENDROOT
TORSDOF 0
ENDMDL
