MODEL 1
REMARK minimizedAffinity -1.13686693
REMARK minimizedRMSD -1
REMARK  0 active torsions:
REMARK  status: ('A' for Active; 'I' for Inactive)
ROOT
ATOM      1  C   UNL d   1      -0.174  -0.290   2.195  0.00  0.00     0.023 A 
ATOM      2  C1  UNL d   1      -0.508   1.059   2.315  0.00  0.00     0.003 A 
ATOM      3  C2  UNL d   1      -1.777   1.428   2.765  0.00  0.00     0.048 A 
ATOM      4  C3  UNL d   1      -2.708   0.443   3.095  0.00  0.00     0.023 A 
ATOM      5  C4  UNL d   1      -2.378  -0.908   2.977  0.00  0.00     0.048 A 
ATOM      6  C5  UNL d   1      -1.108  -1.272   2.526  0.00  0.00     0.003 A 
ATOM      7  I   UNL d   1      -4.598   0.990   3.765  0.00  0.00    -0.146 I 
ENDROOT
TORSDOF 0
ENDMDL
