MODEL 1
REMARK minimizedAffinity 3.35484505
REMARK minimizedRMSD -1
REMARK  0 active torsions:
REMARK  status: ('A' for Active; 'I' for Inactive)
ROOT
ATOM      1  C   UNL d   1      -4.875   0.514   4.425  0.00  0.00     0.023 A 
ATOM      2  C1  UNL d   1      -4.569   1.736   3.825  0.00  0.00     0.003 A 
ATOM      3  C2  UNL d   1      -3.284   1.971   3.332  0.00  0.00     0.048 A 
ATOM      4  C3  UNL d   1      -2.310   0.979   3.441  0.00  0.00     0.023 A 
ATOM      5  C4  UNL d   1      -2.611  -0.245   4.040  0.00  0.00     0.048 A 
ATOM      6  C5  UNL d   1      -3.897  -0.475   4.532  0.00  0.00     0.003 A 
ATOM      7  I   UNL d   1      -0.396   1.326   2.708  0.00  0.00    -0.146 I 
ENDROOT
TORSDOF 0
ENDMDL
