MODEL 1
REMARK minimizedAffinity 0.773145318
REMARK minimizedRMSD -1
REMARK  0 active torsions:
REMARK  status: ('A' for Active; 'I' for Inactive)
ROOT
ATOM      1  C   UNL d   1       0.458  -4.065   3.991  0.00  0.00     0.023 A 
ATOM      2  C1  UNL d   1      -0.422  -3.242   3.287  0.00  0.00     0.003 A 
ATOM      3  C2  UNL d   1      -1.521  -3.796   2.627  0.00  0.00     0.048 A 
ATOM      4  C3  UNL d   1      -1.735  -5.173   2.675  0.00  0.00     0.023 A 
ATOM      5  C4  UNL d   1      -0.858  -6.000   3.379  0.00  0.00     0.048 A 
ATOM      6  C5  UNL d   1       0.240  -5.442   4.037  0.00  0.00     0.003 A 
ATOM      7  I   UNL d   1      -3.370  -5.999   1.694  0.00  0.00    -0.146 I 
ENDROOT
TORSDOF 0
ENDMDL
