MODEL 1
REMARK minimizedAffinity -0.599997282
REMARK minimizedRMSD -1
REMARK  0 active torsions:
REMARK  status: ('A' for Active; 'I' for Inactive)
ROOT
ATOM      1  C   UNL d   1      -4.735  -0.468   4.367  0.00  0.00     0.023 A 
ATOM      2  C1  UNL d   1      -4.306   0.673   3.689  0.00  0.00     0.003 A 
ATOM      3  C2  UNL d   1      -4.664   1.939   4.156  0.00  0.00     0.048 A 
ATOM      4  C3  UNL d   1      -5.450   2.058   5.301  0.00  0.00     0.023 A 
ATOM      5  C4  UNL d   1      -5.882   0.918   5.983  0.00  0.00     0.048 A 
ATOM      6  C5  UNL d   1      -5.522  -0.346   5.512  0.00  0.00     0.003 A 
ATOM      7  I   UNL d   1      -5.984   3.942   5.997  0.00  0.00    -0.146 I 
ENDROOT
TORSDOF 0
ENDMDL
