MODEL 1
REMARK minimizedAffinity 6.50646639
REMARK minimizedRMSD -1
REMARK  0 active torsions:
REMARK  status: ('A' for Active; 'I' for Inactive)
ROOT
ATOM      1  C   UNL d   1      -3.263  -1.474  -2.629  0.00  0.00     0.023 A 
ATOM      2  C1  UNL d   1      -2.237  -0.530  -2.587  0.00  0.00     0.003 A 
ATOM      3  C2  UNL d   1      -1.018  -0.794  -3.215  0.00  0.00     0.048 A 
ATOM      4  C3  UNL d   1      -0.832  -2.002  -3.885  0.00  0.00     0.023 A 
ATOM      5  C4  UNL d   1      -1.856  -2.949  -3.931  0.00  0.00     0.048 A 
ATOM      6  C5  UNL d   1      -3.073  -2.682  -3.300  0.00  0.00     0.003 A 
ATOM      7  I   UNL d   1       0.981  -2.397  -4.821  0.00  0.00    -0.146 I 
ENDROOT
TORSDOF 0
ENDMDL
