MODEL 1
REMARK minimizedAffinity -2.75228786
REMARK minimizedRMSD -1
REMARK  0 active torsions:
REMARK  status: ('A' for Active; 'I' for Inactive)
ROOT
ATOM      1  C1  BNZ d   1       0.334  -1.343   0.596  0.00  0.00     0.000 A 
ATOM      2  C2  BNZ d   1       1.595  -1.396   1.129  0.00  0.00     0.000 A 
ATOM      3  C3  BNZ d   1       2.183  -0.276   1.647  0.00  0.00     0.000 A 
ATOM      4  C4  BNZ d   1       1.528   0.902   1.595  0.00  0.00     0.000 A 
ATOM      5  C5  BNZ d   1       0.261   0.973   1.052  0.00  0.00     0.000 A 
ATOM      6  C6  BNZ d   1      -0.344  -0.163   0.567  0.00  0.00     0.000 A 
ENDROOT
TORSDOF 0
ENDMDL
