MODEL 1
REMARK minimizedAffinity -5.05042791
REMARK minimizedRMSD -1
REMARK  0 active torsions:
REMARK  status: ('A' for Active; 'I' for Inactive)
ROOT
ATOM      1  C1  BNZ d   1       0.401  -1.182   0.982  0.00  0.00     0.000 A 
ATOM      2  C2  BNZ d   1       1.547  -1.596   1.605  0.00  0.00     0.000 A 
ATOM      3  C3  BNZ d   1       2.640  -0.778   1.675  0.00  0.00     0.000 A 
ATOM      4  C4  BNZ d   1       2.599   0.435   1.087  0.00  0.00     0.000 A 
ATOM      5  C5  BNZ d   1       1.454   0.863   0.446  0.00  0.00     0.000 A 
ATOM      6  C6  BNZ d   1       0.342   0.052   0.411  0.00  0.00     0.000 A 
ENDROOT
TORSDOF 0
ENDMDL
