MODEL 1
REMARK minimizedAffinity -1.49711692
REMARK minimizedRMSD -1
REMARK  0 active torsions:
REMARK  status: ('A' for Active; 'I' for Inactive)
ROOT
ATOM      1  C1  BNZ d   1       2.431   1.844   3.623  0.00  0.00     0.000 A 
ATOM      2  C2  BNZ d   1       2.187   0.610   4.163  0.00  0.00     0.000 A 
ATOM      3  C3  BNZ d   1       2.151  -0.505   3.372  0.00  0.00     0.000 A 
ATOM      4  C4  BNZ d   1       2.319  -0.379   2.040  0.00  0.00     0.000 A 
ATOM      5  C5  BNZ d   1       2.556   0.861   1.480  0.00  0.00     0.000 A 
ATOM      6  C6  BNZ d   1       2.630   1.975   2.283  0.00  0.00     0.000 A 
ENDROOT
TORSDOF 0
ENDMDL
