MODEL 1
REMARK minimizedAffinity 7.46002007
REMARK minimizedRMSD -1
REMARK  0 active torsions:
REMARK  status: ('A' for Active; 'I' for Inactive)
ROOT
ATOM      1  C1  BNZ d   1      -5.922   4.213  -1.302  0.00  0.00     0.000 A 
ATOM      2  C2  BNZ d   1      -5.906   2.999  -1.936  0.00  0.00     0.000 A 
ATOM      3  C3  BNZ d   1      -5.962   1.835  -1.221  0.00  0.00     0.000 A 
ATOM      4  C4  BNZ d   1      -5.993   1.886   0.126  0.00  0.00     0.000 A 
ATOM      5  C5  BNZ d   1      -6.000   3.102   0.780  0.00  0.00     0.000 A 
ATOM      6  C6  BNZ d   1      -5.983   4.271   0.056  0.00  0.00     0.000 A 
ENDROOT
TORSDOF 0
ENDMDL
