MODEL 1
REMARK minimizedAffinity 4.84756756
REMARK minimizedRMSD -1
REMARK  0 active torsions:
REMARK  status: ('A' for Active; 'I' for Inactive)
ROOT
ATOM      1  C1  BNZ d   1      -5.940   4.004   0.158  0.00  0.00     0.000 A 
ATOM      2  C2  BNZ d   1      -5.854   3.547   1.446  0.00  0.00     0.000 A 
ATOM      3  C3  BNZ d   1      -4.700   2.983   1.913  0.00  0.00     0.000 A 
ATOM      4  C4  BNZ d   1      -3.648   2.841   1.081  0.00  0.00     0.000 A 
ATOM      5  C5  BNZ d   1      -3.722   3.288  -0.223  0.00  0.00     0.000 A 
ATOM      6  C6  BNZ d   1      -4.873   3.890  -0.678  0.00  0.00     0.000 A 
ENDROOT
TORSDOF 0
ENDMDL
