MODEL 1
REMARK minimizedAffinity -4.3331399
REMARK minimizedRMSD -1
REMARK  0 active torsions:
REMARK  status: ('A' for Active; 'I' for Inactive)
ROOT
ATOM      1  C1  BNZ d   1       1.078  -1.603   1.827  0.00  0.00     0.000 A 
ATOM      2  C2  BNZ d   1       1.667  -1.947   3.015  0.00  0.00     0.000 A 
ATOM      3  C3  BNZ d   1       2.679  -1.193   3.538  0.00  0.00     0.000 A 
ATOM      4  C4  BNZ d   1       3.128  -0.120   2.856  0.00  0.00     0.000 A 
ATOM      5  C5  BNZ d   1       2.551   0.235   1.652  0.00  0.00     0.000 A 
ATOM      6  C6  BNZ d   1       1.506  -0.505   1.147  0.00  0.00     0.000 A 
ENDROOT
TORSDOF 0
ENDMDL
