MODEL 1
REMARK minimizedAffinity 1.67477381
REMARK minimizedRMSD -1
REMARK  0 active torsions:
REMARK  status: ('A' for Active; 'I' for Inactive)
ROOT
ATOM      1  C1  BNZ d   1       0.371   0.263   0.378  0.00  0.00     0.000 A 
ATOM      2  C2  BNZ d   1      -0.710   0.946  -0.112  0.00  0.00     0.000 A 
ATOM      3  C3  BNZ d   1      -0.699   2.311  -0.190  0.00  0.00     0.000 A 
ATOM      4  C4  BNZ d   1       0.376   2.992   0.258  0.00  0.00     0.000 A 
ATOM      5  C5  BNZ d   1       1.469   2.318   0.763  0.00  0.00     0.000 A 
ATOM      6  C6  BNZ d   1       1.470   0.943   0.804  0.00  0.00     0.000 A 
ENDROOT
TORSDOF 0
ENDMDL
