MODEL 1
REMARK minimizedAffinity 1.35160649
REMARK minimizedRMSD -1
REMARK  0 active torsions:
REMARK  status: ('A' for Active; 'I' for Inactive)
ROOT
ATOM      1  C1  BNZ d   1       3.777  -0.723  -6.000  0.00  0.00     0.000 A 
ATOM      2  C2  BNZ d   1       4.895  -1.419  -5.625  0.00  0.00     0.000 A 
ATOM      3  C3  BNZ d   1       5.999  -0.766  -5.151  0.00  0.00     0.000 A 
ATOM      4  C4  BNZ d   1       5.997   0.581  -5.090  0.00  0.00     0.000 A 
ATOM      5  C5  BNZ d   1       4.881   1.297  -5.473  0.00  0.00     0.000 A 
ATOM      6  C6  BNZ d   1       3.758   0.635  -5.913  0.00  0.00     0.000 A 
ENDROOT
TORSDOF 0
ENDMDL
