MODEL 1
REMARK minimizedAffinity 5.3006711
REMARK minimizedRMSD -1
REMARK  0 active torsions:
REMARK  status: ('A' for Active; 'I' for Inactive)
ROOT
ATOM      1  C1  BNZ d   1       0.444  -3.539  -0.824  0.00  0.00     0.000 A 
ATOM      2  C2  BNZ d   1      -0.256  -3.940  -1.930  0.00  0.00     0.000 A 
ATOM      3  C3  BNZ d   1      -1.495  -3.429  -2.197  0.00  0.00     0.000 A 
ATOM      4  C4  BNZ d   1      -2.049  -2.549  -1.339  0.00  0.00     0.000 A 
ATOM      5  C5  BNZ d   1      -1.359  -2.141  -0.215  0.00  0.00     0.000 A 
ATOM      6  C6  BNZ d   1      -0.096  -2.628   0.031  0.00  0.00     0.000 A 
ENDROOT
TORSDOF 0
ENDMDL
