MODEL 1
REMARK minimizedAffinity 0.147793382
REMARK minimizedRMSD -1
REMARK  0 active torsions:
REMARK  status: ('A' for Active; 'I' for Inactive)
ROOT
ATOM      1  C1  BNZ d   1       2.071   0.162   1.885  0.00  0.00     0.000 A 
ATOM      2  C2  BNZ d   1       1.091  -0.791   1.804  0.00  0.00     0.000 A 
ATOM      3  C3  BNZ d   1       0.024  -0.629   0.964  0.00  0.00     0.000 A 
ATOM      4  C4  BNZ d   1      -0.081   0.502   0.238  0.00  0.00     0.000 A 
ATOM      5  C5  BNZ d   1       0.893   1.477   0.316  0.00  0.00     0.000 A 
ATOM      6  C6  BNZ d   1       1.985   1.293   1.133  0.00  0.00     0.000 A 
ENDROOT
TORSDOF 0
ENDMDL
