MODEL 1
REMARK minimizedAffinity 2.15728378
REMARK minimizedRMSD -1
REMARK  0 active torsions:
REMARK  status: ('A' for Active; 'I' for Inactive)
ROOT
ATOM      1  C4' PXY d   1       1.459  -3.119   1.554  0.00  0.00     0.077 C 
ATOM      2  C1' PXY d   1      -2.865   0.501   2.827  0.00  0.00     0.077 C 
ATOM      3  C1  PXY d   1      -1.724  -0.443   2.503  0.00  0.00    -0.082 A 
ATOM      4  C2  PXY d   1      -1.660  -1.005   1.306  0.00  0.00     0.003 A 
ATOM      5  C3  PXY d   1      -0.652  -1.886   1.007  0.00  0.00     0.003 A 
ATOM      6  C4  PXY d   1       0.330  -2.152   1.923  0.00  0.00    -0.082 A 
ATOM      7  C5  PXY d   1       0.278  -1.574   3.141  0.00  0.00     0.003 A 
ATOM      8  C6  PXY d   1      -0.776  -0.716   3.440  0.00  0.00     0.003 A 
ENDROOT
TORSDOF 0
ENDMDL
