MODEL 1
REMARK minimizedAffinity 7.57891178
REMARK minimizedRMSD -1
REMARK  0 active torsions:
REMARK  status: ('A' for Active; 'I' for Inactive)
ROOT
ATOM      1  C4' PXY d   1       0.717   3.947   4.536  0.00  0.00     0.077 C 
ATOM      2  C1' PXY d   1       5.979   5.959   5.831  0.00  0.00     0.077 C 
ATOM      3  C1  PXY d   1       4.604   5.427   5.481  0.00  0.00    -0.082 A 
ATOM      4  C2  PXY d   1       3.529   5.998   5.999  0.00  0.00     0.003 A 
ATOM      5  C3  PXY d   1       2.279   5.509   5.718  0.00  0.00     0.003 A 
ATOM      6  C4  PXY d   1       2.125   4.458   4.855  0.00  0.00    -0.082 A 
ATOM      7  C5  PXY d   1       3.216   3.876   4.313  0.00  0.00     0.003 A 
ATOM      8  C6  PXY d   1       4.478   4.361   4.644  0.00  0.00     0.003 A 
ENDROOT
TORSDOF 0
ENDMDL
