MODEL 1
REMARK minimizedAffinity 7.2997632
REMARK minimizedRMSD -1
REMARK  0 active torsions:
REMARK  status: ('A' for Active; 'I' for Inactive)
ROOT
ATOM      1  C4' PXY d   1       4.457  -2.811   1.232  0.00  0.00     0.077 C 
ATOM      2  C1' PXY d   1      -1.086  -1.697   2.438  0.00  0.00     0.077 C 
ATOM      3  C1  PXY d   1       0.365  -1.992   2.109  0.00  0.00    -0.082 A 
ATOM      4  C2  PXY d   1       1.187  -2.382   3.070  0.00  0.00     0.003 A 
ATOM      5  C3  PXY d   1       2.509  -2.621   2.796  0.00  0.00     0.003 A 
ATOM      6  C4  PXY d   1       2.982  -2.512   1.516  0.00  0.00    -0.082 A 
ATOM      7  C5  PXY d   1       2.147  -2.125   0.529  0.00  0.00     0.003 A 
ATOM      8  C6  PXY d   1       0.818  -1.847   0.835  0.00  0.00     0.003 A 
ENDROOT
TORSDOF 0
ENDMDL
