MODEL 1
REMARK minimizedAffinity 5.23878098
REMARK minimizedRMSD -1
REMARK  0 active torsions:
REMARK  status: ('A' for Active; 'I' for Inactive)
ROOT
ATOM      1  C4' PXY d   1       0.786   0.659   4.136  0.00  0.00     0.077 C 
ATOM      2  C1' PXY d   1       2.634   6.000   5.352  0.00  0.00     0.077 C 
ATOM      3  C1  PXY d   1       2.144   4.603   5.022  0.00  0.00    -0.082 A 
ATOM      4  C2  PXY d   1       1.911   3.743   6.000  0.00  0.00     0.003 A 
ATOM      5  C3  PXY d   1       1.499   2.466   5.717  0.00  0.00     0.003 A 
ATOM      6  C4  PXY d   1       1.272   2.082   4.423  0.00  0.00    -0.082 A 
ATOM      7  C5  PXY d   1       1.497   2.957   3.420  0.00  0.00     0.003 A 
ATOM      8  C6  PXY d   1       1.955   4.236   3.726  0.00  0.00     0.003 A 
ENDROOT
TORSDOF 0
ENDMDL
