MODEL 1
REMARK minimizedAffinity 4.42776489
REMARK minimizedRMSD -1
REMARK  0 active torsions:
REMARK  status: ('A' for Active; 'I' for Inactive)
ROOT
ATOM      1  C4' PXY d   1       5.968   3.112   2.063  0.00  0.00     0.077 C 
ATOM      2  C1' PXY d   1       6.000  -1.276  -1.700  0.00  0.00     0.077 C 
ATOM      3  C1  PXY d   1       5.986  -0.133  -0.704  0.00  0.00    -0.082 A 
ATOM      4  C2  PXY d   1       5.976   1.115  -1.141  0.00  0.00     0.003 A 
ATOM      5  C3  PXY d   1       5.996   2.161  -0.255  0.00  0.00     0.003 A 
ATOM      6  C4  PXY d   1       5.972   1.926   1.094  0.00  0.00    -0.082 A 
ATOM      7  C5  PXY d   1       5.972   0.655   1.548  0.00  0.00     0.003 A 
ATOM      8  C6  PXY d   1       5.994  -0.392   0.632  0.00  0.00     0.003 A 
ENDROOT
TORSDOF 0
ENDMDL
