MODEL 1
REMARK minimizedAffinity 1.65633714
REMARK minimizedRMSD -1
REMARK  0 active torsions:
REMARK  status: ('A' for Active; 'I' for Inactive)
ROOT
ATOM      1  C4' PXY d   1       0.757  -2.353   1.642  0.00  0.00     0.077 C 
ATOM      2  C1' PXY d   1      -3.701   0.883   3.394  0.00  0.00     0.077 C 
ATOM      3  C1  PXY d   1      -2.525   0.039   2.944  0.00  0.00    -0.082 A 
ATOM      4  C2  PXY d   1      -2.438  -0.342   1.680  0.00  0.00     0.003 A 
ATOM      5  C3  PXY d   1      -1.398  -1.132   1.263  0.00  0.00     0.003 A 
ATOM      6  C4  PXY d   1      -0.408  -1.492   2.138  0.00  0.00    -0.082 A 
ATOM      7  C5  PXY d   1      -0.484  -1.099   3.427  0.00  0.00     0.003 A 
ATOM      8  C6  PXY d   1      -1.570  -0.331   3.839  0.00  0.00     0.003 A 
ENDROOT
TORSDOF 0
ENDMDL
