MODEL 1
REMARK minimizedAffinity 7.32905436
REMARK minimizedRMSD -1
REMARK  0 active torsions:
REMARK  status: ('A' for Active; 'I' for Inactive)
ROOT
ATOM      1  C4' PXY d   1      -3.261   1.432  -0.970  0.00  0.00     0.077 C 
ATOM      2  C1' PXY d   1       0.811   3.565  -4.474  0.00  0.00     0.077 C 
ATOM      3  C1  PXY d   1      -0.264   3.017  -3.557  0.00  0.00    -0.082 A 
ATOM      4  C2  PXY d   1       0.056   2.123  -2.635  0.00  0.00     0.003 A 
ATOM      5  C3  PXY d   1      -0.909   1.593  -1.819  0.00  0.00     0.003 A 
ATOM      6  C4  PXY d   1      -2.206   2.021  -1.911  0.00  0.00    -0.082 A 
ATOM      7  C5  PXY d   1      -2.539   2.939  -2.842  0.00  0.00     0.003 A 
ATOM      8  C6  PXY d   1      -1.552   3.435  -3.689  0.00  0.00     0.003 A 
ENDROOT
TORSDOF 0
ENDMDL
