MODEL 1
REMARK minimizedAffinity 5.7606163
REMARK minimizedRMSD -1
REMARK  0 active torsions:
REMARK  status: ('A' for Active; 'I' for Inactive)
ROOT
ATOM      1  C4' PXY d   1       0.073  -1.400  -0.976  0.00  0.00     0.077 C 
ATOM      2  C1' PXY d   1       3.126  -3.437   3.490  0.00  0.00     0.077 C 
ATOM      3  C1  PXY d   1       2.314  -2.903   2.326  0.00  0.00    -0.082 A 
ATOM      4  C2  PXY d   1       2.725  -3.122   1.088  0.00  0.00     0.003 A 
ATOM      5  C3  PXY d   1       2.021  -2.618   0.024  0.00  0.00     0.003 A 
ATOM      6  C4  PXY d   1       0.855  -1.929   0.229  0.00  0.00    -0.082 A 
ATOM      7  C5  PXY d   1       0.424  -1.710   1.490  0.00  0.00     0.003 A 
ATOM      8  C6  PXY d   1       1.176  -2.194   2.557  0.00  0.00     0.003 A 
ENDROOT
TORSDOF 0
ENDMDL
