MODEL 1
REMARK minimizedAffinity 9.63387394
REMARK minimizedRMSD -1
REMARK  0 active torsions:
REMARK  status: ('A' for Active; 'I' for Inactive)
ROOT
ATOM      1  C4' PXY d   1      -2.394   0.329   3.967  0.00  0.00     0.077 C 
ATOM      2  C1' PXY d   1       1.721  -3.087   1.773  0.00  0.00     0.077 C 
ATOM      3  C1  PXY d   1       0.650  -2.188   2.358  0.00  0.00    -0.082 A 
ATOM      4  C2  PXY d   1      -0.617  -2.382   2.030  0.00  0.00     0.003 A 
ATOM      5  C3  PXY d   1      -1.595  -1.558   2.526  0.00  0.00     0.003 A 
ATOM      6  C4  PXY d   1      -1.279  -0.559   3.407  0.00  0.00    -0.082 A 
ATOM      7  C5  PXY d   1       0.010  -0.362   3.755  0.00  0.00     0.003 A 
ATOM      8  C6  PXY d   1       0.993  -1.183   3.209  0.00  0.00     0.003 A 
ENDROOT
TORSDOF 0
ENDMDL
