MODEL 1
REMARK minimizedAffinity 2.85575294
REMARK minimizedRMSD -1
REMARK  2 active torsions:
REMARK  status: ('A' for Active; 'I' for Inactive)
REMARK    1  A    between atoms: C2'_3  and  C1'_4 
REMARK    2  A    between atoms: C1'_4  and  C1_5 
ROOT
ATOM      1  C1  I4B d   1       3.980   0.712  -1.549  0.00  0.00    -0.075 A 
ATOM      2  C2  I4B d   1       5.066   1.551  -1.582  0.00  0.00     0.003 A 
ATOM      3  C3  I4B d   1       5.847   1.660  -2.758  0.00  0.00     0.002 A 
ATOM      4  C4  I4B d   1       5.538   0.880  -3.854  0.00  0.00    -0.004 A 
ATOM      5  C5  I4B d   1       4.423   0.047  -3.826  0.00  0.00     0.002 A 
ATOM      6  C6  I4B d   1       3.631  -0.029  -2.671  0.00  0.00     0.003 A 
ENDROOT
BRANCH   1   7
ATOM      7  C1' I4B d   1       3.197   0.597  -0.280  0.00  0.00     0.060 C 
BRANCH   7   8
ATOM      8  C2' I4B d   1       4.110   0.977   0.868  0.00  0.00    -0.013 C 
ATOM      9  C4' I4B d   1       3.660   2.256   1.523  0.00  0.00     0.013 C 
ATOM     10  C3' I4B d   1       4.119  -0.159   1.848  0.00  0.00     0.013 C 
ENDBRANCH   7   8
ENDBRANCH   1   7
TORSDOF 2
ENDMDL
