MODEL 1
REMARK minimizedAffinity -0.509182394
REMARK minimizedRMSD -1
REMARK  2 active torsions:
REMARK  status: ('A' for Active; 'I' for Inactive)
REMARK    1  A    between atoms: C2'_3  and  C1'_4 
REMARK    2  A    between atoms: C1'_4  and  C1_5 
ROOT
ATOM      1  C1  I4B d   1      -3.267   0.481  -4.232  0.00  0.00    -0.075 A 
ATOM      2  C2  I4B d   1      -3.292   1.516  -5.133  0.00  0.00     0.003 A 
ATOM      3  C3  I4B d   1      -4.525   1.983  -5.649  0.00  0.00     0.002 A 
ATOM      4  C4  I4B d   1      -5.697   1.358  -5.278  0.00  0.00    -0.004 A 
ATOM      5  C5  I4B d   1      -5.673   0.323  -4.347  0.00  0.00     0.002 A 
ATOM      6  C6  I4B d   1      -4.452  -0.111  -3.811  0.00  0.00     0.003 A 
ENDROOT
BRANCH   1   7
ATOM      7  C1' I4B d   1      -1.945  -0.010  -3.733  0.00  0.00     0.060 C 
BRANCH   7   8
ATOM      8  C2' I4B d   1      -2.140  -0.520  -2.319  0.00  0.00    -0.013 C 
ATOM      9  C4' I4B d   1      -2.099  -2.024  -2.272  0.00  0.00     0.013 C 
ATOM     10  C3' I4B d   1      -1.067   0.078  -1.459  0.00  0.00     0.013 C 
ENDBRANCH   7   8
ENDBRANCH   1   7
TORSDOF 2
ENDMDL
