MODEL 1
REMARK minimizedAffinity 19.5405903
REMARK minimizedRMSD -1
REMARK  2 active torsions:
REMARK  status: ('A' for Active; 'I' for Inactive)
REMARK    1  A    between atoms: C2'_3  and  C1'_4 
REMARK    2  A    between atoms: C1'_4  and  C1_5 
ROOT
ATOM      1  C1  I4B d   1      -5.206   1.988  -5.731  0.00  0.00    -0.075 A 
ATOM      2  C2  I4B d   1      -3.838   2.095  -5.706  0.00  0.00     0.003 A 
ATOM      3  C3  I4B d   1      -3.224   3.367  -5.619  0.00  0.00     0.002 A 
ATOM      4  C4  I4B d   1      -4.009   4.502  -5.612  0.00  0.00    -0.004 A 
ATOM      5  C5  I4B d   1      -5.397   4.391  -5.615  0.00  0.00     0.002 A 
ATOM      6  C6  I4B d   1      -6.000   3.126  -5.663  0.00  0.00     0.003 A 
ENDROOT
BRANCH   1   7
ATOM      7  C1' I4B d   1      -5.822   0.630  -5.856  0.00  0.00     0.060 C 
BRANCH   7   8
ATOM      8  C2' I4B d   1      -4.948  -0.349  -5.100  0.00  0.00    -0.013 C 
ATOM      9  C4' I4B d   1      -5.606  -0.791  -3.819  0.00  0.00     0.013 C 
ATOM     10  C3' I4B d   1      -4.675  -1.517  -6.000  0.00  0.00     0.013 C 
ENDBRANCH   7   8
ENDBRANCH   1   7
TORSDOF 2
ENDMDL
