MODEL 1
REMARK minimizedAffinity 1.87628996
REMARK minimizedRMSD -1
REMARK  0 active torsions:
REMARK  status: ('A' for Active; 'I' for Inactive)
ROOT
ATOM      1  C   UNL d   1       3.707   1.795  -0.277  0.00  0.00     0.020 A 
ATOM      2  C1  UNL d   1       2.585   2.288   0.387  0.00  0.00     0.020 A 
ATOM      3  C2  UNL d   1       1.452   1.485   0.535  0.00  0.00     0.034 A 
ATOM      4  C3  UNL d   1       1.440   0.184   0.018  0.00  0.00     0.017 A 
ATOM      5  C4  UNL d   1       2.567  -0.310  -0.648  0.00  0.00     0.017 A 
ATOM      6  C5  UNL d   1       3.698   0.499  -0.793  0.00  0.00     0.034 A 
ATOM      7 Cl   UNL d   1       2.627  -1.904  -1.313  0.00  0.00    -0.070 Cl
ATOM      8 Cl1  UNL d   1       0.005  -0.754   0.237  0.00  0.00    -0.070 Cl
ENDROOT
TORSDOF 0
ENDMDL
