MODEL 1
REMARK minimizedAffinity 5.23210192
REMARK minimizedRMSD -1
REMARK  0 active torsions:
REMARK  status: ('A' for Active; 'I' for Inactive)
ROOT
ATOM      1  C   UNL d   1       3.686   1.083   0.083  0.00  0.00     0.020 A 
ATOM      2  C1  UNL d   1       2.866  -0.043   0.018  0.00  0.00     0.020 A 
ATOM      3  C2  UNL d   1       1.485   0.089   0.177  0.00  0.00     0.034 A 
ATOM      4  C3  UNL d   1       0.920   1.350   0.402  0.00  0.00     0.017 A 
ATOM      5  C4  UNL d   1       1.744   2.479   0.467  0.00  0.00     0.017 A 
ATOM      6  C5  UNL d   1       3.126   2.341   0.307  0.00  0.00     0.034 A 
ATOM      7 Cl   UNL d   1       1.120   4.068   0.742  0.00  0.00    -0.070 Cl
ATOM      8 Cl1  UNL d   1      -0.796   1.440   0.590  0.00  0.00    -0.070 Cl
ENDROOT
TORSDOF 0
ENDMDL
