MODEL 1
REMARK minimizedAffinity -0.518200159
REMARK minimizedRMSD -1
REMARK  0 active torsions:
REMARK  status: ('A' for Active; 'I' for Inactive)
ROOT
ATOM      1  C   UNL d   1       2.701  -1.173   0.998  0.00  0.00     0.020 A 
ATOM      2  C1  UNL d   1       3.097   0.156   1.140  0.00  0.00     0.020 A 
ATOM      3  C2  UNL d   1       3.753   0.805   0.091  0.00  0.00     0.034 A 
ATOM      4  C3  UNL d   1       4.016   0.124  -1.103  0.00  0.00     0.017 A 
ATOM      5  C4  UNL d   1       3.618  -1.211  -1.244  0.00  0.00     0.017 A 
ATOM      6  C5  UNL d   1       2.961  -1.855  -0.191  0.00  0.00     0.034 A 
ATOM      7 Cl   UNL d   1       3.907  -2.116  -2.687  0.00  0.00    -0.070 Cl
ATOM      8 Cl1  UNL d   1       4.831   0.988  -2.358  0.00  0.00    -0.070 Cl
ENDROOT
TORSDOF 0
ENDMDL
