MODEL 1
REMARK minimizedAffinity 1.69894743
REMARK minimizedRMSD -1
REMARK  0 active torsions:
REMARK  status: ('A' for Active; 'I' for Inactive)
ROOT
ATOM      1  C   UNL d   1       3.515   2.692   0.186  0.00  0.00     0.020 A 
ATOM      2  C1  UNL d   1       4.332   1.563   0.135  0.00  0.00     0.020 A 
ATOM      3  C2  UNL d   1       3.765   0.298  -0.037  0.00  0.00     0.034 A 
ATOM      4  C3  UNL d   1       2.378   0.159  -0.159  0.00  0.00     0.017 A 
ATOM      5  C4  UNL d   1       1.559   1.293  -0.108  0.00  0.00     0.017 A 
ATOM      6  C5  UNL d   1       2.131   2.557   0.065  0.00  0.00     0.034 A 
ATOM      7 Cl   UNL d   1      -0.161   1.201  -0.251  0.00  0.00    -0.070 Cl
ATOM      8 Cl1  UNL d   1       1.746  -1.435  -0.370  0.00  0.00    -0.070 Cl
ENDROOT
TORSDOF 0
ENDMDL
