MODEL 1
REMARK minimizedAffinity 2.62797189
REMARK minimizedRMSD -1
REMARK  0 active torsions:
REMARK  status: ('A' for Active; 'I' for Inactive)
ROOT
ATOM      1  C   UNL d   1       4.240  -0.608   0.737  0.00  0.00     0.020 A 
ATOM      2  C1  UNL d   1       2.937  -1.104   0.719  0.00  0.00     0.020 A 
ATOM      3  C2  UNL d   1       1.859  -0.229   0.571  0.00  0.00     0.034 A 
ATOM      4  C3  UNL d   1       2.082   1.147   0.439  0.00  0.00     0.017 A 
ATOM      5  C4  UNL d   1       3.390   1.644   0.456  0.00  0.00     0.017 A 
ATOM      6  C5  UNL d   1       4.466   0.763   0.605  0.00  0.00     0.034 A 
ATOM      7 Cl   UNL d   1       3.744   3.328   0.299  0.00  0.00    -0.070 Cl
ATOM      8 Cl1  UNL d   1       0.702   2.170   0.258  0.00  0.00    -0.070 Cl
ENDROOT
TORSDOF 0
ENDMDL
