MODEL 1
REMARK minimizedAffinity 8.38023758
REMARK minimizedRMSD -1
REMARK  0 active torsions:
REMARK  status: ('A' for Active; 'I' for Inactive)
ROOT
ATOM      1  C   UNL d   1       2.837   2.397   1.009  0.00  0.00     0.020 A 
ATOM      2  C1  UNL d   1       1.853   1.895   0.158  0.00  0.00     0.020 A 
ATOM      3  C2  UNL d   1       1.828   0.535  -0.155  0.00  0.00     0.034 A 
ATOM      4  C3  UNL d   1       2.789  -0.329   0.382  0.00  0.00     0.017 A 
ATOM      5  C4  UNL d   1       3.777   0.175   1.236  0.00  0.00     0.017 A 
ATOM      6  C5  UNL d   1       3.797   1.539   1.547  0.00  0.00     0.034 A 
ATOM      7 Cl   UNL d   1       4.996  -0.828   1.938  0.00  0.00    -0.070 Cl
ATOM      8 Cl1  UNL d   1       2.698  -2.000  -0.048  0.00  0.00    -0.070 Cl
ENDROOT
TORSDOF 0
ENDMDL
