MODEL 1
REMARK minimizedAffinity 0.493180722
REMARK minimizedRMSD -1
REMARK  0 active torsions:
REMARK  status: ('A' for Active; 'I' for Inactive)
ROOT
ATOM      1  C   UNL d   1       3.389  -0.069   0.365  0.00  0.00     0.020 A 
ATOM      2  C1  UNL d   1       3.835   1.050  -0.336  0.00  0.00     0.020 A 
ATOM      3  C2  UNL d   1       3.042   2.198  -0.396  0.00  0.00     0.034 A 
ATOM      4  C3  UNL d   1       1.799   2.229   0.247  0.00  0.00     0.017 A 
ATOM      5  C4  UNL d   1       1.352   1.105   0.951  0.00  0.00     0.017 A 
ATOM      6  C5  UNL d   1       2.151  -0.042   1.007  0.00  0.00     0.034 A 
ATOM      7 Cl   UNL d   1      -0.169   1.068   1.769  0.00  0.00    -0.070 Cl
ATOM      8 Cl1  UNL d   1       0.871   3.682   0.133  0.00  0.00    -0.070 Cl
ENDROOT
TORSDOF 0
ENDMDL
