MODEL 1
REMARK minimizedAffinity 0.720849395
REMARK minimizedRMSD -1
REMARK  0 active torsions:
REMARK  status: ('A' for Active; 'I' for Inactive)
ROOT
ATOM      1  C   UNL d   1       2.954   1.492   0.545  0.00  0.00     0.020 A 
ATOM      2  C1  UNL d   1       3.759   1.854  -0.535  0.00  0.00     0.020 A 
ATOM      3  C2  UNL d   1       4.024   0.932  -1.549  0.00  0.00     0.034 A 
ATOM      4  C3  UNL d   1       3.484  -0.358  -1.486  0.00  0.00     0.017 A 
ATOM      5  C4  UNL d   1       2.676  -0.721  -0.402  0.00  0.00     0.017 A 
ATOM      6  C5  UNL d   1       2.414   0.207   0.611  0.00  0.00     0.034 A 
ATOM      7 Cl   UNL d   1       1.974  -2.294  -0.255  0.00  0.00    -0.070 Cl
ATOM      8 Cl1  UNL d   1       3.852  -1.447  -2.776  0.00  0.00    -0.070 Cl
ENDROOT
TORSDOF 0
ENDMDL
