MODEL 1
REMARK minimizedAffinity -0.118306793
REMARK minimizedRMSD -1
REMARK  0 active torsions:
REMARK  status: ('A' for Active; 'I' for Inactive)
ROOT
ATOM      1  C   UNL d   1       2.568  -1.495  -0.569  0.00  0.00     0.020 A 
ATOM      2  C1  UNL d   1       3.328  -0.725   0.310  0.00  0.00     0.020 A 
ATOM      3  C2  UNL d   1       2.940   0.583   0.607  0.00  0.00     0.034 A 
ATOM      4  C3  UNL d   1       1.788   1.125   0.025  0.00  0.00     0.017 A 
ATOM      5  C4  UNL d   1       1.025   0.350  -0.857  0.00  0.00     0.017 A 
ATOM      6  C5  UNL d   1       1.419  -0.959  -1.151  0.00  0.00     0.034 A 
ATOM      7 Cl   UNL d   1      -0.409   0.949  -1.614  0.00  0.00    -0.070 Cl
ATOM      8 Cl1  UNL d   1       1.366   2.749   0.438  0.00  0.00    -0.070 Cl
ENDROOT
TORSDOF 0
ENDMDL
