MODEL 1
REMARK minimizedAffinity 16.082571
REMARK minimizedRMSD -1
REMARK  2 active torsions:
REMARK  status: ('A' for Active; 'I' for Inactive)
REMARK    1  A    between atoms: C2'_3  and  C1'_4 
REMARK    2  A    between atoms: C1'_4  and  C1_5 
ROOT
ATOM      1  C1  I4B d   1       0.682   3.226  -5.076  0.00  0.00    -0.075 A 
ATOM      2  C2  I4B d   1       0.635   4.490  -5.610  0.00  0.00     0.003 A 
ATOM      3  C3  I4B d   1      -0.605   5.054  -5.998  0.00  0.00     0.002 A 
ATOM      4  C4  I4B d   1      -1.758   4.305  -5.881  0.00  0.00    -0.004 A 
ATOM      5  C5  I4B d   1      -1.711   3.033  -5.318  0.00  0.00     0.002 A 
ATOM      6  C6  I4B d   1      -0.485   2.494  -4.901  0.00  0.00     0.003 A 
ENDROOT
BRANCH   1   7
ATOM      7  C1' I4B d   1       2.012   2.649  -4.708  0.00  0.00     0.060 C 
BRANCH   7   8
ATOM      8  C2' I4B d   1       1.816   1.762  -3.495  0.00  0.00    -0.013 C 
ATOM      9  C4' I4B d   1       2.196   0.336  -3.795  0.00  0.00     0.013 C 
ATOM     10  C3' I4B d   1       2.644   2.318  -2.376  0.00  0.00     0.013 C 
ENDBRANCH   7   8
ENDBRANCH   1   7
TORSDOF 2
ENDMDL
