MODEL 1
REMARK minimizedAffinity 14.5384274
REMARK minimizedRMSD -1
REMARK  2 active torsions:
REMARK  status: ('A' for Active; 'I' for Inactive)
REMARK    1  A    between atoms: C2'_3  and  C1'_4 
REMARK    2  A    between atoms: C1'_4  and  C1_5 
ROOT
ATOM      1  C1  I4B d   1      -3.975  -4.603  -1.440  0.00  0.00    -0.075 A 
ATOM      2  C2  I4B d   1      -3.297  -5.307  -0.477  0.00  0.00     0.003 A 
ATOM      3  C3  I4B d   1      -2.085  -5.966  -0.796  0.00  0.00     0.002 A 
ATOM      4  C4  I4B d   1      -1.617  -5.938  -2.094  0.00  0.00    -0.004 A 
ATOM      5  C5  I4B d   1      -2.294  -5.204  -3.064  0.00  0.00     0.002 A 
ATOM      6  C6  I4B d   1      -3.473  -4.522  -2.733  0.00  0.00     0.003 A 
ENDROOT
BRANCH   1   7
ATOM      7  C1' I4B d   1      -5.269  -3.946  -1.077  0.00  0.00     0.060 C 
BRANCH   7   8
ATOM      8  C2' I4B d   1      -5.663  -3.028  -2.216  0.00  0.00    -0.013 C 
ATOM      9  C4' I4B d   1      -4.561  -2.053  -2.537  0.00  0.00     0.013 C 
ATOM     10  C3' I4B d   1      -5.993  -3.882  -3.404  0.00  0.00     0.013 C 
ENDBRANCH   7   8
ENDBRANCH   1   7
TORSDOF 2
ENDMDL
