MODEL 1
REMARK minimizedAffinity 8.11232758
REMARK minimizedRMSD -1
REMARK  2 active torsions:
REMARK  status: ('A' for Active; 'I' for Inactive)
REMARK    1  A    between atoms: C2'_3  and  C1'_4 
REMARK    2  A    between atoms: C1'_4  and  C1_5 
ROOT
ATOM      1  C1  I4B d   1       5.412   5.268   2.368  0.00  0.00    -0.075 A 
ATOM      2  C2  I4B d   1       4.920   3.986   2.339  0.00  0.00     0.003 A 
ATOM      3  C3  I4B d   1       4.818   3.289   1.111  0.00  0.00     0.002 A 
ATOM      4  C4  I4B d   1       5.168   3.925  -0.062  0.00  0.00    -0.004 A 
ATOM      5  C5  I4B d   1       5.687   5.215  -0.029  0.00  0.00     0.002 A 
ATOM      6  C6  I4B d   1       5.822   5.887   1.194  0.00  0.00     0.003 A 
ENDROOT
BRANCH   1   7
ATOM      7  C1' I4B d   1       5.476   5.986   3.678  0.00  0.00     0.060 C 
BRANCH   7   8
ATOM      8  C2' I4B d   1       4.684   5.184   4.690  0.00  0.00    -0.013 C 
ATOM      9  C4' I4B d   1       5.524   4.841   5.892  0.00  0.00     0.013 C 
ATOM     10  C3' I4B d   1       3.482   5.990   5.082  0.00  0.00     0.013 C 
ENDBRANCH   7   8
ENDBRANCH   1   7
TORSDOF 2
ENDMDL
