MODEL 1
REMARK minimizedAffinity 0.081047371
REMARK minimizedRMSD -1
REMARK  2 active torsions:
REMARK  status: ('A' for Active; 'I' for Inactive)
REMARK    1  A    between atoms: C2'_3  and  C1'_4 
REMARK    2  A    between atoms: C1'_4  and  C1_5 
ROOT
ATOM      1  C1  I4B d   1      -5.248   5.572  -3.485  0.00  0.00    -0.075 A 
ATOM      2  C2  I4B d   1      -3.977   5.994  -3.782  0.00  0.00     0.003 A 
ATOM      3  C3  I4B d   1      -3.414   5.723  -5.053  0.00  0.00     0.002 A 
ATOM      4  C4  I4B d   1      -4.134   4.987  -5.972  0.00  0.00    -0.004 A 
ATOM      5  C5  I4B d   1      -5.432   4.580  -5.677  0.00  0.00     0.002 A 
ATOM      6  C6  I4B d   1      -5.998   4.884  -4.431  0.00  0.00     0.003 A 
ENDROOT
BRANCH   1   7
ATOM      7  C1' I4B d   1      -5.799   5.847  -2.122  0.00  0.00     0.060 C 
BRANCH   7   8
ATOM      8  C2' I4B d   1      -5.766   4.552  -1.335  0.00  0.00    -0.013 C 
ATOM      9  C4' I4B d   1      -4.459   3.830  -1.529  0.00  0.00     0.013 C 
ATOM     10  C3' I4B d   1      -5.992   4.883   0.110  0.00  0.00     0.013 C 
ENDBRANCH   7   8
ENDBRANCH   1   7
TORSDOF 2
ENDMDL
