MODEL 1
REMARK minimizedAffinity 2.69136477
REMARK minimizedRMSD -1
REMARK  2 active torsions:
REMARK  status: ('A' for Active; 'I' for Inactive)
REMARK    1  A    between atoms: C2'_3  and  C1'_4 
REMARK    2  A    between atoms: C1'_4  and  C1_5 
ROOT
ATOM      1  C1  I4B d   1      -1.991  -1.438   0.719  0.00  0.00    -0.075 A 
ATOM      2  C2  I4B d   1      -0.806  -1.602   0.047  0.00  0.00     0.003 A 
ATOM      3  C3  I4B d   1       0.363  -0.937   0.492  0.00  0.00     0.002 A 
ATOM      4  C4  I4B d   1       0.290  -0.084   1.574  0.00  0.00    -0.004 A 
ATOM      5  C5  I4B d   1      -0.908   0.062   2.268  0.00  0.00     0.002 A 
ATOM      6  C6  I4B d   1      -2.053  -0.629   1.846  0.00  0.00     0.003 A 
ENDROOT
BRANCH   1   7
ATOM      7  C1' I4B d   1      -3.213  -2.130   0.203  0.00  0.00     0.060 C 
BRANCH   7   8
ATOM      8  C2' I4B d   1      -2.765  -3.229  -0.738  0.00  0.00    -0.013 C 
ATOM      9  C4' I4B d   1      -3.881  -4.204  -1.009  0.00  0.00     0.013 C 
ATOM     10  C3' I4B d   1      -2.288  -2.587  -2.007  0.00  0.00     0.013 C 
ENDBRANCH   7   8
ENDBRANCH   1   7
TORSDOF 2
ENDMDL
