MODEL 1
REMARK minimizedAffinity 16.6712475
REMARK minimizedRMSD -1
REMARK  2 active torsions:
REMARK  status: ('A' for Active; 'I' for Inactive)
REMARK    1  A    between atoms: C2'_3  and  C1'_4 
REMARK    2  A    between atoms: C1'_4  and  C1_5 
ROOT
ATOM      1  C1  I4B d   1      -2.593   5.224  -4.840  0.00  0.00    -0.075 A 
ATOM      2  C2  I4B d   1      -1.624   5.870  -5.567  0.00  0.00     0.003 A 
ATOM      3  C3  I4B d   1      -0.453   5.181  -5.965  0.00  0.00     0.002 A 
ATOM      4  C4  I4B d   1      -0.269   3.871  -5.572  0.00  0.00    -0.004 A 
ATOM      5  C5  I4B d   1      -1.262   3.211  -4.855  0.00  0.00     0.002 A 
ATOM      6  C6  I4B d   1      -2.437   3.888  -4.497  0.00  0.00     0.003 A 
ENDROOT
BRANCH   1   7
ATOM      7  C1' I4B d   1      -3.802   5.992  -4.409  0.00  0.00     0.060 C 
BRANCH   7   8
ATOM      8  C2' I4B d   1      -5.027   5.186  -4.792  0.00  0.00    -0.013 C 
ATOM      9  C4' I4B d   1      -5.953   5.011  -3.617  0.00  0.00     0.013 C 
ATOM     10  C3' I4B d   1      -5.713   5.894  -5.921  0.00  0.00     0.013 C 
ENDBRANCH   7   8
ENDBRANCH   1   7
TORSDOF 2
ENDMDL
