MODEL 1
REMARK minimizedAffinity 12.0960236
REMARK minimizedRMSD -1
REMARK  2 active torsions:
REMARK  status: ('A' for Active; 'I' for Inactive)
REMARK    1  A    between atoms: C2'_3  and  C1'_4 
REMARK    2  A    between atoms: C1'_4  and  C1_5 
ROOT
ATOM      1  C1  I4B d   1       3.270   4.750  -5.875  0.00  0.00    -0.075 A 
ATOM      2  C2  I4B d   1       4.398   5.505  -5.672  0.00  0.00     0.003 A 
ATOM      3  C3  I4B d   1       5.664   4.881  -5.568  0.00  0.00     0.002 A 
ATOM      4  C4  I4B d   1       5.750   3.505  -5.623  0.00  0.00    -0.004 A 
ATOM      5  C5  I4B d   1       4.609   2.742  -5.852  0.00  0.00     0.002 A 
ATOM      6  C6  I4B d   1       3.362   3.369  -5.991  0.00  0.00     0.003 A 
ENDROOT
BRANCH   1   7
ATOM      7  C1' I4B d   1       1.944   5.439  -5.947  0.00  0.00     0.060 C 
BRANCH   7   8
ATOM      8  C2' I4B d   1       0.945   4.612  -5.165  0.00  0.00    -0.013 C 
ATOM      9  C4' I4B d   1      -0.406   5.277  -5.131  0.00  0.00     0.013 C 
ATOM     10  C3' I4B d   1       0.865   3.257  -5.804  0.00  0.00     0.013 C 
ENDBRANCH   7   8
ENDBRANCH   1   7
TORSDOF 2
ENDMDL
