MODEL 1
REMARK minimizedAffinity 16.76544
REMARK minimizedRMSD -1
REMARK  2 active torsions:
REMARK  status: ('A' for Active; 'I' for Inactive)
REMARK    1  A    between atoms: C2'_3  and  C1'_4 
REMARK    2  A    between atoms: C1'_4  and  C1_5 
ROOT
ATOM      1  C1  I4B d   1      -2.477  -2.069   1.552  0.00  0.00    -0.075 A 
ATOM      2  C2  I4B d   1      -2.562  -1.063   0.623  0.00  0.00     0.003 A 
ATOM      3  C3  I4B d   1      -2.698   0.283   1.040  0.00  0.00     0.002 A 
ATOM      4  C4  I4B d   1      -2.795   0.572   2.386  0.00  0.00    -0.004 A 
ATOM      5  C5  I4B d   1      -2.685  -0.447   3.328  0.00  0.00     0.002 A 
ATOM      6  C6  I4B d   1      -2.513  -1.775   2.909  0.00  0.00     0.003 A 
ENDROOT
BRANCH   1   7
ATOM      7  C1' I4B d   1      -2.367  -3.483   1.076  0.00  0.00     0.060 C 
BRANCH   7   8
ATOM      8  C2' I4B d   1      -2.913  -3.544  -0.336  0.00  0.00    -0.013 C 
ATOM      9  C4' I4B d   1      -1.813  -3.790  -1.335  0.00  0.00     0.013 C 
ATOM     10  C3' I4B d   1      -3.945  -4.631  -0.387  0.00  0.00     0.013 C 
ENDBRANCH   7   8
ENDBRANCH   1   7
TORSDOF 2
ENDMDL
