MODEL 1
REMARK minimizedAffinity 2.73511147
REMARK minimizedRMSD -1
REMARK  2 active torsions:
REMARK  status: ('A' for Active; 'I' for Inactive)
REMARK    1  A    between atoms: C2'_3  and  C1'_4 
REMARK    2  A    between atoms: C1'_4  and  C1_5 
ROOT
ATOM      1  C1  I4B d   1      -5.138   5.400  -3.606  0.00  0.00    -0.075 A 
ATOM      2  C2  I4B d   1      -3.775   5.413  -3.449  0.00  0.00     0.003 A 
ATOM      3  C3  I4B d   1      -2.934   5.728  -4.545  0.00  0.00     0.002 A 
ATOM      4  C4  I4B d   1      -3.494   5.973  -5.782  0.00  0.00    -0.004 A 
ATOM      5  C5  I4B d   1      -4.877   5.981  -5.934  0.00  0.00     0.002 A 
ATOM      6  C6  I4B d   1      -5.706   5.705  -4.836  0.00  0.00     0.003 A 
ENDROOT
BRANCH   1   7
ATOM      7  C1' I4B d   1      -5.995   5.030  -2.437  0.00  0.00     0.060 C 
BRANCH   7   8
ATOM      8  C2' I4B d   1      -5.913   3.528  -2.254  0.00  0.00    -0.013 C 
ATOM      9  C4' I4B d   1      -4.687   2.964  -2.923  0.00  0.00     0.013 C 
ATOM     10  C3' I4B d   1      -5.909   3.240  -0.783  0.00  0.00     0.013 C 
ENDBRANCH   7   8
ENDBRANCH   1   7
TORSDOF 2
ENDMDL
