MODEL 1
REMARK minimizedAffinity 10.8712978
REMARK minimizedRMSD -1
REMARK  2 active torsions:
REMARK  status: ('A' for Active; 'I' for Inactive)
REMARK    1  A    between atoms: C2'_3  and  C1'_4 
REMARK    2  A    between atoms: C1'_4  and  C1_5 
ROOT
ATOM      1  C1  I4B d   1      -0.769   0.306   1.069  0.00  0.00    -0.075 A 
ATOM      2  C2  I4B d   1      -0.206   1.412   1.655  0.00  0.00     0.003 A 
ATOM      3  C3  I4B d   1       0.397   2.413   0.856  0.00  0.00     0.002 A 
ATOM      4  C4  I4B d   1       0.459   2.244  -0.512  0.00  0.00    -0.004 A 
ATOM      5  C5  I4B d   1      -0.132   1.133  -1.106  0.00  0.00     0.002 A 
ATOM      6  C6  I4B d   1      -0.761   0.164  -0.312  0.00  0.00     0.003 A 
ENDROOT
BRANCH   1   7
ATOM      7  C1' I4B d   1      -1.368  -0.748   1.946  0.00  0.00     0.060 C 
BRANCH   7   8
ATOM      8  C2' I4B d   1      -0.621  -2.042   1.697  0.00  0.00    -0.013 C 
ATOM      9  C4' I4B d   1      -1.387  -2.944   0.765  0.00  0.00     0.013 C 
ATOM     10  C3' I4B d   1       0.725  -1.699   1.133  0.00  0.00     0.013 C 
ENDBRANCH   7   8
ENDBRANCH   1   7
TORSDOF 2
ENDMDL
