MODEL 1
REMARK minimizedAffinity -3.42112422
REMARK minimizedRMSD -1
REMARK  1 active torsions:
REMARK  status: ('A' for Active; 'I' for Inactive)
REMARK    1  A    between atoms: N_2  and  C1_3 
ROOT
ATOM      1  C1  UNL d   1       0.088  -0.166   0.343  0.00  0.00     0.143 A 
ATOM      2  C2  UNL d   1      -1.119   0.433   0.718  0.00  0.00    -0.057 A 
ATOM      3  C3  UNL d   1      -1.182   1.790   1.056  0.00  0.00     0.033 A 
ATOM      4  C4  UNL d   1      -0.029   2.568   1.052  0.00  0.00    -0.042 A 
ATOM      5  C5  UNL d   1       1.186   1.988   0.707  0.00  0.00     0.033 A 
ATOM      6  C6  UNL d   1       1.241   0.633   0.364  0.00  0.00    -0.057 A 
ENDROOT
BRANCH   1   7
ATOM      7  N   UNL d   1       0.233  -1.533   0.092  0.00  0.00    -0.732 N 
ATOM      8  C   UNL d   1      -0.626  -2.203  -0.861  0.00  0.00     0.284 C 
ATOM      9  H3  UNL d   1       1.209  -1.818   0.044  0.00  0.00     0.395 HD
ENDBRANCH   1   7
TORSDOF 1
ENDMDL
