MODEL 1
REMARK minimizedAffinity -1.85314393
REMARK minimizedRMSD -1
REMARK  1 active torsions:
REMARK  status: ('A' for Active; 'I' for Inactive)
REMARK    1  A    between atoms: N_2  and  C1_3 
ROOT
ATOM      1  C1  UNL d   1      -0.767  -1.356  -1.431  0.00  0.00     0.143 A 
ATOM      2  C2  UNL d   1      -1.245  -0.041  -1.423  0.00  0.00    -0.057 A 
ATOM      3  C3  UNL d   1      -0.894   0.854  -0.405  0.00  0.00     0.033 A 
ATOM      4  C4  UNL d   1      -0.079   0.438   0.643  0.00  0.00    -0.042 A 
ATOM      5  C5  UNL d   1       0.388  -0.871   0.669  0.00  0.00     0.033 A 
ATOM      6  C6  UNL d   1       0.039  -1.757  -0.355  0.00  0.00    -0.057 A 
ENDROOT
BRANCH   1   7
ATOM      7  N   UNL d   1      -1.160  -2.320  -2.362  0.00  0.00    -0.732 N 
ATOM      8  C   UNL d   1      -0.199  -3.260  -2.900  0.00  0.00     0.284 C 
ATOM      9  H3  UNL d   1      -2.063  -2.732  -2.138  0.00  0.00     0.395 HD
ENDBRANCH   1   7
TORSDOF 1
ENDMDL
