MODEL 1
REMARK minimizedAffinity -3.28987145
REMARK minimizedRMSD -1
REMARK  1 active torsions:
REMARK  status: ('A' for Active; 'I' for Inactive)
REMARK    1  A    between atoms: N_2  and  C1_3 
ROOT
ATOM      1  C1  UNL d   1      -0.687  -0.861  -0.588  0.00  0.00     0.143 A 
ATOM      2  C2  UNL d   1       0.380  -1.365   0.163  0.00  0.00    -0.057 A 
ATOM      3  C3  UNL d   1       0.710  -2.726   0.134  0.00  0.00     0.033 A 
ATOM      4  C4  UNL d   1      -0.042  -3.614  -0.628  0.00  0.00    -0.042 A 
ATOM      5  C5  UNL d   1      -1.123  -3.139  -1.363  0.00  0.00     0.033 A 
ATOM      6  C6  UNL d   1      -1.443  -1.778  -1.335  0.00  0.00    -0.057 A 
ENDROOT
BRANCH   1   7
ATOM      7  N   UNL d   1      -1.126   0.464  -0.525  0.00  0.00    -0.732 N 
ATOM      8  C   UNL d   1      -1.155   1.171   0.738  0.00  0.00     0.284 C 
ATOM      9  H3  UNL d   1      -0.790   1.022  -1.306  0.00  0.00     0.395 HD
ENDBRANCH   1   7
TORSDOF 1
ENDMDL
