MODEL 1
REMARK minimizedAffinity -2.85485792
REMARK minimizedRMSD -1
REMARK  1 active torsions:
REMARK  status: ('A' for Active; 'I' for Inactive)
REMARK    1  A    between atoms: N_2  and  C1_3 
ROOT
ATOM      1  C1  UNL d   1      -0.218  -0.197  -0.056  0.00  0.00     0.143 A 
ATOM      2  C2  UNL d   1      -1.505   0.235  -0.394  0.00  0.00    -0.057 A 
ATOM      3  C3  UNL d   1      -1.902   1.562  -0.190  0.00  0.00     0.033 A 
ATOM      4  C4  UNL d   1      -1.025   2.476   0.385  0.00  0.00    -0.042 A 
ATOM      5  C5  UNL d   1       0.250   2.062   0.752  0.00  0.00     0.033 A 
ATOM      6  C6  UNL d   1       0.643   0.737   0.540  0.00  0.00    -0.057 A 
ENDROOT
BRANCH   1   7
ATOM      7  N   UNL d   1       0.203  -1.526  -0.143  0.00  0.00    -0.732 N 
ATOM      8  C   UNL d   1      -0.478  -2.461  -1.013  0.00  0.00     0.284 C 
ATOM      9  H3  UNL d   1       1.217  -1.612  -0.153  0.00  0.00     0.395 HD
ENDBRANCH   1   7
TORSDOF 1
ENDMDL
