MODEL 1
REMARK minimizedAffinity -2.18200183
REMARK minimizedRMSD -1
REMARK  1 active torsions:
REMARK  status: ('A' for Active; 'I' for Inactive)
REMARK    1  A    between atoms: N_2  and  C1_3 
ROOT
ATOM      1  C1  UNL d   1      -0.489  -1.152  -0.228  0.00  0.00     0.143 A 
ATOM      2  C2  UNL d   1      -0.696  -0.260  -1.286  0.00  0.00    -0.057 A 
ATOM      3  C3  UNL d   1      -1.075   1.068  -1.053  0.00  0.00     0.033 A 
ATOM      4  C4  UNL d   1      -1.281   1.521   0.246  0.00  0.00    -0.042 A 
ATOM      5  C5  UNL d   1      -1.104   0.645   1.312  0.00  0.00     0.033 A 
ATOM      6  C6  UNL d   1      -0.720  -0.678   1.072  0.00  0.00    -0.057 A 
ENDROOT
BRANCH   1   7
ATOM      7  N   UNL d   1      -0.208  -2.509  -0.400  0.00  0.00    -0.732 N 
ATOM      8  C   UNL d   1      -0.624  -3.203  -1.600  0.00  0.00     0.284 C 
ATOM      9  H3  UNL d   1       0.726  -2.756  -0.080  0.00  0.00     0.395 HD
ENDBRANCH   1   7
TORSDOF 1
ENDMDL
