MODEL 1
REMARK minimizedAffinity -4.3482542
REMARK minimizedRMSD -1
REMARK  1 active torsions:
REMARK  status: ('A' for Active; 'I' for Inactive)
REMARK    1  A    between atoms: N_2  and  C1_3 
ROOT
ATOM      1  C1  UNL d   1      -0.250  -0.075   0.223  0.00  0.00     0.143 A 
ATOM      2  C2  UNL d   1      -1.504   0.540   0.130  0.00  0.00    -0.057 A 
ATOM      3  C3  UNL d   1      -1.647   1.924   0.286  0.00  0.00     0.033 A 
ATOM      4  C4  UNL d   1      -0.539   2.716   0.568  0.00  0.00    -0.042 A 
ATOM      5  C5  UNL d   1       0.713   2.124   0.690  0.00  0.00     0.033 A 
ATOM      6  C6  UNL d   1       0.850   0.742   0.526  0.00  0.00    -0.057 A 
ENDROOT
BRANCH   1   7
ATOM      7  N   UNL d   1      -0.057  -1.458   0.176  0.00  0.00    -0.732 N 
ATOM      8  C   UNL d   1      -0.083  -2.163  -1.088  0.00  0.00     0.284 C 
ATOM      9  H3  UNL d   1       0.675  -1.770   0.810  0.00  0.00     0.395 HD
ENDBRANCH   1   7
TORSDOF 1
ENDMDL
