MODEL 1
REMARK minimizedAffinity -3.49293089
REMARK minimizedRMSD -1
REMARK  1 active torsions:
REMARK  status: ('A' for Active; 'I' for Inactive)
REMARK    1  A    between atoms: N_2  and  C1_3 
ROOT
ATOM      1  C1  UNL d   1      -0.295  -1.568  -0.406  0.00  0.00     0.143 A 
ATOM      2  C2  UNL d   1       0.095  -2.910  -0.329  0.00  0.00    -0.057 A 
ATOM      3  C3  UNL d   1      -0.064  -3.776  -1.417  0.00  0.00     0.033 A 
ATOM      4  C4  UNL d   1      -0.645  -3.322  -2.596  0.00  0.00    -0.042 A 
ATOM      5  C5  UNL d   1      -1.064  -2.000  -2.687  0.00  0.00     0.033 A 
ATOM      6  C6  UNL d   1      -0.896  -1.137  -1.599  0.00  0.00    -0.057 A 
ENDROOT
BRANCH   1   7
ATOM      7  N   UNL d   1      -0.254  -0.683   0.673  0.00  0.00    -0.732 N 
ATOM      8  C   UNL d   1      -0.869   0.624   0.579  0.00  0.00     0.284 C 
ATOM      9  H3  UNL d   1      -0.405  -1.149   1.565  0.00  0.00     0.395 HD
ENDBRANCH   1   7
TORSDOF 1
ENDMDL
