MODEL 1
REMARK minimizedAffinity -0.887466371
REMARK minimizedRMSD -1
REMARK  1 active torsions:
REMARK  status: ('A' for Active; 'I' for Inactive)
REMARK    1  A    between atoms: N_2  and  C1_3 
ROOT
ATOM      1  C1  UNL d   1      -0.302  -1.189  -0.896  0.00  0.00     0.143 A 
ATOM      2  C2  UNL d   1      -1.017  -0.138  -1.481  0.00  0.00    -0.057 A 
ATOM      3  C3  UNL d   1      -1.394   0.986  -0.736  0.00  0.00     0.033 A 
ATOM      4  C4  UNL d   1      -1.087   1.066   0.618  0.00  0.00    -0.042 A 
ATOM      5  C5  UNL d   1      -0.399   0.022   1.226  0.00  0.00     0.033 A 
ATOM      6  C6  UNL d   1      -0.019  -1.095   0.476  0.00  0.00    -0.057 A 
ENDROOT
BRANCH   1   7
ATOM      7  N   UNL d   1       0.016  -2.377  -1.559  0.00  0.00    -0.732 N 
ATOM      8  C   UNL d   1      -0.982  -3.409  -1.742  0.00  0.00     0.284 C 
ATOM      9  H3  UNL d   1       0.608  -2.221  -2.372  0.00  0.00     0.395 HD
ENDBRANCH   1   7
TORSDOF 1
ENDMDL
