MODEL 1
REMARK minimizedAffinity -3.68449116
REMARK minimizedRMSD -1
REMARK  1 active torsions:
REMARK  status: ('A' for Active; 'I' for Inactive)
REMARK    1  A    between atoms: N_2  and  C1_3 
ROOT
ATOM      1  C1  UNL d   1      -0.392  -0.989  -0.172  0.00  0.00     0.143 A 
ATOM      2  C2  UNL d   1      -0.139  -0.106  -1.228  0.00  0.00    -0.057 A 
ATOM      3  C3  UNL d   1      -0.398   1.264  -1.105  0.00  0.00     0.033 A 
ATOM      4  C4  UNL d   1      -0.943   1.773   0.069  0.00  0.00    -0.042 A 
ATOM      5  C5  UNL d   1      -1.226   0.910   1.122  0.00  0.00     0.033 A 
ATOM      6  C6  UNL d   1      -0.959  -0.457   0.996  0.00  0.00    -0.057 A 
ENDROOT
BRANCH   1   7
ATOM      7  N   UNL d   1      -0.248  -2.376  -0.267  0.00  0.00    -0.732 N 
ATOM      8  C   UNL d   1      -0.540  -3.064  -1.506  0.00  0.00     0.284 C 
ATOM      9  H3  UNL d   1       0.585  -2.714   0.210  0.00  0.00     0.395 HD
ENDBRANCH   1   7
TORSDOF 1
ENDMDL
