MODEL 1
REMARK minimizedAffinity -1.42917442
REMARK minimizedRMSD -1
REMARK  1 active torsions:
REMARK  status: ('A' for Active; 'I' for Inactive)
REMARK    1  A    between atoms: N_2  and  C1_3 
ROOT
ATOM      1  C1  UNL d   1      -0.389  -1.705  -0.530  0.00  0.00     0.143 A 
ATOM      2  C2  UNL d   1       0.399  -1.251   0.534  0.00  0.00    -0.057 A 
ATOM      3  C3  UNL d   1       0.246   0.041   1.051  0.00  0.00     0.033 A 
ATOM      4  C4  UNL d   1      -0.680   0.916   0.492  0.00  0.00    -0.042 A 
ATOM      5  C5  UNL d   1      -1.456   0.495  -0.583  0.00  0.00     0.033 A 
ATOM      6  C6  UNL d   1      -1.303  -0.799  -1.090  0.00  0.00    -0.057 A 
ENDROOT
BRANCH   1   7
ATOM      7  N   UNL d   1      -0.217  -2.944  -1.151  0.00  0.00    -0.732 N 
ATOM      8  C   UNL d   1      -1.352  -3.803  -1.410  0.00  0.00     0.284 C 
ATOM      9  H3  UNL d   1       0.458  -2.906  -1.912  0.00  0.00     0.395 HD
ENDBRANCH   1   7
TORSDOF 1
ENDMDL
