MODEL 1
REMARK minimizedAffinity -2.46720982
REMARK minimizedRMSD -1
REMARK  1 active torsions:
REMARK  status: ('A' for Active; 'I' for Inactive)
REMARK    1  A    between atoms: N_2  and  C1_3 
ROOT
ATOM      1  C1  UNL d   1      -0.254  -0.396  -0.684  0.00  0.00     0.143 A 
ATOM      2  C2  UNL d   1       0.578   0.118   0.316  0.00  0.00    -0.057 A 
ATOM      3  C3  UNL d   1       0.298   1.342   0.935  0.00  0.00     0.033 A 
ATOM      4  C4  UNL d   1      -0.807   2.090   0.543  0.00  0.00    -0.042 A 
ATOM      5  C5  UNL d   1      -1.634   1.610  -0.466  0.00  0.00     0.033 A 
ATOM      6  C6  UNL d   1      -1.353   0.384  -1.076  0.00  0.00    -0.057 A 
ENDROOT
BRANCH   1   7
ATOM      7  N   UNL d   1       0.025  -1.559  -1.406  0.00  0.00    -0.732 N 
ATOM      8  C   UNL d   1      -0.870  -2.696  -1.347  0.00  0.00     0.284 C 
ATOM      9  H3  UNL d   1       0.385  -1.362  -2.337  0.00  0.00     0.395 HD
ENDBRANCH   1   7
TORSDOF 1
ENDMDL
