MODEL 1
REMARK minimizedAffinity -4.97561407
REMARK minimizedRMSD -1
REMARK  2 active torsions:
REMARK  status: ('A' for Active; 'I' for Inactive)
REMARK    1  A    between atoms: C2'_3  and  C1'_4 
REMARK    2  A    between atoms: C1'_4  and  C1_5 
ROOT
ATOM      1  C1  I4B d   1       0.201  -0.155  -0.132  0.00  0.00    -0.075 A 
ATOM      2  C2  I4B d   1       0.959   0.361   0.889  0.00  0.00     0.003 A 
ATOM      3  C3  I4B d   1       0.335   0.991   1.992  0.00  0.00     0.002 A 
ATOM      4  C4  I4B d   1      -1.038   1.128   2.010  0.00  0.00    -0.004 A 
ATOM      5  C5  I4B d   1      -1.807   0.584   0.985  0.00  0.00     0.002 A 
ATOM      6  C6  I4B d   1      -1.185  -0.072  -0.087  0.00  0.00     0.003 A 
ENDROOT
BRANCH   1   7
ATOM      7  C1' I4B d   1       0.894  -0.785  -1.298  0.00  0.00     0.060 C 
BRANCH   7   8
ATOM      8  C2' I4B d   1       0.823   0.182  -2.462  0.00  0.00    -0.013 C 
ATOM      9  C4' I4B d   1       2.198   0.615  -2.897  0.00  0.00     0.013 C 
ATOM     10  C3' I4B d   1       0.089  -0.494  -3.582  0.00  0.00     0.013 C 
ENDBRANCH   7   8
ENDBRANCH   1   7
TORSDOF 2
ENDMDL
