MODEL 1
REMARK minimizedAffinity -1.14769626
REMARK minimizedRMSD -1
REMARK  2 active torsions:
REMARK  status: ('A' for Active; 'I' for Inactive)
REMARK    1  A    between atoms: C2'_3  and  C1'_4 
REMARK    2  A    between atoms: C1'_4  and  C1_5 
ROOT
ATOM      1  C1  I4B d   1      -0.629  -0.413  -0.470  0.00  0.00    -0.075 A 
ATOM      2  C2  I4B d   1      -0.026  -0.478   0.761  0.00  0.00     0.003 A 
ATOM      3  C3  I4B d   1      -0.571   0.228   1.861  0.00  0.00     0.002 A 
ATOM      4  C4  I4B d   1      -1.684   1.023   1.674  0.00  0.00    -0.004 A 
ATOM      5  C5  I4B d   1      -2.307   1.070   0.430  0.00  0.00     0.002 A 
ATOM      6  C6  I4B d   1      -1.784   0.338  -0.646  0.00  0.00     0.003 A 
ENDROOT
BRANCH   1   7
ATOM      7  C1' I4B d   1      -0.007  -1.145  -1.617  0.00  0.00     0.060 C 
BRANCH   7   8
ATOM      8  C2' I4B d   1       0.029  -0.206  -2.805  0.00  0.00    -0.013 C 
ATOM      9  C4' I4B d   1       1.444   0.072  -3.238  0.00  0.00     0.013 C 
ATOM     10  C3' I4B d   1      -0.764  -0.832  -3.914  0.00  0.00     0.013 C 
ENDBRANCH   7   8
ENDBRANCH   1   7
TORSDOF 2
ENDMDL
