MODEL 1
REMARK minimizedAffinity -4.9883399
REMARK minimizedRMSD -1
REMARK  2 active torsions:
REMARK  status: ('A' for Active; 'I' for Inactive)
REMARK    1  A    between atoms: C2'_3  and  C1'_4 
REMARK    2  A    between atoms: C1'_4  and  C1_5 
ROOT
ATOM      1  C1  I4B d   1      -0.004  -0.038   0.101  0.00  0.00    -0.075 A 
ATOM      2  C2  I4B d   1       0.662   0.889   0.863  0.00  0.00     0.003 A 
ATOM      3  C3  I4B d   1      -0.034   1.643   1.838  0.00  0.00     0.002 A 
ATOM      4  C4  I4B d   1      -1.396   1.476   1.981  0.00  0.00    -0.004 A 
ATOM      5  C5  I4B d   1      -2.066   0.519   1.224  0.00  0.00     0.002 A 
ATOM      6  C6  I4B d   1      -1.364  -0.252   0.286  0.00  0.00     0.003 A 
ENDROOT
BRANCH   1   7
ATOM      7  C1' I4B d   1       0.756  -0.794  -0.943  0.00  0.00     0.060 C 
BRANCH   7   8
ATOM      8  C2' I4B d   1       0.626  -0.043  -2.252  0.00  0.00    -0.013 C 
ATOM      9  C4' I4B d   1       1.790   0.889  -2.464  0.00  0.00     0.013 C 
ATOM     10  C3' I4B d   1       0.531  -1.051  -3.357  0.00  0.00     0.013 C 
ENDBRANCH   7   8
ENDBRANCH   1   7
TORSDOF 2
ENDMDL
