MODEL 1
REMARK minimizedAffinity -3.33742452
REMARK minimizedRMSD -1
REMARK  2 active torsions:
REMARK  status: ('A' for Active; 'I' for Inactive)
REMARK    1  A    between atoms: C2'_3  and  C1'_4 
REMARK    2  A    between atoms: C1'_4  and  C1_5 
ROOT
ATOM      1  C1  I4B d   1       0.476  -0.563  -2.286  0.00  0.00    -0.075 A 
ATOM      2  C2  I4B d   1      -0.613  -0.747  -3.100  0.00  0.00     0.003 A 
ATOM      3  C3  I4B d   1      -0.644  -0.168  -4.392  0.00  0.00     0.002 A 
ATOM      4  C4  I4B d   1       0.406   0.626  -4.806  0.00  0.00    -0.004 A 
ATOM      5  C5  I4B d   1       1.520   0.794  -3.988  0.00  0.00     0.002 A 
ATOM      6  C6  I4B d   1       1.561   0.186  -2.724  0.00  0.00     0.003 A 
ENDROOT
BRANCH   1   7
ATOM      7  C1' I4B d   1       0.461  -1.162  -0.915  0.00  0.00     0.060 C 
BRANCH   7   8
ATOM      8  C2' I4B d   1       0.149  -0.058   0.074  0.00  0.00    -0.013 C 
ATOM      9  C4' I4B d   1      -1.293  -0.103   0.505  0.00  0.00     0.013 C 
ATOM     10  C3' I4B d   1       1.070  -0.213   1.247  0.00  0.00     0.013 C 
ENDBRANCH   7   8
ENDBRANCH   1   7
TORSDOF 2
ENDMDL
