MODEL 1
REMARK minimizedAffinity -3.39193058
REMARK minimizedRMSD -1
REMARK  2 active torsions:
REMARK  status: ('A' for Active; 'I' for Inactive)
REMARK    1  A    between atoms: C2'_3  and  C1'_4 
REMARK    2  A    between atoms: C1'_4  and  C1_5 
ROOT
ATOM      1  C1  I4B d   1       0.584  -0.436  -0.404  0.00  0.00    -0.075 A 
ATOM      2  C2  I4B d   1      -0.669   0.012  -0.066  0.00  0.00     0.003 A 
ATOM      3  C3  I4B d   1      -0.895   0.608   1.199  0.00  0.00     0.002 A 
ATOM      4  C4  I4B d   1       0.140   0.688   2.108  0.00  0.00    -0.004 A 
ATOM      5  C5  I4B d   1       1.414   0.253   1.755  0.00  0.00     0.002 A 
ATOM      6  C6  I4B d   1       1.641  -0.301   0.486  0.00  0.00     0.003 A 
ENDROOT
BRANCH   1   7
ATOM      7  C1' I4B d   1       0.780  -1.090  -1.735  0.00  0.00     0.060 C 
BRANCH   7   8
ATOM      8  C2' I4B d   1       0.665  -0.020  -2.802  0.00  0.00    -0.013 C 
ATOM      9  C4' I4B d   1       1.967   0.715  -2.980  0.00  0.00     0.013 C 
ATOM     10  C3' I4B d   1       0.238  -0.682  -4.078  0.00  0.00     0.013 C 
ENDBRANCH   7   8
ENDBRANCH   1   7
TORSDOF 2
ENDMDL
