MODEL 1
REMARK minimizedAffinity -3.59562635
REMARK minimizedRMSD -1
REMARK  1 active torsions:
REMARK  status: ('A' for Active; 'I' for Inactive)
REMARK    1  A    between atoms: N_2  and  C1_3 
ROOT
ATOM      1  C1  UNL d   1       3.652   1.238  -1.433  0.00  0.00     0.143 A 
ATOM      2  C2  UNL d   1       2.930   0.614  -0.410  0.00  0.00    -0.057 A 
ATOM      3  C3  UNL d   1       2.404  -0.673  -0.573  0.00  0.00     0.033 A 
ATOM      4  C4  UNL d   1       2.567  -1.350  -1.778  0.00  0.00    -0.042 A 
ATOM      5  C5  UNL d   1       3.260  -0.739  -2.817  0.00  0.00     0.033 A 
ATOM      6  C6  UNL d   1       3.788   0.544  -2.645  0.00  0.00    -0.057 A 
ENDROOT
BRANCH   1   7
ATOM      7  N   UNL d   1       4.115   2.554  -1.367  0.00  0.00    -0.732 N 
ATOM      8  C   UNL d   1       5.135   2.930  -0.411  0.00  0.00     0.284 C 
ATOM      9  H3  UNL d   1       4.235   2.971  -2.288  0.00  0.00     0.395 HD
ENDBRANCH   1   7
TORSDOF 1
ENDMDL
