MODEL 1
REMARK minimizedAffinity -0.442930222
REMARK minimizedRMSD -1
REMARK  1 active torsions:
REMARK  status: ('A' for Active; 'I' for Inactive)
REMARK    1  A    between atoms: N_2  and  C1_3 
ROOT
ATOM      1  C1  UNL d   1       2.238   0.189   0.764  0.00  0.00     0.143 A 
ATOM      2  C2  UNL d   1       1.837  -1.109   1.098  0.00  0.00    -0.057 A 
ATOM      3  C3  UNL d   1       1.065  -1.360   2.238  0.00  0.00     0.033 A 
ATOM      4  C4  UNL d   1       0.703  -0.316   3.084  0.00  0.00    -0.042 A 
ATOM      5  C5  UNL d   1       1.112   0.978   2.786  0.00  0.00     0.033 A 
ATOM      6  C6  UNL d   1       1.878   1.223   1.642  0.00  0.00    -0.057 A 
ENDROOT
BRANCH   1   7
ATOM      7  N   UNL d   1       3.089   0.490  -0.302  0.00  0.00    -0.732 N 
ATOM      8  C   UNL d   1       3.878   1.704  -0.295  0.00  0.00     0.284 C 
ATOM      9  H3  UNL d   1       3.588  -0.328  -0.644  0.00  0.00     0.395 HD
ENDBRANCH   1   7
TORSDOF 1
ENDMDL
