MODEL 1
REMARK minimizedAffinity 1.85586858
REMARK minimizedRMSD -1
REMARK  1 active torsions:
REMARK  status: ('A' for Active; 'I' for Inactive)
REMARK    1  A    between atoms: N_2  and  C1_3 
ROOT
ATOM      1  C1  UNL d   1       3.685   0.961  -0.222  0.00  0.00     0.143 A 
ATOM      2  C2  UNL d   1       3.774   2.333   0.040  0.00  0.00    -0.057 A 
ATOM      3  C3  UNL d   1       4.911   3.068  -0.317  0.00  0.00     0.033 A 
ATOM      4  C4  UNL d   1       5.994   2.436  -0.918  0.00  0.00    -0.042 A 
ATOM      5  C5  UNL d   1       5.938   1.068  -1.165  0.00  0.00     0.033 A 
ATOM      6  C6  UNL d   1       4.797   0.341  -0.813  0.00  0.00    -0.057 A 
ENDROOT
BRANCH   1   7
ATOM      7  N   UNL d   1       2.622   0.157   0.197  0.00  0.00    -0.732 N 
ATOM      8  C   UNL d   1       1.441   0.746   0.790  0.00  0.00     0.284 C 
ATOM      9  H3  UNL d   1       2.427  -0.600  -0.454  0.00  0.00     0.395 HD
ENDBRANCH   1   7
TORSDOF 1
ENDMDL
