MODEL 1
REMARK minimizedAffinity -2.09912109
REMARK minimizedRMSD -1
REMARK  1 active torsions:
REMARK  status: ('A' for Active; 'I' for Inactive)
REMARK    1  A    between atoms: N_2  and  C1_3 
ROOT
ATOM      1  C1  UNL d   1      -3.609   1.418  -3.911  0.00  0.00     0.143 A 
ATOM      2  C2  UNL d   1      -4.941   1.000  -4.005  0.00  0.00    -0.057 A 
ATOM      3  C3  UNL d   1      -5.995   1.841  -3.627  0.00  0.00     0.033 A 
ATOM      4  C4  UNL d   1      -5.732   3.109  -3.119  0.00  0.00    -0.042 A 
ATOM      5  C5  UNL d   1      -4.415   3.536  -2.993  0.00  0.00     0.033 A 
ATOM      6  C6  UNL d   1      -3.368   2.694  -3.378  0.00  0.00    -0.057 A 
ENDROOT
BRANCH   1   7
ATOM      7  N   UNL d   1      -2.514   0.593  -4.178  0.00  0.00    -0.732 N 
ATOM      8  C   UNL d   1      -2.012  -0.315  -3.169  0.00  0.00     0.284 C 
ATOM      9  H3  UNL d   1      -2.545   0.197  -5.115  0.00  0.00     0.395 HD
ENDBRANCH   1   7
TORSDOF 1
ENDMDL
