MODEL 1
REMARK minimizedAffinity -1.29805517
REMARK minimizedRMSD -1
REMARK  1 active torsions:
REMARK  status: ('A' for Active; 'I' for Inactive)
REMARK    1  A    between atoms: N_2  and  C1_3 
ROOT
ATOM      1  C1  UNL d   1       3.175   2.190   1.740  0.00  0.00     0.143 A 
ATOM      2  C2  UNL d   1       4.528   2.521   1.605  0.00  0.00    -0.057 A 
ATOM      3  C3  UNL d   1       5.240   2.204   0.442  0.00  0.00     0.033 A 
ATOM      4  C4  UNL d   1       4.618   1.522  -0.598  0.00  0.00    -0.042 A 
ATOM      5  C5  UNL d   1       3.281   1.161  -0.476  0.00  0.00     0.033 A 
ATOM      6  C6  UNL d   1       2.573   1.486   0.686  0.00  0.00    -0.057 A 
ENDROOT
BRANCH   1   7
ATOM      7  N   UNL d   1       2.439   2.389   2.910  0.00  0.00    -0.732 N 
ATOM      8  C   UNL d   1       1.076   1.912   3.014  0.00  0.00     0.284 C 
ATOM      9  H3  UNL d   1       2.996   2.243   3.749  0.00  0.00     0.395 HD
ENDBRANCH   1   7
TORSDOF 1
ENDMDL
