MODEL 1
REMARK minimizedAffinity 7.34930706
REMARK minimizedRMSD -1
REMARK  1 active torsions:
REMARK  status: ('A' for Active; 'I' for Inactive)
REMARK    1  A    between atoms: N_2  and  C1_3 
ROOT
ATOM      1  C1  UNL d   1      -3.562  -5.917  -3.932  0.00  0.00     0.143 A 
ATOM      2  C2  UNL d   1      -2.200  -5.843  -4.243  0.00  0.00    -0.057 A 
ATOM      3  C3  UNL d   1      -1.224  -5.870  -3.240  0.00  0.00     0.033 A 
ATOM      4  C4  UNL d   1      -1.596  -5.941  -1.901  0.00  0.00    -0.042 A 
ATOM      5  C5  UNL d   1      -2.944  -5.991  -1.568  0.00  0.00     0.033 A 
ATOM      6  C6  UNL d   1      -3.914  -5.971  -2.574  0.00  0.00    -0.057 A 
ENDROOT
BRANCH   1   7
ATOM      7  N   UNL d   1      -4.584  -5.796  -4.878  0.00  0.00    -0.732 N 
ATOM      8  C   UNL d   1      -5.953  -5.582  -4.460  0.00  0.00     0.284 C 
ATOM      9  H3  UNL d   1      -4.303  -5.242  -5.684  0.00  0.00     0.395 HD
ENDBRANCH   1   7
TORSDOF 1
ENDMDL
