MODEL 1
REMARK minimizedAffinity 0.166292205
REMARK minimizedRMSD -1
REMARK  1 active torsions:
REMARK  status: ('A' for Active; 'I' for Inactive)
REMARK    1  A    between atoms: N_2  and  C1_3 
ROOT
ATOM      1  C1  UNL d   1       2.767  -1.238  -0.556  0.00  0.00     0.143 A 
ATOM      2  C2  UNL d   1       3.041  -0.951  -1.898  0.00  0.00    -0.057 A 
ATOM      3  C3  UNL d   1       3.766   0.190  -2.263  0.00  0.00     0.033 A 
ATOM      4  C4  UNL d   1       4.207   1.082  -1.291  0.00  0.00    -0.042 A 
ATOM      5  C5  UNL d   1       3.924   0.830   0.047  0.00  0.00     0.033 A 
ATOM      6  C6  UNL d   1       3.205  -0.314   0.406  0.00  0.00    -0.057 A 
ENDROOT
BRANCH   1   7
ATOM      7  N   UNL d   1       1.966  -2.303  -0.136  0.00  0.00    -0.732 N 
ATOM      8  C   UNL d   1       0.934  -2.835  -1.000  0.00  0.00     0.284 C 
ATOM      9  H3  UNL d   1       2.496  -3.013   0.365  0.00  0.00     0.395 HD
ENDBRANCH   1   7
TORSDOF 1
ENDMDL
