MODEL 1
REMARK minimizedAffinity -3.2185595
REMARK minimizedRMSD -1
REMARK  0 active torsions:
REMARK  status: ('A' for Active; 'I' for Inactive)
ROOT
ATOM      1  C   UNL d   1       5.413  -1.621  -4.876  0.00  0.00     0.077 C 
ATOM      2  C1  UNL d   1       5.420  -3.120  -4.909  0.00  0.00    -0.074 A 
ATOM      3  C2  UNL d   1       5.990  -3.813  -5.982  0.00  0.00    -0.005 A 
ATOM      4  C3  UNL d   1       5.998  -5.208  -5.994  0.00  0.00     0.006 A 
ATOM      5  C4  UNL d   1       5.437  -5.922  -4.935  0.00  0.00    -0.005 A 
ATOM      6  C5  UNL d   1       4.863  -5.247  -3.853  0.00  0.00    -0.074 A 
ATOM      7  C6  UNL d   1       4.264  -6.000  -2.702  0.00  0.00     0.077 C 
ATOM      8  C7  UNL d   1       4.865  -3.845  -3.845  0.00  0.00    -0.001 A 
ENDROOT
TORSDOF 0
ENDMDL
