MODEL 1
REMARK minimizedAffinity -2.64350009
REMARK minimizedRMSD -1
REMARK  0 active torsions:
REMARK  status: ('A' for Active; 'I' for Inactive)
ROOT
ATOM      1  C   UNL d   1       3.841  -1.235  -5.555  0.00  0.00     0.077 C 
ATOM      2  C1  UNL d   1       4.318  -2.655  -5.484  0.00  0.00    -0.074 A 
ATOM      3  C2  UNL d   1       5.566  -3.021  -6.000  0.00  0.00    -0.005 A 
ATOM      4  C3  UNL d   1       6.000  -4.344  -5.918  0.00  0.00     0.006 A 
ATOM      5  C4  UNL d   1       5.193  -5.313  -5.320  0.00  0.00    -0.005 A 
ATOM      6  C5  UNL d   1       3.942  -4.966  -4.799  0.00  0.00    -0.074 A 
ATOM      7  C6  UNL d   1       3.066  -5.993  -4.145  0.00  0.00     0.077 C 
ATOM      8  C7  UNL d   1       3.516  -3.633  -4.879  0.00  0.00    -0.001 A 
ENDROOT
TORSDOF 0
ENDMDL
