MODEL 1
REMARK minimizedAffinity -0.188723549
REMARK minimizedRMSD -1
REMARK  0 active torsions:
REMARK  status: ('A' for Active; 'I' for Inactive)
ROOT
ATOM      1  C   UNL d   1       3.014  -6.000  -5.719  0.00  0.00     0.077 C 
ATOM      2  C1  UNL d   1       3.946  -5.015  -5.079  0.00  0.00    -0.074 A 
ATOM      3  C2  UNL d   1       5.138  -5.438  -4.481  0.00  0.00    -0.005 A 
ATOM      4  C3  UNL d   1       6.000  -4.509  -3.898  0.00  0.00     0.006 A 
ATOM      5  C4  UNL d   1       5.679  -3.151  -3.906  0.00  0.00    -0.005 A 
ATOM      6  C5  UNL d   1       4.493  -2.710  -4.500  0.00  0.00    -0.074 A 
ATOM      7  C6  UNL d   1       4.138  -1.253  -4.526  0.00  0.00     0.077 C 
ATOM      8  C7  UNL d   1       3.635  -3.648  -5.090  0.00  0.00    -0.001 A 
ENDROOT
TORSDOF 0
ENDMDL
