MODEL 1
REMARK minimizedAffinity -2.09063411
REMARK minimizedRMSD -1
REMARK  0 active torsions:
REMARK  status: ('A' for Active; 'I' for Inactive)
ROOT
ATOM      1  C   UNL d   1       3.764  -1.004  -5.999  0.00  0.00     0.077 C 
ATOM      2  C1  UNL d   1       4.466  -2.198  -5.424  0.00  0.00    -0.074 A 
ATOM      3  C2  UNL d   1       5.359  -2.062  -4.356  0.00  0.00    -0.005 A 
ATOM      4  C3  UNL d   1       5.998  -3.183  -3.826  0.00  0.00     0.006 A 
ATOM      5  C4  UNL d   1       5.750  -4.449  -4.356  0.00  0.00    -0.005 A 
ATOM      6  C5  UNL d   1       4.860  -4.605  -5.423  0.00  0.00    -0.074 A 
ATOM      7  C6  UNL d   1       4.575  -5.961  -5.999  0.00  0.00     0.077 C 
ATOM      8  C7  UNL d   1       4.217  -3.475  -5.946  0.00  0.00    -0.001 A 
ENDROOT
TORSDOF 0
ENDMDL
