MODEL 1
REMARK minimizedAffinity -2.17100406
REMARK minimizedRMSD -1
REMARK  0 active torsions:
REMARK  status: ('A' for Active; 'I' for Inactive)
ROOT
ATOM      1  C   UNL d   1       5.962  -1.688  -4.792  0.00  0.00     0.077 C 
ATOM      2  C1  UNL d   1       5.935  -3.187  -4.786  0.00  0.00    -0.074 A 
ATOM      3  C2  UNL d   1       5.977  -3.912  -5.981  0.00  0.00    -0.005 A 
ATOM      4  C3  UNL d   1       5.960  -5.307  -5.959  0.00  0.00     0.006 A 
ATOM      5  C4  UNL d   1       5.903  -5.989  -4.743  0.00  0.00    -0.005 A 
ATOM      6  C5  UNL d   1       5.862  -5.282  -3.538  0.00  0.00    -0.074 A 
ATOM      7  C6  UNL d   1       5.810  -6.000  -2.222  0.00  0.00     0.077 C 
ATOM      8  C7  UNL d   1       5.886  -3.880  -3.568  0.00  0.00    -0.001 A 
ENDROOT
TORSDOF 0
ENDMDL
