MODEL 1
REMARK minimizedAffinity -2.92588472
REMARK minimizedRMSD -1
REMARK  0 active torsions:
REMARK  status: ('A' for Active; 'I' for Inactive)
ROOT
ATOM      1  C   UNL d   1       5.950  -5.511  -5.141  0.00  0.00     0.077 C 
ATOM      2  C1  UNL d   1       5.258  -4.182  -5.074  0.00  0.00    -0.074 A 
ATOM      3  C2  UNL d   1       3.974  -4.066  -4.530  0.00  0.00    -0.005 A 
ATOM      4  C3  UNL d   1       3.348  -2.822  -4.466  0.00  0.00     0.006 A 
ATOM      5  C4  UNL d   1       3.996  -1.683  -4.944  0.00  0.00    -0.005 A 
ATOM      6  C5  UNL d   1       5.280  -1.779  -5.490  0.00  0.00    -0.074 A 
ATOM      7  C6  UNL d   1       5.996  -0.563  -6.000  0.00  0.00     0.077 C 
ATOM      8  C7  UNL d   1       5.906  -3.032  -5.545  0.00  0.00    -0.001 A 
ENDROOT
TORSDOF 0
ENDMDL
