MODEL 1
REMARK minimizedAffinity 4.57896042
REMARK minimizedRMSD -1
REMARK  0 active torsions:
REMARK  status: ('A' for Active; 'I' for Inactive)
ROOT
ATOM      1  C   UNL d   1      -2.817   2.010  -3.050  0.00  0.00     0.172 C 
ATOM      2  N   UNL d   1      -1.810   2.267  -2.047  0.00  0.00    -0.070 N 
ATOM      3  C1  UNL d   1      -0.459   2.305  -2.264  0.00  0.00    -0.004 A 
ATOM      4  C2  UNL d   1       0.154   2.579  -1.061  0.00  0.00    -0.047 A 
ATOM      5  C3  UNL d   1      -0.864   2.708  -0.086  0.00  0.00    -0.047 A 
ATOM      6  C4  UNL d   1      -2.070   2.510  -0.724  0.00  0.00    -0.004 A 
ENDROOT
TORSDOF 0
ENDMDL
