MODEL 1
REMARK minimizedAffinity -1.31783974
REMARK minimizedRMSD -1
REMARK  0 active torsions:
REMARK  status: ('A' for Active; 'I' for Inactive)
ROOT
ATOM      1  C   UNL d   1      -2.533   3.014  -2.061  0.00  0.00     0.172 C 
ATOM      2  N   UNL d   1      -1.482   3.022  -1.071  0.00  0.00    -0.070 N 
ATOM      3  C1  UNL d   1      -0.141   2.917  -1.328  0.00  0.00    -0.004 A 
ATOM      4  C2  UNL d   1       0.525   2.966  -0.123  0.00  0.00    -0.047 A 
ATOM      5  C3  UNL d   1      -0.449   3.104   0.894  0.00  0.00    -0.047 A 
ATOM      6  C4  UNL d   1      -1.683   3.135   0.280  0.00  0.00    -0.004 A 
ENDROOT
TORSDOF 0
ENDMDL
