MODEL 1
REMARK minimizedAffinity 1.42103207
REMARK minimizedRMSD -1
REMARK  0 active torsions:
REMARK  status: ('A' for Active; 'I' for Inactive)
ROOT
ATOM      1  C   UNL d   1       0.609   4.565  -1.670  0.00  0.00     0.172 C 
ATOM      2  N   UNL d   1      -0.004   3.598  -0.790  0.00  0.00    -0.070 N 
ATOM      3  C1  UNL d   1      -1.249   3.050  -0.949  0.00  0.00    -0.004 A 
ATOM      4  C2  UNL d   1      -1.462   2.176   0.095  0.00  0.00    -0.047 A 
ATOM      5  C3  UNL d   1      -0.306   2.201   0.911  0.00  0.00    -0.047 A 
ATOM      6  C4  UNL d   1       0.580   3.090   0.340  0.00  0.00    -0.004 A 
ENDROOT
TORSDOF 0
ENDMDL
