MODEL 1
REMARK minimizedAffinity 12.535944
REMARK minimizedRMSD -1
REMARK  0 active torsions:
REMARK  status: ('A' for Active; 'I' for Inactive)
ROOT
ATOM      1  C   UNL d   1      -1.415   2.424   1.992  0.00  0.00     0.172 C 
ATOM      2  N   UNL d   1       0.019   2.538   2.122  0.00  0.00    -0.070 N 
ATOM      3  C1  UNL d   1       0.699   2.763   3.288  0.00  0.00    -0.004 A 
ATOM      4  C2  UNL d   1       2.044   2.804   2.991  0.00  0.00    -0.047 A 
ATOM      5  C3  UNL d   1       2.177   2.598   1.597  0.00  0.00    -0.047 A 
ATOM      6  C4  UNL d   1       0.907   2.436   1.084  0.00  0.00    -0.004 A 
ENDROOT
TORSDOF 0
ENDMDL
