MODEL 1
REMARK minimizedAffinity -1.48673642
REMARK minimizedRMSD -1
REMARK  0 active torsions:
REMARK  status: ('A' for Active; 'I' for Inactive)
ROOT
ATOM      1  C   UNL d   1      -0.740   3.006   0.119  0.00  0.00     0.172 C 
ATOM      2  N   UNL d   1      -0.391   2.347  -1.117  0.00  0.00    -0.070 N 
ATOM      3  C1  UNL d   1      -0.071   1.022  -1.253  0.00  0.00    -0.004 A 
ATOM      4  C2  UNL d   1       0.197   0.787  -2.585  0.00  0.00    -0.047 A 
ATOM      5  C3  UNL d   1       0.034   2.013  -3.272  0.00  0.00    -0.047 A 
ATOM      6  C4  UNL d   1      -0.331   2.962  -2.340  0.00  0.00    -0.004 A 
ENDROOT
TORSDOF 0
ENDMDL
