MODEL 1
REMARK minimizedAffinity -0.235779881
REMARK minimizedRMSD -1
REMARK  0 active torsions:
REMARK  status: ('A' for Active; 'I' for Inactive)
ROOT
ATOM      1  C   UNL d   1      -0.470   1.894   0.508  0.00  0.00     0.172 C 
ATOM      2  N   UNL d   1      -0.390   1.369  -0.835  0.00  0.00    -0.070 N 
ATOM      3  C1  UNL d   1       0.001   0.102  -1.175  0.00  0.00    -0.004 A 
ATOM      4  C2  UNL d   1      -0.058  -0.004  -2.548  0.00  0.00    -0.047 A 
ATOM      5  C3  UNL d   1      -0.499   1.244  -3.050  0.00  0.00    -0.047 A 
ATOM      6  C4  UNL d   1      -0.697   2.075  -1.968  0.00  0.00    -0.004 A 
ENDROOT
TORSDOF 0
ENDMDL
