MODEL 1
REMARK minimizedAffinity -1.62457752
REMARK minimizedRMSD -1
REMARK  0 active torsions:
REMARK  status: ('A' for Active; 'I' for Inactive)
ROOT
ATOM      1  C   UNL d   1       0.803   2.734   1.452  0.00  0.00     0.172 C 
ATOM      2  N   UNL d   1       0.888   3.742   0.422  0.00  0.00    -0.070 N 
ATOM      3  C1  UNL d   1       1.658   4.874   0.474  0.00  0.00    -0.004 A 
ATOM      4  C2  UNL d   1       1.461   5.572  -0.698  0.00  0.00    -0.047 A 
ATOM      5  C3  UNL d   1       0.539   4.836  -1.480  0.00  0.00    -0.047 A 
ATOM      6  C4  UNL d   1       0.201   3.708  -0.763  0.00  0.00    -0.004 A 
ENDROOT
TORSDOF 0
ENDMDL
