MODEL 1
REMARK minimizedAffinity 3.04528332
REMARK minimizedRMSD -1
REMARK  0 active torsions:
REMARK  status: ('A' for Active; 'I' for Inactive)
ROOT
ATOM      1  C   UNL d   1       0.074   2.233   2.224  0.00  0.00     0.172 C 
ATOM      2  N   UNL d   1      -0.094   2.527   0.821  0.00  0.00    -0.070 N 
ATOM      3  C1  UNL d   1       0.173   3.728   0.219  0.00  0.00    -0.004 A 
ATOM      4  C2  UNL d   1      -0.116   3.601  -1.123  0.00  0.00    -0.047 A 
ATOM      5  C3  UNL d   1      -0.573   2.279  -1.334  0.00  0.00    -0.047 A 
ATOM      6  C4  UNL d   1      -0.550   1.636  -0.115  0.00  0.00    -0.004 A 
ENDROOT
TORSDOF 0
ENDMDL
