MODEL 1
REMARK minimizedAffinity 20.4073429
REMARK minimizedRMSD -1
REMARK  0 active torsions:
REMARK  status: ('A' for Active; 'I' for Inactive)
ROOT
ATOM      1  O1  BZF d   1       3.300  -2.215  -5.940  0.00  0.00    -0.204 OA
ATOM      2  C2  BZF d   1       3.158  -0.841  -5.930  0.00  0.00     0.174 A 
ATOM      3  C3  BZF d   1       1.856  -0.495  -5.981  0.00  0.00    -0.012 A 
ATOM      4  C3A BZF d   1       1.136  -1.730  -5.932  0.00  0.00    -0.107 A 
ATOM      5  C4  BZF d   1      -0.194  -2.042  -5.933  0.00  0.00     0.055 A 
ATOM      6  C5  BZF d   1      -0.565  -3.350  -5.951  0.00  0.00    -0.016 A 
ATOM      7  C6  BZF d   1       0.365  -4.368  -5.973  0.00  0.00     0.022 A 
ATOM      8  C7  BZF d   1       1.695  -4.108  -5.968  0.00  0.00     0.029 A 
ATOM      9  C7A BZF d   1       2.073  -2.788  -5.917  0.00  0.00     0.058 A 
ENDROOT
TORSDOF 0
ENDMDL
