MODEL 1
REMARK minimizedAffinity 10.3198042
REMARK minimizedRMSD -1
REMARK  0 active torsions:
REMARK  status: ('A' for Active; 'I' for Inactive)
ROOT
ATOM      1  O1  BZF d   1      -4.705  -5.210   2.972  0.00  0.00    -0.204 OA
ATOM      2  C2  BZF d   1      -5.998  -4.933   3.374  0.00  0.00     0.174 A 
ATOM      3  C3  BZF d   1      -6.000  -4.128   4.456  0.00  0.00    -0.012 A 
ATOM      4  C3A BZF d   1      -4.625  -3.812   4.693  0.00  0.00    -0.107 A 
ATOM      5  C4  BZF d   1      -3.985  -3.040   5.619  0.00  0.00     0.055 A 
ATOM      6  C5  BZF d   1      -2.627  -3.000   5.622  0.00  0.00    -0.016 A 
ATOM      7  C6  BZF d   1      -1.878  -3.723   4.717  0.00  0.00     0.022 A 
ATOM      8  C7  BZF d   1      -2.467  -4.499   3.776  0.00  0.00     0.029 A 
ATOM      9  C7A BZF d   1      -3.840  -4.516   3.750  0.00  0.00     0.058 A 
ENDROOT
TORSDOF 0
ENDMDL
