MODEL 1
REMARK minimizedAffinity 6.19766283
REMARK minimizedRMSD -1
REMARK  0 active torsions:
REMARK  status: ('A' for Active; 'I' for Inactive)
ROOT
ATOM      1  O1  BZF d   1       2.751  -3.963  -2.781  0.00  0.00    -0.204 OA
ATOM      2  C2  BZF d   1       1.593  -3.825  -2.040  0.00  0.00     0.174 A 
ATOM      3  C3  BZF d   1       0.726  -2.996  -2.657  0.00  0.00    -0.012 A 
ATOM      4  C3A BZF d   1       1.345  -2.664  -3.903  0.00  0.00    -0.107 A 
ATOM      5  C4  BZF d   1       0.967  -1.889  -4.962  0.00  0.00     0.055 A 
ATOM      6  C5  BZF d   1       1.834  -1.712  -5.994  0.00  0.00    -0.016 A 
ATOM      7  C6  BZF d   1       3.087  -2.290  -5.997  0.00  0.00     0.022 A 
ATOM      8  C7  BZF d   1       3.504  -3.072  -4.971  0.00  0.00     0.029 A 
ATOM      9  C7A BZF d   1       2.618  -3.279  -3.943  0.00  0.00     0.058 A 
ENDROOT
TORSDOF 0
ENDMDL
