MODEL 1
REMARK minimizedAffinity 13.7748632
REMARK minimizedRMSD -1
REMARK  0 active torsions:
REMARK  status: ('A' for Active; 'I' for Inactive)
ROOT
ATOM      1  O1  BZF d   1      -2.430  -4.090   3.732  0.00  0.00    -0.204 OA
ATOM      2  C2  BZF d   1      -1.603  -3.327   4.534  0.00  0.00     0.174 A 
ATOM      3  C3  BZF d   1      -2.314  -2.698   5.493  0.00  0.00    -0.012 A 
ATOM      4  C3A BZF d   1      -3.657  -3.166   5.333  0.00  0.00    -0.107 A 
ATOM      5  C4  BZF d   1      -4.823  -2.917   5.999  0.00  0.00     0.055 A 
ATOM      6  C5  BZF d   1      -5.975  -3.477   5.546  0.00  0.00    -0.016 A 
ATOM      7  C6  BZF d   1      -5.998  -4.287   4.429  0.00  0.00     0.022 A 
ATOM      8  C7  BZF d   1      -4.866  -4.568   3.739  0.00  0.00     0.029 A 
ATOM      9  C7A BZF d   1      -3.695  -4.029   4.214  0.00  0.00     0.058 A 
ENDROOT
TORSDOF 0
ENDMDL
