MODEL 1
REMARK minimizedAffinity 21.8689003
REMARK minimizedRMSD -1
REMARK  0 active torsions:
REMARK  status: ('A' for Active; 'I' for Inactive)
ROOT
ATOM      1  O1  BZF d   1      -5.998   6.000   1.557  0.00  0.00    -0.204 OA
ATOM      2  C2  BZF d   1      -5.116   5.997   2.620  0.00  0.00     0.174 A 
ATOM      3  C3  BZF d   1      -3.860   5.746   2.199  0.00  0.00    -0.012 A 
ATOM      4  C3A BZF d   1      -3.949   5.672   0.773  0.00  0.00    -0.107 A 
ATOM      5  C4  BZF d   1      -3.031   5.461  -0.215  0.00  0.00     0.055 A 
ATOM      6  C5  BZF d   1      -3.455   5.375  -1.504  0.00  0.00    -0.016 A 
ATOM      7  C6  BZF d   1      -4.788   5.490  -1.838  0.00  0.00     0.022 A 
ATOM      8  C7  BZF d   1      -5.735   5.705  -0.893  0.00  0.00     0.029 A 
ATOM      9  C7A BZF d   1      -5.306   5.826   0.406  0.00  0.00     0.058 A 
ENDROOT
TORSDOF 0
ENDMDL
