MODEL 1
REMARK minimizedAffinity 14.1876926
REMARK minimizedRMSD -1
REMARK  0 active torsions:
REMARK  status: ('A' for Active; 'I' for Inactive)
ROOT
ATOM      1  O1  BZF d   1       2.342  -2.739  -4.795  0.00  0.00    -0.204 OA
ATOM      2  C2  BZF d   1       1.843  -3.197  -6.000  0.00  0.00     0.174 A 
ATOM      3  C3  BZF d   1       1.461  -4.486  -5.900  0.00  0.00    -0.012 A 
ATOM      4  C3A BZF d   1       1.651  -4.830  -4.524  0.00  0.00    -0.107 A 
ATOM      5  C4  BZF d   1       1.435  -5.969  -3.803  0.00  0.00     0.055 A 
ATOM      6  C5  BZF d   1       1.795  -6.000  -2.493  0.00  0.00    -0.016 A 
ATOM      7  C6  BZF d   1       2.378  -4.913  -1.875  0.00  0.00     0.022 A 
ATOM      8  C7  BZF d   1       2.607  -3.759  -2.548  0.00  0.00     0.029 A 
ATOM      9  C7A BZF d   1       2.214  -3.714  -3.863  0.00  0.00     0.058 A 
ENDROOT
TORSDOF 0
ENDMDL
