MODEL 1
REMARK minimizedAffinity 19.4991398
REMARK minimizedRMSD -1
REMARK  0 active torsions:
REMARK  status: ('A' for Active; 'I' for Inactive)
ROOT
ATOM      1  O1  BZF d   1      -3.736   5.867   2.986  0.00  0.00    -0.204 OA
ATOM      2  C2  BZF d   1      -4.912   5.998   3.699  0.00  0.00     0.174 A 
ATOM      3  C3  BZF d   1      -5.976   5.998   2.870  0.00  0.00    -0.012 A 
ATOM      4  C3A BZF d   1      -5.437   5.764   1.565  0.00  0.00    -0.107 A 
ATOM      5  C4  BZF d   1      -5.998   5.640   0.326  0.00  0.00     0.055 A 
ATOM      6  C5  BZF d   1      -5.187   5.490  -0.754  0.00  0.00    -0.016 A 
ATOM      7  C6  BZF d   1      -3.813   5.464  -0.632  0.00  0.00     0.022 A 
ATOM      8  C7  BZF d   1      -3.211   5.578   0.577  0.00  0.00     0.029 A 
ATOM      9  C7A BZF d   1      -4.029   5.698   1.674  0.00  0.00     0.058 A 
ENDROOT
TORSDOF 0
ENDMDL
