MODEL 1
REMARK minimizedAffinity 5.63547897
REMARK minimizedRMSD -1
REMARK  0 active torsions:
REMARK  status: ('A' for Active; 'I' for Inactive)
ROOT
ATOM      1  O1  BZF d   1      -0.446   1.251   0.049  0.00  0.00    -0.204 OA
ATOM      2  C2  BZF d   1      -0.598   1.338   1.419  0.00  0.00     0.174 A 
ATOM      3  C3  BZF d   1      -0.528   2.622   1.827  0.00  0.00    -0.012 A 
ATOM      4  C3A BZF d   1      -0.413   3.393   0.628  0.00  0.00    -0.107 A 
ATOM      5  C4  BZF d   1      -0.320   4.732   0.378  0.00  0.00     0.055 A 
ATOM      6  C5  BZF d   1      -0.145   5.154  -0.902  0.00  0.00    -0.016 A 
ATOM      7  C6  BZF d   1      -0.053   4.266  -1.954  0.00  0.00     0.022 A 
ATOM      8  C7  BZF d   1      -0.144   2.929  -1.756  0.00  0.00     0.029 A 
ATOM      9  C7A BZF d   1      -0.354   2.500  -0.468  0.00  0.00     0.058 A 
ENDROOT
TORSDOF 0
ENDMDL
