MODEL 1
REMARK minimizedAffinity 19.0159588
REMARK minimizedRMSD -1
REMARK  0 active torsions:
REMARK  status: ('A' for Active; 'I' for Inactive)
ROOT
ATOM      1  O1  BZF d   1       0.542   4.432  -0.364  0.00  0.00    -0.204 OA
ATOM      2  C2  BZF d   1       0.270   3.195   0.188  0.00  0.00     0.174 A 
ATOM      3  C3  BZF d   1      -0.683   2.555  -0.518  0.00  0.00    -0.012 A 
ATOM      4  C3A BZF d   1      -0.963   3.408  -1.632  0.00  0.00    -0.107 A 
ATOM      5  C4  BZF d   1      -1.810   3.312  -2.699  0.00  0.00     0.055 A 
ATOM      6  C5  BZF d   1      -1.897   4.352  -3.569  0.00  0.00    -0.016 A 
ATOM      7  C6  BZF d   1      -1.157   5.504  -3.400  0.00  0.00     0.022 A 
ATOM      8  C7  BZF d   1      -0.299   5.644  -2.360  0.00  0.00     0.029 A 
ATOM      9  C7A BZF d   1      -0.185   4.581  -1.497  0.00  0.00     0.058 A 
ENDROOT
TORSDOF 0
ENDMDL
