MODEL 1
REMARK minimizedAffinity 10.0754757
REMARK minimizedRMSD -1
REMARK  0 active torsions:
REMARK  status: ('A' for Active; 'I' for Inactive)
ROOT
ATOM      1  O1  BZF d   1       0.523   3.212   0.824  0.00  0.00    -0.204 OA
ATOM      2  C2  BZF d   1      -0.427   2.258   1.133  0.00  0.00     0.174 A 
ATOM      3  C3  BZF d   1      -1.400   2.232   0.200  0.00  0.00    -0.012 A 
ATOM      4  C3A BZF d   1      -0.988   3.168  -0.800  0.00  0.00    -0.107 A 
ATOM      5  C4  BZF d   1      -1.530   3.575  -1.986  0.00  0.00     0.055 A 
ATOM      6  C5  BZF d   1      -0.913   4.560  -2.690  0.00  0.00    -0.016 A 
ATOM      7  C6  BZF d   1       0.242   5.163  -2.237  0.00  0.00     0.022 A 
ATOM      8  C7  BZF d   1       0.820   4.789  -1.069  0.00  0.00     0.029 A 
ATOM      9  C7A BZF d   1       0.217   3.772  -0.371  0.00  0.00     0.058 A 
ENDROOT
TORSDOF 0
ENDMDL
