MODEL 1
REMARK minimizedAffinity 10.3086939
REMARK minimizedRMSD -1
REMARK  0 active torsions:
REMARK  status: ('A' for Active; 'I' for Inactive)
ROOT
ATOM      1  O1  BZF d   1      -1.136   2.783  -2.414  0.00  0.00    -0.204 OA
ATOM      2  C2  BZF d   1      -1.544   3.611  -3.443  0.00  0.00     0.174 A 
ATOM      3  C3  BZF d   1      -1.437   4.907  -3.085  0.00  0.00    -0.012 A 
ATOM      4  C3A BZF d   1      -0.843   4.890  -1.784  0.00  0.00    -0.107 A 
ATOM      5  C4  BZF d   1      -0.471   5.871  -0.909  0.00  0.00     0.055 A 
ATOM      6  C5  BZF d   1       0.012   5.519   0.311  0.00  0.00    -0.016 A 
ATOM      7  C6  BZF d   1       0.131   4.198   0.692  0.00  0.00     0.022 A 
ATOM      8  C7  BZF d   1      -0.220   3.190  -0.143  0.00  0.00     0.029 A 
ATOM      9  C7A BZF d   1      -0.678   3.542  -1.390  0.00  0.00     0.058 A 
ENDROOT
TORSDOF 0
ENDMDL
