MODEL 1
REMARK minimizedAffinity -1.54536653
REMARK minimizedRMSD -1
REMARK  0 active torsions:
REMARK  status: ('A' for Active; 'I' for Inactive)
ROOT
ATOM      1  O1  BZF d   1       0.562   2.368   1.233  0.00  0.00    -0.204 OA
ATOM      2  C2  BZF d   1       0.035   3.170   0.239  0.00  0.00     0.174 A 
ATOM      3  C3  BZF d   1      -1.311   3.089   0.223  0.00  0.00    -0.012 A 
ATOM      4  C3A BZF d   1      -1.651   2.252   1.332  0.00  0.00    -0.107 A 
ATOM      5  C4  BZF d   1      -2.837   1.811   1.847  0.00  0.00     0.055 A 
ATOM      6  C5  BZF d   1      -2.821   0.945   2.895  0.00  0.00    -0.016 A 
ATOM      7  C6  BZF d   1      -1.639   0.496   3.447  0.00  0.00     0.022 A 
ATOM      8  C7  BZF d   1      -0.438   0.909   2.974  0.00  0.00     0.029 A 
ATOM      9  C7A BZF d   1      -0.452   1.810   1.937  0.00  0.00     0.058 A 
ENDROOT
TORSDOF 0
ENDMDL
