MODEL 1
REMARK minimizedAffinity 10.8037968
REMARK minimizedRMSD -1
REMARK  0 active torsions:
REMARK  status: ('A' for Active; 'I' for Inactive)
ROOT
ATOM      1  O1  BZF d   1       0.739   3.202   0.748  0.00  0.00    -0.204 OA
ATOM      2  C2  BZF d   1       0.170   1.944   0.795  0.00  0.00     0.174 A 
ATOM      3  C3  BZF d   1      -0.701   1.775  -0.221  0.00  0.00    -0.012 A 
ATOM      4  C3A BZF d   1      -0.605   2.970  -1.002  0.00  0.00    -0.107 A 
ATOM      5  C4  BZF d   1      -1.214   3.393  -2.149  0.00  0.00     0.055 A 
ATOM      6  C5  BZF d   1      -0.954   4.644  -2.611  0.00  0.00    -0.016 A 
ATOM      7  C6  BZF d   1      -0.096   5.499  -1.950  0.00  0.00     0.022 A 
ATOM      8  C7  BZF d   1       0.534   5.122  -0.811  0.00  0.00     0.029 A 
ATOM      9  C7A BZF d   1       0.299   3.847  -0.359  0.00  0.00     0.058 A 
ENDROOT
TORSDOF 0
ENDMDL
