MODEL 1
REMARK minimizedAffinity 5.79348993
REMARK minimizedRMSD -1
REMARK  0 active torsions:
REMARK  status: ('A' for Active; 'I' for Inactive)
ROOT
ATOM      1  O1  BZF d   1      -1.291   2.174  -0.860  0.00  0.00    -0.204 OA
ATOM      2  C2  BZF d   1      -1.182   1.811   0.469  0.00  0.00     0.174 A 
ATOM      3  C3  BZF d   1      -0.439   2.707   1.150  0.00  0.00    -0.012 A 
ATOM      4  C3A BZF d   1      -0.137   3.740   0.207  0.00  0.00    -0.107 A 
ATOM      5  C4  BZF d   1       0.558   4.913   0.290  0.00  0.00     0.055 A 
ATOM      6  C5  BZF d   1       0.730   5.659  -0.833  0.00  0.00    -0.016 A 
ATOM      7  C6  BZF d   1       0.226   5.261  -2.054  0.00  0.00     0.022 A 
ATOM      8  C7  BZF d   1      -0.474   4.108  -2.184  0.00  0.00     0.029 A 
ATOM      9  C7A BZF d   1      -0.678   3.368  -1.045  0.00  0.00     0.058 A 
ENDROOT
TORSDOF 0
ENDMDL
