MODEL 1
REMARK minimizedAffinity 12.4469252
REMARK minimizedRMSD -1
REMARK  0 active torsions:
REMARK  status: ('A' for Active; 'I' for Inactive)
ROOT
ATOM      1  O1  BZF d   1      -5.638  -4.659   6.000  0.00  0.00    -0.204 OA
ATOM      2  C2  BZF d   1      -5.649  -5.815   5.243  0.00  0.00     0.174 A 
ATOM      3  C3  BZF d   1      -4.694  -5.773   4.292  0.00  0.00    -0.012 A 
ATOM      4  C3A BZF d   1      -3.985  -4.551   4.523  0.00  0.00    -0.107 A 
ATOM      5  C4  BZF d   1      -2.917  -3.956   3.915  0.00  0.00     0.055 A 
ATOM      6  C5  BZF d   1      -2.517  -2.728   4.339  0.00  0.00    -0.016 A 
ATOM      7  C6  BZF d   1      -3.163  -2.066   5.362  0.00  0.00     0.022 A 
ATOM      8  C7  BZF d   1      -4.224  -2.619   5.999  0.00  0.00     0.029 A 
ATOM      9  C7A BZF d   1      -4.611  -3.874   5.595  0.00  0.00     0.058 A 
ENDROOT
TORSDOF 0
ENDMDL
