MODEL 1
REMARK minimizedAffinity 5.88887739
REMARK minimizedRMSD -1
REMARK  0 active torsions:
REMARK  status: ('A' for Active; 'I' for Inactive)
ROOT
ATOM      1  O1  BZF d   1      -1.124   3.002  -2.507  0.00  0.00    -0.204 OA
ATOM      2  C2  BZF d   1      -1.380   4.014  -3.411  0.00  0.00     0.174 A 
ATOM      3  C3  BZF d   1      -0.932   5.198  -2.944  0.00  0.00    -0.012 A 
ATOM      4  C3A BZF d   1      -0.277   4.891  -1.710  0.00  0.00    -0.107 A 
ATOM      5  C4  BZF d   1       0.383   5.648  -0.784  0.00  0.00     0.055 A 
ATOM      6  C5  BZF d   1       0.843   5.054   0.348  0.00  0.00    -0.016 A 
ATOM      7  C6  BZF d   1       0.656   3.709   0.590  0.00  0.00     0.022 A 
ATOM      8  C7  BZF d   1       0.011   2.916  -0.301  0.00  0.00     0.029 A 
ATOM      9  C7A BZF d   1      -0.425   3.507  -1.462  0.00  0.00     0.058 A 
ENDROOT
TORSDOF 0
ENDMDL
