MODEL 1
REMARK minimizedAffinity 8.1739254
REMARK minimizedRMSD -1
REMARK  0 active torsions:
REMARK  status: ('A' for Active; 'I' for Inactive)
ROOT
ATOM      1  O1  BZF d   1      -0.924   1.300   0.948  0.00  0.00    -0.204 OA
ATOM      2  C2  BZF d   1      -0.837   1.751   2.251  0.00  0.00     0.174 A 
ATOM      3  C3  BZF d   1      -0.325   2.998   2.293  0.00  0.00    -0.012 A 
ATOM      4  C3A BZF d   1      -0.163   3.383   0.924  0.00  0.00    -0.107 A 
ATOM      5  C4  BZF d   1       0.290   4.519   0.317  0.00  0.00     0.055 A 
ATOM      6  C5  BZF d   1       0.392   4.548  -1.038  0.00  0.00    -0.016 A 
ATOM      7  C6  BZF d   1       0.056   3.458  -1.815  0.00  0.00     0.022 A 
ATOM      8  C7  BZF d   1      -0.403   2.311  -1.257  0.00  0.00     0.029 A 
ATOM      9  C7A BZF d   1      -0.538   2.291   0.109  0.00  0.00     0.058 A 
ENDROOT
TORSDOF 0
ENDMDL
