MODEL 1
REMARK minimizedAffinity 4.35198069
REMARK minimizedRMSD -1
REMARK  1 active torsions:
REMARK  status: ('A' for Active; 'I' for Inactive)
REMARK    1  A    between atoms: C3_4  and  O_7 
ROOT
ATOM      1  C   UNL d   1       4.701  -1.596  -0.853  0.00  0.00    -0.033 A 
ATOM      2  C1  UNL d   1       3.904  -2.270   0.074  0.00  0.00     0.039 A 
ATOM      3  C2  UNL d   1       4.148  -3.615   0.360  0.00  0.00    -0.080 A 
ATOM      4  C3  UNL d   1       5.191  -4.272  -0.286  0.00  0.00     0.150 A 
ATOM      5  C4  UNL d   1       5.991  -3.606  -1.208  0.00  0.00    -0.007 A 
ATOM      6  C5  UNL d   1       5.745  -2.264  -1.493  0.00  0.00     0.039 A 
ENDROOT
BRANCH   4   7
ATOM      7  O   UNL d   1       5.464  -5.586  -0.043  0.00  0.00    -0.526 OA
ATOM      8  H5  UNL d   1       4.812  -5.923   0.594  0.00  0.00     0.418 HD
ENDBRANCH   4   7
TORSDOF 1
ENDMDL
