MODEL 1
REMARK minimizedAffinity 2.82751036
REMARK minimizedRMSD -1
REMARK  1 active torsions:
REMARK  status: ('A' for Active; 'I' for Inactive)
REMARK    1  A    between atoms: C3_4  and  O_7 
ROOT
ATOM      1  C   UNL d   1      -0.054   2.356   1.373  0.00  0.00    -0.033 A 
ATOM      2  C1  UNL d   1       1.061   1.603   1.002  0.00  0.00     0.039 A 
ATOM      3  C2  UNL d   1       1.518   0.575   1.828  0.00  0.00    -0.080 A 
ATOM      4  C3  UNL d   1       0.851   0.309   3.021  0.00  0.00     0.150 A 
ATOM      5  C4  UNL d   1      -0.264   1.052   3.395  0.00  0.00    -0.007 A 
ATOM      6  C5  UNL d   1      -0.718   2.079   2.569  0.00  0.00     0.039 A 
ENDROOT
BRANCH   4   7
ATOM      7  O   UNL d   1       1.262  -0.682   3.862  0.00  0.00    -0.526 OA
ATOM      8  H5  UNL d   1       2.060  -1.092   3.488  0.00  0.00     0.418 HD
ENDBRANCH   4   7
TORSDOF 1
ENDMDL
