MODEL 1
REMARK minimizedAffinity 11.5812006
REMARK minimizedRMSD -1
REMARK  1 active torsions:
REMARK  status: ('A' for Active; 'I' for Inactive)
REMARK    1  A    between atoms: C3_4  and  O_7 
ROOT
ATOM      1  C   UNL d   1      -0.999   3.728  -0.008  0.00  0.00    -0.033 A 
ATOM      2  C1  UNL d   1      -0.433   4.951  -0.374  0.00  0.00     0.039 A 
ATOM      3  C2  UNL d   1       0.816   5.321   0.127  0.00  0.00    -0.080 A 
ATOM      4  C3  UNL d   1       1.488   4.462   0.991  0.00  0.00     0.150 A 
ATOM      5  C4  UNL d   1       0.932   3.241   1.358  0.00  0.00    -0.007 A 
ATOM      6  C5  UNL d   1      -0.316   2.873   0.857  0.00  0.00     0.039 A 
ENDROOT
BRANCH   4   7
ATOM      7  O   UNL d   1       2.708   4.782   1.510  0.00  0.00    -0.526 OA
ATOM      8  H5  UNL d   1       2.954   5.667   1.192  0.00  0.00     0.418 HD
ENDBRANCH   4   7
TORSDOF 1
ENDMDL
