MODEL 1
REMARK minimizedAffinity 6.72439241
REMARK minimizedRMSD -1
REMARK  1 active torsions:
REMARK  status: ('A' for Active; 'I' for Inactive)
REMARK    1  A    between atoms: C3_4  and  O_7 
ROOT
ATOM      1  C   UNL d   1       2.272  -1.560   0.288  0.00  0.00    -0.033 A 
ATOM      2  C1  UNL d   1       3.142  -0.633  -0.291  0.00  0.00     0.039 A 
ATOM      3  C2  UNL d   1       4.367  -1.054  -0.812  0.00  0.00    -0.080 A 
ATOM      4  C3  UNL d   1       4.709  -2.402  -0.749  0.00  0.00     0.150 A 
ATOM      5  C4  UNL d   1       3.846  -3.331  -0.178  0.00  0.00    -0.007 A 
ATOM      6  C5  UNL d   1       2.623  -2.909   0.343  0.00  0.00     0.039 A 
ENDROOT
BRANCH   4   7
ATOM      7  O   UNL d   1       5.896  -2.860  -1.241  0.00  0.00    -0.526 OA
ATOM      8  H5  UNL d   1       6.401  -2.102  -1.579  0.00  0.00     0.418 HD
ENDBRANCH   4   7
TORSDOF 1
ENDMDL
