MODEL 1
REMARK minimizedAffinity 7.50534439
REMARK minimizedRMSD -1
REMARK  1 active torsions:
REMARK  status: ('A' for Active; 'I' for Inactive)
REMARK    1  A    between atoms: C3_4  and  O_7 
ROOT
ATOM      1  C   UNL d   1      -0.466   4.195  -0.523  0.00  0.00    -0.033 A 
ATOM      2  C1  UNL d   1       0.043   3.262   0.382  0.00  0.00     0.039 A 
ATOM      3  C2  UNL d   1       1.197   3.551   1.112  0.00  0.00    -0.080 A 
ATOM      4  C3  UNL d   1       1.832   4.777   0.929  0.00  0.00     0.150 A 
ATOM      5  C4  UNL d   1       1.329   5.713   0.032  0.00  0.00    -0.007 A 
ATOM      6  C5  UNL d   1       0.177   5.422  -0.697  0.00  0.00     0.039 A 
ENDROOT
BRANCH   4   7
ATOM      7  O   UNL d   1       2.964   5.102   1.616  0.00  0.00    -0.526 OA
ATOM      8  H5  UNL d   1       3.211   4.349   2.177  0.00  0.00     0.418 HD
ENDBRANCH   4   7
TORSDOF 1
ENDMDL
