MODEL 1
REMARK minimizedAffinity 1.14193642
REMARK minimizedRMSD -1
REMARK  1 active torsions:
REMARK  status: ('A' for Active; 'I' for Inactive)
REMARK    1  A    between atoms: C3_4  and  O_7 
ROOT
ATOM      1  C   UNL d   1       0.496   0.776   3.754  0.00  0.00    -0.033 A 
ATOM      2  C1  UNL d   1       1.722   0.383   3.213  0.00  0.00     0.039 A 
ATOM      3  C2  UNL d   1       2.358  -0.768   3.682  0.00  0.00    -0.080 A 
ATOM      4  C3  UNL d   1       1.757  -1.518   4.690  0.00  0.00     0.150 A 
ATOM      5  C4  UNL d   1       0.534  -1.135   5.230  0.00  0.00    -0.007 A 
ATOM      6  C5  UNL d   1      -0.099   0.016   4.761  0.00  0.00     0.039 A 
ENDROOT
BRANCH   4   7
ATOM      7  O   UNL d   1       2.341  -2.647   5.183  0.00  0.00    -0.526 OA
ATOM      8  H5  UNL d   1       3.194  -2.772   4.736  0.00  0.00     0.418 HD
ENDBRANCH   4   7
TORSDOF 1
ENDMDL
