MODEL 1
REMARK minimizedAffinity 5.21143866
REMARK minimizedRMSD -1
REMARK  1 active torsions:
REMARK  status: ('A' for Active; 'I' for Inactive)
REMARK    1  A    between atoms: C3_4  and  O_7 
ROOT
ATOM      1  C   UNL d   1      -0.996   3.617  -0.071  0.00  0.00    -0.033 A 
ATOM      2  C1  UNL d   1      -0.758   4.975  -0.292  0.00  0.00     0.039 A 
ATOM      3  C2  UNL d   1       0.488   5.526   0.012  0.00  0.00    -0.080 A 
ATOM      4  C3  UNL d   1       1.487   4.710   0.535  0.00  0.00     0.150 A 
ATOM      5  C4  UNL d   1       1.258   3.355   0.755  0.00  0.00    -0.007 A 
ATOM      6  C5  UNL d   1       0.013   2.807   0.452  0.00  0.00     0.039 A 
ENDROOT
BRANCH   4   7
ATOM      7  O   UNL d   1       2.718   5.203   0.852  0.00  0.00    -0.526 OA
ATOM      8  H5  UNL d   1       2.721   6.159   0.674  0.00  0.00     0.418 HD
ENDBRANCH   4   7
TORSDOF 1
ENDMDL
