MODEL 1
REMARK minimizedAffinity -1.06132495
REMARK minimizedRMSD -1
REMARK  2 active torsions:
REMARK  status: ('A' for Active; 'I' for Inactive)
REMARK    1  A    between atoms: C1_2  and  C2_3 
REMARK    2  A    between atoms: C2_3  and  C3_4 
ROOT
ATOM      1  C3  UNL d   1       0.885   1.219   0.167  0.00  0.00    -0.075 A 
ATOM      2  C4  UNL d   1       0.748  -0.160  -0.048  0.00  0.00     0.002 A 
ATOM      3  C5  UNL d   1       0.862  -0.692  -1.332  0.00  0.00     0.002 A 
ATOM      4  C6  UNL d   1       1.103   0.147  -2.418  0.00  0.00    -0.004 A 
ATOM      5  C7  UNL d   1       1.225   1.521  -2.219  0.00  0.00     0.002 A 
ATOM      6  C8  UNL d   1       1.115   2.055  -0.934  0.00  0.00     0.002 A 
ENDROOT
BRANCH   1   7
ATOM      7  C2  UNL d   1       0.792   1.798   1.559  0.00  0.00     0.056 C 
BRANCH   7   8
ATOM      8  C1  UNL d   1       2.079   2.475   2.040  0.00  0.00     0.007 C 
ATOM      9  C   UNL d   1       1.995   3.996   2.036  0.00  0.00     0.009 C 
ENDBRANCH   7   8
ENDBRANCH   1   7
TORSDOF 2
ENDMDL
