MODEL 1
REMARK minimizedAffinity 0.760388196
REMARK minimizedRMSD -1
REMARK  2 active torsions:
REMARK  status: ('A' for Active; 'I' for Inactive)
REMARK    1  A    between atoms: C1_2  and  C2_3 
REMARK    2  A    between atoms: C2_3  and  C3_4 
ROOT
ATOM      1  C3  UNL d   1       0.949   2.239   0.160  0.00  0.00    -0.075 A 
ATOM      2  C4  UNL d   1       1.300   1.119   0.927  0.00  0.00     0.002 A 
ATOM      3  C5  UNL d   1       1.742  -0.052   0.311  0.00  0.00     0.002 A 
ATOM      4  C6  UNL d   1       1.829  -0.122  -1.077  0.00  0.00    -0.004 A 
ATOM      5  C7  UNL d   1       1.467   0.979  -1.851  0.00  0.00     0.002 A 
ATOM      6  C8  UNL d   1       1.029   2.153  -1.237  0.00  0.00     0.002 A 
ENDROOT
BRANCH   1   7
ATOM      7  C2  UNL d   1       0.499   3.519   0.822  0.00  0.00     0.056 C 
BRANCH   7   8
ATOM      8  C1  UNL d   1       1.501   4.672   0.697  0.00  0.00     0.007 C 
ATOM      9  C   UNL d   1       1.028   5.781  -0.234  0.00  0.00     0.009 C 
ENDBRANCH   7   8
ENDBRANCH   1   7
TORSDOF 2
ENDMDL
