MODEL 1
REMARK minimizedAffinity -0.422596693
REMARK minimizedRMSD -1
REMARK  2 active torsions:
REMARK  status: ('A' for Active; 'I' for Inactive)
REMARK    1  A    between atoms: C1_2  and  C2_3 
REMARK    2  A    between atoms: C2_3  and  C3_4 
ROOT
ATOM      1  C3  UNL d   1       1.293   0.599  -1.144  0.00  0.00    -0.075 A 
ATOM      2  C4  UNL d   1       1.176   0.629   0.254  0.00  0.00     0.002 A 
ATOM      3  C5  UNL d   1       0.836   1.811   0.911  0.00  0.00     0.002 A 
ATOM      4  C6  UNL d   1       0.620   2.979   0.182  0.00  0.00    -0.004 A 
ATOM      5  C7  UNL d   1       0.751   2.965  -1.205  0.00  0.00     0.002 A 
ATOM      6  C8  UNL d   1       1.086   1.782  -1.865  0.00  0.00     0.002 A 
ENDROOT
BRANCH   1   7
ATOM      7  C2  UNL d   1       1.632  -0.685  -1.863  0.00  0.00     0.056 C 
BRANCH   7   8
ATOM      8  C1  UNL d   1       1.620  -0.566  -3.391  0.00  0.00     0.007 C 
ATOM      9  C   UNL d   1       1.880  -1.889  -4.098  0.00  0.00     0.009 C 
ENDBRANCH   7   8
ENDBRANCH   1   7
TORSDOF 2
ENDMDL
