MODEL 1
REMARK minimizedAffinity 0.0165599864
REMARK minimizedRMSD -1
REMARK  2 active torsions:
REMARK  status: ('A' for Active; 'I' for Inactive)
REMARK    1  A    between atoms: C1_2  and  C2_3 
REMARK    2  A    between atoms: C2_3  and  C3_4 
ROOT
ATOM      1  C3  UNL d   1       1.121   2.192  -0.796  0.00  0.00    -0.075 A 
ATOM      2  C4  UNL d   1       1.513   2.010   0.539  0.00  0.00     0.002 A 
ATOM      3  C5  UNL d   1       1.549   0.732   1.098  0.00  0.00     0.002 A 
ATOM      4  C6  UNL d   1       1.185  -0.375   0.336  0.00  0.00    -0.004 A 
ATOM      5  C7  UNL d   1       0.778  -0.204  -0.985  0.00  0.00     0.002 A 
ATOM      6  C8  UNL d   1       0.745   1.072  -1.549  0.00  0.00     0.002 A 
ENDROOT
BRANCH   1   7
ATOM      7  C2  UNL d   1       1.109   3.569  -1.416  0.00  0.00     0.056 C 
BRANCH   7   8
ATOM      8  C1  UNL d   1       1.479   4.694  -0.444  0.00  0.00     0.007 C 
ATOM      9  C   UNL d   1       1.833   6.000  -1.144  0.00  0.00     0.009 C 
ENDBRANCH   7   8
ENDBRANCH   1   7
TORSDOF 2
ENDMDL
