MODEL 1
REMARK minimizedAffinity 0.431229711
REMARK minimizedRMSD -1
REMARK  2 active torsions:
REMARK  status: ('A' for Active; 'I' for Inactive)
REMARK    1  A    between atoms: C1_2  and  C2_3 
REMARK    2  A    between atoms: C2_3  and  C3_4 
ROOT
ATOM      1  C3  UNL d   1       1.645   0.275  -0.571  0.00  0.00    -0.075 A 
ATOM      2  C4  UNL d   1       1.950   0.691  -1.875  0.00  0.00     0.002 A 
ATOM      3  C5  UNL d   1       1.552   1.948  -2.329  0.00  0.00     0.002 A 
ATOM      4  C6  UNL d   1       0.836   2.800  -1.491  0.00  0.00    -0.004 A 
ATOM      5  C7  UNL d   1       0.513   2.391  -0.199  0.00  0.00     0.002 A 
ATOM      6  C8  UNL d   1       0.914   1.135   0.259  0.00  0.00     0.002 A 
ENDROOT
BRANCH   1   7
ATOM      7  C2  UNL d   1       2.098  -1.073  -0.063  0.00  0.00     0.056 C 
BRANCH   7   8
ATOM      8  C1  UNL d   1       3.620  -1.246  -0.026  0.00  0.00     0.007 C 
ATOM      9  C   UNL d   1       4.059  -2.704   0.002  0.00  0.00     0.009 C 
ENDBRANCH   7   8
ENDBRANCH   1   7
TORSDOF 2
ENDMDL
