MODEL 1
REMARK minimizedAffinity 11.8873625
REMARK minimizedRMSD -1
REMARK  2 active torsions:
REMARK  status: ('A' for Active; 'I' for Inactive)
REMARK    1  A    between atoms: C1_2  and  C2_3 
REMARK    2  A    between atoms: C2_3  and  C3_4 
ROOT
ATOM      1  C3  UNL d   1       1.837   1.312   0.023  0.00  0.00    -0.075 A 
ATOM      2  C4  UNL d   1       1.486   2.617  -0.351  0.00  0.00     0.002 A 
ATOM      3  C5  UNL d   1       0.840   2.857  -1.564  0.00  0.00     0.002 A 
ATOM      4  C6  UNL d   1       0.546   1.799  -2.421  0.00  0.00    -0.004 A 
ATOM      5  C7  UNL d   1       0.904   0.500  -2.067  0.00  0.00     0.002 A 
ATOM      6  C8  UNL d   1       1.547   0.257  -0.852  0.00  0.00     0.002 A 
ENDROOT
BRANCH   1   7
ATOM      7  C2  UNL d   1       2.510   1.043   1.348  0.00  0.00     0.056 C 
BRANCH   7   8
ATOM      8  C1  UNL d   1       3.699   0.080   1.259  0.00  0.00     0.007 C 
ATOM      9  C   UNL d   1       4.838   0.610   0.398  0.00  0.00     0.009 C 
ENDBRANCH   7   8
ENDBRANCH   1   7
TORSDOF 2
ENDMDL
