MODEL 1
REMARK minimizedAffinity 0.43095991
REMARK minimizedRMSD -1
REMARK  2 active torsions:
REMARK  status: ('A' for Active; 'I' for Inactive)
REMARK    1  A    between atoms: C1_2  and  C2_3 
REMARK    2  A    between atoms: C2_3  and  C3_4 
ROOT
ATOM      1  C3  UNL d   1       0.992   2.342  -1.053  0.00  0.00    -0.075 A 
ATOM      2  C4  UNL d   1       1.301   2.077   0.289  0.00  0.00     0.002 A 
ATOM      3  C5  UNL d   1       1.514   0.768   0.722  0.00  0.00     0.002 A 
ATOM      4  C6  UNL d   1       1.411  -0.291  -0.176  0.00  0.00    -0.004 A 
ATOM      5  C7  UNL d   1       1.088  -0.042  -1.508  0.00  0.00     0.002 A 
ATOM      6  C8  UNL d   1       0.879   1.267  -1.945  0.00  0.00     0.002 A 
ENDROOT
BRANCH   1   7
ATOM      7  C2  UNL d   1       0.790   3.759  -1.534  0.00  0.00     0.056 C 
BRANCH   7   8
ATOM      8  C1  UNL d   1       1.202   4.828  -0.517  0.00  0.00     0.007 C 
ATOM      9  C   UNL d   1       1.944   6.000  -1.145  0.00  0.00     0.009 C 
ENDBRANCH   7   8
ENDBRANCH   1   7
TORSDOF 2
ENDMDL
