MODEL 1
REMARK minimizedAffinity -3.94377995
REMARK minimizedRMSD -1
REMARK  2 active torsions:
REMARK  status: ('A' for Active; 'I' for Inactive)
REMARK    1  A    between atoms: C1_2  and  C2_3 
REMARK    2  A    between atoms: C2_3  and  C3_4 
ROOT
ATOM      1  C3  UNL d   1       0.992   2.456  -0.706  0.00  0.00    -0.075 A 
ATOM      2  C4  UNL d   1       1.667   1.499  -1.476  0.00  0.00     0.002 A 
ATOM      3  C5  UNL d   1       1.868   0.208  -0.986  0.00  0.00     0.002 A 
ATOM      4  C6  UNL d   1       1.407  -0.138   0.283  0.00  0.00    -0.004 A 
ATOM      5  C7  UNL d   1       0.750   0.811   1.064  0.00  0.00     0.002 A 
ATOM      6  C8  UNL d   1       0.544   2.101   0.574  0.00  0.00     0.002 A 
ENDROOT
BRANCH   1   7
ATOM      7  C2  UNL d   1       0.746   3.846  -1.243  0.00  0.00     0.056 C 
BRANCH   7   8
ATOM      8  C1  UNL d   1       1.127   4.967  -0.270  0.00  0.00     0.007 C 
ATOM      9  C   UNL d   1       2.067   5.998  -0.881  0.00  0.00     0.009 C 
ENDBRANCH   7   8
ENDBRANCH   1   7
TORSDOF 2
ENDMDL
