MODEL 1
REMARK minimizedAffinity 4.07709742
REMARK minimizedRMSD -1
REMARK  2 active torsions:
REMARK  status: ('A' for Active; 'I' for Inactive)
REMARK    1  A    between atoms: C1_2  and  C2_3 
REMARK    2  A    between atoms: C2_3  and  C3_4 
ROOT
ATOM      1  C3  UNL d   1       1.091   1.339   0.055  0.00  0.00    -0.075 A 
ATOM      2  C4  UNL d   1       1.310   0.056  -0.468  0.00  0.00     0.002 A 
ATOM      3  C5  UNL d   1       1.285  -0.160  -1.846  0.00  0.00     0.002 A 
ATOM      4  C6  UNL d   1       1.032   0.899  -2.716  0.00  0.00    -0.004 A 
ATOM      5  C7  UNL d   1       0.797   2.174  -2.206  0.00  0.00     0.002 A 
ATOM      6  C8  UNL d   1       0.826   2.394  -0.828  0.00  0.00     0.002 A 
ENDROOT
BRANCH   1   7
ATOM      7  C2  UNL d   1       1.146   1.585   1.544  0.00  0.00     0.056 C 
BRANCH   7   8
ATOM      8  C1  UNL d   1       0.256   2.739   2.019  0.00  0.00     0.007 C 
ATOM      9  C   UNL d   1      -0.988   2.272   2.762  0.00  0.00     0.009 C 
ENDBRANCH   7   8
ENDBRANCH   1   7
TORSDOF 2
ENDMDL
