MODEL 1
REMARK minimizedAffinity 4.52122879
REMARK minimizedRMSD -1
REMARK  2 active torsions:
REMARK  status: ('A' for Active; 'I' for Inactive)
REMARK    1  A    between atoms: C1_2  and  C2_3 
REMARK    2  A    between atoms: C2_3  and  C3_4 
ROOT
ATOM      1  C3  UNL d   1       1.147   2.419  -1.140  0.00  0.00    -0.075 A 
ATOM      2  C4  UNL d   1       0.851   2.302   0.226  0.00  0.00     0.002 A 
ATOM      3  C5  UNL d   1       0.944   1.066   0.867  0.00  0.00     0.002 A 
ATOM      4  C6  UNL d   1       1.325  -0.067   0.151  0.00  0.00    -0.004 A 
ATOM      5  C7  UNL d   1       1.605   0.036  -1.210  0.00  0.00     0.002 A 
ATOM      6  C8  UNL d   1       1.517   1.271  -1.853  0.00  0.00     0.002 A 
ENDROOT
BRANCH   1   7
ATOM      7  C2  UNL d   1       1.076   3.759  -1.833  0.00  0.00     0.056 C 
BRANCH   7   8
ATOM      8  C1  UNL d   1       1.136   4.958  -0.881  0.00  0.00     0.007 C 
ATOM      9  C   UNL d   1       2.174   5.995  -1.287  0.00  0.00     0.009 C 
ENDBRANCH   7   8
ENDBRANCH   1   7
TORSDOF 2
ENDMDL
