MODEL 1
REMARK minimizedAffinity 5.05206347
REMARK minimizedRMSD -1
REMARK  2 active torsions:
REMARK  status: ('A' for Active; 'I' for Inactive)
REMARK    1  A    between atoms: C1_2  and  C2_3 
REMARK    2  A    between atoms: C2_3  and  C3_4 
ROOT
ATOM      1  C3  UNL d   1      -2.594   1.119   4.372  0.00  0.00    -0.075 A 
ATOM      2  C4  UNL d   1      -1.882   2.291   4.080  0.00  0.00     0.002 A 
ATOM      3  C5  UNL d   1      -2.104   2.976   2.885  0.00  0.00     0.002 A 
ATOM      4  C6  UNL d   1      -3.031   2.493   1.964  0.00  0.00    -0.004 A 
ATOM      5  C7  UNL d   1      -3.732   1.321   2.236  0.00  0.00     0.002 A 
ATOM      6  C8  UNL d   1      -3.515   0.636   3.433  0.00  0.00     0.002 A 
ENDROOT
BRANCH   1   7
ATOM      7  C2  UNL d   1      -2.380   0.389   5.677  0.00  0.00     0.056 C 
BRANCH   7   8
ATOM      8  C1  UNL d   1      -3.462  -0.648   5.996  0.00  0.00     0.007 C 
ATOM      9  C   UNL d   1      -2.940  -2.078   6.000  0.00  0.00     0.009 C 
ENDBRANCH   7   8
ENDBRANCH   1   7
TORSDOF 2
ENDMDL
