MODEL 1
REMARK minimizedAffinity -3.46764779
REMARK minimizedRMSD -1
REMARK  2 active torsions:
REMARK  status: ('A' for Active; 'I' for Inactive)
REMARK    1  A    between atoms: C1_2  and  C2_3 
REMARK    2  A    between atoms: C2_3  and  C3_4 
ROOT
ATOM      1  C3  UNL d   1       0.991   2.438  -0.676  0.00  0.00    -0.075 A 
ATOM      2  C4  UNL d   1       0.975   2.563   0.720  0.00  0.00     0.002 A 
ATOM      3  C5  UNL d   1       0.848   1.435   1.531  0.00  0.00     0.002 A 
ATOM      4  C6  UNL d   1       0.726   0.171   0.958  0.00  0.00    -0.004 A 
ATOM      5  C7  UNL d   1       0.724   0.037  -0.429  0.00  0.00     0.002 A 
ATOM      6  C8  UNL d   1       0.855   1.163  -1.242  0.00  0.00     0.002 A 
ENDROOT
BRANCH   1   7
ATOM      7  C2  UNL d   1       1.157   3.652  -1.559  0.00  0.00     0.056 C 
BRANCH   7   8
ATOM      8  C1  UNL d   1       0.789   4.974  -0.878  0.00  0.00     0.007 C 
ATOM      9  C   UNL d   1       1.913   6.000  -0.911  0.00  0.00     0.009 C 
ENDBRANCH   7   8
ENDBRANCH   1   7
TORSDOF 2
ENDMDL
