MODEL 1
REMARK minimizedAffinity 2.48720241
REMARK minimizedRMSD -1
REMARK  2 active torsions:
REMARK  status: ('A' for Active; 'I' for Inactive)
REMARK    1  A    between atoms: C1_2  and  C2_3 
REMARK    2  A    between atoms: C2_3  and  C3_4 
ROOT
ATOM      1  C3  UNL d   1       1.082   2.229  -1.295  0.00  0.00    -0.075 A 
ATOM      2  C4  UNL d   1       1.840   1.170  -1.815  0.00  0.00     0.002 A 
ATOM      3  C5  UNL d   1       1.879  -0.061  -1.161  0.00  0.00     0.002 A 
ATOM      4  C6  UNL d   1       1.172  -0.246   0.025  0.00  0.00    -0.004 A 
ATOM      5  C7  UNL d   1       0.429   0.804   0.560  0.00  0.00     0.002 A 
ATOM      6  C8  UNL d   1       0.384   2.036  -0.095  0.00  0.00     0.002 A 
ENDROOT
BRANCH   1   7
ATOM      7  C2  UNL d   1       1.011   3.555  -2.014  0.00  0.00     0.056 C 
BRANCH   7   8
ATOM      8  C1  UNL d   1       0.952   4.769  -1.081  0.00  0.00     0.007 C 
ATOM      9  C   UNL d   1       1.657   5.995  -1.645  0.00  0.00     0.009 C 
ENDBRANCH   7   8
ENDBRANCH   1   7
TORSDOF 2
ENDMDL
