MODEL 1
REMARK minimizedAffinity -1.66620028
REMARK minimizedRMSD -1
REMARK  0 active torsions:
REMARK  status: ('A' for Active; 'I' for Inactive)
ROOT
ATOM      1  C   UNL d   1       2.336  -0.853  -1.489  0.00  0.00     0.124 A 
ATOM      2  C1  UNL d   1       1.916   0.441  -1.212  0.00  0.00     0.062 A 
ATOM      3  C2  UNL d   1       0.936   0.667  -0.250  0.00  0.00     0.162 A 
ATOM      4  C3  UNL d   1       0.370  -0.403   0.444  0.00  0.00    -0.034 A 
ATOM      5  C4  UNL d   1       0.797  -1.701   0.159  0.00  0.00     0.162 A 
ATOM      6  C5  UNL d   1       1.777  -1.922  -0.804  0.00  0.00     0.062 A 
ATOM      7  F   UNL d   1       2.182  -3.172  -1.070  0.00  0.00    -0.097 F 
ATOM      8  F1  UNL d   1       0.274  -2.752   0.807  0.00  0.00    -0.096 F 
ATOM      9  I   UNL d   1      -1.095  -0.068   1.884  0.00  0.00    -0.060 I 
ATOM     10  F2  UNL d   1       0.549   1.927  -0.002  0.00  0.00    -0.096 F 
ATOM     11  F3  UNL d   1       2.454   1.475  -1.874  0.00  0.00    -0.097 F 
ATOM     12  F4  UNL d   1       3.278  -1.068  -2.416  0.00  0.00    -0.092 F 
ENDROOT
TORSDOF 0
ENDMDL
