MODEL 1
REMARK minimizedAffinity -2.16113186
REMARK minimizedRMSD -1
REMARK  0 active torsions:
REMARK  status: ('A' for Active; 'I' for Inactive)
ROOT
ATOM      1  C   UNL d   1       2.050  -1.121  -1.576  0.00  0.00     0.124 A 
ATOM      2  C1  UNL d   1       1.712   0.222  -1.484  0.00  0.00     0.062 A 
ATOM      3  C2  UNL d   1       0.717   0.633  -0.602  0.00  0.00     0.162 A 
ATOM      4  C3  UNL d   1       0.054  -0.299   0.196  0.00  0.00    -0.034 A 
ATOM      5  C4  UNL d   1       0.399  -1.648   0.097  0.00  0.00     0.162 A 
ATOM      6  C5  UNL d   1       1.394  -2.054  -0.786  0.00  0.00     0.062 A 
ATOM      7  F   UNL d   1       1.720  -3.352  -0.874  0.00  0.00    -0.097 F 
ATOM      8  F1  UNL d   1      -0.218  -2.571   0.850  0.00  0.00    -0.096 F 
ATOM      9  I   UNL d   1      -1.434   0.313   1.517  0.00  0.00    -0.060 I 
ATOM     10  F2  UNL d   1       0.410   1.937  -0.533  0.00  0.00    -0.096 F 
ATOM     11  F3  UNL d   1       2.344   1.125  -2.247  0.00  0.00    -0.097 F 
ATOM     12  F4  UNL d   1       3.007  -1.515  -2.427  0.00  0.00    -0.092 F 
ENDROOT
TORSDOF 0
ENDMDL
