MODEL 1
REMARK minimizedAffinity -0.548041344
REMARK minimizedRMSD -1
REMARK  0 active torsions:
REMARK  status: ('A' for Active; 'I' for Inactive)
ROOT
ATOM      1  C   UNL d   1      -3.004   0.674   1.464  0.00  0.00     0.124 A 
ATOM      2  C1  UNL d   1      -1.830   0.202   2.036  0.00  0.00     0.062 A 
ATOM      3  C2  UNL d   1      -0.618   0.352   1.369  0.00  0.00     0.162 A 
ATOM      4  C3  UNL d   1      -0.572   0.978   0.123  0.00  0.00    -0.034 A 
ATOM      5  C4  UNL d   1      -1.757   1.449  -0.445  0.00  0.00     0.162 A 
ATOM      6  C5  UNL d   1      -2.966   1.297   0.225  0.00  0.00     0.062 A 
ATOM      7  F   UNL d   1      -4.099   1.753  -0.328  0.00  0.00    -0.097 F 
ATOM      8  F1  UNL d   1      -1.749   2.056  -1.641  0.00  0.00    -0.096 F 
ATOM      9  I   UNL d   1       1.239   1.204  -0.877  0.00  0.00    -0.060 I 
ATOM     10  F2  UNL d   1       0.501  -0.114   1.945  0.00  0.00    -0.096 F 
ATOM     11  F3  UNL d   1      -1.864  -0.402   3.232  0.00  0.00    -0.097 F 
ATOM     12  F4  UNL d   1      -4.169   0.527   2.108  0.00  0.00    -0.092 F 
ENDROOT
TORSDOF 0
ENDMDL
