MODEL 1
REMARK minimizedAffinity 5.84253502
REMARK minimizedRMSD -1
REMARK  0 active torsions:
REMARK  status: ('A' for Active; 'I' for Inactive)
ROOT
ATOM      1  C   UNL d   1      -0.165   0.563   0.904  0.00  0.00     0.124 A 
ATOM      2  C1  UNL d   1      -0.264  -0.790   0.611  0.00  0.00     0.062 A 
ATOM      3  C2  UNL d   1       0.553  -1.357  -0.362  0.00  0.00     0.162 A 
ATOM      4  C3  UNL d   1       1.478  -0.571  -1.049  0.00  0.00    -0.034 A 
ATOM      5  C4  UNL d   1       1.571   0.789  -0.750  0.00  0.00     0.162 A 
ATOM      6  C5  UNL d   1       0.752   1.351   0.223  0.00  0.00     0.062 A 
ATOM      7  F   UNL d   1       0.849   2.659   0.505  0.00  0.00    -0.097 F 
ATOM      8  F1  UNL d   1       2.450   1.574  -1.392  0.00  0.00    -0.096 F 
ATOM      9  I   UNL d   1       2.703  -1.415  -2.505  0.00  0.00    -0.060 I 
ATOM     10  F2  UNL d   1       0.436  -2.667  -0.624  0.00  0.00    -0.096 F 
ATOM     11  F3  UNL d   1      -1.150  -1.553   1.267  0.00  0.00    -0.097 F 
ATOM     12  F4  UNL d   1      -0.954   1.107   1.840  0.00  0.00    -0.092 F 
ENDROOT
TORSDOF 0
ENDMDL
