MODEL 1
REMARK minimizedAffinity 2.43125319
REMARK minimizedRMSD -1
REMARK  0 active torsions:
REMARK  status: ('A' for Active; 'I' for Inactive)
ROOT
ATOM      1  C   UNL d   1       1.528  -0.224  -1.171  0.00  0.00     0.124 A 
ATOM      2  C1  UNL d   1       0.807  -1.199  -0.495  0.00  0.00     0.062 A 
ATOM      3  C2  UNL d   1      -0.160  -0.835   0.437  0.00  0.00     0.162 A 
ATOM      4  C3  UNL d   1      -0.413   0.511   0.699  0.00  0.00    -0.034 A 
ATOM      5  C4  UNL d   1       0.316   1.486   0.016  0.00  0.00     0.162 A 
ATOM      6  C5  UNL d   1       1.282   1.117  -0.914  0.00  0.00     0.062 A 
ATOM      7  F   UNL d   1       1.978   2.061  -1.566  0.00  0.00    -0.097 F 
ATOM      8  F1  UNL d   1       0.099   2.790   0.244  0.00  0.00    -0.096 F 
ATOM      9  I   UNL d   1      -1.859   1.060   2.092  0.00  0.00    -0.060 I 
ATOM     10  F2  UNL d   1      -0.842  -1.798   1.074  0.00  0.00    -0.096 F 
ATOM     11  F3  UNL d   1       1.043  -2.496  -0.741  0.00  0.00    -0.097 F 
ATOM     12  F4  UNL d   1       2.459  -0.578  -2.067  0.00  0.00    -0.092 F 
ENDROOT
TORSDOF 0
ENDMDL
