MODEL 1
REMARK minimizedAffinity 0.707657218
REMARK minimizedRMSD -1
REMARK  0 active torsions:
REMARK  status: ('A' for Active; 'I' for Inactive)
ROOT
ATOM      1  C   UNL d   1       1.625  -0.563  -1.331  0.00  0.00     0.124 A 
ATOM      2  C1  UNL d   1       0.729  -1.500  -0.834  0.00  0.00     0.062 A 
ATOM      3  C2  UNL d   1      -0.335  -1.094  -0.034  0.00  0.00     0.162 A 
ATOM      4  C3  UNL d   1      -0.510   0.255   0.274  0.00  0.00    -0.034 A 
ATOM      5  C4  UNL d   1       0.396   1.191  -0.228  0.00  0.00     0.162 A 
ATOM      6  C5  UNL d   1       1.458   0.781  -1.028  0.00  0.00     0.062 A 
ATOM      7  F   UNL d   1       2.323   1.687  -1.507  0.00  0.00    -0.097 F 
ATOM      8  F1  UNL d   1       0.257   2.496   0.048  0.00  0.00    -0.096 F 
ATOM      9  I   UNL d   1      -2.100   0.865   1.470  0.00  0.00    -0.060 I 
ATOM     10  F2  UNL d   1      -1.186  -2.021   0.432  0.00  0.00    -0.096 F 
ATOM     11  F3  UNL d   1       0.889  -2.799  -1.125  0.00  0.00    -0.097 F 
ATOM     12  F4  UNL d   1       2.649  -0.956  -2.100  0.00  0.00    -0.092 F 
ENDROOT
TORSDOF 0
ENDMDL
