MODEL 1
REMARK minimizedAffinity 1.53157437
REMARK minimizedRMSD -1
REMARK  0 active torsions:
REMARK  status: ('A' for Active; 'I' for Inactive)
ROOT
ATOM      1  C   UNL d   1       1.283  -0.599  -0.832  0.00  0.00     0.124 A 
ATOM      2  C1  UNL d   1       0.958   0.747  -0.735  0.00  0.00     0.062 A 
ATOM      3  C2  UNL d   1      -0.030   1.166   0.150  0.00  0.00     0.162 A 
ATOM      4  C3  UNL d   1      -0.702   0.238   0.947  0.00  0.00    -0.034 A 
ATOM      5  C4  UNL d   1      -0.370  -1.114   0.842  0.00  0.00     0.162 A 
ATOM      6  C5  UNL d   1       0.619  -1.528  -0.044  0.00  0.00     0.062 A 
ATOM      7  F   UNL d   1       0.931  -2.828  -0.137  0.00  0.00    -0.097 F 
ATOM      8  F1  UNL d   1      -0.995  -2.033   1.593  0.00  0.00    -0.096 F 
ATOM      9  I   UNL d   1      -2.181   0.861   2.272  0.00  0.00    -0.060 I 
ATOM     10  F2  UNL d   1      -0.324   2.473   0.224  0.00  0.00    -0.096 F 
ATOM     11  F3  UNL d   1       1.598   1.647  -1.496  0.00  0.00    -0.097 F 
ATOM     12  F4  UNL d   1       2.234  -0.999  -1.686  0.00  0.00    -0.092 F 
ENDROOT
TORSDOF 0
ENDMDL
