MODEL 1
REMARK minimizedAffinity -3.11062813
REMARK minimizedRMSD -1
REMARK  0 active torsions:
REMARK  status: ('A' for Active; 'I' for Inactive)
ROOT
ATOM      1  C   UNL d   1       1.735  -0.977  -2.364  0.00  0.00     0.124 A 
ATOM      2  C1  UNL d   1       1.232  -1.902  -1.460  0.00  0.00     0.062 A 
ATOM      3  C2  UNL d   1       0.600  -1.471  -0.297  0.00  0.00     0.162 A 
ATOM      4  C3  UNL d   1       0.466  -0.108  -0.032  0.00  0.00    -0.034 A 
ATOM      5  C4  UNL d   1       0.976   0.816  -0.946  0.00  0.00     0.162 A 
ATOM      6  C5  UNL d   1       1.606   0.381  -2.107  0.00  0.00     0.062 A 
ATOM      7  F   UNL d   1       2.091   1.276  -2.979  0.00  0.00    -0.097 F 
ATOM      8  F1  UNL d   1       0.864   2.134  -0.722  0.00  0.00    -0.096 F 
ATOM      9  I   UNL d   1      -0.477   0.540   1.706  0.00  0.00    -0.060 I 
ATOM     10  F2  UNL d   1       0.124  -2.387   0.560  0.00  0.00    -0.096 F 
ATOM     11  F3  UNL d   1       1.355  -3.214  -1.706  0.00  0.00    -0.097 F 
ATOM     12  F4  UNL d   1       2.343  -1.394  -3.482  0.00  0.00    -0.092 F 
ENDROOT
TORSDOF 0
ENDMDL
