MODEL 1
REMARK minimizedAffinity 0.100011513
REMARK minimizedRMSD -1
REMARK  0 active torsions:
REMARK  status: ('A' for Active; 'I' for Inactive)
ROOT
ATOM      1  C   UNL d   1       1.291  -0.031  -0.984  0.00  0.00     0.124 A 
ATOM      2  C1  UNL d   1       0.729  -0.999  -0.163  0.00  0.00     0.062 A 
ATOM      3  C2  UNL d   1      -0.267  -0.653   0.746  0.00  0.00     0.162 A 
ATOM      4  C3  UNL d   1      -0.708   0.666   0.839  0.00  0.00    -0.034 A 
ATOM      5  C4  UNL d   1      -0.138   1.635   0.011  0.00  0.00     0.162 A 
ATOM      6  C5  UNL d   1       0.857   1.284  -0.897  0.00  0.00     0.062 A 
ATOM      7  F   UNL d   1       1.398   2.221  -1.689  0.00  0.00    -0.097 F 
ATOM      8  F1  UNL d   1      -0.539   2.913   0.073  0.00  0.00    -0.096 F 
ATOM      9  I   UNL d   1      -2.197   1.187   2.197  0.00  0.00    -0.060 I 
ATOM     10  F2  UNL d   1      -0.792  -1.609   1.527  0.00  0.00    -0.096 F 
ATOM     11  F3  UNL d   1       1.147  -2.270  -0.245  0.00  0.00    -0.097 F 
ATOM     12  F4  UNL d   1       2.249  -0.366  -1.857  0.00  0.00    -0.092 F 
ENDROOT
TORSDOF 0
ENDMDL
