MODEL 1
REMARK minimizedAffinity -1.73419797
REMARK minimizedRMSD -1
REMARK  0 active torsions:
REMARK  status: ('A' for Active; 'I' for Inactive)
ROOT
ATOM      1  C   UNL d   1       2.074  -0.753  -1.473  0.00  0.00     0.124 A 
ATOM      2  C1  UNL d   1       1.686   0.568  -1.297  0.00  0.00     0.062 A 
ATOM      3  C2  UNL d   1       0.715   0.893  -0.354  0.00  0.00     0.162 A 
ATOM      4  C3  UNL d   1       0.125  -0.105   0.421  0.00  0.00    -0.034 A 
ATOM      5  C4  UNL d   1       0.519  -1.432   0.238  0.00  0.00     0.162 A 
ATOM      6  C5  UNL d   1       1.490  -1.751  -0.705  0.00  0.00     0.062 A 
ATOM      7  F   UNL d   1       1.864  -3.028  -0.874  0.00  0.00    -0.097 F 
ATOM      8  F1  UNL d   1      -0.027  -2.416   0.967  0.00  0.00    -0.096 F 
ATOM      9  I   UNL d   1      -1.328   0.376   1.832  0.00  0.00    -0.060 I 
ATOM     10  F2  UNL d   1       0.359   2.178  -0.205  0.00  0.00    -0.096 F 
ATOM     11  F3  UNL d   1       2.247   1.535  -2.037  0.00  0.00    -0.097 F 
ATOM     12  F4  UNL d   1       3.008  -1.063  -2.381  0.00  0.00    -0.092 F 
ENDROOT
TORSDOF 0
ENDMDL
