MODEL 1
REMARK minimizedAffinity 6.92391586
REMARK minimizedRMSD -1
REMARK  0 active torsions:
REMARK  status: ('A' for Active; 'I' for Inactive)
ROOT
ATOM      1  C   UNL d   1       0.743  -1.599  -0.662  0.00  0.00     0.124 A 
ATOM      2  C1  UNL d   1      -0.221  -0.928   0.077  0.00  0.00     0.062 A 
ATOM      3  C2  UNL d   1      -0.107   0.442   0.297  0.00  0.00     0.162 A 
ATOM      4  C3  UNL d   1       0.976   1.150  -0.224  0.00  0.00    -0.034 A 
ATOM      5  C4  UNL d   1       1.943   0.468  -0.965  0.00  0.00     0.162 A 
ATOM      6  C5  UNL d   1       1.824  -0.901  -1.183  0.00  0.00     0.062 A 
ATOM      7  F   UNL d   1       2.756  -1.548  -1.897  0.00  0.00    -0.097 F 
ATOM      8  F1  UNL d   1       2.996   1.118  -1.481  0.00  0.00    -0.096 F 
ATOM      9  I   UNL d   1       1.151   3.198   0.103  0.00  0.00    -0.060 I 
ATOM     10  F2  UNL d   1      -1.053   1.064   1.015  0.00  0.00    -0.096 F 
ATOM     11  F3  UNL d   1      -1.265  -1.601   0.582  0.00  0.00    -0.097 F 
ATOM     12  F4  UNL d   1       0.631  -2.917  -0.872  0.00  0.00    -0.092 F 
ENDROOT
TORSDOF 0
ENDMDL
