MODEL 1
REMARK minimizedAffinity -1.83926463
REMARK minimizedRMSD -1
REMARK  0 active torsions:
REMARK  status: ('A' for Active; 'I' for Inactive)
ROOT
ATOM      1  C   UNL d   1       1.651   0.986  -1.061  0.00  0.00     0.124 A 
ATOM      2  C1  UNL d   1       1.263   1.290   0.236  0.00  0.00     0.062 A 
ATOM      3  C2  UNL d   1       0.106   0.730   0.770  0.00  0.00     0.162 A 
ATOM      4  C3  UNL d   1      -0.672  -0.140   0.007  0.00  0.00    -0.034 A 
ATOM      5  C4  UNL d   1      -0.275  -0.441  -1.298  0.00  0.00     0.162 A 
ATOM      6  C5  UNL d   1       0.882   0.122  -1.827  0.00  0.00     0.062 A 
ATOM      7  F   UNL d   1       1.255  -0.173  -3.080  0.00  0.00    -0.097 F 
ATOM      8  F1  UNL d   1      -1.000  -1.274  -2.059  0.00  0.00    -0.096 F 
ATOM      9  I   UNL d   1      -2.403  -0.979   0.802  0.00  0.00    -0.060 I 
ATOM     10  F2  UNL d   1      -0.245   1.042   2.027  0.00  0.00    -0.096 F 
ATOM     11  F3  UNL d   1       2.004   2.126   0.978  0.00  0.00    -0.097 F 
ATOM     12  F4  UNL d   1       2.764   1.527  -1.573  0.00  0.00    -0.092 F 
ENDROOT
TORSDOF 0
ENDMDL
