MODEL 1
REMARK minimizedAffinity -1.57893264
REMARK minimizedRMSD -1
REMARK  0 active torsions:
REMARK  status: ('A' for Active; 'I' for Inactive)
ROOT
ATOM      1  C   UNL d   1       1.685  -1.039  -1.132  0.00  0.00     0.124 A 
ATOM      2  C1  UNL d   1       1.041  -1.930  -0.285  0.00  0.00     0.062 A 
ATOM      3  C2  UNL d   1       0.066  -1.476   0.598  0.00  0.00     0.162 A 
ATOM      4  C3  UNL d   1      -0.273  -0.124   0.638  0.00  0.00    -0.034 A 
ATOM      5  C4  UNL d   1       0.379   0.767  -0.216  0.00  0.00     0.162 A 
ATOM      6  C5  UNL d   1       1.353   0.309  -1.097  0.00  0.00     0.062 A 
ATOM      7  F   UNL d   1       1.974   1.171  -1.915  0.00  0.00    -0.097 F 
ATOM      8  F1  UNL d   1       0.078   2.074  -0.204  0.00  0.00    -0.096 F 
ATOM      9  I   UNL d   1      -1.731   0.558   1.957  0.00  0.00    -0.060 I 
ATOM     10  F2  UNL d   1      -0.540  -2.360   1.405  0.00  0.00    -0.096 F 
ATOM     11  F3  UNL d   1       1.361  -3.232  -0.316  0.00  0.00    -0.097 F 
ATOM     12  F4  UNL d   1       2.624  -1.478  -1.980  0.00  0.00    -0.092 F 
ENDROOT
TORSDOF 0
ENDMDL
