MODEL 1
REMARK minimizedAffinity -0.446256548
REMARK minimizedRMSD -1
REMARK  0 active torsions:
REMARK  status: ('A' for Active; 'I' for Inactive)
ROOT
ATOM      1  C   UNL d   1      -2.582  -0.404   1.986  0.00  0.00     0.124 A 
ATOM      2  C1  UNL d   1      -1.293  -0.879   1.791  0.00  0.00     0.062 A 
ATOM      3  C2  UNL d   1      -0.463  -0.282   0.846  0.00  0.00     0.162 A 
ATOM      4  C3  UNL d   1      -0.919   0.798   0.091  0.00  0.00    -0.034 A 
ATOM      5  C4  UNL d   1      -2.218   1.269   0.293  0.00  0.00     0.162 A 
ATOM      6  C5  UNL d   1      -3.044   0.669   1.238  0.00  0.00     0.062 A 
ATOM      7  F   UNL d   1      -4.289   1.129   1.425  0.00  0.00    -0.097 F 
ATOM      8  F1  UNL d   1      -2.689   2.306  -0.416  0.00  0.00    -0.096 F 
ATOM      9  I   UNL d   1       0.318   1.694  -1.322  0.00  0.00    -0.060 I 
ATOM     10  F2  UNL d   1       0.779  -0.761   0.678  0.00  0.00    -0.096 F 
ATOM     11  F3  UNL d   1      -0.845  -1.917   2.512  0.00  0.00    -0.097 F 
ATOM     12  F4  UNL d   1      -3.379  -0.982   2.895  0.00  0.00    -0.092 F 
ENDROOT
TORSDOF 0
ENDMDL
