MODEL 1
REMARK minimizedAffinity 2.23159194
REMARK minimizedRMSD -1
REMARK  0 active torsions:
REMARK  status: ('A' for Active; 'I' for Inactive)
ROOT
ATOM      1  C   UNL d   1       0.937  -0.906  -1.258  0.00  0.00     0.124 A 
ATOM      2  C1  UNL d   1       0.716   0.444  -1.028  0.00  0.00     0.062 A 
ATOM      3  C2  UNL d   1      -0.149   0.849  -0.016  0.00  0.00     0.162 A 
ATOM      4  C3  UNL d   1      -0.798  -0.098   0.776  0.00  0.00    -0.034 A 
ATOM      5  C4  UNL d   1      -0.571  -1.454   0.538  0.00  0.00     0.162 A 
ATOM      6  C5  UNL d   1       0.294  -1.854  -0.475  0.00  0.00     0.062 A 
ATOM      7  F   UNL d   1       0.507  -3.160  -0.696  0.00  0.00    -0.097 F 
ATOM      8  F1  UNL d   1      -1.179  -2.392   1.281  0.00  0.00    -0.096 F 
ATOM      9  I   UNL d   1      -2.092   0.504   2.291  0.00  0.00    -0.060 I 
ATOM     10  F2  UNL d   1      -0.344   2.161   0.184  0.00  0.00    -0.096 F 
ATOM     11  F3  UNL d   1       1.335   1.362  -1.784  0.00  0.00    -0.097 F 
ATOM     12  F4  UNL d   1       1.769  -1.293  -2.234  0.00  0.00    -0.092 F 
ENDROOT
TORSDOF 0
ENDMDL
