MODEL 1
REMARK minimizedAffinity 0.430521101
REMARK minimizedRMSD -1
REMARK  0 active torsions:
REMARK  status: ('A' for Active; 'I' for Inactive)
ROOT
ATOM      1  C   UNL d   1       2.178  -0.476  -1.206  0.00  0.00     0.124 A 
ATOM      2  C1  UNL d   1       1.946   0.853  -0.876  0.00  0.00     0.062 A 
ATOM      3  C2  UNL d   1       0.909   1.188  -0.010  0.00  0.00     0.162 A 
ATOM      4  C3  UNL d   1       0.096   0.193   0.533  0.00  0.00    -0.034 A 
ATOM      5  C4  UNL d   1       0.335  -1.140   0.196  0.00  0.00     0.162 A 
ATOM      6  C5  UNL d   1       1.372  -1.470  -0.670  0.00  0.00     0.062 A 
ATOM      7  F   UNL d   1       1.594  -2.754  -0.988  0.00  0.00    -0.097 F 
ATOM      8  F1  UNL d   1      -0.428  -2.122   0.700  0.00  0.00    -0.096 F 
ATOM      9  I   UNL d   1      -1.455   0.691   1.828  0.00  0.00    -0.060 I 
ATOM     10  F2  UNL d   1       0.709   2.480   0.292  0.00  0.00    -0.096 F 
ATOM     11  F3  UNL d   1       2.723   1.816  -1.393  0.00  0.00    -0.097 F 
ATOM     12  F4  UNL d   1       3.175  -0.796  -2.040  0.00  0.00    -0.092 F 
ENDROOT
TORSDOF 0
ENDMDL
