MODEL 1
REMARK minimizedAffinity -6.46301889
REMARK minimizedRMSD -1
REMARK  0 active torsions:
REMARK  status: ('A' for Active; 'I' for Inactive)
ROOT
ATOM      1  O1  BZF d   1       0.198  -0.095  -0.920  0.00  0.00    -0.204 OA
ATOM      2  C2  BZF d   1       0.624  -0.932   0.093  0.00  0.00     0.174 A 
ATOM      3  C3  BZF d   1       0.400  -0.374   1.300  0.00  0.00    -0.012 A 
ATOM      4  C3A BZF d   1      -0.288   0.850   1.027  0.00  0.00    -0.107 A 
ATOM      5  C4  BZF d   1      -0.793   1.840   1.821  0.00  0.00     0.055 A 
ATOM      6  C5  BZF d   1      -1.342   2.939   1.238  0.00  0.00    -0.016 A 
ATOM      7  C6  BZF d   1      -1.397   3.082  -0.133  0.00  0.00     0.022 A 
ATOM      8  C7  BZF d   1      -0.914   2.124  -0.961  0.00  0.00     0.029 A 
ATOM      9  C7A BZF d   1      -0.389   0.998  -0.375  0.00  0.00     0.058 A 
ENDROOT
TORSDOF 0
ENDMDL
