MODEL 1
REMARK minimizedAffinity -0.111003518
REMARK minimizedRMSD -1
REMARK  0 active torsions:
REMARK  status: ('A' for Active; 'I' for Inactive)
ROOT
ATOM      1  O1  BZF d   1      -0.226   1.854  -2.215  0.00  0.00    -0.204 OA
ATOM      2  C2  BZF d   1      -0.545   3.178  -1.986  0.00  0.00     0.174 A 
ATOM      3  C3  BZF d   1      -0.606   3.434  -0.663  0.00  0.00    -0.012 A 
ATOM      4  C3A BZF d   1      -0.216   2.213  -0.026  0.00  0.00    -0.107 A 
ATOM      5  C4  BZF d   1      -0.066   1.842   1.280  0.00  0.00     0.055 A 
ATOM      6  C5  BZF d   1       0.256   0.554   1.568  0.00  0.00    -0.016 A 
ATOM      7  C6  BZF d   1       0.432  -0.389   0.576  0.00  0.00     0.022 A 
ATOM      8  C7  BZF d   1       0.299  -0.067  -0.733  0.00  0.00     0.029 A 
ATOM      9  C7A BZF d   1       0.005   1.241  -1.029  0.00  0.00     0.058 A 
ENDROOT
TORSDOF 0
ENDMDL
