MODEL 1
REMARK minimizedAffinity -5.91476488
REMARK minimizedRMSD -1
REMARK  0 active torsions:
REMARK  status: ('A' for Active; 'I' for Inactive)
ROOT
ATOM      1  O1  BZF d   1      -0.141   0.210  -1.086  0.00  0.00    -0.204 OA
ATOM      2  C2  BZF d   1       0.431  -0.715  -0.234  0.00  0.00     0.174 A 
ATOM      3  C3  BZF d   1       0.428  -0.261   1.036  0.00  0.00    -0.012 A 
ATOM      4  C3A BZF d   1      -0.268   0.988   0.988  0.00  0.00    -0.107 A 
ATOM      5  C4  BZF d   1      -0.609   1.911   1.935  0.00  0.00     0.055 A 
ATOM      6  C5  BZF d   1      -1.223   3.059   1.548  0.00  0.00    -0.016 A 
ATOM      7  C6  BZF d   1      -1.507   3.320   0.224  0.00  0.00     0.022 A 
ATOM      8  C7  BZF d   1      -1.193   2.433  -0.752  0.00  0.00     0.029 A 
ATOM      9  C7A BZF d   1      -0.602   1.257  -0.360  0.00  0.00     0.058 A 
ENDROOT
TORSDOF 0
ENDMDL
