MODEL 1
REMARK minimizedAffinity -6.86459875
REMARK minimizedRMSD -1
REMARK  0 active torsions:
REMARK  status: ('A' for Active; 'I' for Inactive)
ROOT
ATOM      1  O1  BZF d   1      -0.146   0.430  -1.138  0.00  0.00    -0.204 OA
ATOM      2  C2  BZF d   1       0.352  -0.576  -0.333  0.00  0.00     0.174 A 
ATOM      3  C3  BZF d   1       0.275  -0.230   0.968  0.00  0.00    -0.012 A 
ATOM      4  C3A BZF d   1      -0.392   1.036   0.982  0.00  0.00    -0.107 A 
ATOM      5  C4  BZF d   1      -0.775   1.885   1.981  0.00  0.00     0.055 A 
ATOM      6  C5  BZF d   1      -1.340   3.077   1.654  0.00  0.00    -0.016 A 
ATOM      7  C6  BZF d   1      -1.532   3.454   0.341  0.00  0.00     0.022 A 
ATOM      8  C7  BZF d   1      -1.173   2.643  -0.684  0.00  0.00     0.029 A 
ATOM      9  C7A BZF d   1      -0.631   1.424  -0.357  0.00  0.00     0.058 A 
ENDROOT
TORSDOF 0
ENDMDL
