MODEL 1
REMARK minimizedAffinity -5.50223827
REMARK minimizedRMSD -1
REMARK  0 active torsions:
REMARK  status: ('A' for Active; 'I' for Inactive)
ROOT
ATOM      1  O1  BZF d   1       0.082  -0.113  -1.099  0.00  0.00    -0.204 OA
ATOM      2  C2  BZF d   1       0.426  -1.035  -0.129  0.00  0.00     0.174 A 
ATOM      3  C3  BZF d   1       0.252  -0.519   1.105  0.00  0.00    -0.012 A 
ATOM      4  C3A BZF d   1      -0.319   0.776   0.894  0.00  0.00    -0.107 A 
ATOM      5  C4  BZF d   1      -0.731   1.769   1.736  0.00  0.00     0.055 A 
ATOM      6  C5  BZF d   1      -1.174   2.941   1.209  0.00  0.00    -0.016 A 
ATOM      7  C6  BZF d   1      -1.213   3.156  -0.153  0.00  0.00     0.022 A 
ATOM      8  C7  BZF d   1      -0.819   2.199  -1.028  0.00  0.00     0.029 A 
ATOM      9  C7A BZF d   1      -0.402   1.002  -0.500  0.00  0.00     0.058 A 
ENDROOT
TORSDOF 0
ENDMDL
