MODEL 1
REMARK minimizedAffinity -5.15354919
REMARK minimizedRMSD -1
REMARK  0 active torsions:
REMARK  status: ('A' for Active; 'I' for Inactive)
ROOT
ATOM      1  O1  BZF d   1      -0.003   0.283  -0.706  0.00  0.00    -0.204 OA
ATOM      2  C2  BZF d   1       0.694  -0.510   0.184  0.00  0.00     0.174 A 
ATOM      3  C3  BZF d   1       0.665   0.022   1.423  0.00  0.00    -0.012 A 
ATOM      4  C3A BZF d   1      -0.176   1.175   1.318  0.00  0.00    -0.107 A 
ATOM      5  C4  BZF d   1      -0.604   2.110   2.216  0.00  0.00     0.055 A 
ATOM      6  C5  BZF d   1      -1.360   3.151   1.777  0.00  0.00    -0.016 A 
ATOM      7  C6  BZF d   1      -1.702   3.289   0.448  0.00  0.00     0.022 A 
ATOM      8  C7  BZF d   1      -1.306   2.383  -0.479  0.00  0.00     0.029 A 
ATOM      9  C7A BZF d   1      -0.570   1.313  -0.033  0.00  0.00     0.058 A 
ENDROOT
TORSDOF 0
ENDMDL
