MODEL 1
REMARK minimizedAffinity -1.86368334
REMARK minimizedRMSD -1
REMARK  0 active torsions:
REMARK  status: ('A' for Active; 'I' for Inactive)
ROOT
ATOM      1  O1  BZF d   1       0.126   3.813  -1.071  0.00  0.00    -0.204 OA
ATOM      2  C2  BZF d   1       0.249   5.001  -0.376  0.00  0.00     0.174 A 
ATOM      3  C3  BZF d   1       0.364   4.771   0.948  0.00  0.00    -0.012 A 
ATOM      4  C3A BZF d   1       0.403   3.346   1.080  0.00  0.00    -0.107 A 
ATOM      5  C4  BZF d   1       0.524   2.506   2.150  0.00  0.00     0.055 A 
ATOM      6  C5  BZF d   1       0.454   1.164   1.947  0.00  0.00    -0.016 A 
ATOM      7  C6  BZF d   1       0.258   0.629   0.690  0.00  0.00     0.022 A 
ATOM      8  C7  BZF d   1       0.138   1.423  -0.402  0.00  0.00     0.029 A 
ATOM      9  C7A BZF d   1       0.241   2.778  -0.205  0.00  0.00     0.058 A 
ENDROOT
TORSDOF 0
ENDMDL
