MODEL 1
REMARK minimizedAffinity 3.05804229
REMARK minimizedRMSD -1
REMARK  0 active torsions:
REMARK  status: ('A' for Active; 'I' for Inactive)
ROOT
ATOM      1  O1  BZF d   1      -0.517  -1.906  -2.199  0.00  0.00    -0.204 OA
ATOM      2  C2  BZF d   1      -0.487  -3.217  -1.763  0.00  0.00     0.174 A 
ATOM      3  C3  BZF d   1      -0.025  -3.290  -0.498  0.00  0.00    -0.012 A 
ATOM      4  C3A BZF d   1       0.162  -1.932  -0.087  0.00  0.00    -0.107 A 
ATOM      5  C4  BZF d   1       0.588  -1.353   1.074  0.00  0.00     0.055 A 
ATOM      6  C5  BZF d   1       0.728  -0.002   1.125  0.00  0.00    -0.016 A 
ATOM      7  C6  BZF d   1       0.458   0.798   0.035  0.00  0.00     0.022 A 
ATOM      8  C7  BZF d   1       0.028   0.270  -1.137  0.00  0.00     0.029 A 
ATOM      9  C7A BZF d   1      -0.146  -1.092  -1.182  0.00  0.00     0.058 A 
ENDROOT
TORSDOF 0
ENDMDL
