MODEL 1
REMARK minimizedAffinity 2.70462155
REMARK minimizedRMSD -1
REMARK  2 active torsions:
REMARK  status: ('A' for Active; 'I' for Inactive)
REMARK    1  A    between atoms: C1_2  and  C2_3 
REMARK    2  A    between atoms: C2_3  and  C3_4 
ROOT
ATOM      1  C3  UNL d   1       3.650  -2.164   2.232  0.00  0.00    -0.075 A 
ATOM      2  C4  UNL d   1       3.848  -3.083   1.192  0.00  0.00     0.002 A 
ATOM      3  C5  UNL d   1       2.962  -3.138   0.116  0.00  0.00     0.002 A 
ATOM      4  C6  UNL d   1       1.863  -2.283   0.071  0.00  0.00    -0.004 A 
ATOM      5  C7  UNL d   1       1.647  -1.377   1.107  0.00  0.00     0.002 A 
ATOM      6  C8  UNL d   1       2.534  -1.317   2.183  0.00  0.00     0.002 A 
ENDROOT
BRANCH   1   7
ATOM      7  C2  UNL d   1       4.622  -2.080   3.385  0.00  0.00     0.056 C 
BRANCH   7   8
ATOM      8  C1  UNL d   1       4.654  -3.333   4.266  0.00  0.00     0.007 C 
ATOM      9  C   UNL d   1       5.250  -3.082   5.645  0.00  0.00     0.009 C 
ENDBRANCH   7   8
ENDBRANCH   1   7
TORSDOF 2
ENDMDL
