MODEL 1
REMARK minimizedAffinity 4.2033267
REMARK minimizedRMSD -1
REMARK  2 active torsions:
REMARK  status: ('A' for Active; 'I' for Inactive)
REMARK    1  A    between atoms: C1_2  and  C2_3 
REMARK    2  A    between atoms: C2_3  and  C3_4 
ROOT
ATOM      1  C3  UNL d   1       4.136   2.940   0.669  0.00  0.00    -0.075 A 
ATOM      2  C4  UNL d   1       5.260   2.905   1.507  0.00  0.00     0.002 A 
ATOM      3  C5  UNL d   1       6.000   4.063   1.748  0.00  0.00     0.002 A 
ATOM      4  C6  UNL d   1       5.632   5.266   1.149  0.00  0.00    -0.004 A 
ATOM      5  C7  UNL d   1       4.527   5.309   0.302  0.00  0.00     0.002 A 
ATOM      6  C8  UNL d   1       3.782   4.153   0.062  0.00  0.00     0.002 A 
ENDROOT
BRANCH   1   7
ATOM      7  C2  UNL d   1       3.313   1.697   0.427  0.00  0.00     0.056 C 
BRANCH   7   8
ATOM      8  C1  UNL d   1       3.860   0.794  -0.683  0.00  0.00     0.007 C 
ATOM      9  C   UNL d   1       3.048  -0.480  -0.876  0.00  0.00     0.009 C 
ENDBRANCH   7   8
ENDBRANCH   1   7
TORSDOF 2
ENDMDL
