MODEL 1
REMARK minimizedAffinity 8.57351208
REMARK minimizedRMSD -1
REMARK  2 active torsions:
REMARK  status: ('A' for Active; 'I' for Inactive)
REMARK    1  A    between atoms: C1_2  and  C2_3 
REMARK    2  A    between atoms: C2_3  and  C3_4 
ROOT
ATOM      1  C3  UNL d   1       1.919   4.481   3.645  0.00  0.00    -0.075 A 
ATOM      2  C4  UNL d   1       3.027   5.340   3.643  0.00  0.00     0.002 A 
ATOM      3  C5  UNL d   1       3.416   5.998   4.811  0.00  0.00     0.002 A 
ATOM      4  C6  UNL d   1       2.697   5.814   5.990  0.00  0.00    -0.004 A 
ATOM      5  C7  UNL d   1       1.584   4.976   5.999  0.00  0.00     0.002 A 
ATOM      6  C8  UNL d   1       1.196   4.313   4.834  0.00  0.00     0.002 A 
ENDROOT
BRANCH   1   7
ATOM      7  C2  UNL d   1       1.510   3.744   2.392  0.00  0.00     0.056 C 
BRANCH   7   8
ATOM      8  C1  UNL d   1       0.067   4.012   1.953  0.00  0.00     0.007 C 
ATOM      9  C   UNL d   1      -0.083   4.165   0.445  0.00  0.00     0.009 C 
ENDBRANCH   7   8
ENDBRANCH   1   7
TORSDOF 2
ENDMDL
