MODEL 1
REMARK minimizedAffinity -2.0011487
REMARK minimizedRMSD -1
REMARK  2 active torsions:
REMARK  status: ('A' for Active; 'I' for Inactive)
REMARK    1  A    between atoms: C1_2  and  C2_3 
REMARK    2  A    between atoms: C2_3  and  C3_4 
ROOT
ATOM      1  C3  UNL d   1       0.784  -2.288   1.107  0.00  0.00    -0.075 A 
ATOM      2  C4  UNL d   1       0.108  -1.899   2.273  0.00  0.00     0.002 A 
ATOM      3  C5  UNL d   1      -0.819  -0.857   2.240  0.00  0.00     0.002 A 
ATOM      4  C6  UNL d   1      -1.073  -0.183   1.047  0.00  0.00    -0.004 A 
ATOM      5  C7  UNL d   1      -0.395  -0.550  -0.113  0.00  0.00     0.002 A 
ATOM      6  C8  UNL d   1       0.529  -1.596  -0.085  0.00  0.00     0.002 A 
ENDROOT
BRANCH   1   7
ATOM      7  C2  UNL d   1       1.765  -3.435   1.129  0.00  0.00     0.056 C 
BRANCH   7   8
ATOM      8  C1  UNL d   1       2.872  -3.289   2.179  0.00  0.00     0.007 C 
ATOM      9  C   UNL d   1       3.860  -4.447   2.175  0.00  0.00     0.009 C 
ENDBRANCH   7   8
ENDBRANCH   1   7
TORSDOF 2
ENDMDL
