MODEL 1
REMARK minimizedAffinity 10.3186493
REMARK minimizedRMSD -1
REMARK  2 active torsions:
REMARK  status: ('A' for Active; 'I' for Inactive)
REMARK    1  A    between atoms: C1_2  and  C2_3 
REMARK    2  A    between atoms: C2_3  and  C3_4 
ROOT
ATOM      1  C3  UNL d   1      -3.564   1.872  -4.146  0.00  0.00    -0.075 A 
ATOM      2  C4  UNL d   1      -3.588   1.065  -5.293  0.00  0.00     0.002 A 
ATOM      3  C5  UNL d   1      -4.799   0.737  -5.904  0.00  0.00     0.002 A 
ATOM      4  C6  UNL d   1      -5.999   1.201  -5.370  0.00  0.00    -0.004 A 
ATOM      5  C7  UNL d   1      -5.989   1.989  -4.221  0.00  0.00     0.002 A 
ATOM      6  C8  UNL d   1      -4.778   2.323  -3.611  0.00  0.00     0.002 A 
ENDROOT
BRANCH   1   7
ATOM      7  C2  UNL d   1      -2.255   2.255  -3.498  0.00  0.00     0.056 C 
BRANCH   7   8
ATOM      8  C1  UNL d   1      -1.061   2.259  -4.459  0.00  0.00     0.007 C 
ATOM      9  C   UNL d   1      -0.424   3.633  -4.619  0.00  0.00     0.009 C 
ENDBRANCH   7   8
ENDBRANCH   1   7
TORSDOF 2
ENDMDL
