MODEL 1
REMARK minimizedAffinity 4.24805975
REMARK minimizedRMSD -1
REMARK  2 active torsions:
REMARK  status: ('A' for Active; 'I' for Inactive)
REMARK    1  A    between atoms: C1_2  and  C2_3 
REMARK    2  A    between atoms: C2_3  and  C3_4 
ROOT
ATOM      1  C3  UNL d   1       4.873   1.427   0.627  0.00  0.00    -0.075 A 
ATOM      2  C4  UNL d   1       3.745   2.249   0.767  0.00  0.00     0.002 A 
ATOM      3  C5  UNL d   1       3.749   3.308   1.675  0.00  0.00     0.002 A 
ATOM      4  C6  UNL d   1       4.874   3.553   2.460  0.00  0.00    -0.004 A 
ATOM      5  C7  UNL d   1       5.994   2.733   2.340  0.00  0.00     0.002 A 
ATOM      6  C8  UNL d   1       5.994   1.675   1.430  0.00  0.00     0.002 A 
ENDROOT
BRANCH   1   7
ATOM      7  C2  UNL d   1       4.886   0.297  -0.375  0.00  0.00     0.056 C 
BRANCH   7   8
ATOM      8  C1  UNL d   1       5.804  -0.867   0.010  0.00  0.00     0.007 C 
ATOM      9  C   UNL d   1       5.106  -1.931   0.847  0.00  0.00     0.009 C 
ENDBRANCH   7   8
ENDBRANCH   1   7
TORSDOF 2
ENDMDL
