MODEL 1
REMARK minimizedAffinity 2.76162696
REMARK minimizedRMSD -1
REMARK  2 active torsions:
REMARK  status: ('A' for Active; 'I' for Inactive)
REMARK    1  A    between atoms: C1_2  and  C2_3 
REMARK    2  A    between atoms: C2_3  and  C3_4 
ROOT
ATOM      1  C3  UNL d   1       3.621  -4.542   0.191  0.00  0.00    -0.075 A 
ATOM      2  C4  UNL d   1       3.841  -5.274  -0.984  0.00  0.00     0.002 A 
ATOM      3  C5  UNL d   1       5.021  -5.999  -1.157  0.00  0.00     0.002 A 
ATOM      4  C6  UNL d   1       5.997  -5.993  -0.163  0.00  0.00    -0.004 A 
ATOM      5  C7  UNL d   1       5.796  -5.256   1.002  0.00  0.00     0.002 A 
ATOM      6  C8  UNL d   1       4.615  -4.533   1.179  0.00  0.00     0.002 A 
ENDROOT
BRANCH   1   7
ATOM      7  C2  UNL d   1       2.334  -3.779   0.396  0.00  0.00     0.056 C 
BRANCH   7   8
ATOM      8  C1  UNL d   1       1.420  -4.375   1.473  0.00  0.00     0.007 C 
ATOM      9  C   UNL d   1       0.321  -3.422   1.922  0.00  0.00     0.009 C 
ENDBRANCH   7   8
ENDBRANCH   1   7
TORSDOF 2
ENDMDL
