MODEL 1
REMARK minimizedAffinity -0.667591333
REMARK minimizedRMSD -1
REMARK  2 active torsions:
REMARK  status: ('A' for Active; 'I' for Inactive)
REMARK    1  A    between atoms: C1_2  and  C2_3 
REMARK    2  A    between atoms: C2_3  and  C3_4 
ROOT
ATOM      1  C3  UNL d   1       0.068  -0.969   1.136  0.00  0.00    -0.075 A 
ATOM      2  C4  UNL d   1      -0.875  -0.142   0.508  0.00  0.00     0.002 A 
ATOM      3  C5  UNL d   1      -1.931   0.408   1.236  0.00  0.00     0.002 A 
ATOM      4  C6  UNL d   1      -2.062   0.132   2.595  0.00  0.00    -0.004 A 
ATOM      5  C7  UNL d   1      -1.141  -0.701   3.226  0.00  0.00     0.002 A 
ATOM      6  C8  UNL d   1      -0.081  -1.249   2.501  0.00  0.00     0.002 A 
ENDROOT
BRANCH   1   7
ATOM      7  C2  UNL d   1       1.229  -1.544   0.361  0.00  0.00     0.056 C 
BRANCH   7   8
ATOM      8  C1  UNL d   1       1.671  -2.932   0.837  0.00  0.00     0.007 C 
ATOM      9  C   UNL d   1       3.161  -3.184   0.650  0.00  0.00     0.009 C 
ENDBRANCH   7   8
ENDBRANCH   1   7
TORSDOF 2
ENDMDL
