MODEL 1
REMARK minimizedAffinity 1.19933438
REMARK minimizedRMSD -1
REMARK  0 active torsions:
REMARK  status: ('A' for Active; 'I' for Inactive)
ROOT
ATOM      1  C   UNL d   1      -2.706  -1.235  -2.900  0.00  0.00     0.172 C 
ATOM      2  N   UNL d   1      -2.824  -2.549  -2.313  0.00  0.00    -0.070 N 
ATOM      3  C1  UNL d   1      -3.558  -2.864  -1.201  0.00  0.00    -0.004 A 
ATOM      4  C2  UNL d   1      -3.412  -4.214  -0.966  0.00  0.00    -0.047 A 
ATOM      5  C3  UNL d   1      -2.559  -4.728  -1.971  0.00  0.00    -0.047 A 
ATOM      6  C4  UNL d   1      -2.210  -3.677  -2.792  0.00  0.00    -0.004 A 
ENDROOT
TORSDOF 0
ENDMDL
