MODEL 1
REMARK minimizedAffinity -4.09647083
REMARK minimizedRMSD -1
REMARK  0 active torsions:
REMARK  status: ('A' for Active; 'I' for Inactive)
ROOT
ATOM      1  C   UNL d   1      -3.574   0.408   0.864  0.00  0.00     0.172 C 
ATOM      2  N   UNL d   1      -2.182   0.689   0.602  0.00  0.00    -0.070 N 
ATOM      3  C1  UNL d   1      -1.193  -0.246   0.455  0.00  0.00    -0.004 A 
ATOM      4  C2  UNL d   1      -0.011   0.423   0.217  0.00  0.00    -0.047 A 
ATOM      5  C3  UNL d   1      -0.301   1.808   0.223  0.00  0.00    -0.047 A 
ATOM      6  C4  UNL d   1      -1.652   1.944   0.464  0.00  0.00    -0.004 A 
ENDROOT
TORSDOF 0
ENDMDL
