MODEL 1
REMARK minimizedAffinity -0.899255812
REMARK minimizedRMSD -1
REMARK  0 active torsions:
REMARK  status: ('A' for Active; 'I' for Inactive)
ROOT
ATOM      1  C   UNL d   1      -4.935   2.242   0.732  0.00  0.00     0.172 C 
ATOM      2  N   UNL d   1      -3.554   1.883   0.511  0.00  0.00    -0.070 N 
ATOM      3  C1  UNL d   1      -2.589   2.704  -0.007  0.00  0.00    -0.004 A 
ATOM      4  C2  UNL d   1      -1.410   1.991  -0.058  0.00  0.00    -0.047 A 
ATOM      5  C3  UNL d   1      -1.677   0.696   0.447  0.00  0.00    -0.047 A 
ATOM      6  C4  UNL d   1      -3.012   0.656   0.791  0.00  0.00    -0.004 A 
ENDROOT
TORSDOF 0
ENDMDL
