MODEL 1
REMARK minimizedAffinity -0.416077346
REMARK minimizedRMSD -1
REMARK  0 active torsions:
REMARK  status: ('A' for Active; 'I' for Inactive)
ROOT
ATOM      1  C   UNL d   1      -5.169   1.877   0.750  0.00  0.00     0.172 C 
ATOM      2  N   UNL d   1      -3.781   2.035   0.384  0.00  0.00    -0.070 N 
ATOM      3  C1  UNL d   1      -2.762   2.358   1.240  0.00  0.00    -0.004 A 
ATOM      4  C2  UNL d   1      -1.596   2.412   0.507  0.00  0.00    -0.047 A 
ATOM      5  C3  UNL d   1      -1.926   2.112  -0.836  0.00  0.00    -0.047 A 
ATOM      6  C4  UNL d   1      -3.285   1.883  -0.884  0.00  0.00    -0.004 A 
ENDROOT
TORSDOF 0
ENDMDL
