MODEL 1
REMARK minimizedAffinity -1.86465538
REMARK minimizedRMSD -1
REMARK  0 active torsions:
REMARK  status: ('A' for Active; 'I' for Inactive)
ROOT
ATOM      1  C   UNL d   1      -4.197   0.966   0.753  0.00  0.00     0.172 C 
ATOM      2  N   UNL d   1      -2.768   1.161   0.814  0.00  0.00    -0.070 N 
ATOM      3  C1  UNL d   1      -2.131   2.362   0.977  0.00  0.00    -0.004 A 
ATOM      4  C2  UNL d   1      -0.774   2.124   0.983  0.00  0.00    -0.047 A 
ATOM      5  C3  UNL d   1      -0.588   0.731   0.817  0.00  0.00    -0.047 A 
ATOM      6  C4  UNL d   1      -1.838   0.159   0.715  0.00  0.00    -0.004 A 
ENDROOT
TORSDOF 0
ENDMDL
