MODEL 1
REMARK minimizedAffinity 2.31353784
REMARK minimizedRMSD -1
REMARK  0 active torsions:
REMARK  status: ('A' for Active; 'I' for Inactive)
ROOT
ATOM      1  C   UNL d   1       3.016  -1.043   1.015  0.00  0.00     0.172 C 
ATOM      2  N   UNL d   1       3.017  -2.416   0.566  0.00  0.00    -0.070 N 
ATOM      3  C1  UNL d   1       2.108  -3.375   0.928  0.00  0.00    -0.004 A 
ATOM      4  C2  UNL d   1       2.453  -4.546   0.289  0.00  0.00    -0.047 A 
ATOM      5  C3  UNL d   1       3.610  -4.282  -0.483  0.00  0.00    -0.047 A 
ATOM      6  C4  UNL d   1       3.937  -2.956  -0.293  0.00  0.00    -0.004 A 
ENDROOT
TORSDOF 0
ENDMDL
