MODEL 1
REMARK minimizedAffinity -3.13279676
REMARK minimizedRMSD -1
REMARK  0 active torsions:
REMARK  status: ('A' for Active; 'I' for Inactive)
ROOT
ATOM      1  C   UNL d   1      -3.872   2.691   0.568  0.00  0.00     0.172 C 
ATOM      2  N   UNL d   1      -2.515   2.209   0.455  0.00  0.00    -0.070 N 
ATOM      3  C1  UNL d   1      -2.021   1.072   1.038  0.00  0.00    -0.004 A 
ATOM      4  C2  UNL d   1      -0.692   0.964   0.690  0.00  0.00    -0.047 A 
ATOM      5  C3  UNL d   1      -0.376   2.074  -0.129  0.00  0.00    -0.047 A 
ATOM      6  C4  UNL d   1      -1.523   2.828  -0.258  0.00  0.00    -0.004 A 
ENDROOT
TORSDOF 0
ENDMDL
