MODEL 1
REMARK minimizedAffinity 0.49493295
REMARK minimizedRMSD -1
REMARK  0 active torsions:
REMARK  status: ('A' for Active; 'I' for Inactive)
ROOT
ATOM      1  C   UNL d   1      -3.075   2.901   1.102  0.00  0.00     0.172 C 
ATOM      2  N   UNL d   1      -1.884   2.094   0.973  0.00  0.00    -0.070 N 
ATOM      3  C1  UNL d   1      -0.843   2.339   0.117  0.00  0.00    -0.004 A 
ATOM      4  C2  UNL d   1       0.094   1.345   0.297  0.00  0.00    -0.047 A 
ATOM      5  C3  UNL d   1      -0.401   0.472   1.295  0.00  0.00    -0.047 A 
ATOM      6  C4  UNL d   1      -1.627   0.959   1.695  0.00  0.00    -0.004 A 
ENDROOT
TORSDOF 0
ENDMDL
