MODEL 1
REMARK minimizedAffinity -0.718511641
REMARK minimizedRMSD -1
REMARK  0 active torsions:
REMARK  status: ('A' for Active; 'I' for Inactive)
ROOT
ATOM      1  C   UNL d   1      -4.219   2.537   0.437  0.00  0.00     0.172 C 
ATOM      2  N   UNL d   1      -2.799   2.286   0.367  0.00  0.00    -0.070 N 
ATOM      3  C1  UNL d   1      -1.841   3.206   0.032  0.00  0.00    -0.004 A 
ATOM      4  C2  UNL d   1      -0.616   2.576   0.081  0.00  0.00    -0.047 A 
ATOM      5  C3  UNL d   1      -0.845   1.231   0.456  0.00  0.00    -0.047 A 
ATOM      6  C4  UNL d   1      -2.205   1.079   0.627  0.00  0.00    -0.004 A 
ENDROOT
TORSDOF 0
ENDMDL
