MODEL 1
REMARK minimizedAffinity -3.9504714
REMARK minimizedRMSD -1
REMARK  0 active torsions:
REMARK  status: ('A' for Active; 'I' for Inactive)
ROOT
ATOM      1  C   UNL d   1      -4.379   2.167   0.395  0.00  0.00     0.172 C 
ATOM      2  N   UNL d   1      -3.026   1.663   0.376  0.00  0.00    -0.070 N 
ATOM      3  C1  UNL d   1      -1.941   2.310  -0.152  0.00  0.00    -0.004 A 
ATOM      4  C2  UNL d   1      -0.839   1.501   0.027  0.00  0.00    -0.047 A 
ATOM      5  C3  UNL d   1      -1.278   0.328   0.685  0.00  0.00    -0.047 A 
ATOM      6  C4  UNL d   1      -2.635   0.454   0.889  0.00  0.00    -0.004 A 
ENDROOT
TORSDOF 0
ENDMDL
