MODEL 1
REMARK minimizedAffinity -2.60275888
REMARK minimizedRMSD -1
REMARK  0 active torsions:
REMARK  status: ('A' for Active; 'I' for Inactive)
ROOT
ATOM      1  C   UNL d   1      -3.303   1.946  -0.596  0.00  0.00     0.172 C 
ATOM      2  N   UNL d   1      -2.094   1.479   0.041  0.00  0.00    -0.070 N 
ATOM      3  C1  UNL d   1      -2.022   0.491   0.987  0.00  0.00    -0.004 A 
ATOM      4  C2  UNL d   1      -0.698   0.342   1.341  0.00  0.00    -0.047 A 
ATOM      5  C3  UNL d   1       0.050   1.274   0.583  0.00  0.00    -0.047 A 
ATOM      6  C4  UNL d   1      -0.839   1.964  -0.213  0.00  0.00    -0.004 A 
ENDROOT
TORSDOF 0
ENDMDL
