MODEL 1
REMARK minimizedAffinity 0.14330408
REMARK minimizedRMSD -1
REMARK  0 active torsions:
REMARK  status: ('A' for Active; 'I' for Inactive)
ROOT
ATOM      1  C   UNL d   1      -2.256   2.879   0.278  0.00  0.00     0.172 C 
ATOM      2  N   UNL d   1      -1.185   1.998   0.683  0.00  0.00    -0.070 N 
ATOM      3  C1  UNL d   1      -0.048   1.743  -0.035  0.00  0.00    -0.004 A 
ATOM      4  C2  UNL d   1       0.719   0.856   0.689  0.00  0.00    -0.047 A 
ATOM      5  C3  UNL d   1       0.017   0.567   1.884  0.00  0.00    -0.047 A 
ATOM      6  C4  UNL d   1      -1.159   1.288   1.854  0.00  0.00    -0.004 A 
ENDROOT
TORSDOF 0
ENDMDL
