MODEL 1
REMARK minimizedAffinity -2.40347719
REMARK minimizedRMSD -1
REMARK  0 active torsions:
REMARK  status: ('A' for Active; 'I' for Inactive)
ROOT
ATOM      1  C   UNL d   1      -3.333   1.907  -0.033  0.00  0.00     0.172 C 
ATOM      2  N   UNL d   1      -2.107   1.283   0.407  0.00  0.00    -0.070 N 
ATOM      3  C1  UNL d   1      -0.853   1.823   0.299  0.00  0.00    -0.004 A 
ATOM      4  C2  UNL d   1       0.042   0.921   0.832  0.00  0.00    -0.047 A 
ATOM      5  C3  UNL d   1      -0.699  -0.200   1.274  0.00  0.00    -0.047 A 
ATOM      6  C4  UNL d   1      -2.027   0.050   0.999  0.00  0.00    -0.004 A 
ENDROOT
TORSDOF 0
ENDMDL
