MODEL 1
REMARK minimizedAffinity -1.58605504
REMARK minimizedRMSD -1
REMARK  0 active torsions:
REMARK  status: ('A' for Active; 'I' for Inactive)
ROOT
ATOM      1  C   UNL d   1      -1.963   2.803   1.059  0.00  0.00     0.172 C 
ATOM      2  N   UNL d   1      -0.787   2.004   0.808  0.00  0.00    -0.070 N 
ATOM      3  C1  UNL d   1      -0.614   0.699   1.182  0.00  0.00    -0.004 A 
ATOM      4  C2  UNL d   1       0.636   0.301   0.758  0.00  0.00    -0.047 A 
ATOM      5  C3  UNL d   1       1.235   1.406   0.108  0.00  0.00    -0.047 A 
ATOM      6  C4  UNL d   1       0.332   2.447   0.153  0.00  0.00    -0.004 A 
ENDROOT
TORSDOF 0
ENDMDL
