MODEL 1
REMARK minimizedAffinity 19.9905033
REMARK minimizedRMSD -1
REMARK  0 active torsions:
REMARK  status: ('A' for Active; 'I' for Inactive)
ROOT
ATOM      1  C1  DEN d   1       3.415  -2.152  -3.824  0.00  0.00     0.130 A 
ATOM      2  C2  DEN d   1       2.317  -1.364  -3.269  0.00  0.00    -0.031 A 
ATOM      3  C3  DEN d   1       2.468   0.026  -3.743  0.00  0.00     0.027 A 
ATOM      4  C4  DEN d   1       4.283   1.030  -5.278  0.00  0.00     0.027 A 
ATOM      5  C5  DEN d   1       5.430   0.754  -5.988  0.00  0.00    -0.003 A 
ATOM      6  C6  DEN d   1       6.000  -0.492  -6.000  0.00  0.00     0.001 A 
ATOM      7  C7  DEN d   1       5.399  -1.520  -5.323  0.00  0.00     0.017 A 
ATOM      8  C8  DEN d   1       4.246  -1.248  -4.598  0.00  0.00    -0.094 A 
ATOM      9  C9  DEN d   1       3.678   0.015  -4.609  0.00  0.00    -0.072 A 
ENDROOT
TORSDOF 0
ENDMDL
