MODEL 1
REMARK minimizedAffinity 12.1102552
REMARK minimizedRMSD -1
REMARK  0 active torsions:
REMARK  status: ('A' for Active; 'I' for Inactive)
ROOT
ATOM      1  C1  DEN d   1       0.720  -4.718   0.983  0.00  0.00     0.130 A 
ATOM      2  C2  DEN d   1       1.009  -4.934  -0.432  0.00  0.00    -0.031 A 
ATOM      3  C3  DEN d   1       1.414  -3.641  -1.018  0.00  0.00     0.027 A 
ATOM      4  C4  DEN d   1       1.625  -1.338   0.124  0.00  0.00     0.027 A 
ATOM      5  C5  DEN d   1       1.475  -0.655   1.311  0.00  0.00    -0.003 A 
ATOM      6  C6  DEN d   1       1.033  -1.267   2.454  0.00  0.00     0.001 A 
ATOM      7  C7  DEN d   1       0.770  -2.611   2.446  0.00  0.00     0.017 A 
ATOM      8  C8  DEN d   1       0.912  -3.305   1.251  0.00  0.00    -0.094 A 
ATOM      9  C9  DEN d   1       1.371  -2.671   0.109  0.00  0.00    -0.072 A 
ENDROOT
TORSDOF 0
ENDMDL
