MODEL 1
REMARK minimizedAffinity 11.8784046
REMARK minimizedRMSD -1
REMARK  0 active torsions:
REMARK  status: ('A' for Active; 'I' for Inactive)
ROOT
ATOM      1  C1  DEN d   1       0.507  -3.644   0.705  0.00  0.00     0.130 A 
ATOM      2  C2  DEN d   1       0.568  -3.295  -0.711  0.00  0.00    -0.031 A 
ATOM      3  C3  DEN d   1       1.026  -1.895  -0.816  0.00  0.00     0.027 A 
ATOM      4  C4  DEN d   1       1.648  -0.245   1.066  0.00  0.00     0.027 A 
ATOM      5  C5  DEN d   1       1.743  -0.083   2.431  0.00  0.00    -0.003 A 
ATOM      6  C6  DEN d   1       1.402  -1.076   3.309  0.00  0.00     0.001 A 
ATOM      7  C7  DEN d   1       0.994  -2.294   2.832  0.00  0.00     0.017 A 
ATOM      8  C8  DEN d   1       0.889  -2.463   1.458  0.00  0.00    -0.094 A 
ATOM      9  C9  DEN d   1       1.250  -1.450   0.586  0.00  0.00    -0.072 A 
ENDROOT
TORSDOF 0
ENDMDL
