MODEL 1
REMARK minimizedAffinity -2.56213856
REMARK minimizedRMSD -1
REMARK  0 active torsions:
REMARK  status: ('A' for Active; 'I' for Inactive)
ROOT
ATOM      1  C1  DEN d   1      -5.935  -3.802  -5.118  0.00  0.00     0.130 A 
ATOM      2  C2  DEN d   1      -5.628  -4.925  -6.000  0.00  0.00    -0.031 A 
ATOM      3  C3  DEN d   1      -5.000  -5.985  -5.187  0.00  0.00     0.027 A 
ATOM      4  C4  DEN d   1      -4.480  -6.000  -2.661  0.00  0.00     0.027 A 
ATOM      5  C5  DEN d   1      -4.546  -5.266  -1.497  0.00  0.00    -0.003 A 
ATOM      6  C6  DEN d   1      -5.045  -3.991  -1.465  0.00  0.00     0.001 A 
ATOM      7  C7  DEN d   1      -5.539  -3.426  -2.611  0.00  0.00     0.017 A 
ATOM      8  C8  DEN d   1      -5.468  -4.157  -3.790  0.00  0.00    -0.094 A 
ATOM      9  C9  DEN d   1      -4.972  -5.449  -3.799  0.00  0.00    -0.072 A 
ENDROOT
TORSDOF 0
ENDMDL
