MODEL 1
REMARK minimizedAffinity 8.69472218
REMARK minimizedRMSD -1
REMARK  0 active torsions:
REMARK  status: ('A' for Active; 'I' for Inactive)
ROOT
ATOM      1  C1  DEN d   1       3.014   4.155  -2.969  0.00  0.00     0.130 A 
ATOM      2  C2  DEN d   1       3.494   4.502  -1.634  0.00  0.00    -0.031 A 
ATOM      3  C3  DEN d   1       4.755   5.257  -1.785  0.00  0.00     0.027 A 
ATOM      4  C4  DEN d   1       5.999   5.921  -3.944  0.00  0.00     0.027 A 
ATOM      5  C5  DEN d   1       5.984   5.840  -5.319  0.00  0.00    -0.003 A 
ATOM      6  C6  DEN d   1       5.003   5.168  -6.000  0.00  0.00     0.001 A 
ATOM      7  C7  DEN d   1       3.972   4.588  -5.309  0.00  0.00     0.017 A 
ATOM      8  C8  DEN d   1       3.985   4.660  -3.922  0.00  0.00    -0.094 A 
ATOM      9  C9  DEN d   1       4.979   5.354  -3.253  0.00  0.00    -0.072 A 
ENDROOT
TORSDOF 0
ENDMDL
