MODEL 1
REMARK minimizedAffinity 4.84961033
REMARK minimizedRMSD -1
REMARK  0 active torsions:
REMARK  status: ('A' for Active; 'I' for Inactive)
ROOT
ATOM      1  C1  DEN d   1       2.267  -2.998   2.269  0.00  0.00     0.130 A 
ATOM      2  C2  DEN d   1       1.402  -2.914   3.443  0.00  0.00    -0.031 A 
ATOM      3  C3  DEN d   1       2.262  -2.917   4.644  0.00  0.00     0.027 A 
ATOM      4  C4  DEN d   1       4.834  -3.038   4.798  0.00  0.00     0.027 A 
ATOM      5  C5  DEN d   1       5.999  -3.133   4.069  0.00  0.00    -0.003 A 
ATOM      6  C6  DEN d   1       6.000  -3.224   2.702  0.00  0.00     0.001 A 
ATOM      7  C7  DEN d   1       4.814  -3.175   2.018  0.00  0.00     0.017 A 
ATOM      8  C8  DEN d   1       3.635  -3.087   2.746  0.00  0.00    -0.094 A 
ATOM      9  C9  DEN d   1       3.656  -2.984   4.127  0.00  0.00    -0.072 A 
ENDROOT
TORSDOF 0
ENDMDL
