MODEL 1
REMARK minimizedAffinity 2.84630537
REMARK minimizedRMSD -1
REMARK  0 active torsions:
REMARK  status: ('A' for Active; 'I' for Inactive)
ROOT
ATOM      1  C1  DEN d   1      -2.485   1.937   0.972  0.00  0.00     0.130 A 
ATOM      2  C2  DEN d   1      -1.944   1.929  -0.384  0.00  0.00    -0.031 A 
ATOM      3  C3  DEN d   1      -2.836   2.741  -1.236  0.00  0.00     0.027 A 
ATOM      4  C4  DEN d   1      -4.988   4.007  -0.589  0.00  0.00     0.027 A 
ATOM      5  C5  DEN d   1      -5.851   4.299   0.444  0.00  0.00    -0.003 A 
ATOM      6  C6  DEN d   1      -5.673   3.800   1.708  0.00  0.00     0.001 A 
ATOM      7  C7  DEN d   1      -4.581   3.019   1.981  0.00  0.00     0.017 A 
ATOM      8  C8  DEN d   1      -3.710   2.714   0.943  0.00  0.00    -0.094 A 
ATOM      9  C9  DEN d   1      -3.901   3.238  -0.324  0.00  0.00    -0.072 A 
ENDROOT
TORSDOF 0
ENDMDL
