MODEL 1
REMARK minimizedAffinity 4.02271605
REMARK minimizedRMSD -1
REMARK  0 active torsions:
REMARK  status: ('A' for Active; 'I' for Inactive)
ROOT
ATOM      1  C1  DEN d   1       1.863  -2.258   4.343  0.00  0.00     0.130 A 
ATOM      2  C2  DEN d   1       1.638  -2.272   2.900  0.00  0.00    -0.031 A 
ATOM      3  C3  DEN d   1       2.953  -2.361   2.234  0.00  0.00     0.027 A 
ATOM      4  C4  DEN d   1       5.303  -2.481   3.291  0.00  0.00     0.027 A 
ATOM      5  C5  DEN d   1       6.000  -2.487   4.479  0.00  0.00    -0.003 A 
ATOM      6  C6  DEN d   1       5.375  -2.384   5.693  0.00  0.00     0.001 A 
ATOM      7  C7  DEN d   1       4.008  -2.316   5.749  0.00  0.00     0.017 A 
ATOM      8  C8  DEN d   1       3.298  -2.301   4.556  0.00  0.00    -0.094 A 
ATOM      9  C9  DEN d   1       3.948  -2.419   3.339  0.00  0.00    -0.072 A 
ENDROOT
TORSDOF 0
ENDMDL
