MODEL 1
REMARK minimizedAffinity 13.3387356
REMARK minimizedRMSD -1
REMARK  0 active torsions:
REMARK  status: ('A' for Active; 'I' for Inactive)
ROOT
ATOM      1  C1  DEN d   1       2.078  -5.632   6.000  0.00  0.00     0.130 A 
ATOM      2  C2  DEN d   1       0.643  -5.901   5.994  0.00  0.00    -0.031 A 
ATOM      3  C3  DEN d   1       0.002  -4.942   5.072  0.00  0.00     0.027 A 
ATOM      4  C4  DEN d   1       1.087  -3.078   3.658  0.00  0.00     0.027 A 
ATOM      5  C5  DEN d   1       2.275  -2.458   3.339  0.00  0.00    -0.003 A 
ATOM      6  C6  DEN d   1       3.466  -2.827   3.906  0.00  0.00     0.001 A 
ATOM      7  C7  DEN d   1       3.502  -3.874   4.788  0.00  0.00     0.017 A 
ATOM      8  C8  DEN d   1       2.307  -4.500   5.120  0.00  0.00    -0.094 A 
ATOM      9  C9  DEN d   1       1.115  -4.120   4.527  0.00  0.00    -0.072 A 
ENDROOT
TORSDOF 0
ENDMDL
