MODEL 1
REMARK minimizedAffinity 6.966259
REMARK minimizedRMSD -1
REMARK  0 active torsions:
REMARK  status: ('A' for Active; 'I' for Inactive)
ROOT
ATOM      1  C1  DEN d   1       1.824  -1.739   1.652  0.00  0.00     0.130 A 
ATOM      2  C2  DEN d   1       0.534  -1.872   2.324  0.00  0.00    -0.031 A 
ATOM      3  C3  DEN d   1       0.768  -2.496   3.642  0.00  0.00     0.027 A 
ATOM      4  C4  DEN d   1       2.990  -3.260   4.704  0.00  0.00     0.027 A 
ATOM      5  C5  DEN d   1       4.350  -3.363   4.510  0.00  0.00    -0.003 A 
ATOM      6  C6  DEN d   1       4.954  -2.967   3.346  0.00  0.00     0.001 A 
ATOM      7  C7  DEN d   1       4.202  -2.406   2.348  0.00  0.00     0.017 A 
ATOM      8  C8  DEN d   1       2.829  -2.306   2.533  0.00  0.00    -0.094 A 
ATOM      9  C9  DEN d   1       2.239  -2.701   3.722  0.00  0.00    -0.072 A 
ENDROOT
TORSDOF 0
ENDMDL
