MODEL 1
REMARK minimizedAffinity -2.16196156
REMARK minimizedRMSD -1
REMARK  1 active torsions:
REMARK  status: ('A' for Active; 'I' for Inactive)
REMARK    1  A    between atoms: C3_4  and  O_7 
ROOT
ATOM      1  C   UNL d   1       1.715  -1.082   0.936  0.00  0.00    -0.033 A 
ATOM      2  C1  UNL d   1       1.688   0.283   0.641  0.00  0.00     0.039 A 
ATOM      3  C2  UNL d   1       2.387   0.775  -0.463  0.00  0.00    -0.080 A 
ATOM      4  C3  UNL d   1       3.107  -0.108  -1.264  0.00  0.00     0.150 A 
ATOM      5  C4  UNL d   1       3.134  -1.469  -0.979  0.00  0.00    -0.007 A 
ATOM      6  C5  UNL d   1       2.437  -1.958   0.125  0.00  0.00     0.039 A 
ENDROOT
BRANCH   4   7
ATOM      7  O   UNL d   1       3.808   0.326  -2.350  0.00  0.00    -0.526 OA
ATOM      8  H5  UNL d   1       3.721   1.292  -2.407  0.00  0.00     0.418 HD
ENDBRANCH   4   7
TORSDOF 1
ENDMDL
