MODEL 1
REMARK minimizedAffinity 2.22618937
REMARK minimizedRMSD -1
REMARK  1 active torsions:
REMARK  status: ('A' for Active; 'I' for Inactive)
REMARK    1  A    between atoms: C3_4  and  O_7 
ROOT
ATOM      1  C   UNL d   1       2.823  -1.567  -0.006  0.00  0.00    -0.033 A 
ATOM      2  C1  UNL d   1       2.421  -0.241  -0.180  0.00  0.00     0.039 A 
ATOM      3  C2  UNL d   1       1.167   0.175   0.272  0.00  0.00    -0.080 A 
ATOM      4  C3  UNL d   1       0.326  -0.742   0.895  0.00  0.00     0.150 A 
ATOM      5  C4  UNL d   1       0.721  -2.064   1.075  0.00  0.00    -0.007 A 
ATOM      6  C5  UNL d   1       1.973  -2.478   0.623  0.00  0.00     0.039 A 
ENDROOT
BRANCH   4   7
ATOM      7  O   UNL d   1      -0.909  -0.384   1.348  0.00  0.00    -0.526 OA
ATOM      8  H5  UNL d   1      -1.057   0.551   1.129  0.00  0.00     0.418 HD
ENDBRANCH   4   7
TORSDOF 1
ENDMDL
