MODEL 1
REMARK minimizedAffinity 0.606229246
REMARK minimizedRMSD -1
REMARK  1 active torsions:
REMARK  status: ('A' for Active; 'I' for Inactive)
REMARK    1  A    between atoms: C3_4  and  O_7 
ROOT
ATOM      1  C   UNL d   1       1.812  -1.830   1.476  0.00  0.00    -0.033 A 
ATOM      2  C1  UNL d   1       2.680  -2.473   0.591  0.00  0.00     0.039 A 
ATOM      3  C2  UNL d   1       3.103  -1.824  -0.570  0.00  0.00    -0.080 A 
ATOM      4  C3  UNL d   1       2.653  -0.533  -0.835  0.00  0.00     0.150 A 
ATOM      5  C4  UNL d   1       1.791   0.115   0.044  0.00  0.00    -0.007 A 
ATOM      6  C5  UNL d   1       1.368  -0.535   1.202  0.00  0.00     0.039 A 
ENDROOT
BRANCH   4   7
ATOM      7  O   UNL d   1       3.034   0.138  -1.958  0.00  0.00    -0.526 OA
ATOM      8  H5  UNL d   1       3.607  -0.444  -2.485  0.00  0.00     0.418 HD
ENDBRANCH   4   7
TORSDOF 1
ENDMDL
