MODEL 1
REMARK minimizedAffinity 0.232555702
REMARK minimizedRMSD -1
REMARK  1 active torsions:
REMARK  status: ('A' for Active; 'I' for Inactive)
REMARK    1  A    between atoms: C3_4  and  O_7 
ROOT
ATOM      1  C   UNL d   1      -4.883  -5.996   3.149  0.00  0.00    -0.033 A 
ATOM      2  C1  UNL d   1      -4.872  -6.000   1.753  0.00  0.00     0.039 A 
ATOM      3  C2  UNL d   1      -4.114  -5.056   1.056  0.00  0.00    -0.080 A 
ATOM      4  C3  UNL d   1      -3.373  -4.116   1.766  0.00  0.00     0.150 A 
ATOM      5  C4  UNL d   1      -3.376  -4.109   3.157  0.00  0.00    -0.007 A 
ATOM      6  C5  UNL d   1      -4.133  -5.051   3.851  0.00  0.00     0.039 A 
ENDROOT
BRANCH   4   7
ATOM      7  O   UNL d   1      -2.622  -3.172   1.130  0.00  0.00    -0.526 OA
ATOM      8  H5  UNL d   1      -2.739  -3.281   0.172  0.00  0.00     0.418 HD
ENDBRANCH   4   7
TORSDOF 1
ENDMDL
