MODEL 1
REMARK minimizedAffinity 3.86942005
REMARK minimizedRMSD -1
REMARK  1 active torsions:
REMARK  status: ('A' for Active; 'I' for Inactive)
REMARK    1  A    between atoms: C3_4  and  O_7 
ROOT
ATOM      1  C   UNL d   1       2.185  -1.852   1.086  0.00  0.00    -0.033 A 
ATOM      2  C1  UNL d   1       2.010  -0.479   1.274  0.00  0.00     0.039 A 
ATOM      3  C2  UNL d   1       2.401   0.419   0.279  0.00  0.00    -0.080 A 
ATOM      4  C3  UNL d   1       2.964  -0.067  -0.898  0.00  0.00     0.150 A 
ATOM      5  C4  UNL d   1       3.137  -1.433  -1.094  0.00  0.00    -0.007 A 
ATOM      6  C5  UNL d   1       2.747  -2.329  -0.099  0.00  0.00     0.039 A 
ENDROOT
BRANCH   4   7
ATOM      7  O   UNL d   1       3.365   0.772  -1.895  0.00  0.00    -0.526 OA
ATOM      8  H5  UNL d   1       3.211   1.687  -1.608  0.00  0.00     0.418 HD
ENDBRANCH   4   7
TORSDOF 1
ENDMDL
