MODEL 1
REMARK minimizedAffinity 2.35163379
REMARK minimizedRMSD -1
REMARK  1 active torsions:
REMARK  status: ('A' for Active; 'I' for Inactive)
REMARK    1  A    between atoms: C3_4  and  O_7 
ROOT
ATOM      1  C   UNL d   1      -4.323   1.109  -1.289  0.00  0.00    -0.033 A 
ATOM      2  C1  UNL d   1      -3.046   0.571  -1.459  0.00  0.00     0.039 A 
ATOM      3  C2  UNL d   1      -2.150   1.163  -2.351  0.00  0.00    -0.080 A 
ATOM      4  C3  UNL d   1      -2.542   2.291  -3.066  0.00  0.00     0.150 A 
ATOM      5  C4  UNL d   1      -3.811   2.835  -2.899  0.00  0.00    -0.007 A 
ATOM      6  C5  UNL d   1      -4.705   2.242  -2.008  0.00  0.00     0.039 A 
ENDROOT
BRANCH   4   7
ATOM      7  O   UNL d   1      -1.704   2.901  -3.951  0.00  0.00    -0.526 OA
ATOM      8  H5  UNL d   1      -0.872   2.399  -3.984  0.00  0.00     0.418 HD
ENDBRANCH   4   7
TORSDOF 1
ENDMDL
