MODEL 1
REMARK minimizedAffinity -3.75660896
REMARK minimizedRMSD -1
REMARK  1 active torsions:
REMARK  status: ('A' for Active; 'I' for Inactive)
REMARK    1  A    between atoms: C3_4  and  O_7 
ROOT
ATOM      1  C   UNL d   1       1.171  -5.238   4.856  0.00  0.00    -0.033 A 
ATOM      2  C1  UNL d   1      -0.049  -4.808   4.331  0.00  0.00     0.039 A 
ATOM      3  C2  UNL d   1      -0.100  -3.674   3.517  0.00  0.00    -0.080 A 
ATOM      4  C3  UNL d   1       1.075  -2.982   3.236  0.00  0.00     0.150 A 
ATOM      5  C4  UNL d   1       2.294  -3.408   3.752  0.00  0.00    -0.007 A 
ATOM      6  C5  UNL d   1       2.343  -4.539   4.565  0.00  0.00     0.039 A 
ENDROOT
BRANCH   4   7
ATOM      7  O   UNL d   1       1.074  -1.868   2.450  0.00  0.00    -0.526 OA
ATOM      8  H5  UNL d   1       0.158  -1.676   2.189  0.00  0.00     0.418 HD
ENDBRANCH   4   7
TORSDOF 1
ENDMDL
