MODEL 1
REMARK minimizedAffinity -1.67783177
REMARK minimizedRMSD -1
REMARK  1 active torsions:
REMARK  status: ('A' for Active; 'I' for Inactive)
REMARK    1  A    between atoms: C3_4  and  O_7 
ROOT
ATOM      1  C   UNL d   1       1.207   0.950  -0.065  0.00  0.00    -0.033 A 
ATOM      2  C1  UNL d   1       2.272   0.594  -0.893  0.00  0.00     0.039 A 
ATOM      3  C2  UNL d   1       2.745  -0.720  -0.900  0.00  0.00    -0.080 A 
ATOM      4  C3  UNL d   1       2.144  -1.666  -0.074  0.00  0.00     0.150 A 
ATOM      5  C4  UNL d   1       1.080  -1.319   0.751  0.00  0.00    -0.007 A 
ATOM      6  C5  UNL d   1       0.610  -0.006   0.757  0.00  0.00     0.039 A 
ENDROOT
BRANCH   4   7
ATOM      7  O   UNL d   1       2.574  -2.959  -0.042  0.00  0.00    -0.526 OA
ATOM      8  H5  UNL d   1       3.333  -3.046  -0.642  0.00  0.00     0.418 HD
ENDBRANCH   4   7
TORSDOF 1
ENDMDL
