MODEL 1
REMARK minimizedAffinity -0.701716602
REMARK minimizedRMSD -1
REMARK  1 active torsions:
REMARK  status: ('A' for Active; 'I' for Inactive)
REMARK    1  A    between atoms: C3_4  and  O_7 
ROOT
ATOM      1  C   UNL d   1      -4.256  -5.982  -3.380  0.00  0.00    -0.033 A 
ATOM      2  C1  UNL d   1      -5.611  -5.995  -3.043  0.00  0.00     0.039 A 
ATOM      3  C2  UNL d   1      -5.999  -6.000  -1.702  0.00  0.00    -0.080 A 
ATOM      4  C3  UNL d   1      -5.024  -5.989  -0.708  0.00  0.00     0.150 A 
ATOM      5  C4  UNL d   1      -3.672  -5.972  -1.037  0.00  0.00    -0.007 A 
ATOM      6  C5  UNL d   1      -3.287  -5.968  -2.377  0.00  0.00     0.039 A 
ENDROOT
BRANCH   4   7
ATOM      7  O   UNL d   1      -5.353  -5.998   0.614  0.00  0.00    -0.526 OA
ATOM      8  H5  UNL d   1      -6.321  -6.039   0.690  0.00  0.00     0.418 HD
ENDBRANCH   4   7
TORSDOF 1
ENDMDL
