MODEL 1
REMARK minimizedAffinity 1.23191142
REMARK minimizedRMSD -1
REMARK  1 active torsions:
REMARK  status: ('A' for Active; 'I' for Inactive)
REMARK    1  A    between atoms: C3_4  and  O_7 
ROOT
ATOM      1  C   UNL d   1      -2.555  -4.357  -0.706  0.00  0.00    -0.033 A 
ATOM      2  C1  UNL d   1      -3.651  -5.209  -0.859  0.00  0.00     0.039 A 
ATOM      3  C2  UNL d   1      -4.391  -5.605   0.257  0.00  0.00    -0.080 A 
ATOM      4  C3  UNL d   1      -4.026  -5.142   1.518  0.00  0.00     0.150 A 
ATOM      5  C4  UNL d   1      -2.939  -4.290   1.677  0.00  0.00    -0.007 A 
ATOM      6  C5  UNL d   1      -2.200  -3.896   0.562  0.00  0.00     0.039 A 
ENDROOT
BRANCH   4   7
ATOM      7  O   UNL d   1      -4.716  -5.504   2.637  0.00  0.00    -0.526 OA
ATOM      8  H5  UNL d   1      -5.423  -6.118   2.377  0.00  0.00     0.418 HD
ENDBRANCH   4   7
TORSDOF 1
ENDMDL
