MODEL 1
REMARK minimizedAffinity 2.65046239
REMARK minimizedRMSD -1
REMARK  1 active torsions:
REMARK  status: ('A' for Active; 'I' for Inactive)
REMARK    1  A    between atoms: C3_4  and  O_7 
ROOT
ATOM      1  C   UNL d   1      -2.262  -3.743   0.367  0.00  0.00    -0.033 A 
ATOM      2  C1  UNL d   1      -2.816  -3.753   1.648  0.00  0.00     0.039 A 
ATOM      3  C2  UNL d   1      -3.961  -4.509   1.909  0.00  0.00    -0.080 A 
ATOM      4  C3  UNL d   1      -4.541  -5.248   0.881  0.00  0.00     0.150 A 
ATOM      5  C4  UNL d   1      -3.991  -5.245  -0.397  0.00  0.00    -0.007 A 
ATOM      6  C5  UNL d   1      -2.848  -4.490  -0.655  0.00  0.00     0.039 A 
ENDROOT
BRANCH   4   7
ATOM      7  O   UNL d   1      -5.661  -5.997   1.086  0.00  0.00    -0.526 OA
ATOM      8  H5  UNL d   1      -5.945  -5.880   2.008  0.00  0.00     0.418 HD
ENDBRANCH   4   7
TORSDOF 1
ENDMDL
