MODEL 1
REMARK minimizedAffinity 2.79312825
REMARK minimizedRMSD -1
REMARK  1 active torsions:
REMARK  status: ('A' for Active; 'I' for Inactive)
REMARK    1  A    between atoms: C3_4  and  O_7 
ROOT
ATOM      1  C   UNL d   1       2.653  -5.481  -4.773  0.00  0.00    -0.033 A 
ATOM      2  C1  UNL d   1       1.910  -5.350  -3.598  0.00  0.00     0.039 A 
ATOM      3  C2  UNL d   1       0.525  -5.523  -3.622  0.00  0.00    -0.080 A 
ATOM      4  C3  UNL d   1      -0.105  -5.827  -4.826  0.00  0.00     0.150 A 
ATOM      5  C4  UNL d   1       0.629  -5.963  -6.000  0.00  0.00    -0.007 A 
ATOM      6  C5  UNL d   1       2.012  -5.789  -5.974  0.00  0.00     0.039 A 
ENDROOT
BRANCH   4   7
ATOM      7  O   UNL d   1      -1.455  -6.000  -4.900  0.00  0.00    -0.526 OA
ATOM      8  H5  UNL d   1      -1.834  -5.847  -4.018  0.00  0.00     0.418 HD
ENDBRANCH   4   7
TORSDOF 1
ENDMDL
