MODEL 1
REMARK minimizedAffinity -3.40057492
REMARK minimizedRMSD -1
REMARK  1 active torsions:
REMARK  status: ('A' for Active; 'I' for Inactive)
REMARK    1  A    between atoms: C3_4  and  O_7 
ROOT
ATOM      1  C   UNL d   1       1.070  -5.679  -5.641  0.00  0.00    -0.033 A 
ATOM      2  C1  UNL d   1       2.275  -5.388  -4.998  0.00  0.00     0.039 A 
ATOM      3  C2  UNL d   1       2.346  -5.400  -3.604  0.00  0.00    -0.080 A 
ATOM      4  C3  UNL d   1       1.206  -5.704  -2.865  0.00  0.00     0.150 A 
ATOM      5  C4  UNL d   1       0.003  -5.999  -3.498  0.00  0.00    -0.007 A 
ATOM      6  C5  UNL d   1      -0.065  -5.986  -4.891  0.00  0.00     0.039 A 
ENDROOT
BRANCH   4   7
ATOM      7  O   UNL d   1       1.225  -5.723  -1.502  0.00  0.00    -0.526 OA
ATOM      8  H5  UNL d   1       2.115  -5.472  -1.202  0.00  0.00     0.418 HD
ENDBRANCH   4   7
TORSDOF 1
ENDMDL
