MODEL 1
REMARK minimizedAffinity 3.79457808
REMARK minimizedRMSD -1
REMARK  1 active torsions:
REMARK  status: ('A' for Active; 'I' for Inactive)
REMARK    1  A    between atoms: C3_4  and  O_7 
ROOT
ATOM      1  C   UNL d   1       1.814  -0.186  -1.006  0.00  0.00    -0.033 A 
ATOM      2  C1  UNL d   1       2.023  -0.024  -2.377  0.00  0.00     0.039 A 
ATOM      3  C2  UNL d   1       1.063   0.620  -3.160  0.00  0.00    -0.080 A 
ATOM      4  C3  UNL d   1      -0.099   1.097  -2.561  0.00  0.00     0.150 A 
ATOM      5  C4  UNL d   1      -0.312   0.943  -1.195  0.00  0.00    -0.007 A 
ATOM      6  C5  UNL d   1       0.647   0.299  -0.415  0.00  0.00     0.039 A 
ENDROOT
BRANCH   4   7
ATOM      7  O   UNL d   1      -1.067   1.728  -3.285  0.00  0.00    -0.526 OA
ATOM      8  H5  UNL d   1      -0.796   1.737  -4.219  0.00  0.00     0.418 HD
ENDBRANCH   4   7
TORSDOF 1
ENDMDL
