MODEL 1
REMARK minimizedAffinity 0.57652837
REMARK minimizedRMSD -1
REMARK  1 active torsions:
REMARK  status: ('A' for Active; 'I' for Inactive)
REMARK    1  A    between atoms: C3_4  and  O_7 
ROOT
ATOM      1  C   UNL d   1      -1.969  -0.606   1.200  0.00  0.00    -0.033 A 
ATOM      2  C1  UNL d   1      -2.363  -1.107  -0.042  0.00  0.00     0.039 A 
ATOM      3  C2  UNL d   1      -2.456  -0.253  -1.143  0.00  0.00    -0.080 A 
ATOM      4  C3  UNL d   1      -2.152   1.097  -0.989  0.00  0.00     0.150 A 
ATOM      5  C4  UNL d   1      -1.755   1.601   0.245  0.00  0.00    -0.007 A 
ATOM      6  C5  UNL d   1      -1.663   0.747   1.344  0.00  0.00     0.039 A 
ENDROOT
BRANCH   4   7
ATOM      7  O   UNL d   1      -2.233   1.969  -2.033  0.00  0.00    -0.526 OA
ATOM      8  H5  UNL d   1      -2.547   1.485  -2.815  0.00  0.00     0.418 HD
ENDBRANCH   4   7
TORSDOF 1
ENDMDL
