MODEL 1
REMARK minimizedAffinity -1.72633874
REMARK minimizedRMSD -1
REMARK  0 active torsions:
REMARK  status: ('A' for Active; 'I' for Inactive)
ROOT
ATOM      1  N1  IND d   1      -2.640   0.763   0.441  0.00  0.00    -0.196 N 
ATOM      2  C2  IND d   1      -3.139   0.950   1.700  0.00  0.00     0.054 A 
ATOM      3  C3  IND d   1      -2.168   0.769   2.623  0.00  0.00    -0.031 A 
ATOM      4  C4  IND d   1       0.333   0.262   2.287  0.00  0.00     0.051 A 
ATOM      5  C5  IND d   1       1.253  -0.032   1.319  0.00  0.00    -0.031 A 
ATOM      6  C6  IND d   1       0.915  -0.074  -0.018  0.00  0.00     0.015 A 
ATOM      7  C7  IND d   1      -0.357   0.189  -0.440  0.00  0.00    -0.016 A 
ATOM      8  C8  IND d   1      -1.295   0.481   0.540  0.00  0.00    -0.047 A 
ATOM      9  C9  IND d   1      -0.968   0.483   1.903  0.00  0.00    -0.096 A 
ATOM     10  HN1 IND d   1      -3.089   0.814  -0.290  0.00  0.00     0.298 HD
ENDROOT
TORSDOF 0
ENDMDL
