MODEL 1
REMARK minimizedAffinity -2.91924477
REMARK minimizedRMSD -1
REMARK  0 active torsions:
REMARK  status: ('A' for Active; 'I' for Inactive)
ROOT
ATOM      1  N1  IND d   1       0.852  -1.368   0.433  0.00  0.00    -0.196 N 
ATOM      2  C2  IND d   1       0.629  -0.317   1.279  0.00  0.00     0.054 A 
ATOM      3  C3  IND d   1       0.420   0.818   0.574  0.00  0.00    -0.031 A 
ATOM      4  C4  IND d   1       0.297   1.161  -1.975  0.00  0.00     0.051 A 
ATOM      5  C5  IND d   1       0.472   0.503  -3.160  0.00  0.00    -0.031 A 
ATOM      6  C6  IND d   1       0.786  -0.840  -3.209  0.00  0.00     0.015 A 
ATOM      7  C7  IND d   1       0.926  -1.581  -2.070  0.00  0.00    -0.016 A 
ATOM      8  C8  IND d   1       0.756  -0.914  -0.864  0.00  0.00    -0.047 A 
ATOM      9  C9  IND d   1       0.480   0.458  -0.807  0.00  0.00    -0.096 A 
ATOM     10  HN1 IND d   1       1.022  -2.176   0.671  0.00  0.00     0.298 HD
ENDROOT
TORSDOF 0
ENDMDL
