MODEL 1
REMARK minimizedAffinity -1.02820301
REMARK minimizedRMSD -1
REMARK  0 active torsions:
REMARK  status: ('A' for Active; 'I' for Inactive)
ROOT
ATOM      1  N1  IND d   1      -1.906   0.841  -1.097  0.00  0.00    -0.196 N 
ATOM      2  C2  IND d   1      -0.805   0.679  -1.891  0.00  0.00     0.054 A 
ATOM      3  C3  IND d   1       0.291   0.447  -1.133  0.00  0.00    -0.031 A 
ATOM      4  C4  IND d   1       0.490   0.193   1.421  0.00  0.00     0.051 A 
ATOM      5  C5  IND d   1      -0.237   0.294   2.573  0.00  0.00    -0.031 A 
ATOM      6  C6  IND d   1      -1.586   0.587   2.561  0.00  0.00     0.015 A 
ATOM      7  C7  IND d   1      -2.262   0.778   1.390  0.00  0.00    -0.016 A 
ATOM      8  C8  IND d   1      -1.526   0.683   0.218  0.00  0.00    -0.047 A 
ATOM      9  C9  IND d   1      -0.148   0.428   0.226  0.00  0.00    -0.096 A 
ATOM     10  HN1 IND d   1      -2.702   1.014  -1.372  0.00  0.00     0.298 HD
ENDROOT
TORSDOF 0
ENDMDL
