MODEL 1
REMARK minimizedAffinity -4.33001232
REMARK minimizedRMSD -1
REMARK  0 active torsions:
REMARK  status: ('A' for Active; 'I' for Inactive)
ROOT
ATOM      1  N1  IND d   1      -0.937   0.338  -0.604  0.00  0.00    -0.196 N 
ATOM      2  C2  IND d   1       0.392   0.073  -0.783  0.00  0.00     0.054 A 
ATOM      3  C3  IND d   1       1.020  -0.009   0.412  0.00  0.00    -0.031 A 
ATOM      4  C4  IND d   1       0.043   0.156   2.788  0.00  0.00     0.051 A 
ATOM      5  C5  IND d   1      -1.116   0.426   3.460  0.00  0.00    -0.031 A 
ATOM      6  C6  IND d   1      -2.299   0.684   2.798  0.00  0.00     0.015 A 
ATOM      7  C7  IND d   1      -2.370   0.669   1.434  0.00  0.00    -0.016 A 
ATOM      8  C8  IND d   1      -1.194   0.401   0.748  0.00  0.00    -0.047 A 
ATOM      9  C9  IND d   1       0.019   0.182   1.414  0.00  0.00    -0.096 A 
ATOM     10  HN1 IND d   1      -1.516   0.446  -1.230  0.00  0.00     0.298 HD
ENDROOT
TORSDOF 0
ENDMDL
