MODEL 1
REMARK minimizedAffinity -2.70233297
REMARK minimizedRMSD -1
REMARK  0 active torsions:
REMARK  status: ('A' for Active; 'I' for Inactive)
ROOT
ATOM      1  N1  IND d   1      -1.703   0.595  -1.013  0.00  0.00    -0.196 N 
ATOM      2  C2  IND d   1      -0.488   0.345  -1.588  0.00  0.00     0.054 A 
ATOM      3  C3  IND d   1       0.457   0.178  -0.636  0.00  0.00    -0.031 A 
ATOM      4  C4  IND d   1       0.213   0.169   1.927  0.00  0.00     0.051 A 
ATOM      5  C5  IND d   1      -0.696   0.389   2.923  0.00  0.00    -0.031 A 
ATOM      6  C6  IND d   1      -2.015   0.692   2.653  0.00  0.00     0.015 A 
ATOM      7  C7  IND d   1      -2.478   0.776   1.370  0.00  0.00    -0.016 A 
ATOM      8  C8  IND d   1      -1.556   0.560   0.356  0.00  0.00    -0.047 A 
ATOM      9  C9  IND d   1      -0.207   0.294   0.624  0.00  0.00    -0.096 A 
ATOM     10  HN1 IND d   1      -2.436   0.748  -1.436  0.00  0.00     0.298 HD
ENDROOT
TORSDOF 0
ENDMDL
