MODEL 1
REMARK minimizedAffinity -3.49054408
REMARK minimizedRMSD -1
REMARK  0 active torsions:
REMARK  status: ('A' for Active; 'I' for Inactive)
ROOT
ATOM      1  N1  IND d   1       0.042   0.394  -0.232  0.00  0.00    -0.196 N 
ATOM      2  C2  IND d   1       0.811  -0.169   0.748  0.00  0.00     0.054 A 
ATOM      3  C3  IND d   1       1.604  -1.133   0.229  0.00  0.00    -0.031 A 
ATOM      4  C4  IND d   1       1.877  -1.883  -2.219  0.00  0.00     0.051 A 
ATOM      5  C5  IND d   1       1.362  -1.687  -3.469  0.00  0.00    -0.031 A 
ATOM      6  C6  IND d   1       0.362  -0.767  -3.710  0.00  0.00     0.015 A 
ATOM      7  C7  IND d   1      -0.154   0.003  -2.706  0.00  0.00    -0.016 A 
ATOM      8  C8  IND d   1       0.362  -0.198  -1.434  0.00  0.00    -0.047 A 
ATOM      9  C9  IND d   1       1.347  -1.161  -1.176  0.00  0.00    -0.096 A 
ATOM     10  HN1 IND d   1      -0.543   1.013  -0.117  0.00  0.00     0.298 HD
ENDROOT
TORSDOF 0
ENDMDL
