MODEL 1
REMARK minimizedAffinity -3.10310626
REMARK minimizedRMSD -1
REMARK  0 active torsions:
REMARK  status: ('A' for Active; 'I' for Inactive)
ROOT
ATOM      1  N1  IND d   1       0.588   0.261  -2.810  0.00  0.00    -0.196 N 
ATOM      2  C2  IND d   1       0.710  -0.991  -3.346  0.00  0.00     0.054 A 
ATOM      3  C3  IND d   1       0.914  -1.903  -2.370  0.00  0.00    -0.031 A 
ATOM      4  C4  IND d   1       0.981  -1.579   0.183  0.00  0.00     0.051 A 
ATOM      5  C5  IND d   1       0.955  -0.610   1.147  0.00  0.00    -0.031 A 
ATOM      6  C6  IND d   1       0.799   0.725   0.835  0.00  0.00     0.015 A 
ATOM      7  C7  IND d   1       0.652   1.142  -0.458  0.00  0.00    -0.016 A 
ATOM      8  C8  IND d   1       0.685   0.162  -1.440  0.00  0.00    -0.047 A 
ATOM      9  C9  IND d   1       0.885  -1.190  -1.132  0.00  0.00    -0.096 A 
ATOM     10  HN1 IND d   1       0.471   0.987  -3.254  0.00  0.00     0.298 HD
ENDROOT
TORSDOF 0
ENDMDL
