MODEL 1
REMARK minimizedAffinity 1.70134485
REMARK minimizedRMSD -1
REMARK  0 active torsions:
REMARK  status: ('A' for Active; 'I' for Inactive)
ROOT
ATOM      1  N1  IND d   1      -0.663   0.135  -0.949  0.00  0.00    -0.196 N 
ATOM      2  C2  IND d   1       0.328  -0.298  -1.787  0.00  0.00     0.054 A 
ATOM      3  C3  IND d   1       1.485  -0.455  -1.105  0.00  0.00    -0.031 A 
ATOM      4  C4  IND d   1       1.956  -0.158   1.408  0.00  0.00     0.051 A 
ATOM      5  C5  IND d   1       1.372   0.260   2.571  0.00  0.00    -0.031 A 
ATOM      6  C6  IND d   1       0.054   0.664   2.622  0.00  0.00     0.015 A 
ATOM      7  C7  IND d   1      -0.738   0.653   1.508  0.00  0.00    -0.016 A 
ATOM      8  C8  IND d   1      -0.147   0.235   0.324  0.00  0.00    -0.047 A 
ATOM      9  C9  IND d   1       1.203  -0.135   0.258  0.00  0.00    -0.096 A 
ATOM     10  HN1 IND d   1      -1.471   0.313  -1.179  0.00  0.00     0.298 HD
ENDROOT
TORSDOF 0
ENDMDL
