MODEL 1
REMARK minimizedAffinity -4.28288078
REMARK minimizedRMSD -1
REMARK  0 active torsions:
REMARK  status: ('A' for Active; 'I' for Inactive)
ROOT
ATOM      1  N1  IND d   1       1.143  -2.181  -2.315  0.00  0.00    -0.196 N 
ATOM      2  C2  IND d   1       0.947  -1.892  -3.637  0.00  0.00     0.054 A 
ATOM      3  C3  IND d   1       0.126  -0.826  -3.769  0.00  0.00    -0.031 A 
ATOM      4  C4  IND d   1      -0.928   0.661  -1.952  0.00  0.00     0.051 A 
ATOM      5  C5  IND d   1      -1.068   0.771  -0.597  0.00  0.00    -0.031 A 
ATOM      6  C6  IND d   1      -0.463  -0.114   0.273  0.00  0.00     0.015 A 
ATOM      7  C7  IND d   1       0.316  -1.139  -0.183  0.00  0.00    -0.016 A 
ATOM      8  C8  IND d   1       0.454  -1.258  -1.558  0.00  0.00    -0.047 A 
ATOM      9  C9  IND d   1      -0.191  -0.389  -2.447  0.00  0.00    -0.096 A 
ATOM     10  HN1 IND d   1       1.616  -2.829  -2.008  0.00  0.00     0.298 HD
ENDROOT
TORSDOF 0
ENDMDL
