MODEL 1
REMARK minimizedAffinity 0.0430249423
REMARK minimizedRMSD -1
REMARK  0 active torsions:
REMARK  status: ('A' for Active; 'I' for Inactive)
ROOT
ATOM      1  N1  IND d   1      -1.705   0.619   1.876  0.00  0.00    -0.196 N 
ATOM      2  C2  IND d   1      -1.154   0.516   3.123  0.00  0.00     0.054 A 
ATOM      3  C3  IND d   1       0.126   0.091   3.038  0.00  0.00    -0.031 A 
ATOM      4  C4  IND d   1       1.552  -0.399   0.951  0.00  0.00     0.051 A 
ATOM      5  C5  IND d   1       1.475  -0.482  -0.411  0.00  0.00    -0.031 A 
ATOM      6  C6  IND d   1       0.311  -0.194  -1.094  0.00  0.00     0.015 A 
ATOM      7  C7  IND d   1      -0.821   0.201  -0.439  0.00  0.00    -0.016 A 
ATOM      8  C8  IND d   1      -0.748   0.279   0.945  0.00  0.00    -0.047 A 
ATOM      9  C9  IND d   1       0.418  -0.053   1.647  0.00  0.00    -0.096 A 
ATOM     10  HN1 IND d   1      -2.513   0.856   1.703  0.00  0.00     0.298 HD
ENDROOT
TORSDOF 0
ENDMDL
