MODEL 1
REMARK minimizedAffinity 0.470383734
REMARK minimizedRMSD -1
REMARK  0 active torsions:
REMARK  status: ('A' for Active; 'I' for Inactive)
ROOT
ATOM      1  N1  IND d   1      -0.759   0.387  -0.520  0.00  0.00    -0.196 N 
ATOM      2  C2  IND d   1       0.576   0.152  -0.695  0.00  0.00     0.054 A 
ATOM      3  C3  IND d   1       1.205   0.097   0.500  0.00  0.00    -0.031 A 
ATOM      4  C4  IND d   1       0.223   0.263   2.874  0.00  0.00     0.051 A 
ATOM      5  C5  IND d   1      -0.943   0.513   3.543  0.00  0.00    -0.031 A 
ATOM      6  C6  IND d   1      -2.132   0.735   2.877  0.00  0.00     0.015 A 
ATOM      7  C7  IND d   1      -2.201   0.704   1.513  0.00  0.00    -0.016 A 
ATOM      8  C8  IND d   1      -1.018   0.458   0.831  0.00  0.00    -0.047 A 
ATOM      9  C9  IND d   1       0.199   0.274   1.500  0.00  0.00    -0.096 A 
ATOM     10  HN1 IND d   1      -1.340   0.475  -1.148  0.00  0.00     0.298 HD
ENDROOT
TORSDOF 0
ENDMDL
