MODEL 1
REMARK minimizedAffinity 0.144249588
REMARK minimizedRMSD -1
REMARK  0 active torsions:
REMARK  status: ('A' for Active; 'I' for Inactive)
ROOT
ATOM      1  N1  IND d   1      -0.637   0.968  -0.945  0.00  0.00    -0.196 N 
ATOM      2  C2  IND d   1      -0.226   0.118  -1.933  0.00  0.00     0.054 A 
ATOM      3  C3  IND d   1       0.668  -0.772  -1.446  0.00  0.00    -0.031 A 
ATOM      4  C4  IND d   1       1.522  -1.081   0.962  0.00  0.00     0.051 A 
ATOM      5  C5  IND d   1       1.461  -0.521   2.207  0.00  0.00    -0.031 A 
ATOM      6  C6  IND d   1       0.679   0.585   2.471  0.00  0.00     0.015 A 
ATOM      7  C7  IND d   1      -0.083   1.168   1.498  0.00  0.00    -0.016 A 
ATOM      8  C8  IND d   1      -0.017   0.605   0.231  0.00  0.00    -0.047 A 
ATOM      9  C9  IND d   1       0.807  -0.491  -0.053  0.00  0.00    -0.096 A 
ATOM     10  HN1 IND d   1      -1.190   1.619  -1.041  0.00  0.00     0.298 HD
ENDROOT
TORSDOF 0
ENDMDL
