MODEL 1
REMARK minimizedAffinity -1.96446824
REMARK minimizedRMSD -1
REMARK  0 active torsions:
REMARK  status: ('A' for Active; 'I' for Inactive)
ROOT
ATOM      1  N1  IND d   1      -0.240  -1.178  -0.767  0.00  0.00    -0.196 N 
ATOM      2  C2  IND d   1      -0.075   0.082  -0.263  0.00  0.00     0.054 A 
ATOM      3  C3  IND d   1       0.613   0.852  -1.136  0.00  0.00    -0.031 A 
ATOM      4  C4  IND d   1       1.477   0.279  -3.492  0.00  0.00     0.051 A 
ATOM      5  C5  IND d   1       1.599  -0.759  -4.372  0.00  0.00    -0.031 A 
ATOM      6  C6  IND d   1       1.102  -2.016  -4.091  0.00  0.00     0.015 A 
ATOM      7  C7  IND d   1       0.451  -2.278  -2.918  0.00  0.00    -0.016 A 
ATOM      8  C8  IND d   1       0.332  -1.227  -2.020  0.00  0.00    -0.047 A 
ATOM      9  C9  IND d   1       0.872   0.038  -2.282  0.00  0.00    -0.096 A 
ATOM     10  HN1 IND d   1      -0.633  -1.831  -0.369  0.00  0.00     0.298 HD
ENDROOT
TORSDOF 0
ENDMDL
