MODEL 1
REMARK minimizedAffinity -1.79400492
REMARK minimizedRMSD -1
REMARK  0 active torsions:
REMARK  status: ('A' for Active; 'I' for Inactive)
ROOT
ATOM      1  N1  IND d   1      -2.370   0.541   0.146  0.00  0.00    -0.196 N 
ATOM      2  C2  IND d   1      -3.205   0.793   1.199  0.00  0.00     0.054 A 
ATOM      3  C3  IND d   1      -2.523   0.738   2.364  0.00  0.00    -0.031 A 
ATOM      4  C4  IND d   1      -0.011   0.350   2.772  0.00  0.00     0.051 A 
ATOM      5  C5  IND d   1       1.150   0.037   2.123  0.00  0.00    -0.031 A 
ATOM      6  C6  IND d   1       1.199  -0.125   0.753  0.00  0.00     0.015 A 
ATOM      7  C7  IND d   1       0.085   0.032  -0.023  0.00  0.00    -0.016 A 
ATOM      8  C8  IND d   1      -1.097   0.343   0.634  0.00  0.00    -0.047 A 
ATOM      9  C9  IND d   1      -1.161   0.467   2.028  0.00  0.00    -0.096 A 
ATOM     10  HN1 IND d   1      -2.601   0.510  -0.681  0.00  0.00     0.298 HD
ENDROOT
TORSDOF 0
ENDMDL
