MODEL 1
REMARK minimizedAffinity -3.93952537
REMARK minimizedRMSD -1
REMARK  0 active torsions:
REMARK  status: ('A' for Active; 'I' for Inactive)
ROOT
ATOM      1  N1  IND d   1      -2.926   0.518   0.846  0.00  0.00    -0.196 N 
ATOM      2  C2  IND d   1      -3.376   0.764   2.113  0.00  0.00     0.054 A 
ATOM      3  C3  IND d   1      -2.357   0.688   2.998  0.00  0.00    -0.031 A 
ATOM      4  C4  IND d   1       0.148   0.272   2.575  0.00  0.00     0.051 A 
ATOM      5  C5  IND d   1       1.036  -0.042   1.584  0.00  0.00    -0.031 A 
ATOM      6  C6  IND d   1       0.640  -0.187   0.270  0.00  0.00     0.015 A 
ATOM      7  C7  IND d   1      -0.661  -0.009  -0.106  0.00  0.00    -0.016 A 
ATOM      8  C8  IND d   1      -1.566   0.303   0.898  0.00  0.00    -0.047 A 
ATOM      9  C9  IND d   1      -1.178   0.409   2.240  0.00  0.00    -0.096 A 
ATOM     10  HN1 IND d   1      -3.410   0.501   0.136  0.00  0.00     0.298 HD
ENDROOT
TORSDOF 0
ENDMDL
