MODEL 1
REMARK minimizedAffinity -0.120956667
REMARK minimizedRMSD -1
REMARK  0 active torsions:
REMARK  status: ('A' for Active; 'I' for Inactive)
ROOT
ATOM      1  N1  IND d   1       1.095  -2.336  -2.405  0.00  0.00    -0.196 N 
ATOM      2  C2  IND d   1       0.844  -1.929  -3.686  0.00  0.00     0.054 A 
ATOM      3  C3  IND d   1       0.315  -0.685  -3.690  0.00  0.00    -0.031 A 
ATOM      4  C4  IND d   1      -0.130   0.908  -1.717  0.00  0.00     0.051 A 
ATOM      5  C5  IND d   1      -0.097   0.968  -0.352  0.00  0.00    -0.031 A 
ATOM      6  C6  IND d   1       0.347  -0.090   0.414  0.00  0.00     0.015 A 
ATOM      7  C7  IND d   1       0.787  -1.250  -0.160  0.00  0.00    -0.016 A 
ATOM      8  C8  IND d   1       0.748  -1.317  -1.546  0.00  0.00    -0.047 A 
ATOM      9  C9  IND d   1       0.258  -0.261  -2.326  0.00  0.00    -0.096 A 
ATOM     10  HN1 IND d   1       1.416  -3.100  -2.175  0.00  0.00     0.298 HD
ENDROOT
TORSDOF 0
ENDMDL
