MODEL 1
REMARK minimizedAffinity 4.56579685
REMARK minimizedRMSD -1
REMARK  1 active torsions:
REMARK  status: ('A' for Active; 'I' for Inactive)
REMARK    1  A    between atoms: C3_4  and  O_7 
ROOT
ATOM      1  C   UNL d   1      -5.436   5.686  -5.268  0.00  0.00    -0.033 A 
ATOM      2  C1  UNL d   1      -4.296   5.532  -4.478  0.00  0.00     0.039 A 
ATOM      3  C2  UNL d   1      -3.658   4.292  -4.403  0.00  0.00    -0.080 A 
ATOM      4  C3  UNL d   1      -4.170   3.216  -5.122  0.00  0.00     0.150 A 
ATOM      5  C4  UNL d   1      -5.304   3.363  -5.914  0.00  0.00    -0.007 A 
ATOM      6  C5  UNL d   1      -5.940   4.602  -5.988  0.00  0.00     0.039 A 
ENDROOT
BRANCH   4   7
ATOM      7  O   UNL d   1      -3.586   1.985  -5.076  0.00  0.00    -0.526 OA
ATOM      8  H5  UNL d   1      -2.830   2.026  -4.467  0.00  0.00     0.418 HD
ENDBRANCH   4   7
TORSDOF 1
ENDMDL
