MODEL 1
REMARK minimizedAffinity 12.7573032
REMARK minimizedRMSD -1
REMARK  1 active torsions:
REMARK  status: ('A' for Active; 'I' for Inactive)
REMARK    1  A    between atoms: C3_4  and  O_7 
ROOT
ATOM      1  C   UNL d   1      -2.125  -0.933  -3.296  0.00  0.00    -0.033 A 
ATOM      2  C1  UNL d   1      -3.097  -0.006  -3.677  0.00  0.00     0.039 A 
ATOM      3  C2  UNL d   1      -2.722   1.185  -4.300  0.00  0.00    -0.080 A 
ATOM      4  C3  UNL d   1      -1.373   1.437  -4.538  0.00  0.00     0.150 A 
ATOM      5  C4  UNL d   1      -0.400   0.517  -4.164  0.00  0.00    -0.007 A 
ATOM      6  C5  UNL d   1      -0.776  -0.672  -3.541  0.00  0.00     0.039 A 
ENDROOT
BRANCH   4   7
ATOM      7  O   UNL d   1      -0.958   2.588  -5.139  0.00  0.00    -0.526 OA
ATOM      8  H5  UNL d   1      -1.738   3.142  -5.315  0.00  0.00     0.418 HD
ENDBRANCH   4   7
TORSDOF 1
ENDMDL
