MODEL 1
REMARK minimizedAffinity 7.39749289
REMARK minimizedRMSD -1
REMARK  1 active torsions:
REMARK  status: ('A' for Active; 'I' for Inactive)
REMARK    1  A    between atoms: C3_4  and  O_7 
ROOT
ATOM      1  C   UNL d   1      -6.000   4.995  -5.997  0.00  0.00    -0.033 A 
ATOM      2  C1  UNL d   1      -5.852   6.000  -5.039  0.00  0.00     0.039 A 
ATOM      3  C2  UNL d   1      -4.852   5.901  -4.070  0.00  0.00    -0.080 A 
ATOM      4  C3  UNL d   1      -4.007   4.795  -4.071  0.00  0.00     0.150 A 
ATOM      5  C4  UNL d   1      -4.146   3.793  -5.025  0.00  0.00    -0.007 A 
ATOM      6  C5  UNL d   1      -5.146   3.892  -5.991  0.00  0.00     0.039 A 
ENDROOT
BRANCH   4   7
ATOM      7  O   UNL d   1      -3.019   4.652  -3.142  0.00  0.00    -0.526 OA
ATOM      8  H5  UNL d   1      -3.060   5.406  -2.530  0.00  0.00     0.418 HD
ENDBRANCH   4   7
TORSDOF 1
ENDMDL
