MODEL 1
REMARK minimizedAffinity 9.53113174
REMARK minimizedRMSD -1
REMARK  1 active torsions:
REMARK  status: ('A' for Active; 'I' for Inactive)
REMARK    1  A    between atoms: C3_4  and  O_7 
ROOT
ATOM      1  C   UNL d   1      -2.220  -1.074  -1.376  0.00  0.00    -0.033 A 
ATOM      2  C1  UNL d   1      -2.486  -1.392  -0.043  0.00  0.00     0.039 A 
ATOM      3  C2  UNL d   1      -1.679  -2.310   0.632  0.00  0.00    -0.080 A 
ATOM      4  C3  UNL d   1      -0.611  -2.902  -0.036  0.00  0.00     0.150 A 
ATOM      5  C4  UNL d   1      -0.338  -2.587  -1.363  0.00  0.00    -0.007 A 
ATOM      6  C5  UNL d   1      -1.145  -1.671  -2.036  0.00  0.00     0.039 A 
ENDROOT
BRANCH   4   7
ATOM      7  O   UNL d   1       0.201  -3.807   0.580  0.00  0.00    -0.526 OA
ATOM      8  H5  UNL d   1      -0.125  -3.948   1.485  0.00  0.00     0.418 HD
ENDBRANCH   4   7
TORSDOF 1
ENDMDL
