MODEL 1
REMARK minimizedAffinity 11.588625
REMARK minimizedRMSD -1
REMARK  1 active torsions:
REMARK  status: ('A' for Active; 'I' for Inactive)
REMARK    1  A    between atoms: C3_4  and  O_7 
ROOT
ATOM      1  C   UNL d   1      -3.128   3.350  -4.601  0.00  0.00    -0.033 A 
ATOM      2  C1  UNL d   1      -3.147   4.656  -4.107  0.00  0.00     0.039 A 
ATOM      3  C2  UNL d   1      -4.108   5.562  -4.560  0.00  0.00    -0.080 A 
ATOM      4  C3  UNL d   1      -5.044   5.150  -5.505  0.00  0.00     0.150 A 
ATOM      5  C4  UNL d   1      -5.033   3.849  -5.999  0.00  0.00    -0.007 A 
ATOM      6  C5  UNL d   1      -4.072   2.947  -5.546  0.00  0.00     0.039 A 
ENDROOT
BRANCH   4   7
ATOM      7  O   UNL d   1      -5.998   5.999  -5.981  0.00  0.00    -0.526 OA
ATOM      8  H5  UNL d   1      -5.865   6.871  -5.572  0.00  0.00     0.418 HD
ENDBRANCH   4   7
TORSDOF 1
ENDMDL
