MODEL 1
REMARK minimizedAffinity 7.47739744
REMARK minimizedRMSD -1
REMARK  1 active torsions:
REMARK  status: ('A' for Active; 'I' for Inactive)
REMARK    1  A    between atoms: C3_4  and  O_7 
ROOT
ATOM      1  C   UNL d   1      -5.311   6.000  -4.958  0.00  0.00    -0.033 A 
ATOM      2  C1  UNL d   1      -5.999   5.139  -5.815  0.00  0.00     0.039 A 
ATOM      3  C2  UNL d   1      -5.550   3.829  -6.000  0.00  0.00    -0.080 A 
ATOM      4  C3  UNL d   1      -4.415   3.394  -5.322  0.00  0.00     0.150 A 
ATOM      5  C4  UNL d   1      -3.727   4.245  -4.463  0.00  0.00    -0.007 A 
ATOM      6  C5  UNL d   1      -4.176   5.553  -4.281  0.00  0.00     0.039 A 
ENDROOT
BRANCH   4   7
ATOM      7  O   UNL d   1      -3.937   2.127  -5.474  0.00  0.00    -0.526 OA
ATOM      8  H5  UNL d   1      -4.496   1.662  -6.118  0.00  0.00     0.418 HD
ENDBRANCH   4   7
TORSDOF 1
ENDMDL
