MODEL 1
REMARK minimizedAffinity 9.84259319
REMARK minimizedRMSD -1
REMARK  1 active torsions:
REMARK  status: ('A' for Active; 'I' for Inactive)
REMARK    1  A    between atoms: C3_4  and  O_7 
ROOT
ATOM      1  C   UNL d   1      -5.812   4.614  -6.000  0.00  0.00    -0.033 A 
ATOM      2  C1  UNL d   1      -4.743   3.735  -5.817  0.00  0.00     0.039 A 
ATOM      3  C2  UNL d   1      -3.790   3.988  -4.828  0.00  0.00    -0.080 A 
ATOM      4  C3  UNL d   1      -3.918   5.121  -4.030  0.00  0.00     0.150 A 
ATOM      5  C4  UNL d   1      -4.983   6.000  -4.204  0.00  0.00    -0.007 A 
ATOM      6  C5  UNL d   1      -5.933   5.746  -5.193  0.00  0.00     0.039 A 
ENDROOT
BRANCH   4   7
ATOM      7  O   UNL d   1      -3.011   5.413  -3.055  0.00  0.00    -0.526 OA
ATOM      8  H5  UNL d   1      -2.316   4.734  -3.069  0.00  0.00     0.418 HD
ENDBRANCH   4   7
TORSDOF 1
ENDMDL
