MODEL 1
REMARK minimizedAffinity 11.2786636
REMARK minimizedRMSD -1
REMARK  1 active torsions:
REMARK  status: ('A' for Active; 'I' for Inactive)
REMARK    1  A    between atoms: C3_4  and  O_7 
ROOT
ATOM      1  C   UNL d   1       1.810   0.401  -2.568  0.00  0.00    -0.033 A 
ATOM      2  C1  UNL d   1       1.928  -0.280  -1.355  0.00  0.00     0.039 A 
ATOM      3  C2  UNL d   1       2.303   0.408  -0.200  0.00  0.00    -0.080 A 
ATOM      4  C3  UNL d   1       2.555   1.775  -0.270  0.00  0.00     0.150 A 
ATOM      5  C4  UNL d   1       2.435   2.461  -1.474  0.00  0.00    -0.007 A 
ATOM      6  C5  UNL d   1       2.062   1.772  -2.627  0.00  0.00     0.039 A 
ENDROOT
BRANCH   4   7
ATOM      7  O   UNL d   1       2.929   2.489   0.830  0.00  0.00    -0.526 OA
ATOM      8  H5  UNL d   1       2.998   1.879   1.583  0.00  0.00     0.418 HD
ENDBRANCH   4   7
TORSDOF 1
ENDMDL
