MODEL 1
REMARK minimizedAffinity 3.8919394
REMARK minimizedRMSD -1
REMARK  1 active torsions:
REMARK  status: ('A' for Active; 'I' for Inactive)
REMARK    1  A    between atoms: C3_4  and  O_7 
ROOT
ATOM      1  C   UNL d   1      -1.155  -2.567  -0.995  0.00  0.00    -0.033 A 
ATOM      2  C1  UNL d   1      -2.120  -1.614  -0.662  0.00  0.00     0.039 A 
ATOM      3  C2  UNL d   1      -2.381  -1.322   0.678  0.00  0.00    -0.080 A 
ATOM      4  C3  UNL d   1      -1.671  -1.988   1.674  0.00  0.00     0.150 A 
ATOM      5  C4  UNL d   1      -0.706  -2.936   1.348  0.00  0.00    -0.007 A 
ATOM      6  C5  UNL d   1      -0.447  -3.227   0.010  0.00  0.00     0.039 A 
ENDROOT
BRANCH   4   7
ATOM      7  O   UNL d   1      -1.894  -1.741   2.995  0.00  0.00    -0.526 OA
ATOM      8  H5  UNL d   1      -2.608  -1.085   3.069  0.00  0.00     0.418 HD
ENDBRANCH   4   7
TORSDOF 1
ENDMDL
