MODEL 1
REMARK minimizedAffinity 10.3635368
REMARK minimizedRMSD -1
REMARK  1 active torsions:
REMARK  status: ('A' for Active; 'I' for Inactive)
REMARK    1  A    between atoms: C3_4  and  O_7 
ROOT
ATOM      1  C   UNL d   1       5.027   2.389  -1.269  0.00  0.00    -0.033 A 
ATOM      2  C1  UNL d   1       6.000   3.355  -1.536  0.00  0.00     0.039 A 
ATOM      3  C2  UNL d   1       5.976   4.577  -0.861  0.00  0.00    -0.080 A 
ATOM      4  C3  UNL d   1       4.977   4.820   0.077  0.00  0.00     0.150 A 
ATOM      5  C4  UNL d   1       4.007   3.861   0.351  0.00  0.00    -0.007 A 
ATOM      6  C5  UNL d   1       4.032   2.642  -0.325  0.00  0.00     0.039 A 
ENDROOT
BRANCH   4   7
ATOM      7  O   UNL d   1       4.911   6.000   0.758  0.00  0.00    -0.526 OA
ATOM      8  H5  UNL d   1       5.628   6.576   0.445  0.00  0.00     0.418 HD
ENDBRANCH   4   7
TORSDOF 1
ENDMDL
