MODEL 1
REMARK minimizedAffinity 14.9542437
REMARK minimizedRMSD -1
REMARK  1 active torsions:
REMARK  status: ('A' for Active; 'I' for Inactive)
REMARK    1  A    between atoms: C3_4  and  O_7 
ROOT
ATOM      1  C   UNL d   1       1.643  -0.799  -2.926  0.00  0.00    -0.033 A 
ATOM      2  C1  UNL d   1       2.853  -0.103  -2.947  0.00  0.00     0.039 A 
ATOM      3  C2  UNL d   1       3.015   1.042  -2.165  0.00  0.00    -0.080 A 
ATOM      4  C3  UNL d   1       1.961   1.479  -1.367  0.00  0.00     0.150 A 
ATOM      5  C4  UNL d   1       0.754   0.788  -1.338  0.00  0.00    -0.007 A 
ATOM      6  C5  UNL d   1       0.594  -0.355  -2.120  0.00  0.00     0.039 A 
ENDROOT
BRANCH   4   7
ATOM      7  O   UNL d   1       2.071   2.594  -0.590  0.00  0.00    -0.526 OA
ATOM      8  H5  UNL d   1       2.949   2.984  -0.733  0.00  0.00     0.418 HD
ENDBRANCH   4   7
TORSDOF 1
ENDMDL
