MODEL 1
REMARK minimizedAffinity 0.197953835
REMARK minimizedRMSD -1
REMARK  1 active torsions:
REMARK  status: ('A' for Active; 'I' for Inactive)
REMARK    1  A    between atoms: C3_4  and  O_7 
ROOT
ATOM      1  C   UNL d   1      -5.311   4.225   1.226  0.00  0.00    -0.033 A 
ATOM      2  C1  UNL d   1      -5.990   5.388   0.857  0.00  0.00     0.039 A 
ATOM      3  C2  UNL d   1      -5.716   5.999  -0.368  0.00  0.00    -0.080 A 
ATOM      4  C3  UNL d   1      -4.763   5.437  -1.214  0.00  0.00     0.150 A 
ATOM      5  C4  UNL d   1      -4.086   4.276  -0.854  0.00  0.00    -0.007 A 
ATOM      6  C5  UNL d   1      -4.361   3.668   0.370  0.00  0.00     0.039 A 
ENDROOT
BRANCH   4   7
ATOM      7  O   UNL d   1      -4.458   6.000  -2.418  0.00  0.00    -0.526 OA
ATOM      8  H5  UNL d   1      -4.983   6.811  -2.519  0.00  0.00     0.418 HD
ENDBRANCH   4   7
TORSDOF 1
ENDMDL
