MODEL 1
REMARK minimizedAffinity 14.0931578
REMARK minimizedRMSD -1
REMARK  1 active torsions:
REMARK  status: ('A' for Active; 'I' for Inactive)
REMARK    1  A    between atoms: C3_4  and  O_7 
ROOT
ATOM      1  C   UNL d   1      -0.147   2.842  -4.793  0.00  0.00    -0.033 A 
ATOM      2  C1  UNL d   1      -1.344   3.476  -4.455  0.00  0.00     0.039 A 
ATOM      3  C2  UNL d   1      -2.463   2.719  -4.105  0.00  0.00    -0.080 A 
ATOM      4  C3  UNL d   1      -2.372   1.330  -4.094  0.00  0.00     0.150 A 
ATOM      5  C4  UNL d   1      -1.182   0.691  -4.425  0.00  0.00    -0.007 A 
ATOM      6  C5  UNL d   1      -0.066   1.449  -4.776  0.00  0.00     0.039 A 
ENDROOT
BRANCH   4   7
ATOM      7  O   UNL d   1      -3.439   0.548  -3.763  0.00  0.00    -0.526 OA
ATOM      8  H5  UNL d   1      -4.200   1.126  -3.586  0.00  0.00     0.418 HD
ENDBRANCH   4   7
TORSDOF 1
ENDMDL
