MODEL 1
REMARK minimizedAffinity 4.1420064
REMARK minimizedRMSD -1
REMARK  1 active torsions:
REMARK  status: ('A' for Active; 'I' for Inactive)
REMARK    1  A    between atoms: C3_4  and  O_7 
ROOT
ATOM      1  C   UNL d   1      -5.508   5.949  -5.247  0.00  0.00    -0.033 A 
ATOM      2  C1  UNL d   1      -4.344   5.795  -4.491  0.00  0.00     0.039 A 
ATOM      3  C2  UNL d   1      -3.673   4.571  -4.481  0.00  0.00    -0.080 A 
ATOM      4  C3  UNL d   1      -4.173   3.511  -5.232  0.00  0.00     0.150 A 
ATOM      5  C4  UNL d   1      -5.330   3.658  -5.991  0.00  0.00    -0.007 A 
ATOM      6  C5  UNL d   1      -6.000   4.881  -5.998  0.00  0.00     0.039 A 
ENDROOT
BRANCH   4   7
ATOM      7  O   UNL d   1      -3.555   2.296  -5.250  0.00  0.00    -0.526 OA
ATOM      8  H5  UNL d   1      -2.786   2.333  -4.657  0.00  0.00     0.418 HD
ENDBRANCH   4   7
TORSDOF 1
ENDMDL
