MODEL 1
REMARK minimizedAffinity 8.29122066
REMARK minimizedRMSD -1
REMARK  1 active torsions:
REMARK  status: ('A' for Active; 'I' for Inactive)
REMARK    1  A    between atoms: C3_4  and  O_7 
ROOT
ATOM      1  C   UNL d   1      -2.040  -1.218  -0.491  0.00  0.00    -0.033 A 
ATOM      2  C1  UNL d   1      -1.048  -1.619  -1.388  0.00  0.00     0.039 A 
ATOM      3  C2  UNL d   1      -0.222  -2.701  -1.080  0.00  0.00    -0.080 A 
ATOM      4  C3  UNL d   1      -0.398  -3.373   0.127  0.00  0.00     0.150 A 
ATOM      5  C4  UNL d   1      -1.387  -2.981   1.023  0.00  0.00    -0.007 A 
ATOM      6  C5  UNL d   1      -2.211  -1.900   0.714  0.00  0.00     0.039 A 
ENDROOT
BRANCH   4   7
ATOM      7  O   UNL d   1       0.387  -4.432   0.474  0.00  0.00    -0.526 OA
ATOM      8  H5  UNL d   1       1.044  -4.571  -0.228  0.00  0.00     0.418 HD
ENDBRANCH   4   7
TORSDOF 1
ENDMDL
