MODEL 1
REMARK minimizedAffinity -5.74985886
REMARK minimizedRMSD -1
REMARK  0 active torsions:
REMARK  status: ('A' for Active; 'I' for Inactive)
ROOT
ATOM      1  N1  IND d   1       0.729  -0.357   0.027  0.00  0.00    -0.196 N 
ATOM      2  C2  IND d   1      -0.399  -0.477  -0.736  0.00  0.00     0.054 A 
ATOM      3  C3  IND d   1      -1.490  -0.121  -0.022  0.00  0.00    -0.031 A 
ATOM      4  C4  IND d   1      -1.647   0.789   2.381  0.00  0.00     0.051 A 
ATOM      5  C5  IND d   1      -0.888   1.040   3.489  0.00  0.00    -0.031 A 
ATOM      6  C6  IND d   1       0.477   0.837   3.500  0.00  0.00     0.015 A 
ATOM      7  C7  IND d   1       1.138   0.384   2.393  0.00  0.00    -0.016 A 
ATOM      8  C8  IND d   1       0.369   0.121   1.268  0.00  0.00    -0.047 A 
ATOM      9  C9  IND d   1      -1.022   0.284   1.265  0.00  0.00    -0.096 A 
ATOM     10  HN1 IND d   1       1.528  -0.547  -0.226  0.00  0.00     0.298 HD
ENDROOT
TORSDOF 0
ENDMDL
