MODEL 1
REMARK minimizedAffinity -3.74619126
REMARK minimizedRMSD -1
REMARK  0 active torsions:
REMARK  status: ('A' for Active; 'I' for Inactive)
ROOT
ATOM      1  N1  IND d   1      -1.216   0.489   0.531  0.00  0.00    -0.196 N 
ATOM      2  C2  IND d   1      -2.275   0.598   1.388  0.00  0.00     0.054 A 
ATOM      3  C3  IND d   1      -1.901   0.265   2.644  0.00  0.00    -0.031 A 
ATOM      4  C4  IND d   1       0.422  -0.390   3.538  0.00  0.00     0.051 A 
ATOM      5  C5  IND d   1       1.697  -0.662   3.128  0.00  0.00    -0.031 A 
ATOM      6  C6  IND d   1       2.075  -0.559   1.805  0.00  0.00     0.015 A 
ATOM      7  C7  IND d   1       1.190  -0.168   0.840  0.00  0.00    -0.016 A 
ATOM      8  C8  IND d   1      -0.107   0.102   1.252  0.00  0.00    -0.047 A 
ATOM      9  C9  IND d   1      -0.507  -0.042   2.587  0.00  0.00    -0.096 A 
ATOM     10  HN1 IND d   1      -1.238   0.637  -0.316  0.00  0.00     0.298 HD
ENDROOT
TORSDOF 0
ENDMDL
