MODEL 1
REMARK minimizedAffinity -3.83201957
REMARK minimizedRMSD -1
REMARK  0 active torsions:
REMARK  status: ('A' for Active; 'I' for Inactive)
ROOT
ATOM      1  N1  IND d   1       0.733  -0.737  -0.531  0.00  0.00    -0.196 N 
ATOM      2  C2  IND d   1      -0.418  -0.156  -0.987  0.00  0.00     0.054 A 
ATOM      3  C3  IND d   1      -1.024   0.530   0.008  0.00  0.00    -0.031 A 
ATOM      4  C4  IND d   1      -0.252   0.917   2.433  0.00  0.00     0.051 A 
ATOM      5  C5  IND d   1       0.718   0.557   3.326  0.00  0.00    -0.031 A 
ATOM      6  C6  IND d   1       1.765  -0.268   2.970  0.00  0.00     0.015 A 
ATOM      7  C7  IND d   1       1.888  -0.756   1.700  0.00  0.00    -0.016 A 
ATOM      8  C8  IND d   1       0.901  -0.398   0.793  0.00  0.00    -0.047 A 
ATOM      9  C9  IND d   1      -0.187   0.404   1.159  0.00  0.00    -0.096 A 
ATOM     10  HN1 IND d   1       1.262  -1.232  -0.994  0.00  0.00     0.298 HD
ENDROOT
TORSDOF 0
ENDMDL
