MODEL 1
REMARK minimizedAffinity -4.57515717
REMARK minimizedRMSD -1
REMARK  0 active torsions:
REMARK  status: ('A' for Active; 'I' for Inactive)
ROOT
ATOM      1  N1  IND d   1      -1.082   1.262   1.222  0.00  0.00    -0.196 N 
ATOM      2  C2  IND d   1      -0.780   1.571   2.518  0.00  0.00     0.054 A 
ATOM      3  C3  IND d   1       0.334   0.914   2.912  0.00  0.00    -0.031 A 
ATOM      4  C4  IND d   1       1.878  -0.641   1.560  0.00  0.00     0.051 A 
ATOM      5  C5  IND d   1       1.993  -1.253   0.344  0.00  0.00    -0.031 A 
ATOM      6  C6  IND d   1       1.072  -1.052  -0.664  0.00  0.00     0.015 A 
ATOM      7  C7  IND d   1       0.002  -0.218  -0.495  0.00  0.00    -0.016 A 
ATOM      8  C8  IND d   1      -0.121   0.399   0.741  0.00  0.00    -0.047 A 
ATOM      9  C9  IND d   1       0.787   0.166   1.782  0.00  0.00    -0.096 A 
ATOM     10  HN1 IND d   1      -1.758   1.557   0.780  0.00  0.00     0.298 HD
ENDROOT
TORSDOF 0
ENDMDL
