MODEL 1
REMARK minimizedAffinity -5.02626419
REMARK minimizedRMSD -1
REMARK  0 active torsions:
REMARK  status: ('A' for Active; 'I' for Inactive)
ROOT
ATOM      1  N1  IND d   1       2.020  -1.200   2.064  0.00  0.00    -0.196 N 
ATOM      2  C2  IND d   1       2.042  -0.877   3.392  0.00  0.00     0.054 A 
ATOM      3  C3  IND d   1       0.937  -0.170   3.722  0.00  0.00    -0.031 A 
ATOM      4  C4  IND d   1      -1.083   0.482   2.265  0.00  0.00     0.051 A 
ATOM      5  C5  IND d   1      -1.541   0.442   0.978  0.00  0.00    -0.031 A 
ATOM      6  C6  IND d   1      -0.822  -0.162  -0.033  0.00  0.00     0.015 A 
ATOM      7  C7  IND d   1       0.382  -0.761   0.209  0.00  0.00    -0.016 A 
ATOM      8  C8  IND d   1       0.854  -0.716   1.514  0.00  0.00    -0.047 A 
ATOM      9  C9  IND d   1       0.148  -0.067   2.535  0.00  0.00    -0.096 A 
ATOM     10  HN1 IND d   1       2.633  -1.632   1.643  0.00  0.00     0.298 HD
ENDROOT
TORSDOF 0
ENDMDL
