MODEL 1
REMARK minimizedAffinity -1.60649502
REMARK minimizedRMSD -1
REMARK  0 active torsions:
REMARK  status: ('A' for Active; 'I' for Inactive)
ROOT
ATOM      1  N1  IND d   1      -0.693   0.875  -0.032  0.00  0.00    -0.196 N 
ATOM      2  C2  IND d   1      -0.813  -0.421   0.386  0.00  0.00     0.054 A 
ATOM      3  C3  IND d   1      -0.398  -1.268  -0.583  0.00  0.00    -0.031 A 
ATOM      4  C4  IND d   1       0.609  -0.742  -2.893  0.00  0.00     0.051 A 
ATOM      5  C5  IND d   1       0.883   0.298  -3.738  0.00  0.00    -0.031 A 
ATOM      6  C6  IND d   1       0.643   1.609  -3.382  0.00  0.00     0.015 A 
ATOM      7  C7  IND d   1       0.129   1.932  -2.158  0.00  0.00    -0.016 A 
ATOM      8  C8  IND d   1      -0.157   0.879  -1.301  0.00  0.00    -0.047 A 
ATOM      9  C9  IND d   1       0.044  -0.456  -1.673  0.00  0.00    -0.096 A 
ATOM     10  HN1 IND d   1      -0.916   1.571   0.422  0.00  0.00     0.298 HD
ENDROOT
TORSDOF 0
ENDMDL
