MODEL 1
REMARK minimizedAffinity -2.27125621
REMARK minimizedRMSD -1
REMARK  0 active torsions:
REMARK  status: ('A' for Active; 'I' for Inactive)
ROOT
ATOM      1  N1  IND d   1      -0.629  -0.810  -0.678  0.00  0.00    -0.196 N 
ATOM      2  C2  IND d   1       0.663  -0.634  -1.089  0.00  0.00     0.054 A 
ATOM      3  C3  IND d   1       1.331   0.154  -0.216  0.00  0.00    -0.031 A 
ATOM      4  C4  IND d   1       0.530   1.179   2.005  0.00  0.00     0.051 A 
ATOM      5  C5  IND d   1      -0.583   1.327   2.784  0.00  0.00    -0.031 A 
ATOM      6  C6  IND d   1      -1.792   0.756   2.443  0.00  0.00     0.015 A 
ATOM      7  C7  IND d   1      -1.931   0.004   1.312  0.00  0.00    -0.016 A 
ATOM      8  C8  IND d   1      -0.805  -0.143   0.515  0.00  0.00    -0.047 A 
ATOM      9  C9  IND d   1       0.415   0.469   0.833  0.00  0.00    -0.096 A 
ATOM     10  HN1 IND d   1      -1.231  -1.261  -1.094  0.00  0.00     0.298 HD
ENDROOT
TORSDOF 0
ENDMDL
