MODEL 1
REMARK minimizedAffinity -4.99434566
REMARK minimizedRMSD -1
REMARK  0 active torsions:
REMARK  status: ('A' for Active; 'I' for Inactive)
ROOT
ATOM      1  N1  IND d   1       0.865  -0.207  -0.334  0.00  0.00    -0.196 N 
ATOM      2  C2  IND d   1      -0.227  -0.702  -0.990  0.00  0.00     0.054 A 
ATOM      3  C3  IND d   1      -1.336  -0.563  -0.229  0.00  0.00    -0.031 A 
ATOM      4  C4  IND d   1      -1.606   0.539   2.082  0.00  0.00     0.051 A 
ATOM      5  C5  IND d   1      -0.886   1.102   3.097  0.00  0.00    -0.031 A 
ATOM      6  C6  IND d   1       0.482   1.263   3.019  0.00  0.00     0.015 A 
ATOM      7  C7  IND d   1       1.182   0.876   1.912  0.00  0.00    -0.016 A 
ATOM      8  C8  IND d   1       0.455   0.297   0.881  0.00  0.00    -0.047 A 
ATOM      9  C9  IND d   1      -0.927   0.092   0.973  0.00  0.00    -0.096 A 
ATOM     10  HN1 IND d   1       1.673  -0.211  -0.629  0.00  0.00     0.298 HD
ENDROOT
TORSDOF 0
ENDMDL
