MODEL 1
REMARK minimizedAffinity 2.49988961
REMARK minimizedRMSD -1
REMARK  0 active torsions:
REMARK  status: ('A' for Active; 'I' for Inactive)
ROOT
ATOM      1  N1  IND d   1      -0.903  -1.180   0.227  0.00  0.00    -0.196 N 
ATOM      2  C2  IND d   1      -0.028  -0.855  -0.771  0.00  0.00     0.054 A 
ATOM      3  C3  IND d   1       0.701   0.229  -0.423  0.00  0.00    -0.031 A 
ATOM      4  C4  IND d   1       0.694   1.567   1.776  0.00  0.00     0.051 A 
ATOM      5  C5  IND d   1       0.040   1.672   2.971  0.00  0.00    -0.031 A 
ATOM      6  C6  IND d   1      -0.981   0.811   3.321  0.00  0.00     0.015 A 
ATOM      7  C7  IND d   1      -1.379  -0.197   2.490  0.00  0.00    -0.016 A 
ATOM      8  C8  IND d   1      -0.722  -0.301   1.272  0.00  0.00    -0.047 A 
ATOM      9  C9  IND d   1       0.285   0.595   0.894  0.00  0.00    -0.096 A 
ATOM     10  HN1 IND d   1      -1.471  -1.825   0.206  0.00  0.00     0.298 HD
ENDROOT
TORSDOF 0
ENDMDL
