MODEL 1
REMARK minimizedAffinity -4.43689203
REMARK minimizedRMSD -1
REMARK  0 active torsions:
REMARK  status: ('A' for Active; 'I' for Inactive)
ROOT
ATOM      1  N1  IND d   1       0.316   0.382  -0.333  0.00  0.00    -0.196 N 
ATOM      2  C2  IND d   1       1.677   0.509  -0.369  0.00  0.00     0.054 A 
ATOM      3  C3  IND d   1       2.169   0.645   0.883  0.00  0.00    -0.031 A 
ATOM      4  C4  IND d   1       0.935   0.584   3.141  0.00  0.00     0.051 A 
ATOM      5  C5  IND d   1      -0.318   0.525   3.683  0.00  0.00    -0.031 A 
ATOM      6  C6  IND d   1      -1.447   0.410   2.897  0.00  0.00     0.015 A 
ATOM      7  C7  IND d   1      -1.363   0.338   1.535  0.00  0.00    -0.016 A 
ATOM      8  C8  IND d   1      -0.092   0.405   0.982  0.00  0.00    -0.047 A 
ATOM      9  C9  IND d   1       1.054   0.565   1.772  0.00  0.00    -0.096 A 
ATOM     10  HN1 IND d   1      -0.198   0.301  -1.018  0.00  0.00     0.298 HD
ENDROOT
TORSDOF 0
ENDMDL
