MODEL 1
REMARK minimizedAffinity -2.77391076
REMARK minimizedRMSD -1
REMARK  0 active torsions:
REMARK  status: ('A' for Active; 'I' for Inactive)
ROOT
ATOM      1  N1  IND d   1      -0.550  -0.862   0.009  0.00  0.00    -0.196 N 
ATOM      2  C2  IND d   1      -1.770  -0.311  -0.265  0.00  0.00     0.054 A 
ATOM      3  C3  IND d   1      -2.277   0.283   0.838  0.00  0.00    -0.031 A 
ATOM      4  C4  IND d   1      -1.230   0.559   3.174  0.00  0.00     0.051 A 
ATOM      5  C5  IND d   1      -0.143   0.193   3.917  0.00  0.00    -0.031 A 
ATOM      6  C6  IND d   1       0.885  -0.557   3.385  0.00  0.00     0.015 A 
ATOM      7  C7  IND d   1       0.871  -0.960   2.080  0.00  0.00    -0.016 A 
ATOM      8  C8  IND d   1      -0.234  -0.596   1.323  0.00  0.00    -0.047 A 
ATOM      9  C9  IND d   1      -1.301   0.129   1.870  0.00  0.00    -0.096 A 
ATOM     10  HN1 IND d   1      -0.061  -1.301  -0.546  0.00  0.00     0.298 HD
ENDROOT
TORSDOF 0
ENDMDL
