MODEL 1
REMARK minimizedAffinity 4.69984627
REMARK minimizedRMSD -1
REMARK  0 active torsions:
REMARK  status: ('A' for Active; 'I' for Inactive)
ROOT
ATOM      1  C   UNL d   1       5.510   5.735   1.765  0.00  0.00     0.020 A 
ATOM      2  C1  UNL d   1       6.000   5.281   0.541  0.00  0.00     0.020 A 
ATOM      3  C2  UNL d   1       5.472   4.125  -0.038  0.00  0.00     0.034 A 
ATOM      4  C3  UNL d   1       4.450   3.419   0.608  0.00  0.00     0.017 A 
ATOM      5  C4  UNL d   1       3.959   3.875   1.837  0.00  0.00     0.017 A 
ATOM      6  C5  UNL d   1       4.491   5.033   2.411  0.00  0.00     0.034 A 
ATOM      7 Cl   UNL d   1       2.700   3.057   2.693  0.00  0.00    -0.070 Cl
ATOM      8 Cl1  UNL d   1       3.844   1.997  -0.165  0.00  0.00    -0.070 Cl
ENDROOT
TORSDOF 0
ENDMDL
