MODEL 1
REMARK minimizedAffinity 0.730315328
REMARK minimizedRMSD -1
REMARK  0 active torsions:
REMARK  status: ('A' for Active; 'I' for Inactive)
ROOT
ATOM      1  C   UNL d   1       1.489  -2.263  -0.394  0.00  0.00     0.020 A 
ATOM      2  C1  UNL d   1       1.967  -1.457  -1.426  0.00  0.00     0.020 A 
ATOM      3  C2  UNL d   1       1.338  -0.244  -1.714  0.00  0.00     0.034 A 
ATOM      4  C3  UNL d   1       0.227   0.167  -0.968  0.00  0.00     0.017 A 
ATOM      5  C4  UNL d   1      -0.253  -0.643   0.068  0.00  0.00     0.017 A 
ATOM      6  C5  UNL d   1       0.381  -1.856   0.351  0.00  0.00     0.034 A 
ATOM      7 Cl   UNL d   1      -1.619  -0.203   1.031  0.00  0.00    -0.070 Cl
ATOM      8 Cl1  UNL d   1      -0.502   1.679  -1.379  0.00  0.00    -0.070 Cl
ENDROOT
TORSDOF 0
ENDMDL
