MODEL 1
REMARK minimizedAffinity 1.6963793
REMARK minimizedRMSD -1
REMARK  0 active torsions:
REMARK  status: ('A' for Active; 'I' for Inactive)
ROOT
ATOM      1  C   UNL d   1      -0.608  -0.048   0.995  0.00  0.00     0.020 A 
ATOM      2  C1  UNL d   1      -1.123  -1.143   0.302  0.00  0.00     0.020 A 
ATOM      3  C2  UNL d   1      -0.402  -1.703  -0.754  0.00  0.00     0.034 A 
ATOM      4  C3  UNL d   1       0.839  -1.170  -1.120  0.00  0.00     0.017 A 
ATOM      5  C4  UNL d   1       1.356  -0.071  -0.424  0.00  0.00     0.017 A 
ATOM      6  C5  UNL d   1       0.629   0.487   0.633  0.00  0.00     0.034 A 
ATOM      7 Cl   UNL d   1       2.880   0.643  -0.817  0.00  0.00    -0.070 Cl
ATOM      8 Cl1  UNL d   1       1.678  -1.913  -2.435  0.00  0.00    -0.070 Cl
ENDROOT
TORSDOF 0
ENDMDL
