MODEL 1
REMARK minimizedAffinity -2.70405936
REMARK minimizedRMSD -1
REMARK  0 active torsions:
REMARK  status: ('A' for Active; 'I' for Inactive)
ROOT
ATOM      1  C   UNL d   1       2.886   0.246  -0.844  0.00  0.00     0.020 A 
ATOM      2  C1  UNL d   1       3.023  -1.097  -1.194  0.00  0.00     0.020 A 
ATOM      3  C2  UNL d   1       1.939  -1.967  -1.064  0.00  0.00     0.034 A 
ATOM      4  C3  UNL d   1       0.712  -1.495  -0.582  0.00  0.00     0.017 A 
ATOM      5  C4  UNL d   1       0.575  -0.148  -0.231  0.00  0.00     0.017 A 
ATOM      6  C5  UNL d   1       1.664   0.719  -0.364  0.00  0.00     0.034 A 
ATOM      7 Cl   UNL d   1      -0.907   0.508   0.370  0.00  0.00    -0.070 Cl
ATOM      8 Cl1  UNL d   1      -0.587  -2.627  -0.447  0.00  0.00    -0.070 Cl
ENDROOT
TORSDOF 0
ENDMDL
