MODEL 1
REMARK minimizedAffinity -3.60717964
REMARK minimizedRMSD -1
REMARK  0 active torsions:
REMARK  status: ('A' for Active; 'I' for Inactive)
ROOT
ATOM      1  C   UNL d   1       0.630   2.335  -0.763  0.00  0.00     0.020 A 
ATOM      2  C1  UNL d   1      -0.545   1.750  -0.290  0.00  0.00     0.020 A 
ATOM      3  C2  UNL d   1      -0.610   0.367  -0.106  0.00  0.00     0.034 A 
ATOM      4  C3  UNL d   1       0.500  -0.435  -0.394  0.00  0.00     0.017 A 
ATOM      5  C4  UNL d   1       1.678   0.153  -0.868  0.00  0.00     0.017 A 
ATOM      6  C5  UNL d   1       1.738   1.538  -1.050  0.00  0.00     0.034 A 
ATOM      7 Cl   UNL d   1       3.089  -0.771  -1.244  0.00  0.00    -0.070 Cl
ATOM      8 Cl1  UNL d   1       0.348  -2.138  -0.142  0.00  0.00    -0.070 Cl
ENDROOT
TORSDOF 0
ENDMDL
