MODEL 1
REMARK minimizedAffinity -4.71435499
REMARK minimizedRMSD -1
REMARK  0 active torsions:
REMARK  status: ('A' for Active; 'I' for Inactive)
ROOT
ATOM      1  C   UNL d   1       2.527   0.723  -1.393  0.00  0.00     0.020 A 
ATOM      2  C1  UNL d   1       3.142  -0.526  -1.334  0.00  0.00     0.020 A 
ATOM      3  C2  UNL d   1       2.485  -1.601  -0.731  0.00  0.00     0.034 A 
ATOM      4  C3  UNL d   1       1.208  -1.427  -0.184  0.00  0.00     0.017 A 
ATOM      5  C4  UNL d   1       0.592  -0.172  -0.243  0.00  0.00     0.017 A 
ATOM      6  C5  UNL d   1       1.254   0.900  -0.848  0.00  0.00     0.034 A 
ATOM      7 Cl   UNL d   1      -0.982   0.119   0.410  0.00  0.00    -0.070 Cl
ATOM      8 Cl1  UNL d   1       0.454  -2.799   0.547  0.00  0.00    -0.070 Cl
ENDROOT
TORSDOF 0
ENDMDL
