MODEL 1
REMARK minimizedAffinity -4.97234154
REMARK minimizedRMSD -1
REMARK  0 active torsions:
REMARK  status: ('A' for Active; 'I' for Inactive)
ROOT
ATOM      1  C   UNL d   1      -3.110  -1.818   3.056  0.00  0.00     0.020 A 
ATOM      2  C1  UNL d   1      -3.205  -0.987   4.171  0.00  0.00     0.020 A 
ATOM      3  C2  UNL d   1      -2.670   0.302   4.129  0.00  0.00     0.034 A 
ATOM      4  C3  UNL d   1      -2.037   0.764   2.969  0.00  0.00     0.017 A 
ATOM      5  C4  UNL d   1      -1.941  -0.071   1.850  0.00  0.00     0.017 A 
ATOM      6  C5  UNL d   1      -2.479  -1.361   1.898  0.00  0.00     0.034 A 
ATOM      7 Cl   UNL d   1      -1.175   0.428   0.384  0.00  0.00    -0.070 Cl
ATOM      8 Cl1  UNL d   1      -1.398   2.370   2.988  0.00  0.00    -0.070 Cl
ENDROOT
TORSDOF 0
ENDMDL
