MODEL 1
REMARK minimizedAffinity -4.91381693
REMARK minimizedRMSD -1
REMARK  0 active torsions:
REMARK  status: ('A' for Active; 'I' for Inactive)
ROOT
ATOM      1  C   UNL d   1       2.832   0.423  -1.583  0.00  0.00     0.020 A 
ATOM      2  C1  UNL d   1       2.958  -0.897  -2.016  0.00  0.00     0.020 A 
ATOM      3  C2  UNL d   1       1.966  -1.830  -1.707  0.00  0.00     0.034 A 
ATOM      4  C3  UNL d   1       0.844  -1.446  -0.964  0.00  0.00     0.017 A 
ATOM      5  C4  UNL d   1       0.719  -0.121  -0.529  0.00  0.00     0.017 A 
ATOM      6  C5  UNL d   1       1.715   0.810  -0.841  0.00  0.00     0.034 A 
ATOM      7 Cl   UNL d   1      -0.636   0.428   0.392  0.00  0.00    -0.070 Cl
ATOM      8 Cl1  UNL d   1      -0.343  -2.653  -0.619  0.00  0.00    -0.070 Cl
ENDROOT
TORSDOF 0
ENDMDL
