MODEL 1
REMARK minimizedAffinity -1.62806141
REMARK minimizedRMSD -1
REMARK  0 active torsions:
REMARK  status: ('A' for Active; 'I' for Inactive)
ROOT
ATOM      1  C   UNL d   1       1.664   0.512  -0.809  0.00  0.00     0.020 A 
ATOM      2  C1  UNL d   1       2.586  -0.531  -0.876  0.00  0.00     0.020 A 
ATOM      3  C2  UNL d   1       2.209  -1.822  -0.500  0.00  0.00     0.034 A 
ATOM      4  C3  UNL d   1       0.906  -2.073  -0.054  0.00  0.00     0.017 A 
ATOM      5  C4  UNL d   1      -0.019  -1.025   0.013  0.00  0.00     0.017 A 
ATOM      6  C5  UNL d   1       0.364   0.266  -0.365  0.00  0.00     0.034 A 
ATOM      7 Cl   UNL d   1      -1.645  -1.256   0.552  0.00  0.00    -0.070 Cl
ATOM      8 Cl1  UNL d   1       0.508  -3.693   0.395  0.00  0.00    -0.070 Cl
ENDROOT
TORSDOF 0
ENDMDL
