MODEL 1
REMARK minimizedAffinity -4.01372194
REMARK minimizedRMSD -1
REMARK  0 active torsions:
REMARK  status: ('A' for Active; 'I' for Inactive)
ROOT
ATOM      1  C   UNL d   1      -0.913  -0.092  -0.422  0.00  0.00     0.020 A 
ATOM      2  C1  UNL d   1      -0.156   1.035  -0.740  0.00  0.00     0.020 A 
ATOM      3  C2  UNL d   1       1.184   0.895  -1.109  0.00  0.00     0.034 A 
ATOM      4  C3  UNL d   1       1.771  -0.374  -1.160  0.00  0.00     0.017 A 
ATOM      5  C4  UNL d   1       1.010  -1.505  -0.840  0.00  0.00     0.017 A 
ATOM      6  C5  UNL d   1      -0.331  -1.359  -0.472  0.00  0.00     0.034 A 
ATOM      7 Cl   UNL d   1       1.665  -3.104  -0.880  0.00  0.00    -0.070 Cl
ATOM      8 Cl1  UNL d   1       3.432  -0.473  -1.624  0.00  0.00    -0.070 Cl
ENDROOT
TORSDOF 0
ENDMDL
