MODEL 1
REMARK minimizedAffinity -2.84155154
REMARK minimizedRMSD -1
REMARK  0 active torsions:
REMARK  status: ('A' for Active; 'I' for Inactive)
ROOT
ATOM      1  C   UNL d   1       3.521  -0.487  -1.938  0.00  0.00     0.020 A 
ATOM      2  C1  UNL d   1       2.884   0.731  -2.168  0.00  0.00     0.020 A 
ATOM      3  C2  UNL d   1       1.655   1.001  -1.562  0.00  0.00     0.034 A 
ATOM      4  C3  UNL d   1       1.060   0.052  -0.723  0.00  0.00     0.017 A 
ATOM      5  C4  UNL d   1       1.701  -1.171  -0.493  0.00  0.00     0.017 A 
ATOM      6  C5  UNL d   1       2.931  -1.436  -1.102  0.00  0.00     0.034 A 
ATOM      7 Cl   UNL d   1       1.028  -2.392   0.529  0.00  0.00    -0.070 Cl
ATOM      8 Cl1  UNL d   1      -0.460   0.453  -0.007  0.00  0.00    -0.070 Cl
ENDROOT
TORSDOF 0
ENDMDL
