MODEL 1
REMARK minimizedAffinity -4.5571661
REMARK minimizedRMSD -1
REMARK  0 active torsions:
REMARK  status: ('A' for Active; 'I' for Inactive)
ROOT
ATOM      1  C   UNL d   1       2.427  -1.224  -1.415  0.00  0.00     0.020 A 
ATOM      2  C1  UNL d   1       1.378  -1.814  -0.712  0.00  0.00     0.020 A 
ATOM      3  C2  UNL d   1       0.248  -1.062  -0.384  0.00  0.00     0.034 A 
ATOM      4  C3  UNL d   1       0.165   0.284  -0.760  0.00  0.00     0.017 A 
ATOM      5  C4  UNL d   1       1.219   0.875  -1.466  0.00  0.00     0.017 A 
ATOM      6  C5  UNL d   1       2.348   0.117  -1.792  0.00  0.00     0.034 A 
ATOM      7 Cl   UNL d   1       1.188   2.529  -1.964  0.00  0.00    -0.070 Cl
ATOM      8 Cl1  UNL d   1      -1.262   1.154  -0.321  0.00  0.00    -0.070 Cl
ENDROOT
TORSDOF 0
ENDMDL
