MODEL 1
REMARK minimizedAffinity -5.38963413
REMARK minimizedRMSD -1
REMARK  0 active torsions:
REMARK  status: ('A' for Active; 'I' for Inactive)
ROOT
ATOM      1  C   UNL d   1       2.715   0.111  -2.096  0.00  0.00     0.020 A 
ATOM      2  C1  UNL d   1       2.079   1.347  -2.202  0.00  0.00     0.020 A 
ATOM      3  C2  UNL d   1       0.812   1.531  -1.645  0.00  0.00     0.034 A 
ATOM      4  C3  UNL d   1       0.176   0.476  -0.980  0.00  0.00     0.017 A 
ATOM      5  C4  UNL d   1       0.815  -0.765  -0.874  0.00  0.00     0.017 A 
ATOM      6  C5  UNL d   1       2.084  -0.943  -1.434  0.00  0.00     0.034 A 
ATOM      7 Cl   UNL d   1       0.093  -2.113  -0.069  0.00  0.00    -0.070 Cl
ATOM      8 Cl1  UNL d   1      -1.391   0.774  -0.316  0.00  0.00    -0.070 Cl
ENDROOT
TORSDOF 0
ENDMDL
