MODEL 1
REMARK minimizedAffinity -4.89991093
REMARK minimizedRMSD -1
REMARK  0 active torsions:
REMARK  status: ('A' for Active; 'I' for Inactive)
ROOT
ATOM      1  C   UNL d   1       2.354   1.086  -2.081  0.00  0.00     0.020 A 
ATOM      2  C1  UNL d   1       2.464   0.020  -1.190  0.00  0.00     0.020 A 
ATOM      3  C2  UNL d   1       1.414  -0.271  -0.316  0.00  0.00     0.034 A 
ATOM      4  C3  UNL d   1       0.250   0.505  -0.331  0.00  0.00     0.017 A 
ATOM      5  C4  UNL d   1       0.140   1.576  -1.226  0.00  0.00     0.017 A 
ATOM      6  C5  UNL d   1       1.194   1.863  -2.099  0.00  0.00     0.034 A 
ATOM      7 Cl   UNL d   1      -1.265   2.579  -1.303  0.00  0.00    -0.070 Cl
ATOM      8 Cl1  UNL d   1      -1.008   0.088   0.777  0.00  0.00    -0.070 Cl
ENDROOT
TORSDOF 0
ENDMDL
