MODEL 1
REMARK minimizedAffinity -4.91037464
REMARK minimizedRMSD -1
REMARK  0 active torsions:
REMARK  status: ('A' for Active; 'I' for Inactive)
ROOT
ATOM      1  C   UNL d   1       2.849   0.593  -2.411  0.00  0.00     0.020 A 
ATOM      2  C1  UNL d   1       1.997   1.695  -2.350  0.00  0.00     0.020 A 
ATOM      3  C2  UNL d   1       0.869   1.661  -1.528  0.00  0.00     0.034 A 
ATOM      4  C3  UNL d   1       0.589   0.522  -0.764  0.00  0.00     0.017 A 
ATOM      5  C4  UNL d   1       1.444  -0.584  -0.826  0.00  0.00     0.017 A 
ATOM      6  C5  UNL d   1       2.573  -0.544  -1.651  0.00  0.00     0.034 A 
ATOM      7 Cl   UNL d   1       1.165  -2.025   0.087  0.00  0.00    -0.070 Cl
ATOM      8 Cl1  UNL d   1      -0.824   0.549   0.231  0.00  0.00    -0.070 Cl
ENDROOT
TORSDOF 0
ENDMDL
