MODEL 1
REMARK minimizedAffinity -5.21252394
REMARK minimizedRMSD -1
REMARK  0 active torsions:
REMARK  status: ('A' for Active; 'I' for Inactive)
ROOT
ATOM      1  C   UNL d   1       1.895   0.669  -1.341  0.00  0.00     0.020 A 
ATOM      2  C1  UNL d   1       2.154  -0.593  -1.876  0.00  0.00     0.020 A 
ATOM      3  C2  UNL d   1       1.352  -1.679  -1.521  0.00  0.00     0.034 A 
ATOM      4  C3  UNL d   1       0.288  -1.507  -0.628  0.00  0.00     0.017 A 
ATOM      5  C4  UNL d   1       0.029  -0.240  -0.092  0.00  0.00     0.017 A 
ATOM      6  C5  UNL d   1       0.835   0.844  -0.451  0.00  0.00     0.034 A 
ATOM      7 Cl   UNL d   1      -1.266   0.050   1.016  0.00  0.00    -0.070 Cl
ATOM      8 Cl1  UNL d   1      -0.663  -2.895  -0.233  0.00  0.00    -0.070 Cl
ENDROOT
TORSDOF 0
ENDMDL
