MODEL 1
REMARK minimizedAffinity 2.66841578
REMARK minimizedRMSD -1
REMARK  0 active torsions:
REMARK  status: ('A' for Active; 'I' for Inactive)
ROOT
ATOM      1  C   UNL d   1      -3.878  -2.103   4.128  0.00  0.00     0.020 A 
ATOM      2  C1  UNL d   1      -4.002  -1.018   4.994  0.00  0.00     0.020 A 
ATOM      3  C2  UNL d   1      -3.410   0.205   4.671  0.00  0.00     0.034 A 
ATOM      4  C3  UNL d   1      -2.691   0.345   3.478  0.00  0.00     0.017 A 
ATOM      5  C4  UNL d   1      -2.567  -0.745   2.609  0.00  0.00     0.017 A 
ATOM      6  C5  UNL d   1      -3.162  -1.967   2.938  0.00  0.00     0.034 A 
ATOM      7 Cl   UNL d   1      -1.696  -0.649   1.119  0.00  0.00    -0.070 Cl
ATOM      8 Cl1  UNL d   1      -1.985   1.886   3.142  0.00  0.00    -0.070 Cl
ENDROOT
TORSDOF 0
ENDMDL
