MODEL 1
REMARK minimizedAffinity -5.17270994
REMARK minimizedRMSD -1
REMARK  0 active torsions:
REMARK  status: ('A' for Active; 'I' for Inactive)
ROOT
ATOM      1  C   UNL d   1       2.825  -0.145  -0.398  0.00  0.00     0.020 A 
ATOM      2  C1  UNL d   1       2.675  -1.231  -1.260  0.00  0.00     0.020 A 
ATOM      3  C2  UNL d   1       1.441  -1.877  -1.361  0.00  0.00     0.034 A 
ATOM      4  C3  UNL d   1       0.352  -1.437  -0.600  0.00  0.00     0.017 A 
ATOM      5  C4  UNL d   1       0.503  -0.347   0.265  0.00  0.00     0.017 A 
ATOM      6  C5  UNL d   1       1.741   0.296   0.362  0.00  0.00     0.034 A 
ATOM      7 Cl   UNL d   1      -0.795   0.253   1.236  0.00  0.00    -0.070 Cl
ATOM      8 Cl1  UNL d   1      -1.145  -2.283  -0.775  0.00  0.00    -0.070 Cl
ENDROOT
TORSDOF 0
ENDMDL
