MODEL 1
REMARK minimizedAffinity -3.15444946
REMARK minimizedRMSD -1
REMARK  1 active torsions:
REMARK  status: ('A' for Active; 'I' for Inactive)
REMARK    1  A    between atoms: C1_2  and  C2_3 
ROOT
ATOM      1  C2  UNL d   1      -0.045  -0.427   0.472  0.00  0.00    -0.073 A 
ATOM      2  C3  UNL d   1       0.848  -1.266  -0.204  0.00  0.00    -0.002 A 
ATOM      3  C4  UNL d   1       0.506  -2.592  -0.470  0.00  0.00     0.004 A 
ATOM      4  C5  UNL d   1      -0.734  -3.091  -0.069  0.00  0.00    -0.004 A 
ATOM      5  C6  UNL d   1      -1.645  -2.264   0.597  0.00  0.00    -0.075 A 
ATOM      6  C7  UNL d   1      -2.981  -2.786   1.037  0.00  0.00     0.076 C 
ATOM      7  C8  UNL d   1      -1.292  -0.934   0.863  0.00  0.00     0.001 A 
ENDROOT
BRANCH   1   8
ATOM      8  C1  UNL d   1       0.319   1.008   0.755  0.00  0.00     0.053 C 
ATOM      9  C   UNL d   1      -0.066   1.930  -0.391  0.00  0.00     0.018 C 
ENDBRANCH   1   8
TORSDOF 1
ENDMDL
