MODEL 1
REMARK minimizedAffinity -3.12121654
REMARK minimizedRMSD -1
REMARK  1 active torsions:
REMARK  status: ('A' for Active; 'I' for Inactive)
REMARK    1  A    between atoms: C1_2  and  C2_3 
ROOT
ATOM      1  C2  UNL d   1       0.447   0.602  -0.498  0.00  0.00    -0.073 A 
ATOM      2  C3  UNL d   1       0.522   0.371  -1.876  0.00  0.00    -0.002 A 
ATOM      3  C4  UNL d   1       0.497  -0.932  -2.374  0.00  0.00     0.004 A 
ATOM      4  C5  UNL d   1       0.389  -2.015  -1.502  0.00  0.00    -0.004 A 
ATOM      5  C6  UNL d   1       0.301  -1.804  -0.122  0.00  0.00    -0.075 A 
ATOM      6  C7  UNL d   1       0.187  -2.958   0.830  0.00  0.00     0.076 C 
ATOM      7  C8  UNL d   1       0.330  -0.492   0.371  0.00  0.00     0.001 A 
ENDROOT
BRANCH   1   8
ATOM      8  C1  UNL d   1       0.467   2.008   0.045  0.00  0.00     0.053 C 
ATOM      9  C   UNL d   1       1.843   2.401   0.559  0.00  0.00     0.018 C 
ENDBRANCH   1   8
TORSDOF 1
ENDMDL
