MODEL 1
REMARK minimizedAffinity -2.90774417
REMARK minimizedRMSD -1
REMARK  1 active torsions:
REMARK  status: ('A' for Active; 'I' for Inactive)
REMARK    1  A    between atoms: C1_2  and  C2_3 
ROOT
ATOM      1  C2  UNL d   1      -0.129  -1.516  -0.300  0.00  0.00    -0.073 A 
ATOM      2  C3  UNL d   1       0.351  -1.544  -1.614  0.00  0.00    -0.002 A 
ATOM      3  C4  UNL d   1       0.714  -0.361  -2.258  0.00  0.00     0.004 A 
ATOM      4  C5  UNL d   1       0.607   0.861  -1.594  0.00  0.00    -0.004 A 
ATOM      5  C6  UNL d   1       0.141   0.909  -0.276  0.00  0.00    -0.075 A 
ATOM      6  C7  UNL d   1       0.018   2.216   0.452  0.00  0.00     0.076 C 
ATOM      7  C8  UNL d   1      -0.224  -0.283   0.363  0.00  0.00     0.001 A 
ENDROOT
BRANCH   1   8
ATOM      8  C1  UNL d   1      -0.516  -2.792   0.402  0.00  0.00     0.053 C 
ATOM      9  C   UNL d   1      -2.025  -2.950   0.507  0.00  0.00     0.018 C 
ENDBRANCH   1   8
TORSDOF 1
ENDMDL
