MODEL 1
REMARK minimizedAffinity -4.83295441
REMARK minimizedRMSD -1
REMARK  1 active torsions:
REMARK  status: ('A' for Active; 'I' for Inactive)
REMARK    1  A    between atoms: C1_2  and  C2_3 
ROOT
ATOM      1  C2  UNL d   1       0.280   0.222   0.064  0.00  0.00    -0.073 A 
ATOM      2  C3  UNL d   1       0.594  -1.011  -0.519  0.00  0.00    -0.002 A 
ATOM      3  C4  UNL d   1       0.176  -2.200   0.079  0.00  0.00     0.004 A 
ATOM      4  C5  UNL d   1      -0.566  -2.169   1.260  0.00  0.00    -0.004 A 
ATOM      5  C6  UNL d   1      -0.899  -0.946   1.851  0.00  0.00    -0.075 A 
ATOM      6  C7  UNL d   1      -1.694  -0.895   3.123  0.00  0.00     0.076 C 
ATOM      7  C8  UNL d   1      -0.473   0.244   1.246  0.00  0.00     0.001 A 
ENDROOT
BRANCH   1   8
ATOM      8  C1  UNL d   1       0.725   1.509  -0.582  0.00  0.00     0.053 C 
ATOM      9  C   UNL d   1       1.601   2.339   0.344  0.00  0.00     0.018 C 
ENDBRANCH   1   8
TORSDOF 1
ENDMDL
