MODEL 1
REMARK minimizedAffinity -4.25529766
REMARK minimizedRMSD -1
REMARK  1 active torsions:
REMARK  status: ('A' for Active; 'I' for Inactive)
REMARK    1  A    between atoms: C1_2  and  C2_3 
ROOT
ATOM      1  C2  UNL d   1       0.542  -1.661  -0.775  0.00  0.00    -0.073 A 
ATOM      2  C3  UNL d   1       0.719  -2.822  -0.013  0.00  0.00    -0.002 A 
ATOM      3  C4  UNL d   1       0.074  -2.964   1.216  0.00  0.00     0.004 A 
ATOM      4  C5  UNL d   1      -0.759  -1.952   1.693  0.00  0.00    -0.004 A 
ATOM      5  C6  UNL d   1      -0.958  -0.790   0.941  0.00  0.00    -0.075 A 
ATOM      6  C7  UNL d   1      -1.849   0.309   1.441  0.00  0.00     0.076 C 
ATOM      7  C8  UNL d   1      -0.304  -0.653  -0.291  0.00  0.00     0.001 A 
ENDROOT
BRANCH   1   8
ATOM      8  C1  UNL d   1       1.231  -1.506  -2.105  0.00  0.00     0.053 C 
ATOM      9  C   UNL d   1       0.629  -0.381  -2.932  0.00  0.00     0.018 C 
ENDBRANCH   1   8
TORSDOF 1
ENDMDL
