MODEL 1
REMARK minimizedAffinity 0.614908695
REMARK minimizedRMSD -1
REMARK  1 active torsions:
REMARK  status: ('A' for Active; 'I' for Inactive)
REMARK    1  A    between atoms: C1_2  and  C2_3 
ROOT
ATOM      1  C2  UNL d   1       0.124  -0.673  -0.053  0.00  0.00    -0.073 A 
ATOM      2  C3  UNL d   1       1.315  -1.395   0.078  0.00  0.00    -0.002 A 
ATOM      3  C4  UNL d   1       1.288  -2.741   0.444  0.00  0.00     0.004 A 
ATOM      4  C5  UNL d   1       0.070  -3.381   0.676  0.00  0.00    -0.004 A 
ATOM      5  C6  UNL d   1      -1.132  -2.680   0.539  0.00  0.00    -0.075 A 
ATOM      6  C7  UNL d   1      -2.450  -3.353   0.787  0.00  0.00     0.076 C 
ATOM      7  C8  UNL d   1      -1.096  -1.327   0.174  0.00  0.00     0.001 A 
ENDROOT
BRANCH   1   8
ATOM      8  C1  UNL d   1       0.148   0.779  -0.454  0.00  0.00     0.053 C 
ATOM      9  C   UNL d   1       1.215   1.560   0.297  0.00  0.00     0.018 C 
ENDBRANCH   1   8
TORSDOF 1
ENDMDL
