MODEL 1
REMARK minimizedAffinity -2.44849515
REMARK minimizedRMSD -1
REMARK  1 active torsions:
REMARK  status: ('A' for Active; 'I' for Inactive)
REMARK    1  A    between atoms: C1_2  and  C2_3 
ROOT
ATOM      1  C2  UNL d   1       0.369   1.078  -0.083  0.00  0.00    -0.073 A 
ATOM      2  C3  UNL d   1       0.474   1.045  -1.479  0.00  0.00    -0.002 A 
ATOM      3  C4  UNL d   1       0.138  -0.111  -2.184  0.00  0.00     0.004 A 
ATOM      4  C5  UNL d   1      -0.312  -1.242  -1.504  0.00  0.00    -0.004 A 
ATOM      5  C6  UNL d   1      -0.435  -1.226  -0.111  0.00  0.00    -0.075 A 
ATOM      6  C7  UNL d   1      -0.916  -2.435   0.636  0.00  0.00     0.076 C 
ATOM      7  C8  UNL d   1      -0.093  -0.062   0.591  0.00  0.00     0.001 A 
ENDROOT
BRANCH   1   8
ATOM      8  C1  UNL d   1       0.725   2.326   0.682  0.00  0.00     0.053 C 
ATOM      9  C   UNL d   1       2.086   2.872   0.281  0.00  0.00     0.018 C 
ENDBRANCH   1   8
TORSDOF 1
ENDMDL
