MODEL 1
REMARK minimizedAffinity -2.27346611
REMARK minimizedRMSD -1
REMARK  3 active torsions:
REMARK  status: ('A' for Active; 'I' for Inactive)
REMARK    1  A    between atoms: C3'_2  and  C2'_3 
REMARK    2  A    between atoms: C2'_3  and  C1'_4 
REMARK    3  A    between atoms: C1'_4  and  C1_5 
ROOT
ATOM      1  C1  N4B d   1      -2.444   1.004   2.622  0.00  0.00    -0.075 A 
ATOM      2  C2  N4B d   1      -1.581   2.117   2.515  0.00  0.00     0.002 A 
ATOM      3  C3  N4B d   1      -0.363   1.984   1.894  0.00  0.00     0.002 A 
ATOM      4  C4  N4B d   1       0.020   0.749   1.393  0.00  0.00    -0.004 A 
ATOM      5  C5  N4B d   1      -0.830  -0.315   1.478  0.00  0.00     0.002 A 
ATOM      6  C6  N4B d   1      -2.059  -0.195   2.095  0.00  0.00     0.002 A 
ENDROOT
BRANCH   1   7
ATOM      7  C1' N4B d   1      -3.749   1.079   3.367  0.00  0.00     0.057 C 
BRANCH   7   8
ATOM      8  C2' N4B d   1      -3.950   2.502   3.882  0.00  0.00     0.009 C 
BRANCH   8   9
ATOM      9  C3' N4B d   1      -4.754   2.531   5.170  0.00  0.00     0.004 C 
ATOM     10  C4' N4B d   1      -5.180   3.916   5.557  0.00  0.00     0.003 C 
ENDBRANCH   8   9
ENDBRANCH   7   8
ENDBRANCH   1   7
TORSDOF 3
ENDMDL
