MODEL 1
REMARK minimizedAffinity -0.94908607
REMARK minimizedRMSD -1
REMARK  3 active torsions:
REMARK  status: ('A' for Active; 'I' for Inactive)
REMARK    1  A    between atoms: C3'_2  and  C2'_3 
REMARK    2  A    between atoms: C2'_3  and  C1'_4 
REMARK    3  A    between atoms: C1'_4  and  C1_5 
ROOT
ATOM      1  C1  N4B d   1      -1.502   1.787   2.244  0.00  0.00    -0.075 A 
ATOM      2  C2  N4B d   1      -1.409   0.415   2.564  0.00  0.00     0.002 A 
ATOM      3  C3  N4B d   1      -0.415  -0.354   2.008  0.00  0.00     0.002 A 
ATOM      4  C4  N4B d   1       0.481   0.221   1.119  0.00  0.00    -0.004 A 
ATOM      5  C5  N4B d   1       0.399   1.553   0.835  0.00  0.00     0.002 A 
ATOM      6  C6  N4B d   1      -0.592   2.338   1.389  0.00  0.00     0.002 A 
ENDROOT
BRANCH   1   7
ATOM      7  C1' N4B d   1      -2.622   2.649   2.759  0.00  0.00     0.057 C 
BRANCH   7   8
ATOM      8  C2' N4B d   1      -3.321   1.926   3.907  0.00  0.00     0.009 C 
BRANCH   8   9
ATOM      9  C3' N4B d   1      -4.433   2.766   4.514  0.00  0.00     0.004 C 
ATOM     10  C4' N4B d   1      -4.731   2.395   5.936  0.00  0.00     0.003 C 
ENDBRANCH   8   9
ENDBRANCH   7   8
ENDBRANCH   1   7
TORSDOF 3
ENDMDL
