MODEL 1
REMARK minimizedAffinity -1.21587932
REMARK minimizedRMSD -1
REMARK  3 active torsions:
REMARK  status: ('A' for Active; 'I' for Inactive)
REMARK    1  A    between atoms: C3'_2  and  C2'_3 
REMARK    2  A    between atoms: C2'_3  and  C1'_4 
REMARK    3  A    between atoms: C1'_4  and  C1_5 
ROOT
ATOM      1  C1  N4B d   1      -1.558   1.659   2.451  0.00  0.00    -0.075 A 
ATOM      2  C2  N4B d   1      -1.823   0.276   2.355  0.00  0.00     0.002 A 
ATOM      3  C3  N4B d   1      -1.035  -0.522   1.563  0.00  0.00     0.002 A 
ATOM      4  C4  N4B d   1       0.009   0.043   0.844  0.00  0.00    -0.004 A 
ATOM      5  C5  N4B d   1       0.274   1.376   0.962  0.00  0.00     0.002 A 
ATOM      6  C6  N4B d   1      -0.508   2.189   1.758  0.00  0.00     0.002 A 
ENDROOT
BRANCH   1   7
ATOM      7  C1' N4B d   1      -2.445   2.586   3.237  0.00  0.00     0.057 C 
BRANCH   7   8
ATOM      8  C2' N4B d   1      -3.469   1.761   4.012  0.00  0.00     0.009 C 
BRANCH   8   9
ATOM      9  C3' N4B d   1      -4.601   2.619   4.549  0.00  0.00     0.004 C 
ATOM     10  C4' N4B d   1      -5.005   2.243   5.943  0.00  0.00     0.003 C 
ENDBRANCH   8   9
ENDBRANCH   7   8
ENDBRANCH   1   7
TORSDOF 3
ENDMDL
