MODEL 1
REMARK minimizedAffinity -1.89044511
REMARK minimizedRMSD -1
REMARK  3 active torsions:
REMARK  status: ('A' for Active; 'I' for Inactive)
REMARK    1  A    between atoms: C3'_2  and  C2'_3 
REMARK    2  A    between atoms: C2'_3  and  C1'_4 
REMARK    3  A    between atoms: C1'_4  and  C1_5 
ROOT
ATOM      1  C1  N4B d   1      -2.394   1.406   2.634  0.00  0.00    -0.075 A 
ATOM      2  C2  N4B d   1      -1.983   2.680   2.187  0.00  0.00     0.002 A 
ATOM      3  C3  N4B d   1      -0.805   2.818   1.495  0.00  0.00     0.002 A 
ATOM      4  C4  N4B d   1      -0.016   1.703   1.256  0.00  0.00    -0.004 A 
ATOM      5  C5  N4B d   1      -0.433   0.472   1.669  0.00  0.00     0.002 A 
ATOM      6  C6  N4B d   1      -1.616   0.318   2.362  0.00  0.00     0.002 A 
ENDROOT
BRANCH   1   7
ATOM      7  C1' N4B d   1      -3.632   1.218   3.469  0.00  0.00     0.057 C 
BRANCH   7   8
ATOM      8  C2' N4B d   1      -3.725   2.349   4.489  0.00  0.00     0.009 C 
BRANCH   8   9
ATOM      9  C3' N4B d   1      -5.066   2.364   5.201  0.00  0.00     0.004 C 
ATOM     10  C4' N4B d   1      -5.685   3.729   5.246  0.00  0.00     0.003 C 
ENDBRANCH   8   9
ENDBRANCH   7   8
ENDBRANCH   1   7
TORSDOF 3
ENDMDL
