MODEL 1
REMARK minimizedAffinity 0.953551769
REMARK minimizedRMSD -1
REMARK  3 active torsions:
REMARK  status: ('A' for Active; 'I' for Inactive)
REMARK    1  A    between atoms: C3'_2  and  C2'_3 
REMARK    2  A    between atoms: C2'_3  and  C1'_4 
REMARK    3  A    between atoms: C1'_4  and  C1_5 
ROOT
ATOM      1  C1  N4B d   1      -1.802   1.610   2.861  0.00  0.00    -0.075 A 
ATOM      2  C2  N4B d   1      -1.814   0.210   2.681  0.00  0.00     0.002 A 
ATOM      3  C3  N4B d   1      -0.859  -0.390   1.897  0.00  0.00     0.002 A 
ATOM      4  C4  N4B d   1       0.103   0.388   1.272  0.00  0.00    -0.004 A 
ATOM      5  C5  N4B d   1       0.123   1.738   1.471  0.00  0.00     0.002 A 
ATOM      6  C6  N4B d   1      -0.828   2.354   2.259  0.00  0.00     0.002 A 
ENDROOT
BRANCH   1   7
ATOM      7  C1' N4B d   1      -2.876   2.321   3.639  0.00  0.00     0.057 C 
BRANCH   7   8
ATOM      8  C2' N4B d   1      -3.987   1.331   3.977  0.00  0.00     0.009 C 
BRANCH   8   9
ATOM      9  C3' N4B d   1      -4.799   1.778   5.180  0.00  0.00     0.004 C 
ATOM     10  C4' N4B d   1      -4.714   3.256   5.422  0.00  0.00     0.003 C 
ENDBRANCH   8   9
ENDBRANCH   7   8
ENDBRANCH   1   7
TORSDOF 3
ENDMDL
