MODEL 1
REMARK minimizedAffinity 0.50816685
REMARK minimizedRMSD -1
REMARK  3 active torsions:
REMARK  status: ('A' for Active; 'I' for Inactive)
REMARK    1  A    between atoms: C3'_2  and  C2'_3 
REMARK    2  A    between atoms: C2'_3  and  C1'_4 
REMARK    3  A    between atoms: C1'_4  and  C1_5 
ROOT
ATOM      1  C1  N4B d   1       0.391   0.505   1.191  0.00  0.00    -0.075 A 
ATOM      2  C2  N4B d   1       1.111  -0.510   1.860  0.00  0.00     0.002 A 
ATOM      3  C3  N4B d   1       2.362  -0.867   1.419  0.00  0.00     0.002 A 
ATOM      4  C4  N4B d   1       2.903  -0.240   0.306  0.00  0.00    -0.004 A 
ATOM      5  C5  N4B d   1       2.211   0.756  -0.318  0.00  0.00     0.002 A 
ATOM      6  C6  N4B d   1       0.954   1.129   0.116  0.00  0.00     0.002 A 
ENDROOT
BRANCH   1   7
ATOM      7  C1' N4B d   1      -1.015   0.870   1.584  0.00  0.00     0.057 C 
BRANCH   7   8
ATOM      8  C2' N4B d   1      -0.970   1.862   2.742  0.00  0.00     0.009 C 
BRANCH   8   9
ATOM      9  C3' N4B d   1      -2.210   2.737   2.790  0.00  0.00     0.004 C 
ATOM     10  C4' N4B d   1      -3.229   2.248   3.776  0.00  0.00     0.003 C 
ENDBRANCH   8   9
ENDBRANCH   7   8
ENDBRANCH   1   7
TORSDOF 3
ENDMDL
