MODEL 1
REMARK minimizedAffinity -2.71922588
REMARK minimizedRMSD -1
REMARK  3 active torsions:
REMARK  status: ('A' for Active; 'I' for Inactive)
REMARK    1  A    between atoms: C3'_2  and  C2'_3 
REMARK    2  A    between atoms: C2'_3  and  C1'_4 
REMARK    3  A    between atoms: C1'_4  and  C1_5 
ROOT
ATOM      1  C1  N4B d   1      -1.719   0.854   2.421  0.00  0.00    -0.075 A 
ATOM      2  C2  N4B d   1      -1.116   2.120   2.253  0.00  0.00     0.002 A 
ATOM      3  C3  N4B d   1       0.124   2.217   1.671  0.00  0.00     0.002 A 
ATOM      4  C4  N4B d   1       0.785   1.067   1.268  0.00  0.00    -0.004 A 
ATOM      5  C5  N4B d   1       0.184  -0.150   1.410  0.00  0.00     0.002 A 
ATOM      6  C6  N4B d   1      -1.063  -0.262   1.990  0.00  0.00     0.002 A 
ENDROOT
BRANCH   1   7
ATOM      7  C1' N4B d   1      -3.036   0.690   3.130  0.00  0.00     0.057 C 
BRANCH   7   8
ATOM      8  C2' N4B d   1      -3.284   1.909   4.015  0.00  0.00     0.009 C 
BRANCH   8   9
ATOM      9  C3' N4B d   1      -4.715   1.962   4.520  0.00  0.00     0.004 C 
ATOM     10  C4' N4B d   1      -4.845   2.700   5.819  0.00  0.00     0.003 C 
ENDBRANCH   8   9
ENDBRANCH   7   8
ENDBRANCH   1   7
TORSDOF 3
ENDMDL
