MODEL 1
REMARK minimizedAffinity -4.46160507
REMARK minimizedRMSD -1
REMARK  3 active torsions:
REMARK  status: ('A' for Active; 'I' for Inactive)
REMARK    1  A    between atoms: C3'_2  and  C2'_3 
REMARK    2  A    between atoms: C2'_3  and  C1'_4 
REMARK    3  A    between atoms: C1'_4  and  C1_5 
ROOT
ATOM      1  C1  N4B d   1      -1.628   1.583   2.129  0.00  0.00    -0.075 A 
ATOM      2  C2  N4B d   1      -0.451   2.029   1.489  0.00  0.00     0.002 A 
ATOM      3  C3  N4B d   1       0.395   1.122   0.899  0.00  0.00     0.002 A 
ATOM      4  C4  N4B d   1       0.096  -0.231   0.954  0.00  0.00    -0.004 A 
ATOM      5  C5  N4B d   1      -1.056  -0.651   1.552  0.00  0.00     0.002 A 
ATOM      6  C6  N4B d   1      -1.918   0.249   2.145  0.00  0.00     0.002 A 
ENDROOT
BRANCH   1   7
ATOM      7  C1' N4B d   1      -2.540   2.529   2.862  0.00  0.00     0.057 C 
BRANCH   7   8
ATOM      8  C2' N4B d   1      -3.420   1.733   3.821  0.00  0.00     0.009 C 
BRANCH   8   9
ATOM      9  C3' N4B d   1      -4.523   2.588   4.423  0.00  0.00     0.004 C 
ATOM     10  C4' N4B d   1      -4.543   2.541   5.921  0.00  0.00     0.003 C 
ENDBRANCH   8   9
ENDBRANCH   7   8
ENDBRANCH   1   7
TORSDOF 3
ENDMDL
