MODEL 1
REMARK minimizedAffinity -2.81468773
REMARK minimizedRMSD -1
REMARK  3 active torsions:
REMARK  status: ('A' for Active; 'I' for Inactive)
REMARK    1  A    between atoms: C3'_2  and  C2'_3 
REMARK    2  A    between atoms: C2'_3  and  C1'_4 
REMARK    3  A    between atoms: C1'_4  and  C1_5 
ROOT
ATOM      1  C1  N4B d   1      -0.977   1.489   1.452  0.00  0.00    -0.075 A 
ATOM      2  C2  N4B d   1       0.374   1.719   1.110  0.00  0.00     0.002 A 
ATOM      3  C3  N4B d   1       1.184   0.665   0.767  0.00  0.00     0.002 A 
ATOM      4  C4  N4B d   1       0.674  -0.624   0.777  0.00  0.00    -0.004 A 
ATOM      5  C5  N4B d   1      -0.639  -0.835   1.084  0.00  0.00     0.002 A 
ATOM      6  C6  N4B d   1      -1.466   0.215   1.427  0.00  0.00     0.002 A 
ENDROOT
BRANCH   1   7
ATOM      7  C1' N4B d   1      -1.879   2.600   1.917  0.00  0.00     0.057 C 
BRANCH   7   8
ATOM      8  C2' N4B d   1      -2.243   2.370   3.380  0.00  0.00     0.009 C 
BRANCH   8   9
ATOM      9  C3' N4B d   1      -3.669   1.869   3.539  0.00  0.00     0.004 C 
ATOM     10  C4' N4B d   1      -4.285   2.275   4.844  0.00  0.00     0.003 C 
ENDBRANCH   8   9
ENDBRANCH   7   8
ENDBRANCH   1   7
TORSDOF 3
ENDMDL
