MODEL 1
REMARK minimizedAffinity -1.92043793
REMARK minimizedRMSD -1
REMARK  3 active torsions:
REMARK  status: ('A' for Active; 'I' for Inactive)
REMARK    1  A    between atoms: C3'_2  and  C2'_3 
REMARK    2  A    between atoms: C2'_3  and  C1'_4 
REMARK    3  A    between atoms: C1'_4  and  C1_5 
ROOT
ATOM      1  C1  N4B d   1      -1.424   1.805   2.032  0.00  0.00    -0.075 A 
ATOM      2  C2  N4B d   1      -1.616   0.567   1.381  0.00  0.00     0.002 A 
ATOM      3  C3  N4B d   1      -0.548  -0.085   0.815  0.00  0.00     0.002 A 
ATOM      4  C4  N4B d   1       0.714   0.489   0.872  0.00  0.00    -0.004 A 
ATOM      5  C5  N4B d   1       0.895   1.673   1.526  0.00  0.00     0.002 A 
ATOM      6  C6  N4B d   1      -0.169   2.337   2.102  0.00  0.00     0.002 A 
ENDROOT
BRANCH   1   7
ATOM      7  C1' N4B d   1      -2.575   2.596   2.590  0.00  0.00     0.057 C 
BRANCH   7   8
ATOM      8  C2' N4B d   1      -3.350   1.726   3.575  0.00  0.00     0.009 C 
BRANCH   8   9
ATOM      9  C3' N4B d   1      -4.616   2.409   4.063  0.00  0.00     0.004 C 
ATOM     10  C4' N4B d   1      -4.623   2.630   5.546  0.00  0.00     0.003 C 
ENDBRANCH   8   9
ENDBRANCH   7   8
ENDBRANCH   1   7
TORSDOF 3
ENDMDL
