MODEL 1
REMARK minimizedAffinity -0.256457716
REMARK minimizedRMSD -1
REMARK  3 active torsions:
REMARK  status: ('A' for Active; 'I' for Inactive)
REMARK    1  A    between atoms: C3'_2  and  C2'_3 
REMARK    2  A    between atoms: C2'_3  and  C1'_4 
REMARK    3  A    between atoms: C1'_4  and  C1_5 
ROOT
ATOM      1  C1  N4B d   1      -3.903   1.331   3.912  0.00  0.00    -0.075 A 
ATOM      2  C2  N4B d   1      -5.306   1.193   3.986  0.00  0.00     0.002 A 
ATOM      3  C3  N4B d   1      -6.000   1.771   5.021  0.00  0.00     0.002 A 
ATOM      4  C4  N4B d   1      -5.312   2.472   6.000  0.00  0.00    -0.004 A 
ATOM      5  C5  N4B d   1      -3.959   2.622   5.908  0.00  0.00     0.002 A 
ATOM      6  C6  N4B d   1      -3.250   2.050   4.871  0.00  0.00     0.002 A 
ENDROOT
BRANCH   1   7
ATOM      7  C1' N4B d   1      -3.092   0.645   2.847  0.00  0.00     0.057 C 
BRANCH   7   8
ATOM      8  C2' N4B d   1      -1.818   1.446   2.594  0.00  0.00     0.009 C 
BRANCH   8   9
ATOM      9  C3' N4B d   1      -0.628   0.546   2.311  0.00  0.00     0.004 C 
ATOM     10  C4' N4B d   1       0.153   0.976   1.105  0.00  0.00     0.003 C 
ENDBRANCH   8   9
ENDBRANCH   7   8
ENDBRANCH   1   7
TORSDOF 3
ENDMDL
