MODEL 1
REMARK minimizedAffinity -4.18994427
REMARK minimizedRMSD -1
REMARK  1 active torsions:
REMARK  status: ('A' for Active; 'I' for Inactive)
REMARK    1  A    between atoms: N_2  and  C1_3 
ROOT
ATOM      1  C1  UNL d   1       0.292   0.009   0.503  0.00  0.00     0.143 A 
ATOM      2  C2  UNL d   1       1.445   0.784   0.344  0.00  0.00    -0.057 A 
ATOM      3  C3  UNL d   1       2.681   0.360   0.848  0.00  0.00     0.033 A 
ATOM      4  C4  UNL d   1       2.779  -0.838   1.547  0.00  0.00    -0.042 A 
ATOM      5  C5  UNL d   1       1.641  -1.613   1.739  0.00  0.00     0.033 A 
ATOM      6  C6  UNL d   1       0.412  -1.188   1.227  0.00  0.00    -0.057 A 
ENDROOT
BRANCH   1   7
ATOM      7  N   UNL d   1      -0.983   0.422   0.111  0.00  0.00    -0.732 N 
ATOM      8  C   UNL d   1      -1.474   0.138  -1.221  0.00  0.00     0.284 C 
ATOM      9  H3  UNL d   1      -1.676   0.294   0.845  0.00  0.00     0.395 HD
ENDBRANCH   1   7
TORSDOF 1
ENDMDL
