MODEL 1
REMARK minimizedAffinity -5.03188848
REMARK minimizedRMSD -1
REMARK  1 active torsions:
REMARK  status: ('A' for Active; 'I' for Inactive)
REMARK    1  A    between atoms: N_2  and  C1_3 
ROOT
ATOM      1  C1  UNL d   1      -0.121   0.302   0.046  0.00  0.00     0.143 A 
ATOM      2  C2  UNL d   1       0.728   1.407   0.168  0.00  0.00    -0.057 A 
ATOM      3  C3  UNL d   1       2.112   1.247   0.311  0.00  0.00     0.033 A 
ATOM      4  C4  UNL d   1       2.669  -0.027   0.365  0.00  0.00    -0.042 A 
ATOM      5  C5  UNL d   1       1.841  -1.140   0.271  0.00  0.00     0.033 A 
ATOM      6  C6  UNL d   1       0.461  -0.973   0.121  0.00  0.00    -0.057 A 
ENDROOT
BRANCH   1   7
ATOM      7  N   UNL d   1      -1.515   0.394  -0.001  0.00  0.00    -0.732 N 
ATOM      8  C   UNL d   1      -2.341  -0.676   0.516  0.00  0.00     0.284 C 
ATOM      9  H3  UNL d   1      -1.850   1.327   0.229  0.00  0.00     0.395 HD
ENDBRANCH   1   7
TORSDOF 1
ENDMDL
