MODEL 1
REMARK minimizedAffinity -2.80716157
REMARK minimizedRMSD -1
REMARK  1 active torsions:
REMARK  status: ('A' for Active; 'I' for Inactive)
REMARK    1  A    between atoms: N_2  and  C1_3 
ROOT
ATOM      1  C1  UNL d   1       0.242  -0.421   0.524  0.00  0.00     0.143 A 
ATOM      2  C2  UNL d   1      -0.377  -1.483   1.192  0.00  0.00    -0.057 A 
ATOM      3  C3  UNL d   1       0.374  -2.445   1.877  0.00  0.00     0.033 A 
ATOM      4  C4  UNL d   1       1.764  -2.378   1.882  0.00  0.00    -0.042 A 
ATOM      5  C5  UNL d   1       2.401  -1.345   1.204  0.00  0.00     0.033 A 
ATOM      6  C6  UNL d   1       1.645  -0.383   0.527  0.00  0.00    -0.057 A 
ENDROOT
BRANCH   1   7
ATOM      7  N   UNL d   1      -0.444   0.512  -0.258  0.00  0.00    -0.732 N 
ATOM      8  C   UNL d   1      -1.586   0.111  -1.052  0.00  0.00     0.284 C 
ATOM      9  H3  UNL d   1      -0.560   1.405   0.215  0.00  0.00     0.395 HD
ENDBRANCH   1   7
TORSDOF 1
ENDMDL
