MODEL 1
REMARK minimizedAffinity -5.07725668
REMARK minimizedRMSD -1
REMARK  1 active torsions:
REMARK  status: ('A' for Active; 'I' for Inactive)
REMARK    1  A    between atoms: N_2  and  C1_3 
ROOT
ATOM      1  C1  UNL d   1       0.211  -0.072   0.044  0.00  0.00     0.143 A 
ATOM      2  C2  UNL d   1       1.098   1.007   0.112  0.00  0.00    -0.057 A 
ATOM      3  C3  UNL d   1       2.456   0.814   0.396  0.00  0.00     0.033 A 
ATOM      4  C4  UNL d   1       2.945  -0.464   0.644  0.00  0.00    -0.042 A 
ATOM      5  C5  UNL d   1       2.076  -1.549   0.606  0.00  0.00     0.033 A 
ATOM      6  C6  UNL d   1       0.723  -1.350   0.316  0.00  0.00    -0.057 A 
ENDROOT
BRANCH   1   7
ATOM      7  N   UNL d   1      -1.168   0.065  -0.136  0.00  0.00    -0.732 N 
ATOM      8  C   UNL d   1      -1.743   0.055  -1.464  0.00  0.00     0.284 C 
ATOM      9  H3  UNL d   1      -1.703  -0.458   0.553  0.00  0.00     0.395 HD
ENDBRANCH   1   7
TORSDOF 1
ENDMDL
