MODEL 1
REMARK minimizedAffinity -3.06361699
REMARK minimizedRMSD -1
REMARK  1 active torsions:
REMARK  status: ('A' for Active; 'I' for Inactive)
REMARK    1  A    between atoms: N_2  and  C1_3 
ROOT
ATOM      1  C1  UNL d   1       0.311   0.054   0.044  0.00  0.00     0.143 A 
ATOM      2  C2  UNL d   1       0.774   1.189   0.717  0.00  0.00    -0.057 A 
ATOM      3  C3  UNL d   1       2.109   1.297   1.125  0.00  0.00     0.033 A 
ATOM      4  C4  UNL d   1       3.000   0.255   0.891  0.00  0.00    -0.042 A 
ATOM      5  C5  UNL d   1       2.556  -0.893   0.246  0.00  0.00     0.033 A 
ATOM      6  C6  UNL d   1       1.223  -0.992  -0.164  0.00  0.00    -0.057 A 
ENDROOT
BRANCH   1   7
ATOM      7  N   UNL d   1      -1.027  -0.155  -0.300  0.00  0.00    -0.732 N 
ATOM      8  C   UNL d   1      -1.434  -0.196  -1.688  0.00  0.00     0.284 C 
ATOM      9  H3  UNL d   1      -1.473  -0.858   0.285  0.00  0.00     0.395 HD
ENDBRANCH   1   7
TORSDOF 1
ENDMDL
