MODEL 1
REMARK minimizedAffinity -3.56738544
REMARK minimizedRMSD -1
REMARK  1 active torsions:
REMARK  status: ('A' for Active; 'I' for Inactive)
REMARK    1  A    between atoms: N_2  and  C1_3 
ROOT
ATOM      1  C1  UNL d   1      -0.398  -0.182  -0.076  0.00  0.00     0.143 A 
ATOM      2  C2  UNL d   1      -0.543  -1.344   0.689  0.00  0.00    -0.057 A 
ATOM      3  C3  UNL d   1       0.561  -2.144   1.009  0.00  0.00     0.033 A 
ATOM      4  C4  UNL d   1       1.828  -1.810   0.543  0.00  0.00    -0.042 A 
ATOM      5  C5  UNL d   1       1.991  -0.673  -0.241  0.00  0.00     0.033 A 
ATOM      6  C6  UNL d   1       0.886   0.126  -0.551  0.00  0.00    -0.057 A 
ENDROOT
BRANCH   1   7
ATOM      7  N   UNL d   1      -1.471   0.602  -0.510  0.00  0.00    -0.732 N 
ATOM      8  C   UNL d   1      -2.302   0.168  -1.613  0.00  0.00     0.284 C 
ATOM      9  H3  UNL d   1      -1.988   1.015   0.262  0.00  0.00     0.395 HD
ENDBRANCH   1   7
TORSDOF 1
ENDMDL
