MODEL 1
REMARK minimizedAffinity -5.93771648
REMARK minimizedRMSD -1
REMARK  1 active torsions:
REMARK  status: ('A' for Active; 'I' for Inactive)
REMARK    1  A    between atoms: C1_2  and  C2_3 
ROOT
ATOM      1  C2  UNL d   1       0.546   0.178  -0.473  0.00  0.00    -0.073 A 
ATOM      2  C3  UNL d   1       1.288   0.928  -1.392  0.00  0.00    -0.002 A 
ATOM      3  C4  UNL d   1       1.963   0.296  -2.438  0.00  0.00     0.004 A 
ATOM      4  C5  UNL d   1       1.897  -1.090  -2.579  0.00  0.00    -0.004 A 
ATOM      5  C6  UNL d   1       1.151  -1.856  -1.678  0.00  0.00    -0.075 A 
ATOM      6  C7  UNL d   1       1.072  -3.348  -1.815  0.00  0.00     0.076 C 
ATOM      7  C8  UNL d   1       0.479  -1.214  -0.629  0.00  0.00     0.001 A 
ENDROOT
BRANCH   1   8
ATOM      8  C1  UNL d   1      -0.189   0.856   0.653  0.00  0.00     0.053 C 
ATOM      9  C   UNL d   1      -0.869  -0.144   1.575  0.00  0.00     0.018 C 
ENDBRANCH   1   8
TORSDOF 1
ENDMDL
