MODEL 1
REMARK minimizedAffinity -1.67954862
REMARK minimizedRMSD -1
REMARK  1 active torsions:
REMARK  status: ('A' for Active; 'I' for Inactive)
REMARK    1  A    between atoms: C1_2  and  C2_3 
ROOT
ATOM      1  C2  UNL d   1      -2.751   0.563   2.003  0.00  0.00    -0.073 A 
ATOM      2  C3  UNL d   1      -4.095   0.174   2.053  0.00  0.00    -0.002 A 
ATOM      3  C4  UNL d   1      -4.918   0.614   3.090  0.00  0.00     0.004 A 
ATOM      4  C5  UNL d   1      -4.410   1.452   4.082  0.00  0.00    -0.004 A 
ATOM      5  C6  UNL d   1      -3.073   1.861   4.043  0.00  0.00    -0.075 A 
ATOM      6  C7  UNL d   1      -2.511   2.761   5.104  0.00  0.00     0.076 C 
ATOM      7  C8  UNL d   1      -2.252   1.413   3.000  0.00  0.00     0.001 A 
ENDROOT
BRANCH   1   8
ATOM      8  C1  UNL d   1      -1.860   0.095   0.882  0.00  0.00     0.053 C 
ATOM      9  C   UNL d   1      -0.427  -0.117   1.343  0.00  0.00     0.018 C 
ENDBRANCH   1   8
TORSDOF 1
ENDMDL
