MODEL 1
REMARK minimizedAffinity -5.32679939
REMARK minimizedRMSD -1
REMARK  1 active torsions:
REMARK  status: ('A' for Active; 'I' for Inactive)
REMARK    1  A    between atoms: C1_2  and  C2_3 
ROOT
ATOM      1  C2  UNL d   1       0.747   0.296  -0.739  0.00  0.00    -0.073 A 
ATOM      2  C3  UNL d   1       1.251   0.937  -1.877  0.00  0.00    -0.002 A 
ATOM      3  C4  UNL d   1       1.850   0.196  -2.896  0.00  0.00     0.004 A 
ATOM      4  C5  UNL d   1       1.946  -1.192  -2.792  0.00  0.00    -0.004 A 
ATOM      5  C6  UNL d   1       1.438  -1.851  -1.668  0.00  0.00    -0.075 A 
ATOM      6  C7  UNL d   1       1.535  -3.343  -1.540  0.00  0.00     0.076 C 
ATOM      7  C8  UNL d   1       0.840  -1.100  -0.648  0.00  0.00     0.001 A 
ENDROOT
BRANCH   1   8
ATOM      8  C1  UNL d   1       0.093   1.092   0.361  0.00  0.00     0.053 C 
ATOM      9  C   UNL d   1      -0.891   0.254   1.163  0.00  0.00     0.018 C 
ENDBRANCH   1   8
TORSDOF 1
ENDMDL
