MODEL 1
REMARK minimizedAffinity -4.82777643
REMARK minimizedRMSD -1
REMARK  1 active torsions:
REMARK  status: ('A' for Active; 'I' for Inactive)
REMARK    1  A    between atoms: C1_2  and  C2_3 
ROOT
ATOM      1  C2  UNL d   1      -1.866   0.028   1.928  0.00  0.00    -0.073 A 
ATOM      2  C3  UNL d   1      -2.981  -0.755   1.609  0.00  0.00    -0.002 A 
ATOM      3  C4  UNL d   1      -4.269  -0.289   1.876  0.00  0.00     0.004 A 
ATOM      4  C5  UNL d   1      -4.456   0.965   2.456  0.00  0.00    -0.004 A 
ATOM      5  C6  UNL d   1      -3.355   1.767   2.772  0.00  0.00    -0.075 A 
ATOM      6  C7  UNL d   1      -3.539   3.118   3.399  0.00  0.00     0.076 C 
ATOM      7  C8  UNL d   1      -2.064   1.292   2.504  0.00  0.00     0.001 A 
ENDROOT
BRANCH   1   8
ATOM      8  C1  UNL d   1      -0.473  -0.468   1.637  0.00  0.00     0.053 C 
ATOM      9  C   UNL d   1       0.033   0.016   0.287  0.00  0.00     0.018 C 
ENDBRANCH   1   8
TORSDOF 1
ENDMDL
