MODEL 1
REMARK minimizedAffinity -5.40606785
REMARK minimizedRMSD -1
REMARK  1 active torsions:
REMARK  status: ('A' for Active; 'I' for Inactive)
REMARK    1  A    between atoms: C1_2  and  C2_3 
ROOT
ATOM      1  C2  UNL d   1       0.090   0.128  -0.280  0.00  0.00    -0.073 A 
ATOM      2  C3  UNL d   1       0.900   1.081  -0.909  0.00  0.00    -0.002 A 
ATOM      3  C4  UNL d   1       1.843   0.687  -1.859  0.00  0.00     0.004 A 
ATOM      4  C5  UNL d   1       1.982  -0.660  -2.195  0.00  0.00    -0.004 A 
ATOM      5  C6  UNL d   1       1.173  -1.625  -1.586  0.00  0.00    -0.075 A 
ATOM      6  C7  UNL d   1       1.311  -3.078  -1.935  0.00  0.00     0.076 C 
ATOM      7  C8  UNL d   1       0.230  -1.222  -0.631  0.00  0.00     0.001 A 
ENDROOT
BRANCH   1   8
ATOM      8  C1  UNL d   1      -0.934   0.549   0.742  0.00  0.00     0.053 C 
ATOM      9  C   UNL d   1      -1.139  -0.510   1.814  0.00  0.00     0.018 C 
ENDBRANCH   1   8
TORSDOF 1
ENDMDL
