MODEL 1
REMARK minimizedAffinity -4.65206003
REMARK minimizedRMSD -1
REMARK  1 active torsions:
REMARK  status: ('A' for Active; 'I' for Inactive)
REMARK    1  A    between atoms: C1_2  and  C2_3 
ROOT
ATOM      1  C2  UNL d   1      -0.160  -0.172   0.423  0.00  0.00    -0.073 A 
ATOM      2  C3  UNL d   1       0.192   1.176   0.544  0.00  0.00    -0.002 A 
ATOM      3  C4  UNL d   1       1.035   1.772  -0.396  0.00  0.00     0.004 A 
ATOM      4  C5  UNL d   1       1.527   1.028  -1.468  0.00  0.00    -0.004 A 
ATOM      5  C6  UNL d   1       1.176  -0.318  -1.613  0.00  0.00    -0.075 A 
ATOM      6  C7  UNL d   1       1.699  -1.133  -2.759  0.00  0.00     0.076 C 
ATOM      7  C8  UNL d   1       0.332  -0.910  -0.663  0.00  0.00     0.001 A 
ENDROOT
BRANCH   1   8
ATOM      8  C1  UNL d   1      -1.075  -0.818   1.432  0.00  0.00     0.053 C 
ATOM      9  C   UNL d   1      -2.050   0.179   2.038  0.00  0.00     0.018 C 
ENDBRANCH   1   8
TORSDOF 1
ENDMDL
