MODEL 1
REMARK minimizedAffinity -0.228876323
REMARK minimizedRMSD -1
REMARK  1 active torsions:
REMARK  status: ('A' for Active; 'I' for Inactive)
REMARK    1  A    between atoms: C1_2  and  C2_3 
ROOT
ATOM      1  C2  UNL d   1      -0.622  -0.289   0.122  0.00  0.00    -0.073 A 
ATOM      2  C3  UNL d   1      -0.632  -1.670   0.345  0.00  0.00    -0.002 A 
ATOM      3  C4  UNL d   1       0.076  -2.526  -0.500  0.00  0.00     0.004 A 
ATOM      4  C5  UNL d   1       0.807  -2.009  -1.570  0.00  0.00    -0.004 A 
ATOM      5  C6  UNL d   1       0.839  -0.630  -1.801  0.00  0.00    -0.075 A 
ATOM      6  C7  UNL d   1       1.619  -0.059  -2.949  0.00  0.00     0.076 C 
ATOM      7  C8  UNL d   1       0.123   0.222  -0.950  0.00  0.00     0.001 A 
ENDROOT
BRANCH   1   8
ATOM      8  C1  UNL d   1      -1.380   0.640   1.036  0.00  0.00     0.053 C 
ATOM      9  C   UNL d   1      -2.881   0.406   0.967  0.00  0.00     0.018 C 
ENDBRANCH   1   8
TORSDOF 1
ENDMDL
