MODEL 1
REMARK minimizedAffinity -3.30182981
REMARK minimizedRMSD -1
REMARK  1 active torsions:
REMARK  status: ('A' for Active; 'I' for Inactive)
REMARK    1  A    between atoms: C1_2  and  C2_3 
ROOT
ATOM      1  C2  UNL d   1       1.005   0.758  -1.063  0.00  0.00    -0.073 A 
ATOM      2  C3  UNL d   1       0.782   1.793  -0.147  0.00  0.00    -0.002 A 
ATOM      3  C4  UNL d   1       0.161   1.531   1.075  0.00  0.00     0.004 A 
ATOM      4  C5  UNL d   1      -0.237   0.234   1.397  0.00  0.00    -0.004 A 
ATOM      5  C6  UNL d   1      -0.012  -0.816   0.500  0.00  0.00    -0.075 A 
ATOM      6  C7  UNL d   1      -0.437  -2.217   0.829  0.00  0.00     0.076 C 
ATOM      7  C8  UNL d   1       0.609  -0.544  -0.727  0.00  0.00     0.001 A 
ENDROOT
BRANCH   1   8
ATOM      8  C1  UNL d   1       1.681   1.035  -2.380  0.00  0.00     0.053 C 
ATOM      9  C   UNL d   1       2.550  -0.128  -2.830  0.00  0.00     0.018 C 
ENDBRANCH   1   8
TORSDOF 1
ENDMDL
