MODEL 1
REMARK minimizedAffinity -5.92962217
REMARK minimizedRMSD -1
REMARK  1 active torsions:
REMARK  status: ('A' for Active; 'I' for Inactive)
REMARK    1  A    between atoms: C1_2  and  C2_3 
ROOT
ATOM      1  C2  UNL d   1       0.173  -0.524   0.428  0.00  0.00    -0.073 A 
ATOM      2  C3  UNL d   1       0.340  -1.078  -0.846  0.00  0.00    -0.002 A 
ATOM      3  C4  UNL d   1       0.988  -0.356  -1.849  0.00  0.00     0.004 A 
ATOM      4  C5  UNL d   1       1.481   0.922  -1.587  0.00  0.00    -0.004 A 
ATOM      5  C6  UNL d   1       1.334   1.488  -0.317  0.00  0.00    -0.075 A 
ATOM      6  C7  UNL d   1       1.857   2.863  -0.020  0.00  0.00     0.076 C 
ATOM      7  C8  UNL d   1       0.680   0.758   0.684  0.00  0.00     0.001 A 
ENDROOT
BRANCH   1   8
ATOM      8  C1  UNL d   1      -0.521  -1.302   1.517  0.00  0.00     0.053 C 
ATOM      9  C   UNL d   1      -1.615  -0.488   2.190  0.00  0.00     0.018 C 
ENDBRANCH   1   8
TORSDOF 1
ENDMDL
