MODEL 1
REMARK minimizedAffinity -5.16889715
REMARK minimizedRMSD -1
REMARK  1 active torsions:
REMARK  status: ('A' for Active; 'I' for Inactive)
REMARK    1  A    between atoms: C1_2  and  C2_3 
ROOT
ATOM      1  C2  UNL d   1      -0.505   0.339  -0.406  0.00  0.00    -0.073 A 
ATOM      2  C3  UNL d   1      -0.122   1.672  -0.218  0.00  0.00    -0.002 A 
ATOM      3  C4  UNL d   1       0.890   2.231  -0.999  0.00  0.00     0.004 A 
ATOM      4  C5  UNL d   1       1.522   1.467  -1.980  0.00  0.00    -0.004 A 
ATOM      5  C6  UNL d   1       1.145   0.137  -2.192  0.00  0.00    -0.075 A 
ATOM      6  C7  UNL d   1       1.817  -0.698  -3.241  0.00  0.00     0.076 C 
ATOM      7  C8  UNL d   1       0.130  -0.418  -1.401  0.00  0.00     0.001 A 
ENDROOT
BRANCH   1   8
ATOM      8  C1  UNL d   1      -1.601  -0.267   0.432  0.00  0.00     0.053 C 
ATOM      9  C   UNL d   1      -2.914   0.486   0.285  0.00  0.00     0.018 C 
ENDBRANCH   1   8
TORSDOF 1
ENDMDL
