MODEL 1
REMARK minimizedAffinity -0.309703231
REMARK minimizedRMSD -1
REMARK  1 active torsions:
REMARK  status: ('A' for Active; 'I' for Inactive)
REMARK    1  A    between atoms: C1_2  and  C2_3 
ROOT
ATOM      1  C2  UNL d   1       2.457  -0.193  -1.451  0.00  0.00    -0.073 A 
ATOM      2  C3  UNL d   1       2.502   1.006  -2.171  0.00  0.00    -0.002 A 
ATOM      3  C4  UNL d   1       1.841   2.139  -1.696  0.00  0.00     0.004 A 
ATOM      4  C5  UNL d   1       1.135   2.087  -0.494  0.00  0.00    -0.004 A 
ATOM      5  C6  UNL d   1       1.088   0.901   0.246  0.00  0.00    -0.075 A 
ATOM      6  C7  UNL d   1       0.331   0.828   1.540  0.00  0.00     0.076 C 
ATOM      7  C8  UNL d   1       1.752  -0.233  -0.240  0.00  0.00     0.001 A 
ENDROOT
BRANCH   1   8
ATOM      8  C1  UNL d   1       3.174  -1.418  -1.958  0.00  0.00     0.053 C 
ATOM      9  C   UNL d   1       3.085  -2.577  -0.978  0.00  0.00     0.018 C 
ENDBRANCH   1   8
TORSDOF 1
ENDMDL
