MODEL 1
REMARK minimizedAffinity -5.91791296
REMARK minimizedRMSD -1
REMARK  1 active torsions:
REMARK  status: ('A' for Active; 'I' for Inactive)
REMARK    1  A    between atoms: C1_2  and  C2_3 
ROOT
ATOM      1  C2  UNL d   1       0.223  -0.489   0.106  0.00  0.00    -0.073 A 
ATOM      2  C3  UNL d   1       0.109  -1.883   0.141  0.00  0.00    -0.002 A 
ATOM      3  C4  UNL d   1       0.691  -2.663  -0.859  0.00  0.00     0.004 A 
ATOM      4  C5  UNL d   1       1.397  -2.059  -1.899  0.00  0.00    -0.004 A 
ATOM      5  C6  UNL d   1       1.532  -0.668  -1.945  0.00  0.00    -0.075 A 
ATOM      6  C7  UNL d   1       2.286  -0.003  -3.059  0.00  0.00     0.076 C 
ATOM      7  C8  UNL d   1       0.943   0.109  -0.939  0.00  0.00     0.001 A 
ENDROOT
BRANCH   1   8
ATOM      8  C1  UNL d   1      -0.397   0.358   1.187  0.00  0.00     0.053 C 
ATOM      9  C   UNL d   1      -1.747  -0.184   1.630  0.00  0.00     0.018 C 
ENDBRANCH   1   8
TORSDOF 1
ENDMDL
