MODEL 1
REMARK minimizedAffinity -4.95210695
REMARK minimizedRMSD -1
REMARK  1 active torsions:
REMARK  status: ('A' for Active; 'I' for Inactive)
REMARK    1  A    between atoms: C1_2  and  C2_3 
ROOT
ATOM      1  C2  UNL d   1       0.013  -0.381   0.450  0.00  0.00    -0.073 A 
ATOM      2  C3  UNL d   1      -0.093  -1.764   0.642  0.00  0.00    -0.002 A 
ATOM      3  C4  UNL d   1       0.274  -2.647  -0.374  0.00  0.00     0.004 A 
ATOM      4  C5  UNL d   1       0.757  -2.159  -1.588  0.00  0.00    -0.004 A 
ATOM      5  C6  UNL d   1       0.882  -0.782  -1.795  0.00  0.00    -0.075 A 
ATOM      6  C7  UNL d   1       1.399  -0.241  -3.096  0.00  0.00     0.076 C 
ATOM      7  C8  UNL d   1       0.509   0.099  -0.771  0.00  0.00     0.001 A 
ENDROOT
BRANCH   1   8
ATOM      8  C1  UNL d   1      -0.376   0.576   1.546  0.00  0.00     0.053 C 
ATOM      9  C   UNL d   1      -1.865   0.520   1.850  0.00  0.00     0.018 C 
ENDBRANCH   1   8
TORSDOF 1
ENDMDL
