MODEL 1
REMARK minimizedAffinity 9.53414536
REMARK minimizedRMSD -1
REMARK  0 active torsions:
REMARK  status: ('A' for Active; 'I' for Inactive)
ROOT
ATOM      1  N1  IND d   1      -4.311   1.937  -0.939  0.00  0.00    -0.196 N 
ATOM      2  C2  IND d   1      -4.079   0.763  -0.277  0.00  0.00     0.054 A 
ATOM      3  C3  IND d   1      -4.517  -0.285  -1.011  0.00  0.00    -0.031 A 
ATOM      4  C4  IND d   1      -5.552  -0.312  -3.368  0.00  0.00     0.051 A 
ATOM      5  C5  IND d   1      -5.996   0.517  -4.359  0.00  0.00    -0.031 A 
ATOM      6  C6  IND d   1      -5.895   1.890  -4.261  0.00  0.00     0.015 A 
ATOM      7  C7  IND d   1      -5.335   2.486  -3.167  0.00  0.00    -0.016 A 
ATOM      8  C8  IND d   1      -4.891   1.647  -2.155  0.00  0.00    -0.047 A 
ATOM      9  C9  IND d   1      -5.028   0.256  -2.230  0.00  0.00    -0.096 A 
ATOM     10  HN1 IND d   1      -4.126   2.723  -0.645  0.00  0.00     0.298 HD
ENDROOT
TORSDOF 0
ENDMDL
