MODEL 1
REMARK minimizedAffinity 8.14272976
REMARK minimizedRMSD -1
REMARK  0 active torsions:
REMARK  status: ('A' for Active; 'I' for Inactive)
ROOT
ATOM      1  N1  IND d   1       1.613  -2.303  -0.479  0.00  0.00    -0.196 N 
ATOM      2  C2  IND d   1       0.779  -2.061  -1.534  0.00  0.00     0.054 A 
ATOM      3  C3  IND d   1       0.843  -0.759  -1.895  0.00  0.00    -0.031 A 
ATOM      4  C4  IND d   1       2.322   1.127  -0.956  0.00  0.00     0.051 A 
ATOM      5  C5  IND d   1       3.220   1.399   0.037  0.00  0.00    -0.031 A 
ATOM      6  C6  IND d   1       3.639   0.430   0.926  0.00  0.00     0.015 A 
ATOM      7  C7  IND d   1       3.182  -0.855   0.847  0.00  0.00    -0.016 A 
ATOM      8  C8  IND d   1       2.264  -1.133  -0.157  0.00  0.00    -0.047 A 
ATOM      9  C9  IND d   1       1.803  -0.144  -1.035  0.00  0.00    -0.096 A 
ATOM     10  HN1 IND d   1       1.714  -3.060  -0.083  0.00  0.00     0.298 HD
ENDROOT
TORSDOF 0
ENDMDL
