MODEL 1
REMARK minimizedAffinity 10.4792604
REMARK minimizedRMSD -1
REMARK  0 active torsions:
REMARK  status: ('A' for Active; 'I' for Inactive)
ROOT
ATOM      1  N1  IND d   1       0.405   0.656  -1.832  0.00  0.00    -0.196 N 
ATOM      2  C2  IND d   1      -0.547   0.606  -0.853  0.00  0.00     0.054 A 
ATOM      3  C3  IND d   1       0.029   0.408   0.354  0.00  0.00    -0.031 A 
ATOM      4  C4  IND d   1       2.524   0.238   0.967  0.00  0.00     0.051 A 
ATOM      5  C5  IND d   1       3.770   0.190   0.407  0.00  0.00    -0.031 A 
ATOM      6  C6  IND d   1       3.962   0.299  -0.955  0.00  0.00     0.015 A 
ATOM      7  C7  IND d   1       2.911   0.474  -1.811  0.00  0.00    -0.016 A 
ATOM      8  C8  IND d   1       1.644   0.516  -1.247  0.00  0.00    -0.047 A 
ATOM      9  C9  IND d   1       1.440   0.363   0.131  0.00  0.00    -0.096 A 
ATOM     10  HN1 IND d   1       0.255   0.758  -2.673  0.00  0.00     0.298 HD
ENDROOT
TORSDOF 0
ENDMDL
