MODEL 1
REMARK minimizedAffinity 10.9196291
REMARK minimizedRMSD -1
REMARK  0 active torsions:
REMARK  status: ('A' for Active; 'I' for Inactive)
ROOT
ATOM      1  N1  IND d   1      -5.999   3.976   2.913  0.00  0.00    -0.196 N 
ATOM      2  C2  IND d   1      -5.012   3.574   2.057  0.00  0.00     0.054 A 
ATOM      3  C3  IND d   1      -3.811   4.031   2.477  0.00  0.00    -0.031 A 
ATOM      4  C4  IND d   1      -3.219   5.369   4.596  0.00  0.00     0.051 A 
ATOM      5  C5  IND d   1      -3.790   6.000   5.666  0.00  0.00    -0.031 A 
ATOM      6  C6  IND d   1      -5.153   5.986   5.879  0.00  0.00     0.015 A 
ATOM      7  C7  IND d   1      -5.999   5.327   5.032  0.00  0.00    -0.016 A 
ATOM      8  C8  IND d   1      -5.424   4.692   3.940  0.00  0.00    -0.047 A 
ATOM      9  C9  IND d   1      -4.046   4.739   3.696  0.00  0.00    -0.096 A 
ATOM     10  HN1 IND d   1      -6.838   3.809   2.825  0.00  0.00     0.298 HD
ENDROOT
TORSDOF 0
ENDMDL
