MODEL 1
REMARK minimizedAffinity 10.0239382
REMARK minimizedRMSD -1
REMARK  0 active torsions:
REMARK  status: ('A' for Active; 'I' for Inactive)
ROOT
ATOM      1  N1  IND d   1      -4.772   1.201  -5.997  0.00  0.00    -0.196 N 
ATOM      2  C2  IND d   1      -6.000   0.823  -5.529  0.00  0.00     0.054 A 
ATOM      3  C3  IND d   1      -5.868   0.093  -4.399  0.00  0.00    -0.031 A 
ATOM      4  C4  IND d   1      -3.740  -0.515  -3.084  0.00  0.00     0.051 A 
ATOM      5  C5  IND d   1      -2.377  -0.425  -3.139  0.00  0.00    -0.031 A 
ATOM      6  C6  IND d   1      -1.730   0.227  -4.168  0.00  0.00     0.015 A 
ATOM      7  C7  IND d   1      -2.425   0.826  -5.180  0.00  0.00    -0.016 A 
ATOM      8  C8  IND d   1      -3.809   0.731  -5.132  0.00  0.00    -0.047 A 
ATOM      9  C9  IND d   1      -4.469   0.033  -4.112  0.00  0.00    -0.096 A 
ATOM     10  HN1 IND d   1      -4.626   1.656  -6.712  0.00  0.00     0.298 HD
ENDROOT
TORSDOF 0
ENDMDL
