MODEL 1
REMARK minimizedAffinity 6.04267693
REMARK minimizedRMSD -1
REMARK  0 active torsions:
REMARK  status: ('A' for Active; 'I' for Inactive)
ROOT
ATOM      1  C   UNL d   1       0.537   0.121   2.715  0.00  0.00     0.077 C 
ATOM      2  C1  UNL d   1       0.503   0.163   1.216  0.00  0.00    -0.074 A 
ATOM      3  C2  UNL d   1       1.378  -0.618   0.455  0.00  0.00    -0.005 A 
ATOM      4  C3  UNL d   1       1.328  -0.577  -0.939  0.00  0.00     0.006 A 
ATOM      5  C4  UNL d   1       0.404   0.245  -1.584  0.00  0.00    -0.005 A 
ATOM      6  C5  UNL d   1      -0.480   1.033  -0.840  0.00  0.00    -0.074 A 
ATOM      7  C6  UNL d   1      -1.487   1.914  -1.518  0.00  0.00     0.077 C 
ATOM      8  C7  UNL d   1      -0.428   0.980   0.560  0.00  0.00    -0.001 A 
ENDROOT
TORSDOF 0
ENDMDL
