MODEL 1
REMARK minimizedAffinity 3.38144493
REMARK minimizedRMSD -1
REMARK  0 active torsions:
REMARK  status: ('A' for Active; 'I' for Inactive)
ROOT
ATOM      1  C   UNL d   1      -1.347   2.010  -1.249  0.00  0.00     0.077 C 
ATOM      2  C1  UNL d   1      -0.359   1.159  -0.509  0.00  0.00    -0.074 A 
ATOM      3  C2  UNL d   1       0.379   0.172  -1.171  0.00  0.00    -0.005 A 
ATOM      4  C3  UNL d   1       1.302  -0.605  -0.472  0.00  0.00     0.006 A 
ATOM      5  C4  UNL d   1       1.496  -0.404   0.895  0.00  0.00    -0.005 A 
ATOM      6  C5  UNL d   1       0.769   0.578   1.575  0.00  0.00    -0.074 A 
ATOM      7  C6  UNL d   1       0.973   0.814   3.042  0.00  0.00     0.077 C 
ATOM      8  C7  UNL d   1      -0.152   1.360   0.863  0.00  0.00    -0.001 A 
ENDROOT
TORSDOF 0
ENDMDL
