MODEL 1
REMARK minimizedAffinity 9.19163513
REMARK minimizedRMSD -1
REMARK  0 active torsions:
REMARK  status: ('A' for Active; 'I' for Inactive)
ROOT
ATOM      1  C   UNL d   1      -1.105   1.136   1.435  0.00  0.00     0.077 C 
ATOM      2  C1  UNL d   1       0.100   0.257   1.278  0.00  0.00    -0.074 A 
ATOM      3  C2  UNL d   1       0.519  -0.168   0.013  0.00  0.00    -0.005 A 
ATOM      4  C3  UNL d   1       1.648  -0.977  -0.119  0.00  0.00     0.006 A 
ATOM      5  C4  UNL d   1       2.368  -1.368   1.011  0.00  0.00    -0.005 A 
ATOM      6  C5  UNL d   1       1.964  -0.952   2.283  0.00  0.00    -0.074 A 
ATOM      7  C6  UNL d   1       2.732  -1.356   3.507  0.00  0.00     0.077 C 
ATOM      8  C7  UNL d   1       0.833  -0.134   2.407  0.00  0.00    -0.001 A 
ENDROOT
TORSDOF 0
ENDMDL
