MODEL 1
REMARK minimizedAffinity -3.36623073
REMARK minimizedRMSD -1
REMARK  0 active torsions:
REMARK  status: ('A' for Active; 'I' for Inactive)
ROOT
ATOM      1  C   UNL d   1      -0.375   2.492   2.084  0.00  0.00     0.077 C 
ATOM      2  C1  UNL d   1       0.061   1.380   1.178  0.00  0.00    -0.074 A 
ATOM      3  C2  UNL d   1       0.713   0.252   1.686  0.00  0.00    -0.005 A 
ATOM      4  C3  UNL d   1       1.104  -0.779   0.832  0.00  0.00     0.006 A 
ATOM      5  C4  UNL d   1       0.848  -0.693  -0.537  0.00  0.00    -0.005 A 
ATOM      6  C5  UNL d   1       0.197   0.427  -1.063  0.00  0.00    -0.074 A 
ATOM      7  C6  UNL d   1      -0.095   0.531  -2.531  0.00  0.00     0.077 C 
ATOM      8  C7  UNL d   1      -0.199   1.456  -0.198  0.00  0.00    -0.001 A 
ENDROOT
TORSDOF 0
ENDMDL
