MODEL 1
REMARK minimizedAffinity 7.22517109
REMARK minimizedRMSD -1
REMARK  0 active torsions:
REMARK  status: ('A' for Active; 'I' for Inactive)
ROOT
ATOM      1  C   UNL d   1      -0.895   3.109  -1.031  0.00  0.00     0.077 C 
ATOM      2  C1  UNL d   1      -0.242   1.987  -0.280  0.00  0.00    -0.074 A 
ATOM      3  C2  UNL d   1      -0.034   0.742  -0.883  0.00  0.00    -0.005 A 
ATOM      4  C3  UNL d   1       0.583  -0.289  -0.175  0.00  0.00     0.006 A 
ATOM      5  C4  UNL d   1       0.998  -0.086   1.142  0.00  0.00    -0.005 A 
ATOM      6  C5  UNL d   1       0.799   1.152   1.762  0.00  0.00    -0.074 A 
ATOM      7  C6  UNL d   1       1.248   1.389   3.173  0.00  0.00     0.077 C 
ATOM      8  C7  UNL d   1       0.185   2.185   1.041  0.00  0.00    -0.001 A 
ENDROOT
TORSDOF 0
ENDMDL
