MODEL 1
REMARK minimizedAffinity 0.363354236
REMARK minimizedRMSD -1
REMARK  0 active torsions:
REMARK  status: ('A' for Active; 'I' for Inactive)
ROOT
ATOM      1  C   UNL d   1      -1.667   2.432   2.009  0.00  0.00     0.077 C 
ATOM      2  C1  UNL d   1      -0.720   1.598   1.198  0.00  0.00    -0.074 A 
ATOM      3  C2  UNL d   1      -0.748   1.633  -0.200  0.00  0.00    -0.005 A 
ATOM      4  C3  UNL d   1       0.145   0.859  -0.941  0.00  0.00     0.006 A 
ATOM      5  C4  UNL d   1       1.074   0.044  -0.293  0.00  0.00    -0.005 A 
ATOM      6  C5  UNL d   1       1.117  -0.003   1.104  0.00  0.00    -0.074 A 
ATOM      7  C6  UNL d   1       2.116  -0.867   1.817  0.00  0.00     0.077 C 
ATOM      8  C7  UNL d   1       0.221   0.782   1.841  0.00  0.00    -0.001 A 
ENDROOT
TORSDOF 0
ENDMDL
