MODEL 1
REMARK minimizedAffinity 12.542779
REMARK minimizedRMSD -1
REMARK  0 active torsions:
REMARK  status: ('A' for Active; 'I' for Inactive)
ROOT
ATOM      1  C   UNL d   1      -0.752   1.232  -0.345  0.00  0.00     0.077 C 
ATOM      2  C1  UNL d   1       0.104   0.692   0.762  0.00  0.00    -0.074 A 
ATOM      3  C2  UNL d   1       0.420  -0.669   0.828  0.00  0.00    -0.005 A 
ATOM      4  C3  UNL d   1       1.226  -1.154   1.858  0.00  0.00     0.006 A 
ATOM      5  C4  UNL d   1       1.723  -0.286   2.830  0.00  0.00    -0.005 A 
ATOM      6  C5  UNL d   1       1.419   1.078   2.780  0.00  0.00    -0.074 A 
ATOM      7  C6  UNL d   1       1.953   2.027   3.811  0.00  0.00     0.077 C 
ATOM      8  C7  UNL d   1       0.614   1.560   1.738  0.00  0.00    -0.001 A 
ENDROOT
TORSDOF 0
ENDMDL
