MODEL 1
REMARK minimizedAffinity -1.36145878
REMARK minimizedRMSD -1
REMARK  0 active torsions:
REMARK  status: ('A' for Active; 'I' for Inactive)
ROOT
ATOM      1  C   UNL d   1      -0.048   4.571  -2.110  0.00  0.00     0.077 C 
ATOM      2  C1  UNL d   1      -0.084   3.517  -1.044  0.00  0.00    -0.074 A 
ATOM      3  C2  UNL d   1      -0.313   2.176  -1.367  0.00  0.00    -0.005 A 
ATOM      4  C3  UNL d   1      -0.334   1.205  -0.366  0.00  0.00     0.006 A 
ATOM      5  C4  UNL d   1      -0.127   1.565   0.966  0.00  0.00    -0.005 A 
ATOM      6  C5  UNL d   1       0.105   2.901   1.309  0.00  0.00    -0.074 A 
ATOM      7  C6  UNL d   1       0.339   3.303   2.734  0.00  0.00     0.077 C 
ATOM      8  C7  UNL d   1       0.131   3.869   0.296  0.00  0.00    -0.001 A 
ENDROOT
TORSDOF 0
ENDMDL
