MODEL 1
REMARK minimizedAffinity 12.6917791
REMARK minimizedRMSD -1
REMARK  3 active torsions:
REMARK  status: ('A' for Active; 'I' for Inactive)
REMARK    1  A    between atoms: C3'_2  and  C2'_3 
REMARK    2  A    between atoms: C2'_3  and  C1'_4 
REMARK    3  A    between atoms: C1'_4  and  C1_5 
ROOT
ATOM      1  C1  N4B d   1      -1.524   3.148   0.115  0.00  0.00    -0.075 A 
ATOM      2  C2  N4B d   1      -0.554   2.934  -0.888  0.00  0.00     0.002 A 
ATOM      3  C3  N4B d   1       0.358   1.916  -0.755  0.00  0.00     0.002 A 
ATOM      4  C4  N4B d   1       0.332   1.116   0.377  0.00  0.00    -0.004 A 
ATOM      5  C5  N4B d   1      -0.624   1.313   1.330  0.00  0.00     0.002 A 
ATOM      6  C6  N4B d   1      -1.550   2.330   1.207  0.00  0.00     0.002 A 
ENDROOT
BRANCH   1   7
ATOM      7  C1' N4B d   1      -2.488   4.302   0.055  0.00  0.00     0.057 C 
BRANCH   7   8
ATOM      8  C2' N4B d   1      -2.900   4.685   1.473  0.00  0.00     0.009 C 
BRANCH   8   9
ATOM      9  C3' N4B d   1      -3.660   6.000   1.508  0.00  0.00     0.004 C 
ATOM     10  C4' N4B d   1      -4.881   5.989   0.637  0.00  0.00     0.003 C 
ENDBRANCH   8   9
ENDBRANCH   7   8
ENDBRANCH   1   7
TORSDOF 3
ENDMDL
