MODEL 1
REMARK minimizedAffinity 8.78364658
REMARK minimizedRMSD -1
REMARK  3 active torsions:
REMARK  status: ('A' for Active; 'I' for Inactive)
REMARK    1  A    between atoms: C3'_2  and  C2'_3 
REMARK    2  A    between atoms: C2'_3  and  C1'_4 
REMARK    3  A    between atoms: C1'_4  and  C1_5 
ROOT
ATOM      1  C1  N4B d   1       5.070  -3.259  -0.721  0.00  0.00    -0.075 A 
ATOM      2  C2  N4B d   1       5.085  -4.602  -0.282  0.00  0.00     0.002 A 
ATOM      3  C3  N4B d   1       5.554  -5.590  -1.113  0.00  0.00     0.002 A 
ATOM      4  C4  N4B d   1       5.994  -5.264  -2.387  0.00  0.00    -0.004 A 
ATOM      5  C5  N4B d   1       5.999  -3.962  -2.794  0.00  0.00     0.002 A 
ATOM      6  C6  N4B d   1       5.534  -2.958  -1.968  0.00  0.00     0.002 A 
ENDROOT
BRANCH   1   7
ATOM      7  C1' N4B d   1       4.486  -2.156   0.119  0.00  0.00     0.057 C 
BRANCH   7   8
ATOM      8  C2' N4B d   1       3.055  -2.522   0.502  0.00  0.00     0.009 C 
BRANCH   8   9
ATOM      9  C3' N4B d   1       2.055  -2.091  -0.557  0.00  0.00     0.004 C 
ATOM     10  C4' N4B d   1       1.123  -3.194  -0.959  0.00  0.00     0.003 C 
ENDBRANCH   8   9
ENDBRANCH   7   8
ENDBRANCH   1   7
TORSDOF 3
ENDMDL
