MODEL 1
REMARK minimizedAffinity -5.94192457
REMARK minimizedRMSD -1
REMARK  2 active torsions:
REMARK  status: ('A' for Active; 'I' for Inactive)
REMARK    1  A    between atoms: C2'_3  and  C1'_4 
REMARK    2  A    between atoms: C1'_4  and  C1_5 
ROOT
ATOM      1  C1  I4B d   1       0.122  -0.191  -0.011  0.00  0.00    -0.075 A 
ATOM      2  C2  I4B d   1       1.164   0.684  -0.188  0.00  0.00     0.003 A 
ATOM      3  C3  I4B d   1       0.947   2.080  -0.092  0.00  0.00     0.002 A 
ATOM      4  C4  I4B d   1      -0.329   2.555   0.131  0.00  0.00    -0.004 A 
ATOM      5  C5  I4B d   1      -1.380   1.666   0.333  0.00  0.00     0.002 A 
ATOM      6  C6  I4B d   1      -1.152   0.283   0.274  0.00  0.00     0.003 A 
ENDROOT
BRANCH   1   7
ATOM      7  C1' I4B d   1       0.380  -1.658  -0.152  0.00  0.00     0.060 C 
BRANCH   7   8
ATOM      8  C2' I4B d   1      -0.532  -2.190  -1.239  0.00  0.00    -0.013 C 
ATOM      9  C4' I4B d   1       0.223  -2.413  -2.523  0.00  0.00     0.013 C 
ATOM     10  C3' I4B d   1      -1.146  -3.466  -0.744  0.00  0.00     0.013 C 
ENDBRANCH   7   8
ENDBRANCH   1   7
TORSDOF 2
ENDMDL
