MODEL 1
REMARK minimizedAffinity -3.99932814
REMARK minimizedRMSD -1
REMARK  2 active torsions:
REMARK  status: ('A' for Active; 'I' for Inactive)
REMARK    1  A    between atoms: C2'_3  and  C1'_4 
REMARK    2  A    between atoms: C1'_4  and  C1_5 
ROOT
ATOM      1  C1  I4B d   1      -0.087  -0.117  -0.216  0.00  0.00    -0.075 A 
ATOM      2  C2  I4B d   1      -1.142  -0.108   0.662  0.00  0.00     0.003 A 
ATOM      3  C3  I4B d   1      -1.724   1.119   1.065  0.00  0.00     0.002 A 
ATOM      4  C4  I4B d   1      -1.190   2.307   0.608  0.00  0.00    -0.004 A 
ATOM      5  C5  I4B d   1      -0.134   2.295  -0.299  0.00  0.00     0.002 A 
ATOM      6  C6  I4B d   1       0.413   1.075  -0.724  0.00  0.00     0.003 A 
ENDROOT
BRANCH   1   7
ATOM      7  C1' I4B d   1       0.525  -1.428  -0.595  0.00  0.00     0.060 C 
BRANCH   7   8
ATOM      8  C2' I4B d   1      -0.441  -2.145  -1.516  0.00  0.00    -0.013 C 
ATOM      9  C4' I4B d   1       0.230  -2.547  -2.803  0.00  0.00     0.013 C 
ATOM     10  C3' I4B d   1      -0.976  -3.341  -0.787  0.00  0.00     0.013 C 
ENDBRANCH   7   8
ENDBRANCH   1   7
TORSDOF 2
ENDMDL
