MODEL 1
REMARK minimizedAffinity 1.29565179
REMARK minimizedRMSD -1
REMARK  2 active torsions:
REMARK  status: ('A' for Active; 'I' for Inactive)
REMARK    1  A    between atoms: C2'_3  and  C1'_4 
REMARK    2  A    between atoms: C1'_4  and  C1_5 
ROOT
ATOM      1  C1  I4B d   1      -0.055  -0.111  -0.382  0.00  0.00    -0.075 A 
ATOM      2  C2  I4B d   1      -0.908   0.586   0.437  0.00  0.00     0.003 A 
ATOM      3  C3  I4B d   1      -0.751   1.983   0.607  0.00  0.00     0.002 A 
ATOM      4  C4  I4B d   1       0.296   2.630  -0.017  0.00  0.00    -0.004 A 
ATOM      5  C5  I4B d   1       1.147   1.925  -0.865  0.00  0.00     0.002 A 
ATOM      6  C6  I4B d   1       0.963   0.549  -1.058  0.00  0.00     0.003 A 
ENDROOT
BRANCH   1   7
ATOM      7  C1' I4B d   1      -0.230  -1.591  -0.513  0.00  0.00     0.060 C 
BRANCH   7   8
ATOM      8  C2' I4B d   1      -0.596  -1.893  -1.952  0.00  0.00    -0.013 C 
ATOM      9  C4' I4B d   1       0.589  -2.424  -2.715  0.00  0.00     0.013 C 
ATOM     10  C3' I4B d   1      -1.723  -2.881  -1.945  0.00  0.00     0.013 C 
ENDBRANCH   7   8
ENDBRANCH   1   7
TORSDOF 2
ENDMDL
