MODEL 1
REMARK minimizedAffinity -4.66261148
REMARK minimizedRMSD -1
REMARK  2 active torsions:
REMARK  status: ('A' for Active; 'I' for Inactive)
REMARK    1  A    between atoms: C2'_3  and  C1'_4 
REMARK    2  A    between atoms: C1'_4  and  C1_5 
ROOT
ATOM      1  C1  I4B d   1      -0.244  -1.017  -0.174  0.00  0.00    -0.075 A 
ATOM      2  C2  I4B d   1      -0.402  -2.342   0.147  0.00  0.00     0.003 A 
ATOM      3  C3  I4B d   1      -0.407  -3.326  -0.871  0.00  0.00     0.002 A 
ATOM      4  C4  I4B d   1      -0.303  -2.938  -2.191  0.00  0.00    -0.004 A 
ATOM      5  C5  I4B d   1      -0.119  -1.597  -2.513  0.00  0.00     0.002 A 
ATOM      6  C6  I4B d   1      -0.077  -0.631  -1.497  0.00  0.00     0.003 A 
ENDROOT
BRANCH   1   7
ATOM      7  C1' I4B d   1      -0.276  -0.001   0.924  0.00  0.00     0.060 C 
BRANCH   7   8
ATOM      8  C2' I4B d   1      -0.650   1.334   0.313  0.00  0.00    -0.013 C 
ATOM      9  C4' I4B d   1      -2.131   1.587   0.420  0.00  0.00     0.013 C 
ATOM     10  C3' I4B d   1       0.133   2.402   1.017  0.00  0.00     0.013 C 
ENDBRANCH   7   8
ENDBRANCH   1   7
TORSDOF 2
ENDMDL
