MODEL 1
REMARK minimizedAffinity 0.851192951
REMARK minimizedRMSD -1
REMARK  2 active torsions:
REMARK  status: ('A' for Active; 'I' for Inactive)
REMARK    1  A    between atoms: C2'_3  and  C1'_4 
REMARK    2  A    between atoms: C1'_4  and  C1_5 
ROOT
ATOM      1  C1  I4B d   1       0.398   1.139   0.909  0.00  0.00    -0.075 A 
ATOM      2  C2  I4B d   1       0.022   2.386   0.476  0.00  0.00     0.003 A 
ATOM      3  C3  I4B d   1      -1.348   2.691   0.284  0.00  0.00     0.002 A 
ATOM      4  C4  I4B d   1      -2.297   1.710   0.485  0.00  0.00    -0.004 A 
ATOM      5  C5  I4B d   1      -1.915   0.453   0.946  0.00  0.00     0.002 A 
ATOM      6  C6  I4B d   1      -0.560   0.169   1.171  0.00  0.00     0.003 A 
ENDROOT
BRANCH   1   7
ATOM      7  C1' I4B d   1       1.855   0.842   1.070  0.00  0.00     0.060 C 
BRANCH   7   8
ATOM      8  C2' I4B d   1       2.167  -0.409   0.274  0.00  0.00    -0.013 C 
ATOM      9  C4' I4B d   1       1.758  -0.254  -1.167  0.00  0.00     0.013 C 
ATOM     10  C3' I4B d   1       3.638  -0.679   0.393  0.00  0.00     0.013 C 
ENDBRANCH   7   8
ENDBRANCH   1   7
TORSDOF 2
ENDMDL
