MODEL 1
REMARK minimizedAffinity -5.25819445
REMARK minimizedRMSD -1
REMARK  2 active torsions:
REMARK  status: ('A' for Active; 'I' for Inactive)
REMARK    1  A    between atoms: C2'_3  and  C1'_4 
REMARK    2  A    between atoms: C1'_4  and  C1_5 
ROOT
ATOM      1  C1  I4B d   1      -0.552   0.811  -0.096  0.00  0.00    -0.075 A 
ATOM      2  C2  I4B d   1      -0.695   1.737   0.908  0.00  0.00     0.003 A 
ATOM      3  C3  I4B d   1      -0.315   3.084   0.694  0.00  0.00     0.002 A 
ATOM      4  C4  I4B d   1       0.245   3.449  -0.514  0.00  0.00    -0.004 A 
ATOM      5  C5  I4B d   1       0.368   2.514  -1.538  0.00  0.00     0.002 A 
ATOM      6  C6  I4B d   1      -0.045   1.190  -1.332  0.00  0.00     0.003 A 
ENDROOT
BRANCH   1   7
ATOM      7  C1' I4B d   1      -0.932  -0.610   0.175  0.00  0.00     0.060 C 
BRANCH   7   8
ATOM      8  C2' I4B d   1       0.119  -1.502  -0.453  0.00  0.00    -0.013 C 
ATOM      9  C4' I4B d   1       1.376  -1.531   0.377  0.00  0.00     0.013 C 
ATOM     10  C3' I4B d   1      -0.466  -2.875  -0.597  0.00  0.00     0.013 C 
ENDBRANCH   7   8
ENDBRANCH   1   7
TORSDOF 2
ENDMDL
