MODEL 1
REMARK minimizedAffinity -5.0963707
REMARK minimizedRMSD -1
REMARK  2 active torsions:
REMARK  status: ('A' for Active; 'I' for Inactive)
REMARK    1  A    between atoms: C2'_3  and  C1'_4 
REMARK    2  A    between atoms: C1'_4  and  C1_5 
ROOT
ATOM      1  C1  I4B d   1      -0.011  -0.303  -0.413  0.00  0.00    -0.075 A 
ATOM      2  C2  I4B d   1       1.219   0.239  -0.690  0.00  0.00     0.003 A 
ATOM      3  C3  I4B d   1       1.426   1.635  -0.572  0.00  0.00     0.002 A 
ATOM      4  C4  I4B d   1       0.369   2.452  -0.226  0.00  0.00    -0.004 A 
ATOM      5  C5  I4B d   1      -0.872   1.898   0.077  0.00  0.00     0.002 A 
ATOM      6  C6  I4B d   1      -1.060   0.510  -0.005  0.00  0.00     0.003 A 
ENDROOT
BRANCH   1   7
ATOM      7  C1' I4B d   1      -0.203  -1.777  -0.579  0.00  0.00     0.060 C 
BRANCH   7   8
ATOM      8  C2' I4B d   1      -0.292  -2.072  -2.063  0.00  0.00    -0.013 C 
ATOM      9  C4' I4B d   1       0.889  -2.882  -2.529  0.00  0.00     0.013 C 
ATOM     10  C3' I4B d   1      -1.580  -2.797  -2.314  0.00  0.00     0.013 C 
ENDBRANCH   7   8
ENDBRANCH   1   7
TORSDOF 2
ENDMDL
