MODEL 1
REMARK minimizedAffinity -4.59268761
REMARK minimizedRMSD -1
REMARK  2 active torsions:
REMARK  status: ('A' for Active; 'I' for Inactive)
REMARK    1  A    between atoms: C2'_3  and  C1'_4 
REMARK    2  A    between atoms: C1'_4  and  C1_5 
ROOT
ATOM      1  C1  I4B d   1      -0.101  -1.819  -0.818  0.00  0.00    -0.075 A 
ATOM      2  C2  I4B d   1      -1.244  -2.558  -0.643  0.00  0.00     0.003 A 
ATOM      3  C3  I4B d   1      -1.658  -3.478  -1.637  0.00  0.00     0.002 A 
ATOM      4  C4  I4B d   1      -0.931  -3.590  -2.804  0.00  0.00    -0.004 A 
ATOM      5  C5  I4B d   1       0.241  -2.857  -2.970  0.00  0.00     0.002 A 
ATOM      6  C6  I4B d   1       0.666  -1.975  -1.966  0.00  0.00     0.003 A 
ENDROOT
BRANCH   1   7
ATOM      7  C1' I4B d   1       0.289  -0.833   0.237  0.00  0.00     0.060 C 
BRANCH   7   8
ATOM      8  C2' I4B d   1      -0.454   0.460  -0.035  0.00  0.00    -0.013 C 
ATOM      9  C4' I4B d   1      -1.548   0.682   0.975  0.00  0.00     0.013 C 
ATOM     10  C3' I4B d   1       0.542   1.580  -0.011  0.00  0.00     0.013 C 
ENDBRANCH   7   8
ENDBRANCH   1   7
TORSDOF 2
ENDMDL
