MODEL 1
REMARK minimizedAffinity -6.28789568
REMARK minimizedRMSD -1
REMARK  2 active torsions:
REMARK  status: ('A' for Active; 'I' for Inactive)
REMARK    1  A    between atoms: C2'_3  and  C1'_4 
REMARK    2  A    between atoms: C1'_4  and  C1_5 
ROOT
ATOM      1  C1  I4B d   1      -0.058   0.015  -0.162  0.00  0.00    -0.075 A 
ATOM      2  C2  I4B d   1       1.132   0.653  -0.409  0.00  0.00     0.003 A 
ATOM      3  C3  I4B d   1       1.251   2.047  -0.195  0.00  0.00     0.002 A 
ATOM      4  C4  I4B d   1       0.148   2.768   0.215  0.00  0.00    -0.004 A 
ATOM      5  C5  I4B d   1      -1.051   2.116   0.488  0.00  0.00     0.002 A 
ATOM      6  C6  I4B d   1      -1.152   0.729   0.310  0.00  0.00     0.003 A 
ENDROOT
BRANCH   1   7
ATOM      7  C1' I4B d   1      -0.158  -1.454  -0.430  0.00  0.00     0.060 C 
BRANCH   7   8
ATOM      8  C2' I4B d   1      -0.390  -1.642  -1.915  0.00  0.00    -0.013 C 
ATOM      9  C4' I4B d   1       0.872  -2.073  -2.614  0.00  0.00     0.013 C 
ATOM     10  C3' I4B d   1      -1.479  -2.659  -2.088  0.00  0.00     0.013 C 
ENDBRANCH   7   8
ENDBRANCH   1   7
TORSDOF 2
ENDMDL
