MODEL 1
REMARK minimizedAffinity -6.05535746
REMARK minimizedRMSD -1
REMARK  2 active torsions:
REMARK  status: ('A' for Active; 'I' for Inactive)
REMARK    1  A    between atoms: C2'_3  and  C1'_4 
REMARK    2  A    between atoms: C1'_4  and  C1_5 
ROOT
ATOM      1  C1  I4B d   1       0.690  -0.314   0.115  0.00  0.00    -0.075 A 
ATOM      2  C2  I4B d   1       1.842   0.428   0.201  0.00  0.00     0.003 A 
ATOM      3  C3  I4B d   1       1.787   1.841   0.125  0.00  0.00     0.002 A 
ATOM      4  C4  I4B d   1       0.574   2.464  -0.087  0.00  0.00    -0.004 A 
ATOM      5  C5  I4B d   1      -0.596   1.711  -0.152  0.00  0.00     0.002 A 
ATOM      6  C6  I4B d   1      -0.539   0.315  -0.038  0.00  0.00     0.003 A 
ENDROOT
BRANCH   1   7
ATOM      7  C1' I4B d   1       0.789  -1.805   0.166  0.00  0.00     0.060 C 
BRANCH   7   8
ATOM      8  C2' I4B d   1       0.179  -2.357  -1.106  0.00  0.00    -0.013 C 
ATOM      9  C4' I4B d   1       1.217  -3.041  -1.956  0.00  0.00     0.013 C 
ATOM     10  C3' I4B d   1      -0.917  -3.306  -0.721  0.00  0.00     0.013 C 
ENDBRANCH   7   8
ENDBRANCH   1   7
TORSDOF 2
ENDMDL
