MODEL 1
REMARK minimizedAffinity 2.40744066
REMARK minimizedRMSD -1
REMARK  2 active torsions:
REMARK  status: ('A' for Active; 'I' for Inactive)
REMARK    1  A    between atoms: C2'_3  and  C1'_4 
REMARK    2  A    between atoms: C1'_4  and  C1_5 
ROOT
ATOM      1  C1  I4B d   1      -0.427  -0.536   0.198  0.00  0.00    -0.075 A 
ATOM      2  C2  I4B d   1       0.487   0.458  -0.047  0.00  0.00     0.003 A 
ATOM      3  C3  I4B d   1       0.168   1.807   0.242  0.00  0.00     0.002 A 
ATOM      4  C4  I4B d   1      -1.086   2.120   0.724  0.00  0.00    -0.004 A 
ATOM      5  C5  I4B d   1      -2.003   1.109   0.994  0.00  0.00     0.002 A 
ATOM      6  C6  I4B d   1      -1.668  -0.229   0.741  0.00  0.00     0.003 A 
ENDROOT
BRANCH   1   7
ATOM      7  C1' I4B d   1      -0.069  -1.946  -0.149  0.00  0.00     0.060 C 
BRANCH   7   8
ATOM      8  C2' I4B d   1      -0.697  -2.271  -1.489  0.00  0.00    -0.013 C 
ATOM      9  C4' I4B d   1       0.354  -2.560  -2.528  0.00  0.00     0.013 C 
ATOM     10  C3' I4B d   1      -1.610  -3.445  -1.301  0.00  0.00     0.013 C 
ENDBRANCH   7   8
ENDBRANCH   1   7
TORSDOF 2
ENDMDL
