MODEL 1
REMARK minimizedAffinity -6.64791584
REMARK minimizedRMSD -1
REMARK  2 active torsions:
REMARK  status: ('A' for Active; 'I' for Inactive)
REMARK    1  A    between atoms: C2'_3  and  C1'_4 
REMARK    2  A    between atoms: C1'_4  and  C1_5 
ROOT
ATOM      1  C1  I4B d   1       1.367   1.496  -0.708  0.00  0.00    -0.075 A 
ATOM      2  C2  I4B d   1       2.532   1.987  -0.175  0.00  0.00     0.003 A 
ATOM      3  C3  I4B d   1       2.561   3.276   0.409  0.00  0.00     0.002 A 
ATOM      4  C4  I4B d   1       1.422   4.055   0.393  0.00  0.00    -0.004 A 
ATOM      5  C5  I4B d   1       0.235   3.547  -0.128  0.00  0.00     0.002 A 
ATOM      6  C6  I4B d   1       0.204   2.254  -0.671  0.00  0.00     0.003 A 
ENDROOT
BRANCH   1   7
ATOM      7  C1' I4B d   1       1.380   0.143  -1.347  0.00  0.00     0.060 C 
BRANCH   7   8
ATOM      8  C2' I4B d   1       0.440  -0.751  -0.565  0.00  0.00    -0.013 C 
ATOM      9  C4' I4B d   1       0.055  -1.968  -1.364  0.00  0.00     0.013 C 
ATOM     10  C3' I4B d   1       1.123  -1.137   0.713  0.00  0.00     0.013 C 
ENDBRANCH   7   8
ENDBRANCH   1   7
TORSDOF 2
ENDMDL
