MODEL 1
REMARK minimizedAffinity -3.93301558
REMARK minimizedRMSD -1
REMARK  2 active torsions:
REMARK  status: ('A' for Active; 'I' for Inactive)
REMARK    1  A    between atoms: C2'_3  and  C1'_4 
REMARK    2  A    between atoms: C1'_4  and  C1_5 
ROOT
ATOM      1  C1  I4B d   1      -0.321  -0.855  -0.044  0.00  0.00    -0.075 A 
ATOM      2  C2  I4B d   1       0.942  -0.480   0.343  0.00  0.00     0.003 A 
ATOM      3  C3  I4B d   1       1.190   0.844   0.777  0.00  0.00     0.002 A 
ATOM      4  C4  I4B d   1       0.165   1.768   0.761  0.00  0.00    -0.004 A 
ATOM      5  C5  I4B d   1      -1.119   1.380   0.391  0.00  0.00     0.002 A 
ATOM      6  C6  I4B d   1      -1.367   0.057  -0.003  0.00  0.00     0.003 A 
ENDROOT
BRANCH   1   7
ATOM      7  C1' I4B d   1      -0.540  -2.253  -0.529  0.00  0.00     0.060 C 
BRANCH   7   8
ATOM      8  C2' I4B d   1      -0.460  -2.241  -2.042  0.00  0.00    -0.013 C 
ATOM      9  C4' I4B d   1       0.686  -3.084  -2.534  0.00  0.00     0.013 C 
ATOM     10  C3' I4B d   1      -1.769  -2.739  -2.579  0.00  0.00     0.013 C 
ENDBRANCH   7   8
ENDBRANCH   1   7
TORSDOF 2
ENDMDL
