MODEL 1
REMARK minimizedAffinity 4.92554951
REMARK minimizedRMSD -1
REMARK  1 active torsions:
REMARK  status: ('A' for Active; 'I' for Inactive)
REMARK    1  A    between atoms: N_2  and  C1_3 
ROOT
ATOM      1  C1  UNL d   1       4.656   1.778  -1.224  0.00  0.00     0.143 A 
ATOM      2  C2  UNL d   1       4.707   0.815  -2.238  0.00  0.00    -0.057 A 
ATOM      3  C3  UNL d   1       3.739  -0.192  -2.333  0.00  0.00     0.033 A 
ATOM      4  C4  UNL d   1       2.715  -0.271  -1.394  0.00  0.00    -0.042 A 
ATOM      5  C5  UNL d   1       2.659   0.660  -0.364  0.00  0.00     0.033 A 
ATOM      6  C6  UNL d   1       3.625   1.667  -0.278  0.00  0.00    -0.057 A 
ENDROOT
BRANCH   1   7
ATOM      7  N   UNL d   1       5.643   2.744  -1.019  0.00  0.00    -0.732 N 
ATOM      8  C   UNL d   1       5.661   3.959  -1.805  0.00  0.00     0.284 C 
ATOM      9  H3  UNL d   1       5.850   2.885  -0.033  0.00  0.00     0.395 HD
ENDBRANCH   1   7
TORSDOF 1
ENDMDL
