MODEL 1
REMARK minimizedAffinity -3.87419605
REMARK minimizedRMSD -1
REMARK  1 active torsions:
REMARK  status: ('A' for Active; 'I' for Inactive)
REMARK    1  A    between atoms: N_2  and  C1_3 
ROOT
ATOM      1  C1  UNL d   1       3.670   4.729   4.587  0.00  0.00     0.143 A 
ATOM      2  C2  UNL d   1       3.234   4.159   3.386  0.00  0.00    -0.057 A 
ATOM      3  C3  UNL d   1       2.083   3.364   3.336  0.00  0.00     0.033 A 
ATOM      4  C4  UNL d   1       1.361   3.101   4.495  0.00  0.00    -0.042 A 
ATOM      5  C5  UNL d   1       1.790   3.637   5.704  0.00  0.00     0.033 A 
ATOM      6  C6  UNL d   1       2.937   4.435   5.747  0.00  0.00    -0.057 A 
ENDROOT
BRANCH   1   7
ATOM      7  N   UNL d   1       4.861   5.448   4.720  0.00  0.00    -0.732 N 
ATOM      8  C   UNL d   1       5.250   5.999   6.000  0.00  0.00     0.284 C 
ATOM      9  H3  UNL d   1       5.627   5.029   4.197  0.00  0.00     0.395 HD
ENDBRANCH   1   7
TORSDOF 1
ENDMDL
