MODEL 1
REMARK minimizedAffinity 5.62929726
REMARK minimizedRMSD -1
REMARK  1 active torsions:
REMARK  status: ('A' for Active; 'I' for Inactive)
REMARK    1  A    between atoms: N_2  and  C1_3 
ROOT
ATOM      1  C1  UNL d   1       2.582   3.799   4.433  0.00  0.00     0.143 A 
ATOM      2  C2  UNL d   1       1.886   3.186   3.386  0.00  0.00    -0.057 A 
ATOM      3  C3  UNL d   1       0.837   2.293   3.636  0.00  0.00     0.033 A 
ATOM      4  C4  UNL d   1       0.484   1.974   4.943  0.00  0.00    -0.042 A 
ATOM      5  C5  UNL d   1       1.178   2.552   6.000  0.00  0.00     0.033 A 
ATOM      6  C6  UNL d   1       2.221   3.449   5.743  0.00  0.00    -0.057 A 
ENDROOT
BRANCH   1   7
ATOM      7  N   UNL d   1       3.698   4.619   4.250  0.00  0.00    -0.732 N 
ATOM      8  C   UNL d   1       4.422   4.611   2.997  0.00  0.00     0.284 C 
ATOM      9  H3  UNL d   1       3.569   5.546   4.649  0.00  0.00     0.395 HD
ENDBRANCH   1   7
TORSDOF 1
ENDMDL
