MODEL 1
REMARK minimizedAffinity 5.32626152
REMARK minimizedRMSD -1
REMARK  1 active torsions:
REMARK  status: ('A' for Active; 'I' for Inactive)
REMARK    1  A    between atoms: N_2  and  C1_3 
ROOT
ATOM      1  C1  UNL d   1       4.585   4.230   4.959  0.00  0.00     0.143 A 
ATOM      2  C2  UNL d   1       4.231   3.828   3.667  0.00  0.00    -0.057 A 
ATOM      3  C3  UNL d   1       2.991   3.233   3.406  0.00  0.00     0.033 A 
ATOM      4  C4  UNL d   1       2.092   3.002   4.442  0.00  0.00    -0.042 A 
ATOM      5  C5  UNL d   1       2.433   3.371   5.738  0.00  0.00     0.033 A 
ATOM      6  C6  UNL d   1       3.670   3.971   5.991  0.00  0.00    -0.057 A 
ENDROOT
BRANCH   1   7
ATOM      7  N   UNL d   1       5.842   4.737   5.299  0.00  0.00    -0.732 N 
ATOM      8  C   UNL d   1       5.964   5.997   6.000  0.00  0.00     0.284 C 
ATOM      9  H3  UNL d   1       6.476   4.013   5.631  0.00  0.00     0.395 HD
ENDBRANCH   1   7
TORSDOF 1
ENDMDL
