MODEL 1
REMARK minimizedAffinity 5.262187
REMARK minimizedRMSD -1
REMARK  1 active torsions:
REMARK  status: ('A' for Active; 'I' for Inactive)
REMARK    1  A    between atoms: N_2  and  C1_3 
ROOT
ATOM      1  C1  UNL d   1       4.744   1.320  -1.874  0.00  0.00     0.143 A 
ATOM      2  C2  UNL d   1       4.058   0.455  -2.733  0.00  0.00    -0.057 A 
ATOM      3  C3  UNL d   1       3.038  -0.380  -2.260  0.00  0.00     0.033 A 
ATOM      4  C4  UNL d   1       2.706  -0.385  -0.909  0.00  0.00    -0.042 A 
ATOM      5  C5  UNL d   1       3.392   0.448  -0.033  0.00  0.00     0.033 A 
ATOM      6  C6  UNL d   1       4.405   1.284  -0.513  0.00  0.00    -0.057 A 
ENDROOT
BRANCH   1   7
ATOM      7  N   UNL d   1       5.834   2.102  -2.266  0.00  0.00    -0.732 N 
ATOM      8  C   UNL d   1       5.644   3.475  -2.682  0.00  0.00     0.284 C 
ATOM      9  H3  UNL d   1       6.649   1.955  -1.675  0.00  0.00     0.395 HD
ENDBRANCH   1   7
TORSDOF 1
ENDMDL
