MODEL 1
REMARK minimizedAffinity 4.13810921
REMARK minimizedRMSD -1
REMARK  1 active torsions:
REMARK  status: ('A' for Active; 'I' for Inactive)
REMARK    1  A    between atoms: N_2  and  C1_3 
ROOT
ATOM      1  C1  UNL d   1       0.360   0.650  -1.307  0.00  0.00     0.143 A 
ATOM      2  C2  UNL d   1       0.313   1.854  -0.597  0.00  0.00    -0.057 A 
ATOM      3  C3  UNL d   1      -0.904   2.492  -0.331  0.00  0.00     0.033 A 
ATOM      4  C4  UNL d   1      -2.098   1.950  -0.797  0.00  0.00    -0.042 A 
ATOM      5  C5  UNL d   1      -2.072   0.767  -1.526  0.00  0.00     0.033 A 
ATOM      6  C6  UNL d   1      -0.854   0.131  -1.783  0.00  0.00    -0.057 A 
ENDROOT
BRANCH   1   7
ATOM      7  N   UNL d   1       1.547   0.018  -1.689  0.00  0.00    -0.732 N 
ATOM      8  C   UNL d   1       2.786   0.761  -1.763  0.00  0.00     0.284 C 
ATOM      9  H3  UNL d   1       1.641  -0.909  -1.282  0.00  0.00     0.395 HD
ENDBRANCH   1   7
TORSDOF 1
ENDMDL
