MODEL 1
REMARK minimizedAffinity -2.05308485
REMARK minimizedRMSD -1
REMARK  0 active torsions:
REMARK  status: ('A' for Active; 'I' for Inactive)
ROOT
ATOM      1  C1  DEN d   1       3.274  -5.631  -4.835  0.00  0.00     0.130 A 
ATOM      2  C2  DEN d   1       2.962  -6.000  -3.456  0.00  0.00    -0.031 A 
ATOM      3  C3  DEN d   1       3.004  -4.773  -2.635  0.00  0.00     0.027 A 
ATOM      4  C4  DEN d   1       3.514  -2.351  -3.362  0.00  0.00     0.027 A 
ATOM      5  C5  DEN d   1       3.848  -1.546  -4.428  0.00  0.00    -0.003 A 
ATOM      6  C6  DEN d   1       4.046  -2.047  -5.688  0.00  0.00     0.001 A 
ATOM      7  C7  DEN d   1       3.867  -3.384  -5.922  0.00  0.00     0.017 A 
ATOM      8  C8  DEN d   1       3.537  -4.204  -4.850  0.00  0.00    -0.094 A 
ATOM      9  C9  DEN d   1       3.330  -3.677  -3.587  0.00  0.00    -0.072 A 
ENDROOT
TORSDOF 0
ENDMDL
