MODEL 1
REMARK minimizedAffinity 11.8013334
REMARK minimizedRMSD -1
REMARK  0 active torsions:
REMARK  status: ('A' for Active; 'I' for Inactive)
ROOT
ATOM      1  C1  DEN d   1       1.274   2.666  -1.492  0.00  0.00     0.130 A 
ATOM      2  C2  DEN d   1       1.167   1.284  -1.030  0.00  0.00    -0.031 A 
ATOM      3  C3  DEN d   1       0.344   1.275   0.196  0.00  0.00     0.027 A 
ATOM      4  C4  DEN d   1      -0.773   3.255   1.415  0.00  0.00     0.027 A 
ATOM      5  C5  DEN d   1      -0.955   4.620   1.406  0.00  0.00    -0.003 A 
ATOM      6  C6  DEN d   1      -0.383   5.427   0.458  0.00  0.00     0.001 A 
ATOM      7  C7  DEN d   1       0.362   4.870  -0.547  0.00  0.00     0.017 A 
ATOM      8  C8  DEN d   1       0.555   3.495  -0.541  0.00  0.00    -0.094 A 
ATOM      9  C9  DEN d   1      -0.041   2.695   0.419  0.00  0.00    -0.072 A 
ENDROOT
TORSDOF 0
ENDMDL
