MODEL 1
REMARK minimizedAffinity 2.0208571
REMARK minimizedRMSD -1
REMARK  0 active torsions:
REMARK  status: ('A' for Active; 'I' for Inactive)
ROOT
ATOM      1  C1  DEN d   1      -0.663  -0.805  -0.642  0.00  0.00     0.130 A 
ATOM      2  C2  DEN d   1       0.304  -1.849  -0.313  0.00  0.00    -0.031 A 
ATOM      3  C3  DEN d   1       1.435  -1.218   0.395  0.00  0.00     0.027 A 
ATOM      4  C4  DEN d   1       1.780   1.261   1.017  0.00  0.00     0.027 A 
ATOM      5  C5  DEN d   1       1.237   2.525   0.938  0.00  0.00    -0.003 A 
ATOM      6  C6  DEN d   1       0.049   2.770   0.302  0.00  0.00     0.001 A 
ATOM      7  C7  DEN d   1      -0.658   1.730  -0.241  0.00  0.00     0.017 A 
ATOM      8  C8  DEN d   1      -0.113   0.454  -0.171  0.00  0.00    -0.094 A 
ATOM      9  C9  DEN d   1       1.083   0.225   0.486  0.00  0.00    -0.072 A 
ENDROOT
TORSDOF 0
ENDMDL
