MODEL 1
REMARK minimizedAffinity -3.72488308
REMARK minimizedRMSD -1
REMARK  0 active torsions:
REMARK  status: ('A' for Active; 'I' for Inactive)
ROOT
ATOM      1  C1  DEN d   1       3.062   0.207   1.428  0.00  0.00     0.130 A 
ATOM      2  C2  DEN d   1       2.832  -1.076   2.086  0.00  0.00    -0.031 A 
ATOM      3  C3  DEN d   1       1.389  -1.380   2.004  0.00  0.00     0.027 A 
ATOM      4  C4  DEN d   1      -0.501   0.004   0.924  0.00  0.00     0.027 A 
ATOM      5  C5  DEN d   1      -0.796   1.170   0.253  0.00  0.00    -0.003 A 
ATOM      6  C6  DEN d   1       0.161   2.105  -0.041  0.00  0.00     0.001 A 
ATOM      7  C7  DEN d   1       1.468   1.869   0.297  0.00  0.00     0.017 A 
ATOM      8  C8  DEN d   1       1.771   0.699   0.981  0.00  0.00    -0.094 A 
ATOM      9  C9  DEN d   1       0.792  -0.239   1.258  0.00  0.00    -0.072 A 
ENDROOT
TORSDOF 0
ENDMDL
