MODEL 1
REMARK minimizedAffinity 5.51085424
REMARK minimizedRMSD -1
REMARK  0 active torsions:
REMARK  status: ('A' for Active; 'I' for Inactive)
ROOT
ATOM      1  C1  DEN d   1       1.678   1.506   0.760  0.00  0.00     0.130 A 
ATOM      2  C2  DEN d   1       0.713   1.782  -0.301  0.00  0.00    -0.031 A 
ATOM      3  C3  DEN d   1      -0.154   0.596  -0.449  0.00  0.00     0.027 A 
ATOM      4  C4  DEN d   1      -0.099  -1.628   0.856  0.00  0.00     0.027 A 
ATOM      5  C5  DEN d   1       0.550  -2.334   1.844  0.00  0.00    -0.003 A 
ATOM      6  C6  DEN d   1       1.634  -1.827   2.512  0.00  0.00     0.001 A 
ATOM      7  C7  DEN d   1       2.072  -0.560   2.230  0.00  0.00     0.017 A 
ATOM      8  C8  DEN d   1       1.427   0.155   1.229  0.00  0.00    -0.094 A 
ATOM      9  C9  DEN d   1       0.326  -0.370   0.575  0.00  0.00    -0.072 A 
ENDROOT
TORSDOF 0
ENDMDL
