MODEL 1
REMARK minimizedAffinity 5.24002934
REMARK minimizedRMSD -1
REMARK  0 active torsions:
REMARK  status: ('A' for Active; 'I' for Inactive)
ROOT
ATOM      1  C1  DEN d   1       0.011  -1.189   0.749  0.00  0.00     0.130 A 
ATOM      2  C2  DEN d   1       0.561  -2.373   1.405  0.00  0.00    -0.031 A 
ATOM      3  C3  DEN d   1       1.995  -2.128   1.661  0.00  0.00     0.027 A 
ATOM      4  C4  DEN d   1       3.408  -0.041   1.113  0.00  0.00     0.027 A 
ATOM      5  C5  DEN d   1       3.383   1.215   0.547  0.00  0.00    -0.003 A 
ATOM      6  C6  DEN d   1       2.250   1.739  -0.017  0.00  0.00     0.001 A 
ATOM      7  C7  DEN d   1       1.083   1.023   0.013  0.00  0.00     0.017 A 
ATOM      8  C8  DEN d   1       1.102  -0.247   0.575  0.00  0.00    -0.094 A 
ATOM      9  C9  DEN d   1       2.254  -0.754   1.151  0.00  0.00    -0.072 A 
ENDROOT
TORSDOF 0
ENDMDL
