MODEL 1
REMARK minimizedAffinity 8.63581848
REMARK minimizedRMSD -1
REMARK  0 active torsions:
REMARK  status: ('A' for Active; 'I' for Inactive)
ROOT
ATOM      1  C1  DEN d   1      -1.484   1.532  -0.129  0.00  0.00     0.130 A 
ATOM      2  C2  DEN d   1      -1.241   2.970  -0.202  0.00  0.00    -0.031 A 
ATOM      3  C3  DEN d   1       0.201   3.202   0.017  0.00  0.00     0.027 A 
ATOM      4  C4  DEN d   1       2.072   1.482   0.455  0.00  0.00     0.027 A 
ATOM      5  C5  DEN d   1       2.350   0.143   0.618  0.00  0.00    -0.003 A 
ATOM      6  C6  DEN d   1       1.373  -0.816   0.577  0.00  0.00     0.001 A 
ATOM      7  C7  DEN d   1       0.077  -0.454   0.324  0.00  0.00     0.017 A 
ATOM      8  C8  DEN d   1      -0.213   0.895   0.166  0.00  0.00    -0.094 A 
ATOM      9  C9  DEN d   1       0.791   1.848   0.199  0.00  0.00    -0.072 A 
ENDROOT
TORSDOF 0
ENDMDL
