MODEL 1
REMARK minimizedAffinity -0.924268663
REMARK minimizedRMSD -1
REMARK  0 active torsions:
REMARK  status: ('A' for Active; 'I' for Inactive)
ROOT
ATOM      1  C1  DEN d   1       3.188   0.452   3.058  0.00  0.00     0.130 A 
ATOM      2  C2  DEN d   1       2.729  -0.718   3.803  0.00  0.00    -0.031 A 
ATOM      3  C3  DEN d   1       1.467  -1.181   3.193  0.00  0.00     0.027 A 
ATOM      4  C4  DEN d   1       0.188  -0.211   1.175  0.00  0.00     0.027 A 
ATOM      5  C5  DEN d   1       0.181   0.786   0.224  0.00  0.00    -0.003 A 
ATOM      6  C6  DEN d   1       1.150   1.753   0.173  0.00  0.00     0.001 A 
ATOM      7  C7  DEN d   1       2.191   1.718   1.062  0.00  0.00     0.017 A 
ATOM      8  C8  DEN d   1       2.201   0.720   2.028  0.00  0.00    -0.094 A 
ATOM      9  C9  DEN d   1       1.219  -0.255   2.056  0.00  0.00    -0.072 A 
ENDROOT
TORSDOF 0
ENDMDL
