MODEL 1
REMARK minimizedAffinity 0.201104298
REMARK minimizedRMSD -1
REMARK  0 active torsions:
REMARK  status: ('A' for Active; 'I' for Inactive)
ROOT
ATOM      1  C1  DEN d   1       0.786  -0.873   1.419  0.00  0.00     0.130 A 
ATOM      2  C2  DEN d   1      -0.608  -0.923   0.986  0.00  0.00    -0.031 A 
ATOM      3  C3  DEN d   1      -1.036   0.454   0.668  0.00  0.00     0.027 A 
ATOM      4  C4  DEN d   1       0.318   2.645   0.797  0.00  0.00     0.027 A 
ATOM      5  C5  DEN d   1       1.541   3.192   1.121  0.00  0.00    -0.003 A 
ATOM      6  C6  DEN d   1       2.578   2.433   1.595  0.00  0.00     0.001 A 
ATOM      7  C7  DEN d   1       2.426   1.077   1.716  0.00  0.00     0.017 A 
ATOM      8  C8  DEN d   1       1.194   0.519   1.399  0.00  0.00    -0.094 A 
ATOM      9  C9  DEN d   1       0.162   1.302   0.909  0.00  0.00    -0.072 A 
ENDROOT
TORSDOF 0
ENDMDL
