MODEL 1
REMARK minimizedAffinity -3.51060247
REMARK minimizedRMSD -1
REMARK  0 active torsions:
REMARK  status: ('A' for Active; 'I' for Inactive)
ROOT
ATOM      1  C   UNL d   1      -1.980  -2.514   0.676  0.00  0.00     0.077 C 
ATOM      2  C1  UNL d   1      -0.758  -1.646   0.618  0.00  0.00    -0.074 A 
ATOM      3  C2  UNL d   1       0.392  -1.976   1.342  0.00  0.00    -0.005 A 
ATOM      4  C3  UNL d   1       1.525  -1.165   1.270  0.00  0.00     0.006 A 
ATOM      5  C4  UNL d   1       1.519  -0.018   0.475  0.00  0.00    -0.005 A 
ATOM      6  C5  UNL d   1       0.378   0.327  -0.257  0.00  0.00    -0.074 A 
ATOM      7  C6  UNL d   1       0.358   1.550  -1.124  0.00  0.00     0.077 C 
ATOM      8  C7  UNL d   1      -0.753  -0.497  -0.185  0.00  0.00    -0.001 A 
ENDROOT
TORSDOF 0
ENDMDL
