MODEL 1
REMARK minimizedAffinity -3.2662487
REMARK minimizedRMSD -1
REMARK  0 active torsions:
REMARK  status: ('A' for Active; 'I' for Inactive)
ROOT
ATOM      1  C   UNL d   1      -1.913  -2.951   0.310  0.00  0.00     0.077 C 
ATOM      2  C1  UNL d   1      -0.778  -1.971   0.278  0.00  0.00    -0.074 A 
ATOM      3  C2  UNL d   1       0.423  -2.240   0.943  0.00  0.00    -0.005 A 
ATOM      4  C3  UNL d   1       1.473  -1.323   0.896  0.00  0.00     0.006 A 
ATOM      5  C4  UNL d   1       1.334  -0.131   0.185  0.00  0.00    -0.005 A 
ATOM      6  C5  UNL d   1       0.141   0.154  -0.488  0.00  0.00    -0.074 A 
ATOM      7  C6  UNL d   1      -0.022   1.427  -1.265  0.00  0.00     0.077 C 
ATOM      8  C7  UNL d   1      -0.907  -0.775  -0.442  0.00  0.00    -0.001 A 
ENDROOT
TORSDOF 0
ENDMDL
