MODEL 1
REMARK minimizedAffinity -5.58610821
REMARK minimizedRMSD -1
REMARK  0 active torsions:
REMARK  status: ('A' for Active; 'I' for Inactive)
ROOT
ATOM      1  C   UNL d   1      -3.188  -0.392   1.948  0.00  0.00     0.077 C 
ATOM      2  C1  UNL d   1      -1.921  -0.863   1.297  0.00  0.00    -0.074 A 
ATOM      3  C2  UNL d   1      -1.478  -2.180   1.456  0.00  0.00    -0.005 A 
ATOM      4  C3  UNL d   1      -0.303  -2.607   0.837  0.00  0.00     0.006 A 
ATOM      5  C4  UNL d   1       0.440  -1.722   0.054  0.00  0.00    -0.005 A 
ATOM      6  C5  UNL d   1       0.012  -0.401  -0.117  0.00  0.00    -0.074 A 
ATOM      7  C6  UNL d   1       0.793   0.560  -0.962  0.00  0.00     0.077 C 
ATOM      8  C7  UNL d   1      -1.174   0.017   0.503  0.00  0.00    -0.001 A 
ENDROOT
TORSDOF 0
ENDMDL
