MODEL 1
REMARK minimizedAffinity -3.57199359
REMARK minimizedRMSD -1
REMARK  0 active torsions:
REMARK  status: ('A' for Active; 'I' for Inactive)
ROOT
ATOM      1  C   UNL d   1      -1.489   2.189   0.429  0.00  0.00     0.077 C 
ATOM      2  C1  UNL d   1      -0.726   0.902   0.320  0.00  0.00    -0.074 A 
ATOM      3  C2  UNL d   1       0.646   0.900   0.048  0.00  0.00    -0.005 A 
ATOM      4  C3  UNL d   1       1.343  -0.305  -0.041  0.00  0.00     0.006 A 
ATOM      5  C4  UNL d   1       0.678  -1.517   0.140  0.00  0.00    -0.005 A 
ATOM      6  C5  UNL d   1      -0.694  -1.535   0.413  0.00  0.00    -0.074 A 
ATOM      7  C6  UNL d   1      -1.423  -2.829   0.620  0.00  0.00     0.077 C 
ATOM      8  C7  UNL d   1      -1.387  -0.320   0.508  0.00  0.00    -0.001 A 
ENDROOT
TORSDOF 0
ENDMDL
