MODEL 1
REMARK minimizedAffinity -1.39428854
REMARK minimizedRMSD -1
REMARK  0 active torsions:
REMARK  status: ('A' for Active; 'I' for Inactive)
ROOT
ATOM      1  C   UNL d   1       1.473   1.620  -0.988  0.00  0.00     0.077 C 
ATOM      2  C1  UNL d   1       0.400   0.873  -0.253  0.00  0.00    -0.074 A 
ATOM      3  C2  UNL d   1      -0.672   1.551   0.337  0.00  0.00    -0.005 A 
ATOM      4  C3  UNL d   1      -1.667   0.842   1.010  0.00  0.00     0.006 A 
ATOM      5  C4  UNL d   1      -1.601  -0.549   1.099  0.00  0.00    -0.005 A 
ATOM      6  C5  UNL d   1      -0.538  -1.243   0.514  0.00  0.00    -0.074 A 
ATOM      7  C6  UNL d   1      -0.457  -2.739   0.592  0.00  0.00     0.077 C 
ATOM      8  C7  UNL d   1       0.455  -0.525  -0.166  0.00  0.00    -0.001 A 
ENDROOT
TORSDOF 0
ENDMDL
