MODEL 1
REMARK minimizedAffinity -3.63735461
REMARK minimizedRMSD -1
REMARK  0 active torsions:
REMARK  status: ('A' for Active; 'I' for Inactive)
ROOT
ATOM      1  C   UNL d   1      -0.170  -2.943   4.182  0.00  0.00     0.077 C 
ATOM      2  C1  UNL d   1      -0.529  -2.627   2.761  0.00  0.00    -0.074 A 
ATOM      3  C2  UNL d   1      -1.572  -3.299   2.117  0.00  0.00    -0.005 A 
ATOM      4  C3  UNL d   1      -1.901  -2.987   0.797  0.00  0.00     0.006 A 
ATOM      5  C4  UNL d   1      -1.190  -2.002   0.110  0.00  0.00    -0.005 A 
ATOM      6  C5  UNL d   1      -0.144  -1.320   0.738  0.00  0.00    -0.074 A 
ATOM      7  C6  UNL d   1       0.624  -0.251   0.017  0.00  0.00     0.077 C 
ATOM      8  C7  UNL d   1       0.176  -1.633   2.066  0.00  0.00    -0.001 A 
ENDROOT
TORSDOF 0
ENDMDL
