MODEL 1
REMARK minimizedAffinity -3.60621738
REMARK minimizedRMSD -1
REMARK  0 active torsions:
REMARK  status: ('A' for Active; 'I' for Inactive)
ROOT
ATOM      1  C   UNL d   1       2.521   1.695  -3.774  0.00  0.00     0.077 C 
ATOM      2  C1  UNL d   1       1.659   1.781  -2.550  0.00  0.00    -0.074 A 
ATOM      3  C2  UNL d   1       0.789   2.860  -2.358  0.00  0.00    -0.005 A 
ATOM      4  C3  UNL d   1      -0.013   2.922  -1.219  0.00  0.00     0.006 A 
ATOM      5  C4  UNL d   1       0.046   1.908  -0.262  0.00  0.00    -0.005 A 
ATOM      6  C5  UNL d   1       0.908   0.821  -0.437  0.00  0.00    -0.074 A 
ATOM      7  C6  UNL d   1       0.976  -0.282   0.577  0.00  0.00     0.077 C 
ATOM      8  C7  UNL d   1       1.706   0.763  -1.588  0.00  0.00    -0.001 A 
ENDROOT
TORSDOF 0
ENDMDL
