MODEL 1
REMARK minimizedAffinity -2.10565543
REMARK minimizedRMSD -1
REMARK  0 active torsions:
REMARK  status: ('A' for Active; 'I' for Inactive)
ROOT
ATOM      1  C   UNL d   1      -1.104  -2.111   0.928  0.00  0.00     0.077 C 
ATOM      2  C1  UNL d   1      -0.226  -1.055   0.325  0.00  0.00    -0.074 A 
ATOM      3  C2  UNL d   1       1.167  -1.143   0.410  0.00  0.00    -0.005 A 
ATOM      4  C3  UNL d   1       1.970  -0.158  -0.165  0.00  0.00     0.006 A 
ATOM      5  C4  UNL d   1       1.390   0.923  -0.829  0.00  0.00    -0.005 A 
ATOM      6  C5  UNL d   1      -0.002   1.027  -0.925  0.00  0.00    -0.074 A 
ATOM      7  C6  UNL d   1      -0.642   2.178  -1.643  0.00  0.00     0.077 C 
ATOM      8  C7  UNL d   1      -0.802   0.030  -0.351  0.00  0.00    -0.001 A 
ENDROOT
TORSDOF 0
ENDMDL
