MODEL 1
REMARK minimizedAffinity -2.43271232
REMARK minimizedRMSD -1
REMARK  0 active torsions:
REMARK  status: ('A' for Active; 'I' for Inactive)
ROOT
ATOM      1  C   UNL d   1      -0.168  -2.509   3.083  0.00  0.00     0.077 C 
ATOM      2  C1  UNL d   1      -0.560  -1.976   1.737  0.00  0.00    -0.074 A 
ATOM      3  C2  UNL d   1      -1.679  -2.477   1.064  0.00  0.00    -0.005 A 
ATOM      4  C3  UNL d   1      -2.038  -1.964  -0.183  0.00  0.00     0.006 A 
ATOM      5  C4  UNL d   1      -1.282  -0.948  -0.768  0.00  0.00    -0.005 A 
ATOM      6  C5  UNL d   1      -0.160  -0.434  -0.110  0.00  0.00    -0.074 A 
ATOM      7  C6  UNL d   1       0.657   0.666  -0.720  0.00  0.00     0.077 C 
ATOM      8  C7  UNL d   1       0.189  -0.949   1.146  0.00  0.00    -0.001 A 
ENDROOT
TORSDOF 0
ENDMDL
