MODEL 1
REMARK minimizedAffinity -3.49759746
REMARK minimizedRMSD -1
REMARK  0 active torsions:
REMARK  status: ('A' for Active; 'I' for Inactive)
ROOT
ATOM      1  C   UNL d   1      -1.424  -2.525   0.365  0.00  0.00     0.077 C 
ATOM      2  C1  UNL d   1      -1.138  -1.053   0.364  0.00  0.00    -0.074 A 
ATOM      3  C2  UNL d   1      -1.932  -0.166   1.099  0.00  0.00    -0.005 A 
ATOM      4  C3  UNL d   1      -1.648   1.200   1.096  0.00  0.00     0.006 A 
ATOM      5  C4  UNL d   1      -0.569   1.692   0.361  0.00  0.00    -0.005 A 
ATOM      6  C5  UNL d   1       0.237   0.820  -0.379  0.00  0.00    -0.074 A 
ATOM      7  C6  UNL d   1       1.406   1.331  -1.166  0.00  0.00     0.077 C 
ATOM      8  C7  UNL d   1      -0.051  -0.552  -0.366  0.00  0.00    -0.001 A 
ENDROOT
TORSDOF 0
ENDMDL
