MODEL 1
REMARK minimizedAffinity -3.54706144
REMARK minimizedRMSD -1
REMARK  0 active torsions:
REMARK  status: ('A' for Active; 'I' for Inactive)
ROOT
ATOM      1  C   UNL d   1      -2.495   0.890   0.552  0.00  0.00     0.077 C 
ATOM      2  C1  UNL d   1      -1.601  -0.314   0.519  0.00  0.00    -0.074 A 
ATOM      3  C2  UNL d   1      -2.136  -1.606   0.527  0.00  0.00    -0.005 A 
ATOM      4  C3  UNL d   1      -1.292  -2.717   0.486  0.00  0.00     0.006 A 
ATOM      5  C4  UNL d   1       0.092  -2.546   0.436  0.00  0.00    -0.005 A 
ATOM      6  C5  UNL d   1       0.644  -1.262   0.427  0.00  0.00    -0.074 A 
ATOM      7  C6  UNL d   1       2.129  -1.061   0.364  0.00  0.00     0.077 C 
ATOM      8  C7  UNL d   1      -0.210  -0.151   0.461  0.00  0.00    -0.001 A 
ENDROOT
TORSDOF 0
ENDMDL
