MODEL 1
REMARK minimizedAffinity -4.57598209
REMARK minimizedRMSD -1
REMARK  0 active torsions:
REMARK  status: ('A' for Active; 'I' for Inactive)
ROOT
ATOM      1  C   UNL d   1       1.495   1.492  -0.787  0.00  0.00     0.077 C 
ATOM      2  C1  UNL d   1       0.344   0.771  -0.152  0.00  0.00    -0.074 A 
ATOM      3  C2  UNL d   1      -0.754   1.474   0.355  0.00  0.00    -0.005 A 
ATOM      4  C3  UNL d   1      -1.821   0.788   0.934  0.00  0.00     0.006 A 
ATOM      5  C4  UNL d   1      -1.802  -0.605   1.013  0.00  0.00    -0.005 A 
ATOM      6  C5  UNL d   1      -0.713  -1.325   0.511  0.00  0.00    -0.074 A 
ATOM      7  C6  UNL d   1      -0.681  -2.823   0.579  0.00  0.00     0.077 C 
ATOM      8  C7  UNL d   1       0.352  -0.629  -0.076  0.00  0.00    -0.001 A 
ENDROOT
TORSDOF 0
ENDMDL
