MODEL 1
REMARK minimizedAffinity -5.64220142
REMARK minimizedRMSD -1
REMARK  0 active torsions:
REMARK  status: ('A' for Active; 'I' for Inactive)
ROOT
ATOM      1  C   UNL d   1      -3.068  -0.479   1.717  0.00  0.00     0.077 C 
ATOM      2  C1  UNL d   1      -1.751  -0.780   1.067  0.00  0.00    -0.074 A 
ATOM      3  C2  UNL d   1      -1.281  -2.094   0.969  0.00  0.00    -0.005 A 
ATOM      4  C3  UNL d   1      -0.058  -2.360   0.354  0.00  0.00     0.006 A 
ATOM      5  C4  UNL d   1       0.707  -1.316  -0.169  0.00  0.00    -0.005 A 
ATOM      6  C5  UNL d   1       0.253   0.004  -0.082  0.00  0.00    -0.074 A 
ATOM      7  C6  UNL d   1       1.058   1.136  -0.647  0.00  0.00     0.077 C 
ATOM      8  C7  UNL d   1      -0.980   0.262   0.532  0.00  0.00    -0.001 A 
ENDROOT
TORSDOF 0
ENDMDL
