MODEL 1
REMARK minimizedAffinity -3.26302695
REMARK minimizedRMSD -1
REMARK  0 active torsions:
REMARK  status: ('A' for Active; 'I' for Inactive)
ROOT
ATOM      1  C   UNL d   1      -2.064  -1.877   0.665  0.00  0.00     0.077 C 
ATOM      2  C1  UNL d   1      -0.705  -1.299   0.402  0.00  0.00    -0.074 A 
ATOM      3  C2  UNL d   1       0.449  -1.928   0.882  0.00  0.00    -0.005 A 
ATOM      4  C3  UNL d   1       1.706  -1.383   0.623  0.00  0.00     0.006 A 
ATOM      5  C4  UNL d   1       1.823  -0.207  -0.118  0.00  0.00    -0.005 A 
ATOM      6  C5  UNL d   1       0.681   0.435  -0.607  0.00  0.00    -0.074 A 
ATOM      7  C6  UNL d   1       0.790   1.695  -1.414  0.00  0.00     0.077 C 
ATOM      8  C7  UNL d   1      -0.579  -0.122  -0.348  0.00  0.00    -0.001 A 
ENDROOT
TORSDOF 0
ENDMDL
