MODEL 1
REMARK minimizedAffinity -4.15113449
REMARK minimizedRMSD -1
REMARK  0 active torsions:
REMARK  status: ('A' for Active; 'I' for Inactive)
ROOT
ATOM      1  C   UNL d   1       1.555   1.868  -1.123  0.00  0.00     0.077 C 
ATOM      2  C1  UNL d   1       0.424   1.260  -0.348  0.00  0.00    -0.074 A 
ATOM      3  C2  UNL d   1      -0.511   2.066   0.309  0.00  0.00    -0.005 A 
ATOM      4  C3  UNL d   1      -1.563   1.486   1.019  0.00  0.00     0.006 A 
ATOM      5  C4  UNL d   1      -1.690   0.098   1.079  0.00  0.00    -0.005 A 
ATOM      6  C5  UNL d   1      -0.764  -0.723   0.427  0.00  0.00    -0.074 A 
ATOM      7  C6  UNL d   1      -0.891  -2.217   0.473  0.00  0.00     0.077 C 
ATOM      8  C7  UNL d   1       0.286  -0.134  -0.290  0.00  0.00    -0.001 A 
ENDROOT
TORSDOF 0
ENDMDL
