MODEL 1
REMARK minimizedAffinity -5.5560832
REMARK minimizedRMSD -1
REMARK  0 active torsions:
REMARK  status: ('A' for Active; 'I' for Inactive)
ROOT
ATOM      1  C   UNL d   1      -1.718   2.511   1.201  0.00  0.00     0.077 C 
ATOM      2  C1  UNL d   1      -1.007   1.217   0.933  0.00  0.00    -0.074 A 
ATOM      3  C2  UNL d   1       0.293   1.205   0.417  0.00  0.00    -0.005 A 
ATOM      4  C3  UNL d   1       0.945  -0.006   0.182  0.00  0.00     0.006 A 
ATOM      5  C4  UNL d   1       0.305  -1.214   0.460  0.00  0.00    -0.005 A 
ATOM      6  C5  UNL d   1      -0.995  -1.221   0.977  0.00  0.00    -0.074 A 
ATOM      7  C6  UNL d   1      -1.693  -2.511   1.290  0.00  0.00     0.077 C 
ATOM      8  C7  UNL d   1      -1.640  -0.001   1.217  0.00  0.00    -0.001 A 
ENDROOT
TORSDOF 0
ENDMDL
