MODEL 1
REMARK minimizedAffinity 1.81879282
REMARK minimizedRMSD -1
REMARK  3 active torsions:
REMARK  status: ('A' for Active; 'I' for Inactive)
REMARK    1  A    between atoms: C3'_2  and  C2'_3 
REMARK    2  A    between atoms: C2'_3  and  C1'_4 
REMARK    3  A    between atoms: C1'_4  and  C1_5 
ROOT
ATOM      1  C1  N4B d   1       4.814   4.072  -4.132  0.00  0.00    -0.075 A 
ATOM      2  C2  N4B d   1       3.520   4.636  -4.141  0.00  0.00     0.002 A 
ATOM      3  C3  N4B d   1       3.191   5.586  -5.077  0.00  0.00     0.002 A 
ATOM      4  C4  N4B d   1       4.143   5.998  -5.998  0.00  0.00    -0.004 A 
ATOM      5  C5  N4B d   1       5.383   5.430  -5.999  0.00  0.00     0.002 A 
ATOM      6  C6  N4B d   1       5.725   4.472  -5.066  0.00  0.00     0.002 A 
ENDROOT
BRANCH   1   7
ATOM      7  C1' N4B d   1       5.246   3.093  -3.074  0.00  0.00     0.057 C 
BRANCH   7   8
ATOM      8  C2' N4B d   1       4.061   2.212  -2.693  0.00  0.00     0.009 C 
BRANCH   8   9
ATOM      9  C3' N4B d   1       4.326   1.420  -1.424  0.00  0.00     0.004 C 
ATOM     10  C4' N4B d   1       3.092   1.221  -0.595  0.00  0.00     0.003 C 
ENDBRANCH   8   9
ENDBRANCH   7   8
ENDBRANCH   1   7
TORSDOF 3
ENDMDL
