MODEL 1
REMARK minimizedAffinity 4.72633648
REMARK minimizedRMSD -1
REMARK  3 active torsions:
REMARK  status: ('A' for Active; 'I' for Inactive)
REMARK    1  A    between atoms: C3'_2  and  C2'_3 
REMARK    2  A    between atoms: C2'_3  and  C1'_4 
REMARK    3  A    between atoms: C1'_4  and  C1_5 
ROOT
ATOM      1  C1  N4B d   1      -3.390   1.623   3.745  0.00  0.00    -0.075 A 
ATOM      2  C2  N4B d   1      -3.003   2.929   3.373  0.00  0.00     0.002 A 
ATOM      3  C3  N4B d   1      -1.865   3.123   2.629  0.00  0.00     0.002 A 
ATOM      4  C4  N4B d   1      -1.091   2.032   2.262  0.00  0.00    -0.004 A 
ATOM      5  C5  N4B d   1      -1.486   0.771   2.603  0.00  0.00     0.002 A 
ATOM      6  C6  N4B d   1      -2.629   0.561   3.348  0.00  0.00     0.002 A 
ENDROOT
BRANCH   1   7
ATOM      7  C1' N4B d   1      -4.579   1.369   4.631  0.00  0.00     0.057 C 
BRANCH   7   8
ATOM      8  C2' N4B d   1      -4.589   2.393   5.761  0.00  0.00     0.009 C 
BRANCH   8   9
ATOM      9  C3' N4B d   1      -5.977   2.962   6.000  0.00  0.00     0.004 C 
ATOM     10  C4' N4B d   1      -5.998   4.462   6.000  0.00  0.00     0.003 C 
ENDBRANCH   8   9
ENDBRANCH   7   8
ENDBRANCH   1   7
TORSDOF 3
ENDMDL
