MODEL 1
REMARK minimizedAffinity 1.34763515
REMARK minimizedRMSD -1
REMARK  3 active torsions:
REMARK  status: ('A' for Active; 'I' for Inactive)
REMARK    1  A    between atoms: C3'_2  and  C2'_3 
REMARK    2  A    between atoms: C2'_3  and  C1'_4 
REMARK    3  A    between atoms: C1'_4  and  C1_5 
ROOT
ATOM      1  C1  N4B d   1      -2.885   1.822   3.098  0.00  0.00    -0.075 A 
ATOM      2  C2  N4B d   1      -3.010   2.343   1.791  0.00  0.00     0.002 A 
ATOM      3  C3  N4B d   1      -1.889   2.725   1.095  0.00  0.00     0.002 A 
ATOM      4  C4  N4B d   1      -0.641   2.614   1.689  0.00  0.00    -0.004 A 
ATOM      5  C5  N4B d   1      -0.527   2.086   2.942  0.00  0.00     0.002 A 
ATOM      6  C6  N4B d   1      -1.644   1.694   3.652  0.00  0.00     0.002 A 
ENDROOT
BRANCH   1   7
ATOM      7  C1' N4B d   1      -4.087   1.471   3.931  0.00  0.00     0.057 C 
BRANCH   7   8
ATOM      8  C2' N4B d   1      -3.989   2.183   5.277  0.00  0.00     0.009 C 
BRANCH   8   9
ATOM      9  C3' N4B d   1      -5.333   2.254   5.981  0.00  0.00     0.004 C 
ATOM     10  C4' N4B d   1      -5.998   3.589   5.830  0.00  0.00     0.003 C 
ENDBRANCH   8   9
ENDBRANCH   7   8
ENDBRANCH   1   7
TORSDOF 3
ENDMDL
