MODEL 1
REMARK minimizedAffinity 3.3704021
REMARK minimizedRMSD -1
REMARK  3 active torsions:
REMARK  status: ('A' for Active; 'I' for Inactive)
REMARK    1  A    between atoms: C3'_2  and  C2'_3 
REMARK    2  A    between atoms: C2'_3  and  C1'_4 
REMARK    3  A    between atoms: C1'_4  and  C1_5 
ROOT
ATOM      1  C1  N4B d   1      -2.164  -0.170   2.580  0.00  0.00    -0.075 A 
ATOM      2  C2  N4B d   1      -1.414   0.997   2.312  0.00  0.00     0.002 A 
ATOM      3  C3  N4B d   1      -1.848   2.214   2.776  0.00  0.00     0.002 A 
ATOM      4  C4  N4B d   1      -3.034   2.292   3.490  0.00  0.00    -0.004 A 
ATOM      5  C5  N4B d   1      -3.740   1.157   3.767  0.00  0.00     0.002 A 
ATOM      6  C6  N4B d   1      -3.313  -0.073   3.310  0.00  0.00     0.002 A 
ENDROOT
BRANCH   1   7
ATOM      7  C1' N4B d   1      -1.774  -1.511   2.021  0.00  0.00     0.057 C 
BRANCH   7   8
ATOM      8  C2' N4B d   1      -2.568  -1.771   0.745  0.00  0.00     0.009 C 
BRANCH   8   9
ATOM      9  C3' N4B d   1      -1.996  -2.929  -0.055  0.00  0.00     0.004 C 
ATOM     10  C4' N4B d   1      -3.048  -3.701  -0.794  0.00  0.00     0.003 C 
ENDBRANCH   8   9
ENDBRANCH   7   8
ENDBRANCH   1   7
TORSDOF 3
ENDMDL
