MODEL 1
REMARK minimizedAffinity 13.095541
REMARK minimizedRMSD -1
REMARK  3 active torsions:
REMARK  status: ('A' for Active; 'I' for Inactive)
REMARK    1  A    between atoms: C3'_2  and  C2'_3 
REMARK    2  A    between atoms: C2'_3  and  C1'_4 
REMARK    3  A    between atoms: C1'_4  and  C1_5 
ROOT
ATOM      1  C1  N4B d   1      -2.155  -1.903   0.960  0.00  0.00    -0.075 A 
ATOM      2  C2  N4B d   1      -1.373  -2.806   0.207  0.00  0.00     0.002 A 
ATOM      3  C3  N4B d   1      -1.852  -3.303  -0.981  0.00  0.00     0.002 A 
ATOM      4  C4  N4B d   1      -3.111  -2.928  -1.424  0.00  0.00    -0.004 A 
ATOM      5  C5  N4B d   1      -3.849  -2.035  -0.703  0.00  0.00     0.002 A 
ATOM      6  C6  N4B d   1      -3.380  -1.524   0.490  0.00  0.00     0.002 A 
ENDROOT
BRANCH   1   7
ATOM      7  C1' N4B d   1      -1.711  -1.399   2.306  0.00  0.00     0.057 C 
BRANCH   7   8
ATOM      8  C2' N4B d   1      -0.308  -1.923   2.599  0.00  0.00     0.009 C 
BRANCH   8   9
ATOM      9  C3' N4B d   1       0.630  -0.815   3.046  0.00  0.00     0.004 C 
ATOM     10  C4' N4B d   1       2.050  -1.051   2.624  0.00  0.00     0.003 C 
ENDBRANCH   8   9
ENDBRANCH   7   8
ENDBRANCH   1   7
TORSDOF 3
ENDMDL
