MODEL 1
REMARK minimizedAffinity -4.92244053
REMARK minimizedRMSD -1
REMARK  3 active torsions:
REMARK  status: ('A' for Active; 'I' for Inactive)
REMARK    1  A    between atoms: C3'_2  and  C2'_3 
REMARK    2  A    between atoms: C2'_3  and  C1'_4 
REMARK    3  A    between atoms: C1'_4  and  C1_5 
ROOT
ATOM      1  C1  N4B d   1      -0.674   1.079   1.770  0.00  0.00    -0.075 A 
ATOM      2  C2  N4B d   1      -1.559   1.898   2.506  0.00  0.00     0.002 A 
ATOM      3  C3  N4B d   1      -2.728   1.375   3.000  0.00  0.00     0.002 A 
ATOM      4  C4  N4B d   1      -3.043   0.047   2.755  0.00  0.00    -0.004 A 
ATOM      5  C5  N4B d   1      -2.172  -0.744   2.064  0.00  0.00     0.002 A 
ATOM      6  C6  N4B d   1      -0.990  -0.233   1.566  0.00  0.00     0.002 A 
ENDROOT
BRANCH   1   7
ATOM      7  C1' N4B d   1       0.575   1.628   1.137  0.00  0.00     0.057 C 
BRANCH   7   8
ATOM      8  C2' N4B d   1       1.580   0.495   0.948  0.00  0.00     0.009 C 
BRANCH   8   9
ATOM      9  C3' N4B d   1       2.242   0.545  -0.418  0.00  0.00     0.004 C 
ATOM     10  C4' N4B d   1       2.981  -0.717  -0.751  0.00  0.00     0.003 C 
ENDBRANCH   8   9
ENDBRANCH   7   8
ENDBRANCH   1   7
TORSDOF 3
ENDMDL
