MODEL 1
REMARK minimizedAffinity 3.27816844
REMARK minimizedRMSD -1
REMARK  3 active torsions:
REMARK  status: ('A' for Active; 'I' for Inactive)
REMARK    1  A    between atoms: C3'_2  and  C2'_3 
REMARK    2  A    between atoms: C2'_3  and  C1'_4 
REMARK    3  A    between atoms: C1'_4  and  C1_5 
ROOT
ATOM      1  C1  N4B d   1      -2.257  -1.793   2.033  0.00  0.00    -0.075 A 
ATOM      2  C2  N4B d   1      -3.476  -1.926   2.734  0.00  0.00     0.002 A 
ATOM      3  C3  N4B d   1      -3.470  -2.298   4.056  0.00  0.00     0.002 A 
ATOM      4  C4  N4B d   1      -2.265  -2.558   4.690  0.00  0.00    -0.004 A 
ATOM      5  C5  N4B d   1      -1.091  -2.402   4.013  0.00  0.00     0.002 A 
ATOM      6  C6  N4B d   1      -1.081  -2.026   2.685  0.00  0.00     0.002 A 
ENDROOT
BRANCH   1   7
ATOM      7  C1' N4B d   1      -2.218  -1.473   0.564  0.00  0.00     0.057 C 
BRANCH   7   8
ATOM      8  C2' N4B d   1      -2.617  -2.714  -0.230  0.00  0.00     0.009 C 
BRANCH   8   9
ATOM      9  C3' N4B d   1      -3.391  -2.358  -1.488  0.00  0.00     0.004 C 
ATOM     10  C4' N4B d   1      -2.753  -1.247  -2.268  0.00  0.00     0.003 C 
ENDBRANCH   8   9
ENDBRANCH   7   8
ENDBRANCH   1   7
TORSDOF 3
ENDMDL
