MODEL 1
REMARK minimizedAffinity 0.517175913
REMARK minimizedRMSD -1
REMARK  3 active torsions:
REMARK  status: ('A' for Active; 'I' for Inactive)
REMARK    1  A    between atoms: C3'_2  and  C2'_3 
REMARK    2  A    between atoms: C2'_3  and  C1'_4 
REMARK    3  A    between atoms: C1'_4  and  C1_5 
ROOT
ATOM      1  C1  N4B d   1      -3.109   2.326   3.045  0.00  0.00    -0.075 A 
ATOM      2  C2  N4B d   1      -3.303   3.332   2.073  0.00  0.00     0.002 A 
ATOM      3  C3  N4B d   1      -2.249   3.753   1.301  0.00  0.00     0.002 A 
ATOM      4  C4  N4B d   1      -0.992   3.200   1.495  0.00  0.00    -0.004 A 
ATOM      5  C5  N4B d   1      -0.818   2.211   2.418  0.00  0.00     0.002 A 
ATOM      6  C6  N4B d   1      -1.870   1.775   3.199  0.00  0.00     0.002 A 
ENDROOT
BRANCH   1   7
ATOM      7  C1' N4B d   1      -4.212   1.894   3.972  0.00  0.00     0.057 C 
BRANCH   7   8
ATOM      8  C2' N4B d   1      -4.098   2.668   5.282  0.00  0.00     0.009 C 
BRANCH   8   9
ATOM      9  C3' N4B d   1      -5.435   2.781   5.994  0.00  0.00     0.004 C 
ATOM     10  C4' N4B d   1      -5.999   4.170   5.956  0.00  0.00     0.003 C 
ENDBRANCH   8   9
ENDBRANCH   7   8
ENDBRANCH   1   7
TORSDOF 3
ENDMDL
