MODEL 1
REMARK minimizedAffinity 0.925968826
REMARK minimizedRMSD -1
REMARK  3 active torsions:
REMARK  status: ('A' for Active; 'I' for Inactive)
REMARK    1  A    between atoms: C3'_2  and  C2'_3 
REMARK    2  A    between atoms: C2'_3  and  C1'_4 
REMARK    3  A    between atoms: C1'_4  and  C1_5 
ROOT
ATOM      1  C1  N4B d   1      -2.773   1.224   3.332  0.00  0.00    -0.075 A 
ATOM      2  C2  N4B d   1      -1.845   2.266   3.112  0.00  0.00     0.002 A 
ATOM      3  C3  N4B d   1      -0.580   1.974   2.664  0.00  0.00     0.002 A 
ATOM      4  C4  N4B d   1      -0.216   0.653   2.448  0.00  0.00    -0.004 A 
ATOM      5  C5  N4B d   1      -1.127  -0.344   2.639  0.00  0.00     0.002 A 
ATOM      6  C6  N4B d   1      -2.403  -0.066   3.085  0.00  0.00     0.002 A 
ENDROOT
BRANCH   1   7
ATOM      7  C1' N4B d   1      -4.140   1.487   3.903  0.00  0.00     0.057 C 
BRANCH   7   8
ATOM      8  C2' N4B d   1      -4.003   1.874   5.373  0.00  0.00     0.009 C 
BRANCH   8   9
ATOM      9  C3' N4B d   1      -5.343   2.225   5.996  0.00  0.00     0.004 C 
ATOM     10  C4' N4B d   1      -5.615   3.699   5.998  0.00  0.00     0.003 C 
ENDBRANCH   8   9
ENDBRANCH   7   8
ENDBRANCH   1   7
TORSDOF 3
ENDMDL
