MODEL 1
REMARK minimizedAffinity 6.47981119
REMARK minimizedRMSD -1
REMARK  3 active torsions:
REMARK  status: ('A' for Active; 'I' for Inactive)
REMARK    1  A    between atoms: C3'_2  and  C2'_3 
REMARK    2  A    between atoms: C2'_3  and  C1'_4 
REMARK    3  A    between atoms: C1'_4  and  C1_5 
ROOT
ATOM      1  C1  N4B d   1      -2.032   2.342   3.026  0.00  0.00    -0.075 A 
ATOM      2  C2  N4B d   1      -2.390   3.479   2.269  0.00  0.00     0.002 A 
ATOM      3  C3  N4B d   1      -1.428   4.178   1.583  0.00  0.00     0.002 A 
ATOM      4  C4  N4B d   1      -0.104   3.772   1.654  0.00  0.00    -0.004 A 
ATOM      5  C5  N4B d   1       0.230   2.658   2.366  0.00  0.00     0.002 A 
ATOM      6  C6  N4B d   1      -0.727   1.943   3.057  0.00  0.00     0.002 A 
ENDROOT
BRANCH   1   7
ATOM      7  C1' N4B d   1      -3.036   1.596   3.862  0.00  0.00     0.057 C 
BRANCH   7   8
ATOM      8  C2' N4B d   1      -4.005   2.593   4.489  0.00  0.00     0.009 C 
BRANCH   8   9
ATOM      9  C3' N4B d   1      -4.956   1.923   5.467  0.00  0.00     0.004 C 
ATOM     10  C4' N4B d   1      -5.997   2.862   5.999  0.00  0.00     0.003 C 
ENDBRANCH   8   9
ENDBRANCH   7   8
ENDBRANCH   1   7
TORSDOF 3
ENDMDL
