MODEL 1
REMARK minimizedAffinity 2.0509088
REMARK minimizedRMSD -1
REMARK  3 active torsions:
REMARK  status: ('A' for Active; 'I' for Inactive)
REMARK    1  A    between atoms: C3'_2  and  C2'_3 
REMARK    2  A    between atoms: C2'_3  and  C1'_4 
REMARK    3  A    between atoms: C1'_4  and  C1_5 
ROOT
ATOM      1  C1  N4B d   1       3.276   0.052  -1.260  0.00  0.00    -0.075 A 
ATOM      2  C2  N4B d   1       2.537   0.674  -0.230  0.00  0.00     0.002 A 
ATOM      3  C3  N4B d   1       2.952   0.566   1.074  0.00  0.00     0.002 A 
ATOM      4  C4  N4B d   1       4.087  -0.172   1.374  0.00  0.00    -0.004 A 
ATOM      5  C5  N4B d   1       4.810  -0.749   0.371  0.00  0.00     0.002 A 
ATOM      6  C6  N4B d   1       4.407  -0.645  -0.945  0.00  0.00     0.002 A 
ENDROOT
BRANCH   1   7
ATOM      7  C1' N4B d   1       2.814   0.071  -2.692  0.00  0.00     0.057 C 
BRANCH   7   8
ATOM      8  C2' N4B d   1       2.115  -1.247  -3.010  0.00  0.00     0.009 C 
BRANCH   8   9
ATOM      9  C3' N4B d   1       1.765  -2.023  -1.751  0.00  0.00     0.004 C 
ATOM     10  C4' N4B d   1       1.528  -3.480  -2.015  0.00  0.00     0.003 C 
ENDBRANCH   8   9
ENDBRANCH   7   8
ENDBRANCH   1   7
TORSDOF 3
ENDMDL
