MODEL 1
REMARK minimizedAffinity 0.987373114
REMARK minimizedRMSD -1
REMARK  0 active torsions:
REMARK  status: ('A' for Active; 'I' for Inactive)
ROOT
ATOM      1  C   UNL d   1       1.485  -3.393   0.403  0.00  0.00     0.020 A 
ATOM      2  C1  UNL d   1       1.776  -2.395  -0.526  0.00  0.00     0.020 A 
ATOM      3  C2  UNL d   1       1.252  -1.112  -0.358  0.00  0.00     0.034 A 
ATOM      4  C3  UNL d   1       0.435  -0.823   0.741  0.00  0.00     0.017 A 
ATOM      5  C4  UNL d   1       0.144  -1.825   1.673  0.00  0.00     0.017 A 
ATOM      6  C5  UNL d   1       0.671  -3.109   1.500  0.00  0.00     0.034 A 
ATOM      7 Cl   UNL d   1      -0.856  -1.545   3.055  0.00  0.00    -0.070 Cl
ATOM      8 Cl1  UNL d   1      -0.178   0.786   0.886  0.00  0.00    -0.070 Cl
ENDROOT
TORSDOF 0
ENDMDL
