MODEL 1
REMARK minimizedAffinity -3.26002574
REMARK minimizedRMSD -1
REMARK  0 active torsions:
REMARK  status: ('A' for Active; 'I' for Inactive)
ROOT
ATOM      1  C   UNL d   1       1.822  -3.177   0.449  0.00  0.00     0.020 A 
ATOM      2  C1  UNL d   1       0.456  -3.457   0.432  0.00  0.00     0.020 A 
ATOM      3  C2  UNL d   1      -0.470  -2.428   0.617  0.00  0.00     0.034 A 
ATOM      4  C3  UNL d   1      -0.031  -1.114   0.818  0.00  0.00     0.017 A 
ATOM      5  C4  UNL d   1       1.340  -0.834   0.835  0.00  0.00     0.017 A 
ATOM      6  C5  UNL d   1       2.263  -1.868   0.650  0.00  0.00     0.034 A 
ATOM      7 Cl   UNL d   1       1.957   0.762   1.078  0.00  0.00    -0.070 Cl
ATOM      8 Cl1  UNL d   1      -1.232   0.109   1.039  0.00  0.00    -0.070 Cl
ENDROOT
TORSDOF 0
ENDMDL
