MODEL 1
REMARK minimizedAffinity 0.98068738
REMARK minimizedRMSD -1
REMARK  0 active torsions:
REMARK  status: ('A' for Active; 'I' for Inactive)
ROOT
ATOM      1  C   UNL d   1       0.008  -1.458   0.772  0.00  0.00     0.020 A 
ATOM      2  C1  UNL d   1      -0.285  -2.812   0.611  0.00  0.00     0.020 A 
ATOM      3  C2  UNL d   1       0.742  -3.722   0.350  0.00  0.00     0.034 A 
ATOM      4  C3  UNL d   1       2.066  -3.280   0.249  0.00  0.00     0.017 A 
ATOM      5  C4  UNL d   1       2.358  -1.921   0.410  0.00  0.00     0.017 A 
ATOM      6  C5  UNL d   1       1.326  -1.014   0.671  0.00  0.00     0.034 A 
ATOM      7 Cl   UNL d   1       3.967  -1.299   0.300  0.00  0.00    -0.070 Cl
ATOM      8 Cl1  UNL d   1       3.285  -4.460  -0.075  0.00  0.00    -0.070 Cl
ENDROOT
TORSDOF 0
ENDMDL
