MODEL 1
REMARK minimizedAffinity -1.12031782
REMARK minimizedRMSD -1
REMARK  0 active torsions:
REMARK  status: ('A' for Active; 'I' for Inactive)
ROOT
ATOM      1  C   UNL d   1       0.759  -1.610   0.595  0.00  0.00     0.020 A 
ATOM      2  C1  UNL d   1       0.390  -2.946   0.448  0.00  0.00     0.020 A 
ATOM      3  C2  UNL d   1       1.364  -3.918   0.212  0.00  0.00     0.034 A 
ATOM      4  C3  UNL d   1       2.713  -3.555   0.121  0.00  0.00     0.017 A 
ATOM      5  C4  UNL d   1       3.083  -2.214   0.268  0.00  0.00     0.017 A 
ATOM      6  C5  UNL d   1       2.103  -1.245   0.505  0.00  0.00     0.034 A 
ATOM      7 Cl   UNL d   1       4.727  -1.689   0.169  0.00  0.00    -0.070 Cl
ATOM      8 Cl1  UNL d   1       3.864  -4.810  -0.173  0.00  0.00    -0.070 Cl
ENDROOT
TORSDOF 0
ENDMDL
