MODEL 1
REMARK minimizedAffinity -2.55192256
REMARK minimizedRMSD -1
REMARK  0 active torsions:
REMARK  status: ('A' for Active; 'I' for Inactive)
ROOT
ATOM      1  C   UNL d   1      -0.191  -1.566   0.688  0.00  0.00     0.020 A 
ATOM      2  C1  UNL d   1       0.626  -0.445   0.825  0.00  0.00     0.020 A 
ATOM      3  C2  UNL d   1       2.012  -0.572   0.708  0.00  0.00     0.034 A 
ATOM      4  C3  UNL d   1       2.585  -1.824   0.455  0.00  0.00     0.017 A 
ATOM      5  C4  UNL d   1       1.764  -2.949   0.318  0.00  0.00     0.017 A 
ATOM      6  C5  UNL d   1       0.377  -2.816   0.436  0.00  0.00     0.034 A 
ATOM      7 Cl   UNL d   1       2.398  -4.526   0.005  0.00  0.00    -0.070 Cl
ATOM      8 Cl1  UNL d   1       4.306  -1.908   0.323  0.00  0.00    -0.070 Cl
ENDROOT
TORSDOF 0
ENDMDL
