MODEL 1
REMARK minimizedAffinity -2.16602778
REMARK minimizedRMSD -1
REMARK  0 active torsions:
REMARK  status: ('A' for Active; 'I' for Inactive)
ROOT
ATOM      1  C   UNL d   1       3.039  -3.311   0.126  0.00  0.00     0.020 A 
ATOM      2  C1  UNL d   1       1.848  -4.000  -0.102  0.00  0.00     0.020 A 
ATOM      3  C2  UNL d   1       0.623  -3.356   0.084  0.00  0.00     0.034 A 
ATOM      4  C3  UNL d   1       0.586  -2.019   0.498  0.00  0.00     0.017 A 
ATOM      5  C4  UNL d   1       1.782  -1.329   0.727  0.00  0.00     0.017 A 
ATOM      6  C5  UNL d   1       3.006  -1.979   0.539  0.00  0.00     0.034 A 
ATOM      7 Cl   UNL d   1       1.817   0.321   1.239  0.00  0.00    -0.070 Cl
ATOM      8 Cl1  UNL d   1      -0.964  -1.286   0.708  0.00  0.00    -0.070 Cl
ENDROOT
TORSDOF 0
ENDMDL
