MODEL 1
REMARK minimizedAffinity 2.73282599
REMARK minimizedRMSD -1
REMARK  0 active torsions:
REMARK  status: ('A' for Active; 'I' for Inactive)
ROOT
ATOM      1  C   UNL d   1       0.917  -1.593   0.328  0.00  0.00     0.020 A 
ATOM      2  C1  UNL d   1       0.440  -2.887   0.129  0.00  0.00     0.020 A 
ATOM      3  C2  UNL d   1       1.335  -3.955   0.034  0.00  0.00     0.034 A 
ATOM      4  C3  UNL d   1       2.712  -3.730   0.138  0.00  0.00     0.017 A 
ATOM      5  C4  UNL d   1       3.191  -2.430   0.338  0.00  0.00     0.017 A 
ATOM      6  C5  UNL d   1       2.290  -1.365   0.433  0.00  0.00     0.034 A 
ATOM      7 Cl   UNL d   1       4.876  -2.074   0.476  0.00  0.00    -0.070 Cl
ATOM      8 Cl1  UNL d   1       3.761  -5.097   0.011  0.00  0.00    -0.070 Cl
ENDROOT
TORSDOF 0
ENDMDL
