MODEL 1
REMARK minimizedAffinity 1.6841042
REMARK minimizedRMSD -1
REMARK  0 active torsions:
REMARK  status: ('A' for Active; 'I' for Inactive)
ROOT
ATOM      1  C   UNL d   1       2.412  -3.916   0.049  0.00  0.00     0.020 A 
ATOM      2  C1  UNL d   1       1.084  -4.262  -0.193  0.00  0.00     0.020 A 
ATOM      3  C2  UNL d   1       0.072  -3.317  -0.010  0.00  0.00     0.034 A 
ATOM      4  C3  UNL d   1       0.387  -2.022   0.418  0.00  0.00     0.017 A 
ATOM      5  C4  UNL d   1       1.721  -1.676   0.661  0.00  0.00     0.017 A 
ATOM      6  C5  UNL d   1       2.730  -2.626   0.476  0.00  0.00     0.034 A 
ATOM      7 Cl   UNL d   1       2.187  -0.098   1.191  0.00  0.00    -0.070 Cl
ATOM      8 Cl1  UNL d   1      -0.915  -0.905   0.624  0.00  0.00    -0.070 Cl
ENDROOT
TORSDOF 0
ENDMDL
