MODEL 1
REMARK minimizedAffinity -0.650126994
REMARK minimizedRMSD -1
REMARK  0 active torsions:
REMARK  status: ('A' for Active; 'I' for Inactive)
ROOT
ATOM      1  C   UNL d   1       0.897  -1.799   0.592  0.00  0.00     0.020 A 
ATOM      2  C1  UNL d   1       0.445  -3.088   0.315  0.00  0.00     0.020 A 
ATOM      3  C2  UNL d   1       1.363  -4.123   0.121  0.00  0.00     0.034 A 
ATOM      4  C3  UNL d   1       2.737  -3.870   0.204  0.00  0.00     0.017 A 
ATOM      5  C4  UNL d   1       3.189  -2.575   0.482  0.00  0.00     0.017 A 
ATOM      6  C5  UNL d   1       2.266  -1.543   0.675  0.00  0.00     0.034 A 
ATOM      7 Cl   UNL d   1       4.869  -2.185   0.600  0.00  0.00    -0.070 Cl
ATOM      8 Cl1  UNL d   1       3.815  -5.197  -0.046  0.00  0.00    -0.070 Cl
ENDROOT
TORSDOF 0
ENDMDL
