MODEL 1
REMARK minimizedAffinity 0.507419646
REMARK minimizedRMSD -1
REMARK  0 active torsions:
REMARK  status: ('A' for Active; 'I' for Inactive)
ROOT
ATOM      1  C   UNL d   1      -0.532  -1.523   1.090  0.00  0.00     0.020 A 
ATOM      2  C1  UNL d   1       0.220  -0.351   1.166  0.00  0.00     0.020 A 
ATOM      3  C2  UNL d   1       1.572  -0.365   0.817  0.00  0.00     0.034 A 
ATOM      4  C3  UNL d   1       2.176  -1.554   0.391  0.00  0.00     0.017 A 
ATOM      5  C4  UNL d   1       1.420  -2.729   0.315  0.00  0.00     0.017 A 
ATOM      6  C5  UNL d   1       0.067  -2.709   0.666  0.00  0.00     0.034 A 
ATOM      7 Cl   UNL d   1       2.096  -4.234  -0.202  0.00  0.00    -0.070 Cl
ATOM      8 Cl1  UNL d   1       3.852  -1.498  -0.026  0.00  0.00    -0.070 Cl
ENDROOT
TORSDOF 0
ENDMDL
