MODEL 1
REMARK minimizedAffinity -3.76621509
REMARK minimizedRMSD -1
REMARK  0 active torsions:
REMARK  status: ('A' for Active; 'I' for Inactive)
ROOT
ATOM      1  C   UNL d   1      -0.484  -1.988   0.428  0.00  0.00     0.020 A 
ATOM      2  C1  UNL d   1       0.058  -0.726   0.665  0.00  0.00     0.020 A 
ATOM      3  C2  UNL d   1       1.443  -0.547   0.649  0.00  0.00     0.034 A 
ATOM      4  C3  UNL d   1       2.290  -1.632   0.395  0.00  0.00     0.017 A 
ATOM      5  C4  UNL d   1       1.745  -2.899   0.158  0.00  0.00     0.017 A 
ATOM      6  C5  UNL d   1       0.357  -3.072   0.175  0.00  0.00     0.034 A 
ATOM      7 Cl   UNL d   1       2.726  -4.286  -0.162  0.00  0.00    -0.070 Cl
ATOM      8 Cl1  UNL d   1       3.993  -1.338   0.390  0.00  0.00    -0.070 Cl
ENDROOT
TORSDOF 0
ENDMDL
