MODEL 1
REMARK minimizedAffinity -0.887608171
REMARK minimizedRMSD -1
REMARK  0 active torsions:
REMARK  status: ('A' for Active; 'I' for Inactive)
ROOT
ATOM      1  C   UNL d   1       0.050   5.935  -5.409  0.00  0.00     0.020 A 
ATOM      2  C1  UNL d   1      -0.095   5.933  -4.022  0.00  0.00     0.020 A 
ATOM      3  C2  UNL d   1       0.847   5.282  -3.222  0.00  0.00     0.034 A 
ATOM      4  C3  UNL d   1       1.937   4.629  -3.809  0.00  0.00     0.017 A 
ATOM      5  C4  UNL d   1       2.082   4.631  -5.201  0.00  0.00     0.017 A 
ATOM      6  C5  UNL d   1       1.136   5.286  -5.997  0.00  0.00     0.034 A 
ATOM      7 Cl   UNL d   1       3.401   3.848  -5.997  0.00  0.00    -0.070 Cl
ATOM      8 Cl1  UNL d   1       3.063   3.844  -2.759  0.00  0.00    -0.070 Cl
ENDROOT
TORSDOF 0
ENDMDL
