MODEL 1
REMARK minimizedAffinity 3.63911819
REMARK minimizedRMSD -1
REMARK  0 active torsions:
REMARK  status: ('A' for Active; 'I' for Inactive)
ROOT
ATOM      1  C   UNL d   1      -0.745   0.327   1.186  0.00  0.00     0.020 A 
ATOM      2  C1  UNL d   1      -1.378  -0.813   0.694  0.00  0.00     0.020 A 
ATOM      3  C2  UNL d   1      -0.631  -1.956   0.401  0.00  0.00     0.034 A 
ATOM      4  C3  UNL d   1       0.754  -1.961   0.601  0.00  0.00     0.017 A 
ATOM      5  C4  UNL d   1       1.389  -0.816   1.096  0.00  0.00     0.017 A 
ATOM      6  C5  UNL d   1       0.636   0.325   1.387  0.00  0.00     0.034 A 
ATOM      7 Cl   UNL d   1       3.095  -0.747   1.369  0.00  0.00    -0.070 Cl
ATOM      8 Cl1  UNL d   1       1.616  -3.409   0.219  0.00  0.00    -0.070 Cl
ENDROOT
TORSDOF 0
ENDMDL
