MODEL 1
REMARK minimizedAffinity -0.215866908
REMARK minimizedRMSD -1
REMARK  0 active torsions:
REMARK  status: ('A' for Active; 'I' for Inactive)
ROOT
ATOM      1  C   UNL d   1       0.921  -1.919   0.280  0.00  0.00     0.020 A 
ATOM      2  C1  UNL d   1       0.594  -3.251   0.033  0.00  0.00     0.020 A 
ATOM      3  C2  UNL d   1       1.605  -4.194  -0.160  0.00  0.00     0.034 A 
ATOM      4  C3  UNL d   1       2.949  -3.806  -0.107  0.00  0.00     0.017 A 
ATOM      5  C4  UNL d   1       3.277  -2.468   0.141  0.00  0.00     0.017 A 
ATOM      6  C5  UNL d   1       2.260  -1.528   0.334  0.00  0.00     0.034 A 
ATOM      7 Cl   UNL d   1       4.912  -1.914   0.222  0.00  0.00    -0.070 Cl
ATOM      8 Cl1  UNL d   1       4.148  -5.026  -0.354  0.00  0.00    -0.070 Cl
ENDROOT
TORSDOF 0
ENDMDL
