MODEL 1
REMARK minimizedAffinity 0.508363664
REMARK minimizedRMSD -1
REMARK  0 active torsions:
REMARK  status: ('A' for Active; 'I' for Inactive)
ROOT
ATOM      1  C   UNL d   1       1.132  -0.597   1.142  0.00  0.00     0.020 A 
ATOM      2  C1  UNL d   1      -0.215  -0.952   1.092  0.00  0.00     0.020 A 
ATOM      3  C2  UNL d   1      -0.589  -2.205   0.599  0.00  0.00     0.034 A 
ATOM      4  C3  UNL d   1       0.386  -3.105   0.155  0.00  0.00     0.017 A 
ATOM      5  C4  UNL d   1       1.738  -2.747   0.206  0.00  0.00     0.017 A 
ATOM      6  C5  UNL d   1       2.106  -1.492   0.700  0.00  0.00     0.034 A 
ATOM      7 Cl   UNL d   1       2.998  -3.805  -0.324  0.00  0.00    -0.070 Cl
ATOM      8 Cl1  UNL d   1      -0.147  -4.637  -0.442  0.00  0.00    -0.070 Cl
ENDROOT
TORSDOF 0
ENDMDL
