MODEL 1
REMARK minimizedAffinity 4.80218792
REMARK minimizedRMSD -1
REMARK  0 active torsions:
REMARK  status: ('A' for Active; 'I' for Inactive)
ROOT
ATOM      1  C   UNL d   1       1.099  -0.828   1.470  0.00  0.00     0.020 A 
ATOM      2  C1  UNL d   1      -0.220  -0.915   1.027  0.00  0.00     0.020 A 
ATOM      3  C2  UNL d   1      -0.644  -2.036   0.311  0.00  0.00     0.034 A 
ATOM      4  C3  UNL d   1       0.252  -3.075   0.035  0.00  0.00     0.017 A 
ATOM      5  C4  UNL d   1       1.577  -2.987   0.479  0.00  0.00     0.017 A 
ATOM      6  C5  UNL d   1       1.996  -1.862   1.196  0.00  0.00     0.034 A 
ATOM      7 Cl   UNL d   1       2.740  -4.228   0.177  0.00  0.00    -0.070 Cl
ATOM      8 Cl1  UNL d   1      -0.340  -4.432  -0.855  0.00  0.00    -0.070 Cl
ENDROOT
TORSDOF 0
ENDMDL
