MODEL 1
REMARK minimizedAffinity -1.94857383
REMARK minimizedRMSD -1
REMARK  0 active torsions:
REMARK  status: ('A' for Active; 'I' for Inactive)
ROOT
ATOM      1  C   UNL d   1      -0.296  -0.786   0.810  0.00  0.00     0.020 A 
ATOM      2  C1  UNL d   1      -0.654  -2.133   0.770  0.00  0.00     0.020 A 
ATOM      3  C2  UNL d   1       0.281  -3.093   0.376  0.00  0.00     0.034 A 
ATOM      4  C3  UNL d   1       1.578  -2.707   0.020  0.00  0.00     0.017 A 
ATOM      5  C4  UNL d   1       1.937  -1.355   0.061  0.00  0.00     0.017 A 
ATOM      6  C5  UNL d   1       0.997  -0.398   0.456  0.00  0.00     0.034 A 
ATOM      7 Cl   UNL d   1       3.518  -0.802  -0.364  0.00  0.00    -0.070 Cl
ATOM      8 Cl1  UNL d   1       2.683  -3.947  -0.457  0.00  0.00    -0.070 Cl
ENDROOT
TORSDOF 0
ENDMDL
