MODEL 1
REMARK minimizedAffinity -1.76373422
REMARK minimizedRMSD -1
REMARK  0 active torsions:
REMARK  status: ('A' for Active; 'I' for Inactive)
ROOT
ATOM      1  C1  DEN d   1       0.918   0.332  -0.996  0.00  0.00     0.130 A 
ATOM      2  C2  DEN d   1       0.836  -0.924  -0.255  0.00  0.00    -0.031 A 
ATOM      3  C3  DEN d   1       0.091  -0.670   0.994  0.00  0.00     0.027 A 
ATOM      4  C4  DEN d   1      -0.944   1.534   1.846  0.00  0.00     0.027 A 
ATOM      5  C5  DEN d   1      -1.122   2.872   1.568  0.00  0.00    -0.003 A 
ATOM      6  C6  DEN d   1      -0.608   3.458   0.442  0.00  0.00     0.001 A 
ATOM      7  C7  DEN d   1       0.071   2.696  -0.471  0.00  0.00     0.017 A 
ATOM      8  C8  DEN d   1       0.262   1.349  -0.194  0.00  0.00    -0.094 A 
ATOM      9  C9  DEN d   1      -0.276   0.771   0.944  0.00  0.00    -0.072 A 
ENDROOT
TORSDOF 0
ENDMDL
