MODEL 1
REMARK minimizedAffinity -4.27939844
REMARK minimizedRMSD -1
REMARK  0 active torsions:
REMARK  status: ('A' for Active; 'I' for Inactive)
ROOT
ATOM      1  C1  DEN d   1       0.672   0.055  -0.756  0.00  0.00     0.130 A 
ATOM      2  C2  DEN d   1       0.537  -1.149   0.059  0.00  0.00    -0.031 A 
ATOM      3  C3  DEN d   1      -0.231  -0.797   1.270  0.00  0.00     0.027 A 
ATOM      4  C4  DEN d   1      -1.224   1.483   1.956  0.00  0.00     0.027 A 
ATOM      5  C5  DEN d   1      -1.358   2.804   1.591  0.00  0.00    -0.003 A 
ATOM      6  C6  DEN d   1      -0.801   3.306   0.444  0.00  0.00     0.001 A 
ATOM      7  C7  DEN d   1      -0.121   2.470  -0.402  0.00  0.00     0.017 A 
ATOM      8  C8  DEN d   1       0.025   1.138  -0.037  0.00  0.00    -0.094 A 
ATOM      9  C9  DEN d   1      -0.556   0.648   1.120  0.00  0.00    -0.072 A 
ENDROOT
TORSDOF 0
ENDMDL
