MODEL 1
REMARK minimizedAffinity -4.81657934
REMARK minimizedRMSD -1
REMARK  0 active torsions:
REMARK  status: ('A' for Active; 'I' for Inactive)
ROOT
ATOM      1  C1  DEN d   1       0.634   0.076  -0.752  0.00  0.00     0.130 A 
ATOM      2  C2  DEN d   1       0.749  -1.093   0.115  0.00  0.00    -0.031 A 
ATOM      3  C3  DEN d   1       0.006  -0.812   1.360  0.00  0.00     0.027 A 
ATOM      4  C4  DEN d   1      -1.310   1.306   2.022  0.00  0.00     0.027 A 
ATOM      5  C5  DEN d   1      -1.683   2.568   1.617  0.00  0.00    -0.003 A 
ATOM      6  C6  DEN d   1      -1.285   3.097   0.418  0.00  0.00     0.001 A 
ATOM      7  C7  DEN d   1      -0.527   2.343  -0.439  0.00  0.00     0.017 A 
ATOM      8  C8  DEN d   1      -0.140   1.072  -0.034  0.00  0.00    -0.094 A 
ATOM      9  C9  DEN d   1      -0.563   0.551   1.177  0.00  0.00    -0.072 A 
ENDROOT
TORSDOF 0
ENDMDL
