MODEL 1
REMARK minimizedAffinity -3.24065018
REMARK minimizedRMSD -1
REMARK  0 active torsions:
REMARK  status: ('A' for Active; 'I' for Inactive)
ROOT
ATOM      1  C1  DEN d   1       0.746   0.604  -0.881  0.00  0.00     0.130 A 
ATOM      2  C2  DEN d   1       0.406  -0.704  -0.328  0.00  0.00    -0.031 A 
ATOM      3  C3  DEN d   1      -0.385  -0.489   0.900  0.00  0.00     0.027 A 
ATOM      4  C4  DEN d   1      -1.116   1.731   1.991  0.00  0.00     0.027 A 
ATOM      5  C5  DEN d   1      -1.056   3.104   1.893  0.00  0.00    -0.003 A 
ATOM      6  C6  DEN d   1      -0.368   3.734   0.890  0.00  0.00     0.001 A 
ATOM      7  C7  DEN d   1       0.251   2.991  -0.080  0.00  0.00     0.017 A 
ATOM      8  C8  DEN d   1       0.200   1.607   0.016  0.00  0.00    -0.094 A 
ATOM      9  C9  DEN d   1      -0.511   0.988   1.030  0.00  0.00    -0.072 A 
ENDROOT
TORSDOF 0
ENDMDL
