MODEL 1
REMARK minimizedAffinity -3.09084463
REMARK minimizedRMSD -1
REMARK  0 active torsions:
REMARK  status: ('A' for Active; 'I' for Inactive)
ROOT
ATOM      1  C1  DEN d   1      -0.378   3.604   0.752  0.00  0.00     0.130 A 
ATOM      2  C2  DEN d   1       0.265   3.714  -0.554  0.00  0.00    -0.031 A 
ATOM      3  C3  DEN d   1       0.499   2.348  -1.064  0.00  0.00     0.027 A 
ATOM      4  C4  DEN d   1      -0.075   0.086   0.034  0.00  0.00     0.027 A 
ATOM      5  C5  DEN d   1      -0.618  -0.515   1.148  0.00  0.00    -0.003 A 
ATOM      6  C6  DEN d   1      -1.083   0.207   2.214  0.00  0.00     0.001 A 
ATOM      7  C7  DEN d   1      -1.057   1.576   2.170  0.00  0.00     0.017 A 
ATOM      8  C8  DEN d   1      -0.504   2.190   1.053  0.00  0.00    -0.094 A 
ATOM      9  C9  DEN d   1      -0.050   1.442  -0.020  0.00  0.00    -0.072 A 
ENDROOT
TORSDOF 0
ENDMDL
