MODEL 1
REMARK minimizedAffinity -5.19096327
REMARK minimizedRMSD -1
REMARK  0 active torsions:
REMARK  status: ('A' for Active; 'I' for Inactive)
ROOT
ATOM      1  C1  DEN d   1      -0.435  -0.361   1.617  0.00  0.00     0.130 A 
ATOM      2  C2  DEN d   1       0.078  -1.303   0.625  0.00  0.00    -0.031 A 
ATOM      3  C3  DEN d   1       0.519  -0.530  -0.553  0.00  0.00     0.027 A 
ATOM      4  C4  DEN d   1       0.460   2.020  -0.936  0.00  0.00     0.027 A 
ATOM      5  C5  DEN d   1       0.101   3.230  -0.384  0.00  0.00    -0.003 A 
ATOM      6  C6  DEN d   1      -0.488   3.325   0.849  0.00  0.00     0.001 A 
ATOM      7  C7  DEN d   1      -0.695   2.192   1.591  0.00  0.00     0.017 A 
ATOM      8  C8  DEN d   1      -0.342   0.967   1.038  0.00  0.00    -0.094 A 
ATOM      9  C9  DEN d   1       0.264   0.894  -0.205  0.00  0.00    -0.072 A 
ENDROOT
TORSDOF 0
ENDMDL
