MODEL 1
REMARK minimizedAffinity -3.31061673
REMARK minimizedRMSD -1
REMARK  0 active torsions:
REMARK  status: ('A' for Active; 'I' for Inactive)
ROOT
ATOM      1  C1  DEN d   1       0.979   0.041  -0.583  0.00  0.00     0.130 A 
ATOM      2  C2  DEN d   1       0.862  -1.157   0.244  0.00  0.00    -0.031 A 
ATOM      3  C3  DEN d   1       0.280  -0.761   1.542  0.00  0.00     0.027 A 
ATOM      4  C4  DEN d   1      -0.453   1.578   2.346  0.00  0.00     0.027 A 
ATOM      5  C5  DEN d   1      -0.537   2.908   1.999  0.00  0.00    -0.003 A 
ATOM      6  C6  DEN d   1      -0.095   3.378   0.791  0.00  0.00     0.001 A 
ATOM      7  C7  DEN d   1       0.412   2.502  -0.133  0.00  0.00     0.017 A 
ATOM      8  C8  DEN d   1       0.507   1.161   0.211  0.00  0.00    -0.094 A 
ATOM      9  C9  DEN d   1       0.043   0.704   1.433  0.00  0.00    -0.072 A 
ENDROOT
TORSDOF 0
ENDMDL
