MODEL 1
REMARK minimizedAffinity -3.62781096
REMARK minimizedRMSD -1
REMARK  0 active torsions:
REMARK  status: ('A' for Active; 'I' for Inactive)
ROOT
ATOM      1  C1  DEN d   1       1.052   0.045  -0.630  0.00  0.00     0.130 A 
ATOM      2  C2  DEN d   1       0.733  -1.077   0.250  0.00  0.00    -0.031 A 
ATOM      3  C3  DEN d   1      -0.026  -0.551   1.402  0.00  0.00     0.027 A 
ATOM      4  C4  DEN d   1      -0.738   1.876   1.906  0.00  0.00     0.027 A 
ATOM      5  C5  DEN d   1      -0.687   3.177   1.456  0.00  0.00    -0.003 A 
ATOM      6  C6  DEN d   1      -0.028   3.528   0.307  0.00  0.00     0.001 A 
ATOM      7  C7  DEN d   1       0.567   2.558  -0.456  0.00  0.00     0.017 A 
ATOM      8  C8  DEN d   1       0.526   1.245  -0.006  0.00  0.00    -0.094 A 
ATOM      9  C9  DEN d   1      -0.155   0.910   1.152  0.00  0.00    -0.072 A 
ENDROOT
TORSDOF 0
ENDMDL
