MODEL 1
REMARK minimizedAffinity -5.36269283
REMARK minimizedRMSD -1
REMARK  0 active torsions:
REMARK  status: ('A' for Active; 'I' for Inactive)
ROOT
ATOM      1  C1  DEN d   1      -1.674  -1.186   0.736  0.00  0.00     0.130 A 
ATOM      2  C2  DEN d   1      -0.859  -0.705   1.848  0.00  0.00    -0.031 A 
ATOM      3  C3  DEN d   1       0.560  -0.812   1.454  0.00  0.00     0.027 A 
ATOM      4  C4  DEN d   1       1.570  -1.668  -0.760  0.00  0.00     0.027 A 
ATOM      5  C5  DEN d   1       1.275  -2.193  -1.999  0.00  0.00    -0.003 A 
ATOM      6  C6  DEN d   1      -0.010  -2.449  -2.397  0.00  0.00     0.001 A 
ATOM      7  C7  DEN d   1      -1.053  -2.138  -1.565  0.00  0.00     0.017 A 
ATOM      8  C8  DEN d   1      -0.764  -1.615  -0.311  0.00  0.00    -0.094 A 
ATOM      9  C9  DEN d   1       0.542  -1.352   0.068  0.00  0.00    -0.072 A 
ENDROOT
TORSDOF 0
ENDMDL
