MODEL 1
REMARK minimizedAffinity -3.27303052
REMARK minimizedRMSD -1
REMARK  0 active torsions:
REMARK  status: ('A' for Active; 'I' for Inactive)
ROOT
ATOM      1  C1  DEN d   1       0.582  -2.041  -0.281  0.00  0.00     0.130 A 
ATOM      2  C2  DEN d   1       1.334  -1.378  -1.342  0.00  0.00    -0.031 A 
ATOM      3  C3  DEN d   1       1.313   0.075  -1.078  0.00  0.00     0.027 A 
ATOM      4  C4  DEN d   1       0.198   1.355   0.864  0.00  0.00     0.027 A 
ATOM      5  C5  DEN d   1      -0.564   1.223   2.004  0.00  0.00    -0.003 A 
ATOM      6  C6  DEN d   1      -1.021   0.008   2.440  0.00  0.00     0.001 A 
ATOM      7  C7  DEN d   1      -0.684  -1.130   1.757  0.00  0.00     0.017 A 
ATOM      8  C8  DEN d   1       0.077  -1.005   0.602  0.00  0.00    -0.094 A 
ATOM      9  C9  DEN d   1       0.541   0.231   0.184  0.00  0.00    -0.072 A 
ENDROOT
TORSDOF 0
ENDMDL
