MODEL 1
REMARK minimizedAffinity -2.64996219
REMARK minimizedRMSD -1
REMARK  0 active torsions:
REMARK  status: ('A' for Active; 'I' for Inactive)
ROOT
ATOM      1  C1  DEN d   1       0.780   0.450  -0.812  0.00  0.00     0.130 A 
ATOM      2  C2  DEN d   1       0.453  -0.683   0.049  0.00  0.00    -0.031 A 
ATOM      3  C3  DEN d   1      -0.314  -0.171   1.203  0.00  0.00     0.027 A 
ATOM      4  C4  DEN d   1      -1.025   2.250   1.735  0.00  0.00     0.027 A 
ATOM      5  C5  DEN d   1      -0.968   3.557   1.304  0.00  0.00    -0.003 A 
ATOM      6  C6  DEN d   1      -0.300   3.922   0.164  0.00  0.00     0.001 A 
ATOM      7  C7  DEN d   1       0.299   2.962  -0.608  0.00  0.00     0.017 A 
ATOM      8  C8  DEN d   1       0.252   1.643  -0.176  0.00  0.00    -0.094 A 
ATOM      9  C9  DEN d   1      -0.439   1.293   0.972  0.00  0.00    -0.072 A 
ENDROOT
TORSDOF 0
ENDMDL
