MODEL 1
REMARK minimizedAffinity -4.02028561
REMARK minimizedRMSD -1
REMARK  1 active torsions:
REMARK  status: ('A' for Active; 'I' for Inactive)
REMARK    1  A    between atoms: C3_4  and  O_7 
ROOT
ATOM      1  C   UNL d   1       5.561  -5.964  -4.119  0.00  0.00    -0.033 A 
ATOM      2  C1  UNL d   1       5.484  -5.541  -5.448  0.00  0.00     0.039 A 
ATOM      3  C2  UNL d   1       4.255  -5.157  -5.990  0.00  0.00    -0.080 A 
ATOM      4  C3  UNL d   1       3.114  -5.200  -5.194  0.00  0.00     0.150 A 
ATOM      5  C4  UNL d   1       3.185  -5.616  -3.868  0.00  0.00    -0.007 A 
ATOM      6  C5  UNL d   1       4.412  -6.000  -3.329  0.00  0.00     0.039 A 
ENDROOT
BRANCH   4   7
ATOM      7  O   UNL d   1       1.893  -4.839  -5.680  0.00  0.00    -0.526 OA
ATOM      8  H5  UNL d   1       1.992  -4.602  -6.617  0.00  0.00     0.418 HD
ENDBRANCH   4   7
TORSDOF 1
ENDMDL
