MODEL 1
REMARK minimizedAffinity -2.73973894
REMARK minimizedRMSD -1
REMARK  1 active torsions:
REMARK  status: ('A' for Active; 'I' for Inactive)
REMARK    1  A    between atoms: C3_4  and  O_7 
ROOT
ATOM      1  C   UNL d   1       3.097  -5.757  -5.988  0.00  0.00    -0.033 A 
ATOM      2  C1  UNL d   1       2.415  -5.639  -4.775  0.00  0.00     0.039 A 
ATOM      3  C2  UNL d   1       3.115  -5.703  -3.569  0.00  0.00    -0.080 A 
ATOM      4  C3  UNL d   1       4.495  -5.885  -3.589  0.00  0.00     0.150 A 
ATOM      5  C4  UNL d   1       5.182  -6.000  -4.793  0.00  0.00    -0.007 A 
ATOM      6  C5  UNL d   1       4.481  -5.936  -5.997  0.00  0.00     0.039 A 
ENDROOT
BRANCH   4   7
ATOM      7  O   UNL d   1       5.221  -5.959  -2.437  0.00  0.00    -0.526 OA
ATOM      8  H5  UNL d   1       4.611  -5.893  -1.684  0.00  0.00     0.418 HD
ENDBRANCH   4   7
TORSDOF 1
ENDMDL
