MODEL 1
REMARK minimizedAffinity -3.21522021
REMARK minimizedRMSD -1
REMARK  1 active torsions:
REMARK  status: ('A' for Active; 'I' for Inactive)
REMARK    1  A    between atoms: C3_4  and  O_7 
ROOT
ATOM      1  C   UNL d   1       5.581  -5.928  -4.340  0.00  0.00    -0.033 A 
ATOM      2  C1  UNL d   1       5.149  -5.957  -5.667  0.00  0.00     0.039 A 
ATOM      3  C2  UNL d   1       3.784  -5.981  -5.959  0.00  0.00    -0.080 A 
ATOM      4  C3  UNL d   1       2.862  -5.973  -4.916  0.00  0.00     0.150 A 
ATOM      5  C4  UNL d   1       3.285  -5.940  -3.591  0.00  0.00    -0.007 A 
ATOM      6  C5  UNL d   1       4.649  -5.918  -3.302  0.00  0.00     0.039 A 
ENDROOT
BRANCH   4   7
ATOM      7  O   UNL d   1       1.519  -6.000  -5.151  0.00  0.00    -0.526 OA
ATOM      8  H5  UNL d   1       1.376  -6.050  -6.110  0.00  0.00     0.418 HD
ENDBRANCH   4   7
TORSDOF 1
ENDMDL
