MODEL 1
REMARK minimizedAffinity -2.90359449
REMARK minimizedRMSD -1
REMARK  1 active torsions:
REMARK  status: ('A' for Active; 'I' for Inactive)
REMARK    1  A    between atoms: C3_4  and  O_7 
ROOT
ATOM      1  C   UNL d   1       4.855  -5.270  -6.000  0.00  0.00    -0.033 A 
ATOM      2  C1  UNL d   1       3.664  -5.999  -5.987  0.00  0.00     0.039 A 
ATOM      3  C2  UNL d   1       2.832  -5.960  -4.867  0.00  0.00    -0.080 A 
ATOM      4  C3  UNL d   1       3.200  -5.189  -3.768  0.00  0.00     0.150 A 
ATOM      5  C4  UNL d   1       4.383  -4.457  -3.776  0.00  0.00    -0.007 A 
ATOM      6  C5  UNL d   1       5.213  -4.498  -4.895  0.00  0.00     0.039 A 
ENDROOT
BRANCH   4   7
ATOM      7  O   UNL d   1       2.423  -5.124  -2.650  0.00  0.00    -0.526 OA
ATOM      8  H5  UNL d   1       1.652  -5.702  -2.777  0.00  0.00     0.418 HD
ENDBRANCH   4   7
TORSDOF 1
ENDMDL
