MODEL 1
REMARK minimizedAffinity -3.10480952
REMARK minimizedRMSD -1
REMARK  1 active torsions:
REMARK  status: ('A' for Active; 'I' for Inactive)
REMARK    1  A    between atoms: C3_4  and  O_7 
ROOT
ATOM      1  C   UNL d   1       5.489  -5.677  -3.848  0.00  0.00    -0.033 A 
ATOM      2  C1  UNL d   1       4.300  -5.595  -3.122  0.00  0.00     0.039 A 
ATOM      3  C2  UNL d   1       3.071  -5.703  -3.776  0.00  0.00    -0.080 A 
ATOM      4  C3  UNL d   1       3.046  -5.893  -5.155  0.00  0.00     0.150 A 
ATOM      5  C4  UNL d   1       4.228  -5.979  -5.885  0.00  0.00    -0.007 A 
ATOM      6  C5  UNL d   1       5.453  -5.870  -5.229  0.00  0.00     0.039 A 
ENDROOT
BRANCH   4   7
ATOM      7  O   UNL d   1       1.871  -5.999  -5.839  0.00  0.00    -0.526 OA
ATOM      8  H5  UNL d   1       1.139  -5.893  -5.209  0.00  0.00     0.418 HD
ENDBRANCH   4   7
TORSDOF 1
ENDMDL
