MODEL 1
REMARK minimizedAffinity -4.29026651
REMARK minimizedRMSD -1
REMARK  1 active torsions:
REMARK  status: ('A' for Active; 'I' for Inactive)
REMARK    1  A    between atoms: C3_4  and  O_7 
ROOT
ATOM      1  C   UNL d   1       4.993  -5.648  -3.058  0.00  0.00    -0.033 A 
ATOM      2  C1  UNL d   1       5.321  -5.252  -4.356  0.00  0.00     0.039 A 
ATOM      3  C2  UNL d   1       4.337  -5.210  -5.345  0.00  0.00    -0.080 A 
ATOM      4  C3  UNL d   1       3.030  -5.565  -5.024  0.00  0.00     0.150 A 
ATOM      5  C4  UNL d   1       2.695  -5.958  -3.732  0.00  0.00    -0.007 A 
ATOM      6  C5  UNL d   1       3.679  -6.000  -2.746  0.00  0.00     0.039 A 
ENDROOT
BRANCH   4   7
ATOM      7  O   UNL d   1       2.036  -5.544  -5.957  0.00  0.00    -0.526 OA
ATOM      8  H5  UNL d   1       2.420  -5.281  -6.810  0.00  0.00     0.418 HD
ENDBRANCH   4   7
TORSDOF 1
ENDMDL
