MODEL 1
REMARK minimizedAffinity -3.08022475
REMARK minimizedRMSD -1
REMARK  1 active torsions:
REMARK  status: ('A' for Active; 'I' for Inactive)
REMARK    1  A    between atoms: C3_4  and  O_7 
ROOT
ATOM      1  C   UNL d   1       4.960  -5.845  -1.881  0.00  0.00    -0.033 A 
ATOM      2  C1  UNL d   1       6.000  -6.000  -2.800  0.00  0.00     0.039 A 
ATOM      3  C2  UNL d   1       5.736  -5.939  -4.170  0.00  0.00    -0.080 A 
ATOM      4  C3  UNL d   1       4.432  -5.723  -4.607  0.00  0.00     0.150 A 
ATOM      5  C4  UNL d   1       3.393  -5.565  -3.696  0.00  0.00    -0.007 A 
ATOM      6  C5  UNL d   1       3.657  -5.626  -2.328  0.00  0.00     0.039 A 
ENDROOT
BRANCH   4   7
ATOM      7  O   UNL d   1       4.126  -5.661  -5.933  0.00  0.00    -0.526 OA
ATOM      8  H5  UNL d   1       4.938  -5.817  -6.444  0.00  0.00     0.418 HD
ENDBRANCH   4   7
TORSDOF 1
ENDMDL
