MODEL 1
REMARK minimizedAffinity -3.98735023
REMARK minimizedRMSD -1
REMARK  1 active torsions:
REMARK  status: ('A' for Active; 'I' for Inactive)
REMARK    1  A    between atoms: C3_4  and  O_7 
ROOT
ATOM      1  C   UNL d   1       5.373  -5.611  -3.397  0.00  0.00    -0.033 A 
ATOM      2  C1  UNL d   1       5.517  -5.867  -4.762  0.00  0.00     0.039 A 
ATOM      3  C2  UNL d   1       4.387  -6.000  -5.571  0.00  0.00    -0.080 A 
ATOM      4  C3  UNL d   1       3.122  -5.874  -5.005  0.00  0.00     0.150 A 
ATOM      5  C4  UNL d   1       2.972  -5.615  -3.646  0.00  0.00    -0.007 A 
ATOM      6  C5  UNL d   1       4.101  -5.484  -2.839  0.00  0.00     0.039 A 
ENDROOT
BRANCH   4   7
ATOM      7  O   UNL d   1       1.990  -6.000  -5.754  0.00  0.00    -0.526 OA
ATOM      8  H5  UNL d   1       2.247  -6.206  -6.668  0.00  0.00     0.418 HD
ENDBRANCH   4   7
TORSDOF 1
ENDMDL
