MODEL 1
REMARK minimizedAffinity -3.91538262
REMARK minimizedRMSD -1
REMARK  1 active torsions:
REMARK  status: ('A' for Active; 'I' for Inactive)
REMARK    1  A    between atoms: C3_4  and  O_7 
ROOT
ATOM      1  C   UNL d   1       3.841  -4.868  -2.250  0.00  0.00    -0.033 A 
ATOM      2  C1  UNL d   1       3.072  -5.493  -3.234  0.00  0.00     0.039 A 
ATOM      3  C2  UNL d   1       3.610  -5.721  -4.502  0.00  0.00    -0.080 A 
ATOM      4  C3  UNL d   1       4.916  -5.322  -4.772  0.00  0.00     0.150 A 
ATOM      5  C4  UNL d   1       5.689  -4.703  -3.796  0.00  0.00    -0.007 A 
ATOM      6  C5  UNL d   1       5.150  -4.475  -2.530  0.00  0.00     0.039 A 
ENDROOT
BRANCH   4   7
ATOM      7  O   UNL d   1       5.482  -5.520  -5.997  0.00  0.00    -0.526 OA
ATOM      8  H5  UNL d   1       4.822  -5.931  -6.579  0.00  0.00     0.418 HD
ENDBRANCH   4   7
TORSDOF 1
ENDMDL
