MODEL 1
REMARK minimizedAffinity -3.82265925
REMARK minimizedRMSD -1
REMARK  1 active torsions:
REMARK  status: ('A' for Active; 'I' for Inactive)
REMARK    1  A    between atoms: C3_4  and  O_7 
ROOT
ATOM      1  C   UNL d   1       5.971   3.488   3.098  0.00  0.00    -0.033 A 
ATOM      2  C1  UNL d   1       5.527   2.222   2.712  0.00  0.00     0.039 A 
ATOM      3  C2  UNL d   1       4.243   2.059   2.190  0.00  0.00    -0.080 A 
ATOM      4  C3  UNL d   1       3.413   3.169   2.058  0.00  0.00     0.150 A 
ATOM      5  C4  UNL d   1       3.849   4.434   2.438  0.00  0.00    -0.007 A 
ATOM      6  C5  UNL d   1       5.132   4.595   2.960  0.00  0.00     0.039 A 
ENDROOT
BRANCH   4   7
ATOM      7  O   UNL d   1       2.149   3.059   1.558  0.00  0.00    -0.526 OA
ATOM      8  H5  UNL d   1       1.975   2.122   1.366  0.00  0.00     0.418 HD
ENDBRANCH   4   7
TORSDOF 1
ENDMDL
