MODEL 1
REMARK minimizedAffinity -2.64906621
REMARK minimizedRMSD -1
REMARK  1 active torsions:
REMARK  status: ('A' for Active; 'I' for Inactive)
REMARK    1  A    between atoms: C3_4  and  O_7 
ROOT
ATOM      1  C   UNL d   1       5.256  -5.249  -3.925  0.00  0.00    -0.033 A 
ATOM      2  C1  UNL d   1       4.057  -5.371  -3.220  0.00  0.00     0.039 A 
ATOM      3  C2  UNL d   1       2.866  -5.625  -3.903  0.00  0.00    -0.080 A 
ATOM      4  C3  UNL d   1       2.888  -5.756  -5.289  0.00  0.00     0.150 A 
ATOM      5  C4  UNL d   1       4.079  -5.639  -5.997  0.00  0.00    -0.007 A 
ATOM      6  C5  UNL d   1       5.267  -5.385  -5.313  0.00  0.00     0.039 A 
ENDROOT
BRANCH   4   7
ATOM      7  O   UNL d   1       1.750  -5.999  -5.999  0.00  0.00    -0.526 OA
ATOM      8  H5  UNL d   1       1.001  -6.026  -5.381  0.00  0.00     0.418 HD
ENDBRANCH   4   7
TORSDOF 1
ENDMDL
