MODEL 1
REMARK minimizedAffinity -4.22192192
REMARK minimizedRMSD -1
REMARK  1 active torsions:
REMARK  status: ('A' for Active; 'I' for Inactive)
REMARK    1  A    between atoms: C3_4  and  O_7 
ROOT
ATOM      1  C   UNL d   1       5.414  -5.467  -5.445  0.00  0.00    -0.033 A 
ATOM      2  C1  UNL d   1       4.134  -6.000  -5.276  0.00  0.00     0.039 A 
ATOM      3  C2  UNL d   1       3.440  -5.786  -4.083  0.00  0.00    -0.080 A 
ATOM      4  C3  UNL d   1       4.034  -5.039  -3.071  0.00  0.00     0.150 A 
ATOM      5  C4  UNL d   1       5.307  -4.502  -3.234  0.00  0.00    -0.007 A 
ATOM      6  C5  UNL d   1       5.999  -4.717  -4.425  0.00  0.00     0.039 A 
ENDROOT
BRANCH   4   7
ATOM      7  O   UNL d   1       3.397  -4.809  -1.887  0.00  0.00    -0.526 OA
ATOM      8  H5  UNL d   1       2.539  -5.264  -1.906  0.00  0.00     0.418 HD
ENDBRANCH   4   7
TORSDOF 1
ENDMDL
