MODEL 1
REMARK minimizedAffinity -3.69226146
REMARK minimizedRMSD -1
REMARK  1 active torsions:
REMARK  status: ('A' for Active; 'I' for Inactive)
REMARK    1  A    between atoms: C3_4  and  O_7 
ROOT
ATOM      1  C   UNL d   1       3.328  -5.257  -5.391  0.00  0.00    -0.033 A 
ATOM      2  C1  UNL d   1       2.861  -5.669  -4.142  0.00  0.00     0.039 A 
ATOM      3  C2  UNL d   1       3.747  -5.797  -3.071  0.00  0.00    -0.080 A 
ATOM      4  C3  UNL d   1       5.096  -5.510  -3.262  0.00  0.00     0.150 A 
ATOM      5  C4  UNL d   1       5.568  -5.095  -4.503  0.00  0.00    -0.007 A 
ATOM      6  C5  UNL d   1       4.681  -4.969  -5.571  0.00  0.00     0.039 A 
ENDROOT
BRANCH   4   7
ATOM      7  O   UNL d   1       6.000  -5.625  -2.247  0.00  0.00    -0.526 OA
ATOM      8  H5  UNL d   1       5.536  -5.948  -1.457  0.00  0.00     0.418 HD
ENDBRANCH   4   7
TORSDOF 1
ENDMDL
