MODEL 1
REMARK minimizedAffinity -2.00167203
REMARK minimizedRMSD -1
REMARK  1 active torsions:
REMARK  status: ('A' for Active; 'I' for Inactive)
REMARK    1  A    between atoms: C3_4  and  O_7 
ROOT
ATOM      1  C   UNL d   1       3.368  -5.893  -5.992  0.00  0.00    -0.033 A 
ATOM      2  C1  UNL d   1       2.254  -5.848  -5.151  0.00  0.00     0.039 A 
ATOM      3  C2  UNL d   1       2.421  -5.882  -3.765  0.00  0.00    -0.080 A 
ATOM      4  C3  UNL d   1       3.705  -5.959  -3.234  0.00  0.00     0.150 A 
ATOM      5  C4  UNL d   1       4.819  -6.000  -4.065  0.00  0.00    -0.007 A 
ATOM      6  C5  UNL d   1       4.650  -5.967  -5.449  0.00  0.00     0.039 A 
ENDROOT
BRANCH   4   7
ATOM      7  O   UNL d   1       3.918  -5.999  -1.888  0.00  0.00    -0.526 OA
ATOM      8  H5  UNL d   1       3.055  -5.993  -1.439  0.00  0.00     0.418 HD
ENDBRANCH   4   7
TORSDOF 1
ENDMDL
