MODEL 1
REMARK minimizedAffinity -4.42440414
REMARK minimizedRMSD -1
REMARK  1 active torsions:
REMARK  status: ('A' for Active; 'I' for Inactive)
REMARK    1  A    between atoms: C3_4  and  O_7 
ROOT
ATOM      1  C   UNL d   1       3.724  -5.997  -5.419  0.00  0.00    -0.033 A 
ATOM      2  C1  UNL d   1       3.126  -5.995  -4.157  0.00  0.00     0.039 A 
ATOM      3  C2  UNL d   1       3.865  -5.619  -3.034  0.00  0.00    -0.080 A 
ATOM      4  C3  UNL d   1       5.198  -5.247  -3.186  0.00  0.00     0.150 A 
ATOM      5  C4  UNL d   1       5.799  -5.244  -4.440  0.00  0.00    -0.007 A 
ATOM      6  C5  UNL d   1       5.060  -5.620  -5.561  0.00  0.00     0.039 A 
ENDROOT
BRANCH   4   7
ATOM      7  O   UNL d   1       5.961  -4.877  -2.118  0.00  0.00    -0.526 OA
ATOM      8  H5  UNL d   1       5.422  -4.955  -1.313  0.00  0.00     0.418 HD
ENDBRANCH   4   7
TORSDOF 1
ENDMDL
