MODEL 1
REMARK minimizedAffinity -3.88375807
REMARK minimizedRMSD -1
REMARK  1 active torsions:
REMARK  status: ('A' for Active; 'I' for Inactive)
REMARK    1  A    between atoms: C3_4  and  O_7 
ROOT
ATOM      1  C   UNL d   1       3.601  -5.659  -2.322  0.00  0.00    -0.033 A 
ATOM      2  C1  UNL d   1       3.025  -6.000  -3.548  0.00  0.00     0.039 A 
ATOM      3  C2  UNL d   1       3.799  -5.993  -4.710  0.00  0.00    -0.080 A 
ATOM      4  C3  UNL d   1       5.144  -5.645  -4.634  0.00  0.00     0.150 A 
ATOM      5  C4  UNL d   1       5.725  -5.308  -3.415  0.00  0.00    -0.007 A 
ATOM      6  C5  UNL d   1       4.951  -5.314  -2.256  0.00  0.00     0.039 A 
ENDROOT
BRANCH   4   7
ATOM      7  O   UNL d   1       5.938  -5.619  -5.742  0.00  0.00    -0.526 OA
ATOM      8  H5  UNL d   1       5.395  -5.847  -6.515  0.00  0.00     0.418 HD
ENDBRANCH   4   7
TORSDOF 1
ENDMDL
