MODEL 1
REMARK minimizedAffinity -4.00362492
REMARK minimizedRMSD -1
REMARK  1 active torsions:
REMARK  status: ('A' for Active; 'I' for Inactive)
REMARK    1  A    between atoms: C3_4  and  O_7 
ROOT
ATOM      1  C   UNL d   1       3.112  -5.226  -2.948  0.00  0.00    -0.033 A 
ATOM      2  C1  UNL d   1       2.828  -5.872  -4.154  0.00  0.00     0.039 A 
ATOM      3  C2  UNL d   1       3.761  -5.858  -5.192  0.00  0.00    -0.080 A 
ATOM      4  C3  UNL d   1       4.974  -5.198  -5.012  0.00  0.00     0.150 A 
ATOM      5  C4  UNL d   1       5.265  -4.557  -3.812  0.00  0.00    -0.007 A 
ATOM      6  C5  UNL d   1       4.331  -4.570  -2.777  0.00  0.00     0.039 A 
ENDROOT
BRANCH   4   7
ATOM      7  O   UNL d   1       5.914  -5.154  -5.998  0.00  0.00    -0.526 OA
ATOM      8  H5  UNL d   1       5.564  -5.614  -6.778  0.00  0.00     0.418 HD
ENDBRANCH   4   7
TORSDOF 1
ENDMDL
