MODEL 1
REMARK minimizedAffinity -4.18506622
REMARK minimizedRMSD -1
REMARK  1 active torsions:
REMARK  status: ('A' for Active; 'I' for Inactive)
REMARK    1  A    between atoms: C3_4  and  O_7 
ROOT
ATOM      1  C   UNL d   1       5.529  -5.491  -5.204  0.00  0.00    -0.033 A 
ATOM      2  C1  UNL d   1       4.230  -5.999  -5.271  0.00  0.00     0.039 A 
ATOM      3  C2  UNL d   1       3.402  -5.952  -4.148  0.00  0.00    -0.080 A 
ATOM      4  C3  UNL d   1       3.882  -5.393  -2.967  0.00  0.00     0.150 A 
ATOM      5  C4  UNL d   1       5.174  -4.881  -2.895  0.00  0.00    -0.007 A 
ATOM      6  C5  UNL d   1       6.000  -4.930  -4.017  0.00  0.00     0.039 A 
ENDROOT
BRANCH   4   7
ATOM      7  O   UNL d   1       3.112  -5.328  -1.844  0.00  0.00    -0.526 OA
ATOM      8  H5  UNL d   1       2.256  -5.746  -2.034  0.00  0.00     0.418 HD
ENDBRANCH   4   7
TORSDOF 1
ENDMDL
