MODEL 1
REMARK minimizedAffinity 1.68291521
REMARK minimizedRMSD -1
REMARK  0 active torsions:
REMARK  status: ('A' for Active; 'I' for Inactive)
ROOT
ATOM      1  N1  IND d   1       3.336   0.885  -1.233  0.00  0.00    -0.196 N 
ATOM      2  C2  IND d   1       4.521   0.314  -1.606  0.00  0.00     0.054 A 
ATOM      3  C3  IND d   1       4.377  -1.023  -1.741  0.00  0.00    -0.031 A 
ATOM      4  C4  IND d   1       2.264  -2.474  -1.500  0.00  0.00     0.051 A 
ATOM      5  C5  IND d   1       0.948  -2.409  -1.136  0.00  0.00    -0.031 A 
ATOM      6  C6  IND d   1       0.348  -1.218  -0.781  0.00  0.00     0.015 A 
ATOM      7  C7  IND d   1       1.042  -0.041  -0.788  0.00  0.00    -0.016 A 
ATOM      8  C8  IND d   1       2.380  -0.104  -1.150  0.00  0.00    -0.047 A 
ATOM      9  C9  IND d   1       3.005  -1.316  -1.470  0.00  0.00    -0.096 A 
ATOM     10  HN1 IND d   1       3.209   1.720  -1.076  0.00  0.00     0.298 HD
ENDROOT
TORSDOF 0
ENDMDL
