MODEL 1
REMARK minimizedAffinity 2.03085685
REMARK minimizedRMSD -1
REMARK  0 active torsions:
REMARK  status: ('A' for Active; 'I' for Inactive)
ROOT
ATOM      1  N1  IND d   1       0.908   0.877  -0.962  0.00  0.00    -0.196 N 
ATOM      2  C2  IND d   1       0.051  -0.186  -1.021  0.00  0.00     0.054 A 
ATOM      3  C3  IND d   1       0.726  -1.318  -1.324  0.00  0.00    -0.031 A 
ATOM      4  C4  IND d   1       3.253  -1.675  -1.663  0.00  0.00     0.051 A 
ATOM      5  C5  IND d   1       4.435  -0.994  -1.744  0.00  0.00    -0.031 A 
ATOM      6  C6  IND d   1       4.505   0.372  -1.562  0.00  0.00     0.015 A 
ATOM      7  C7  IND d   1       3.390   1.110  -1.279  0.00  0.00    -0.016 A 
ATOM      8  C8  IND d   1       2.187   0.424  -1.204  0.00  0.00    -0.047 A 
ATOM      9  C9  IND d   1       2.104  -0.956  -1.430  0.00  0.00    -0.096 A 
ATOM     10  HN1 IND d   1       0.687   1.692  -0.801  0.00  0.00     0.298 HD
ENDROOT
TORSDOF 0
ENDMDL
