MODEL 1
REMARK minimizedAffinity 2.50325513
REMARK minimizedRMSD -1
REMARK  0 active torsions:
REMARK  status: ('A' for Active; 'I' for Inactive)
ROOT
ATOM      1  N1  IND d   1       4.490   0.982  -0.819  0.00  0.00    -0.196 N 
ATOM      2  C2  IND d   1       5.701   1.228  -1.402  0.00  0.00     0.054 A 
ATOM      3  C3  IND d   1       5.995   0.262  -2.301  0.00  0.00    -0.031 A 
ATOM      4  C4  IND d   1       4.588  -1.760  -3.049  0.00  0.00     0.051 A 
ATOM      5  C5  IND d   1       3.425  -2.424  -2.774  0.00  0.00    -0.031 A 
ATOM      6  C6  IND d   1       2.539  -1.976  -1.816  0.00  0.00     0.015 A 
ATOM      7  C7  IND d   1       2.778  -0.836  -1.102  0.00  0.00    -0.016 A 
ATOM      8  C8  IND d   1       3.961  -0.163  -1.373  0.00  0.00    -0.047 A 
ATOM      9  C9  IND d   1       4.884  -0.636  -2.314  0.00  0.00    -0.096 A 
ATOM     10  HN1 IND d   1       4.120   1.461  -0.208  0.00  0.00     0.298 HD
ENDROOT
TORSDOF 0
ENDMDL
