MODEL 1
REMARK minimizedAffinity -4.67995119
REMARK minimizedRMSD -1
REMARK  0 active torsions:
REMARK  status: ('A' for Active; 'I' for Inactive)
ROOT
ATOM      1  N1  IND d   1       2.585   0.618  -1.082  0.00  0.00    -0.196 N 
ATOM      2  C2  IND d   1       3.866   0.189  -1.291  0.00  0.00     0.054 A 
ATOM      3  C3  IND d   1       3.886  -1.145  -1.508  0.00  0.00    -0.031 A 
ATOM      4  C4  IND d   1       1.925  -2.805  -1.666  0.00  0.00     0.051 A 
ATOM      5  C5  IND d   1       0.570  -2.890  -1.509  0.00  0.00    -0.031 A 
ATOM      6  C6  IND d   1      -0.199  -1.787  -1.198  0.00  0.00     0.015 A 
ATOM      7  C7  IND d   1       0.360  -0.550  -1.043  0.00  0.00    -0.016 A 
ATOM      8  C8  IND d   1       1.737  -0.462  -1.195  0.00  0.00    -0.047 A 
ATOM      9  C9  IND d   1       2.527  -1.585  -1.468  0.00  0.00    -0.096 A 
ATOM     10  HN1 IND d   1       2.348   1.427  -0.909  0.00  0.00     0.298 HD
ENDROOT
TORSDOF 0
ENDMDL
