MODEL 1
REMARK minimizedAffinity 1.20358539
REMARK minimizedRMSD -1
REMARK  0 active torsions:
REMARK  status: ('A' for Active; 'I' for Inactive)
ROOT
ATOM      1  N1  IND d   1      -1.742   5.577   1.169  0.00  0.00    -0.196 N 
ATOM      2  C2  IND d   1      -0.591   5.919   1.824  0.00  0.00     0.054 A 
ATOM      3  C3  IND d   1      -0.418   5.132   2.910  0.00  0.00    -0.031 A 
ATOM      4  C4  IND d   1      -1.842   3.156   3.744  0.00  0.00     0.051 A 
ATOM      5  C5  IND d   1      -3.009   2.489   3.496  0.00  0.00    -0.031 A 
ATOM      6  C6  IND d   1      -3.828   2.823   2.437  0.00  0.00     0.015 A 
ATOM      7  C7  IND d   1      -3.504   3.832   1.575  0.00  0.00    -0.016 A 
ATOM      8  C8  IND d   1      -2.323   4.516   1.828  0.00  0.00    -0.047 A 
ATOM      9  C9  IND d   1      -1.509   4.210   2.926  0.00  0.00    -0.096 A 
ATOM     10  HN1 IND d   1      -2.050   5.960   0.464  0.00  0.00     0.298 HD
ENDROOT
TORSDOF 0
ENDMDL
