MODEL 1
REMARK minimizedAffinity 7.12422657
REMARK minimizedRMSD -1
REMARK  0 active torsions:
REMARK  status: ('A' for Active; 'I' for Inactive)
ROOT
ATOM      1  N1  IND d   1       0.320   0.913  -0.289  0.00  0.00    -0.196 N 
ATOM      2  C2  IND d   1      -0.955   0.493  -0.030  0.00  0.00     0.054 A 
ATOM      3  C3  IND d   1      -1.085  -0.822  -0.316  0.00  0.00    -0.031 A 
ATOM      4  C4  IND d   1       0.691  -2.503  -1.120  0.00  0.00     0.051 A 
ATOM      5  C5  IND d   1       1.992  -2.582  -1.531  0.00  0.00    -0.031 A 
ATOM      6  C6  IND d   1       2.820  -1.478  -1.547  0.00  0.00     0.015 A 
ATOM      7  C7  IND d   1       2.378  -0.251  -1.139  0.00  0.00    -0.016 A 
ATOM      8  C8  IND d   1       1.056  -0.166  -0.728  0.00  0.00    -0.047 A 
ATOM      9  C9  IND d   1       0.199  -1.274  -0.750  0.00  0.00    -0.096 A 
ATOM     10  HN1 IND d   1       0.614   1.715  -0.193  0.00  0.00     0.298 HD
ENDROOT
TORSDOF 0
ENDMDL
