MODEL 1
REMARK minimizedAffinity -1.2878238
REMARK minimizedRMSD -1
REMARK  0 active torsions:
REMARK  status: ('A' for Active; 'I' for Inactive)
ROOT
ATOM      1  N1  IND d   1       2.071   0.998  -0.983  0.00  0.00    -0.196 N 
ATOM      2  C2  IND d   1       3.304   0.560  -0.588  0.00  0.00     0.054 A 
ATOM      3  C3  IND d   1       3.278  -0.770  -0.350  0.00  0.00    -0.031 A 
ATOM      4  C4  IND d   1       1.345  -2.445  -0.642  0.00  0.00     0.051 A 
ATOM      5  C5  IND d   1       0.014  -2.512  -0.946  0.00  0.00    -0.031 A 
ATOM      6  C6  IND d   1      -0.713  -1.390  -1.287  0.00  0.00     0.015 A 
ATOM      7  C7  IND d   1      -0.131  -0.156  -1.349  0.00  0.00    -0.016 A 
ATOM      8  C8  IND d   1       1.218  -0.083  -1.034  0.00  0.00    -0.047 A 
ATOM      9  C9  IND d   1       1.952  -1.212  -0.645  0.00  0.00    -0.096 A 
ATOM     10  HN1 IND d   1       1.863   1.811  -1.169  0.00  0.00     0.298 HD
ENDROOT
TORSDOF 0
ENDMDL
