MODEL 1
REMARK minimizedAffinity -2.33867717
REMARK minimizedRMSD -1
REMARK  0 active torsions:
REMARK  status: ('A' for Active; 'I' for Inactive)
ROOT
ATOM      1  N1  IND d   1      -0.310  -1.679  -0.991  0.00  0.00    -0.196 N 
ATOM      2  C2  IND d   1       0.775  -2.291  -0.429  0.00  0.00     0.054 A 
ATOM      3  C3  IND d   1       1.433  -1.431   0.381  0.00  0.00    -0.031 A 
ATOM      4  C4  IND d   1       0.846   0.996   1.009  0.00  0.00     0.051 A 
ATOM      5  C5  IND d   1      -0.033   2.001   0.720  0.00  0.00    -0.031 A 
ATOM      6  C6  IND d   1      -1.072   1.827  -0.171  0.00  0.00     0.015 A 
ATOM      7  C7  IND d   1      -1.278   0.632  -0.800  0.00  0.00    -0.016 A 
ATOM      8  C8  IND d   1      -0.383  -0.389  -0.513  0.00  0.00    -0.047 A 
ATOM      9  C9  IND d   1       0.698  -0.205   0.358  0.00  0.00    -0.096 A 
ATOM     10  HN1 IND d   1      -0.855  -2.040  -1.550  0.00  0.00     0.298 HD
ENDROOT
TORSDOF 0
ENDMDL
