MODEL 1
REMARK minimizedAffinity 11.2119904
REMARK minimizedRMSD -1
REMARK  1 active torsions:
REMARK  status: ('A' for Active; 'I' for Inactive)
REMARK    1  A    between atoms: C1_2  and  C2_3 
ROOT
ATOM      1  C2  UNL d   1       0.681  -0.952   1.368  0.00  0.00    -0.076 A 
ATOM      2  C3  UNL d   1       1.327  -2.200   1.370  0.00  0.00     0.004 A 
ATOM      3  C4  UNL d   1       0.595  -3.386   1.325  0.00  0.00    -0.003 A 
ATOM      4  C5  UNL d   1      -0.794  -3.343   1.275  0.00  0.00     0.000 A 
ATOM      5  C6  UNL d   1      -1.450  -2.112   1.254  0.00  0.00     0.000 A 
ATOM      6  C7  UNL d   1      -0.727  -0.907   1.284  0.00  0.00    -0.073 A 
ATOM      7  C8  UNL d   1      -1.487   0.391   1.265  0.00  0.00     0.078 C 
ENDROOT
BRANCH   1   8
ATOM      8  C1  UNL d   1       1.525   0.300   1.447  0.00  0.00     0.053 C 
ATOM      9  C   UNL d   1       2.977   0.049   1.070  0.00  0.00     0.018 C 
ENDBRANCH   1   8
TORSDOF 1
ENDMDL
