MODEL 1
REMARK minimizedAffinity 8.2236414
REMARK minimizedRMSD -1
REMARK  1 active torsions:
REMARK  status: ('A' for Active; 'I' for Inactive)
REMARK    1  A    between atoms: C1_2  and  C2_3 
ROOT
ATOM      1  C2  UNL d   1      -4.070  -0.518  -2.737  0.00  0.00    -0.076 A 
ATOM      2  C3  UNL d   1      -3.410   0.572  -3.329  0.00  0.00     0.004 A 
ATOM      3  C4  UNL d   1      -3.704   1.881  -2.951  0.00  0.00    -0.003 A 
ATOM      4  C5  UNL d   1      -4.664   2.120  -1.973  0.00  0.00     0.000 A 
ATOM      5  C6  UNL d   1      -5.317   1.050  -1.363  0.00  0.00     0.000 A 
ATOM      6  C7  UNL d   1      -5.020  -0.276  -1.721  0.00  0.00    -0.073 A 
ATOM      7  C8  UNL d   1      -5.759  -1.392  -1.035  0.00  0.00     0.078 C 
ENDROOT
BRANCH   1   8
ATOM      8  C1  UNL d   1      -3.729  -1.914  -3.208  0.00  0.00     0.053 C 
ATOM      9  C   UNL d   1      -4.358  -2.246  -4.552  0.00  0.00     0.018 C 
ENDBRANCH   1   8
TORSDOF 1
ENDMDL
