MODEL 1
REMARK minimizedAffinity 13.9523296
REMARK minimizedRMSD -1
REMARK  1 active torsions:
REMARK  status: ('A' for Active; 'I' for Inactive)
REMARK    1  A    between atoms: C1_2  and  C2_3 
ROOT
ATOM      1  C2  UNL d   1       1.585  -0.050   2.579  0.00  0.00    -0.076 A 
ATOM      2  C3  UNL d   1       0.851  -0.518   3.682  0.00  0.00     0.004 A 
ATOM      3  C4  UNL d   1       0.546  -1.871   3.820  0.00  0.00    -0.003 A 
ATOM      4  C5  UNL d   1       0.970  -2.779   2.857  0.00  0.00     0.000 A 
ATOM      5  C6  UNL d   1       1.715  -2.335   1.764  0.00  0.00     0.000 A 
ATOM      6  C7  UNL d   1       2.045  -0.977   1.619  0.00  0.00    -0.073 A 
ATOM      7  C8  UNL d   1       2.846  -0.553   0.418  0.00  0.00     0.078 C 
ENDROOT
BRANCH   1   8
ATOM      8  C1  UNL d   1       1.863   1.432   2.469  0.00  0.00     0.053 C 
ATOM      9  C   UNL d   1       1.317   2.216   3.652  0.00  0.00     0.018 C 
ENDBRANCH   1   8
TORSDOF 1
ENDMDL
