MODEL 1
REMARK minimizedAffinity 9.50784588
REMARK minimizedRMSD -1
REMARK  1 active torsions:
REMARK  status: ('A' for Active; 'I' for Inactive)
REMARK    1  A    between atoms: C1_2  and  C2_3 
ROOT
ATOM      1  C2  UNL d   1      -5.492  -3.495  -5.410  0.00  0.00    -0.076 A 
ATOM      2  C3  UNL d   1      -5.933  -4.694  -5.996  0.00  0.00     0.004 A 
ATOM      3  C4  UNL d   1      -5.504  -5.929  -5.513  0.00  0.00    -0.003 A 
ATOM      4  C5  UNL d   1      -4.628  -5.985  -4.435  0.00  0.00     0.000 A 
ATOM      5  C6  UNL d   1      -4.194  -4.806  -3.830  0.00  0.00     0.000 A 
ATOM      6  C7  UNL d   1      -4.630  -3.553  -4.294  0.00  0.00    -0.073 A 
ATOM      7  C8  UNL d   1      -4.125  -2.313  -3.607  0.00  0.00     0.078 C 
ENDROOT
BRANCH   1   8
ATOM      8  C1  UNL d   1      -5.970  -2.184  -5.994  0.00  0.00     0.053 C 
ATOM      9  C   UNL d   1      -5.537  -0.985  -5.165  0.00  0.00     0.018 C 
ENDBRANCH   1   8
TORSDOF 1
ENDMDL
