MODEL 1
REMARK minimizedAffinity 13.3658113
REMARK minimizedRMSD -1
REMARK  1 active torsions:
REMARK  status: ('A' for Active; 'I' for Inactive)
REMARK    1  A    between atoms: C1_2  and  C2_3 
ROOT
ATOM      1  C2  UNL d   1       1.839  -2.169   1.299  0.00  0.00    -0.076 A 
ATOM      2  C3  UNL d   1       2.298  -1.230   0.360  0.00  0.00     0.004 A 
ATOM      3  C4  UNL d   1       2.169   0.139   0.592  0.00  0.00    -0.003 A 
ATOM      4  C5  UNL d   1       1.579   0.590   1.767  0.00  0.00     0.000 A 
ATOM      5  C6  UNL d   1       1.134  -0.328   2.718  0.00  0.00     0.000 A 
ATOM      6  C7  UNL d   1       1.271  -1.711   2.507  0.00  0.00    -0.073 A 
ATOM      7  C8  UNL d   1       0.767  -2.655   3.563  0.00  0.00     0.078 C 
ENDROOT
BRANCH   1   8
ATOM      8  C1  UNL d   1       1.981  -3.640   0.981  0.00  0.00     0.053 C 
ATOM      9  C   UNL d   1       1.640  -3.959  -0.466  0.00  0.00     0.018 C 
ENDBRANCH   1   8
TORSDOF 1
ENDMDL
