MODEL 1
REMARK minimizedAffinity 9.56694889
REMARK minimizedRMSD -1
REMARK  1 active torsions:
REMARK  status: ('A' for Active; 'I' for Inactive)
REMARK    1  A    between atoms: C1_2  and  C2_3 
ROOT
ATOM      1  C2  UNL d   1      -2.556   2.891   0.824  0.00  0.00    -0.076 A 
ATOM      2  C3  UNL d   1      -3.466   3.019   1.888  0.00  0.00     0.004 A 
ATOM      3  C4  UNL d   1      -4.707   3.627   1.702  0.00  0.00    -0.003 A 
ATOM      4  C5  UNL d   1      -5.058   4.116   0.449  0.00  0.00     0.000 A 
ATOM      5  C6  UNL d   1      -4.175   3.981  -0.622  0.00  0.00     0.000 A 
ATOM      6  C7  UNL d   1      -2.927   3.357  -0.455  0.00  0.00    -0.073 A 
ATOM      7  C8  UNL d   1      -2.012   3.244  -1.644  0.00  0.00     0.078 C 
ENDROOT
BRANCH   1   8
ATOM      8  C1  UNL d   1      -1.215   2.248   1.092  0.00  0.00     0.053 C 
ATOM      9  C   UNL d   1      -0.468   2.913   2.238  0.00  0.00     0.018 C 
ENDBRANCH   1   8
TORSDOF 1
ENDMDL
