MODEL 1
REMARK minimizedAffinity 19.8617916
REMARK minimizedRMSD -1
REMARK  0 active torsions:
REMARK  status: ('A' for Active; 'I' for Inactive)
ROOT
ATOM      1  C   UNL d   1       2.666  -1.457  -2.561  0.00  0.00     0.124 A 
ATOM      2  C1  UNL d   1       2.960  -1.474  -1.205  0.00  0.00     0.062 A 
ATOM      3  C2  UNL d   1       1.946  -1.663  -0.271  0.00  0.00     0.162 A 
ATOM      4  C3  UNL d   1       0.627  -1.837  -0.690  0.00  0.00    -0.034 A 
ATOM      5  C4  UNL d   1       0.339  -1.818  -2.056  0.00  0.00     0.162 A 
ATOM      6  C5  UNL d   1       1.356  -1.629  -2.985  0.00  0.00     0.062 A 
ATOM      7  F   UNL d   1       1.070  -1.613  -4.295  0.00  0.00    -0.097 F 
ATOM      8  F1  UNL d   1      -0.919  -1.982  -2.493  0.00  0.00    -0.096 F 
ATOM      9  I   UNL d   1      -0.893  -2.119   0.703  0.00  0.00    -0.060 I 
ATOM     10  F2  UNL d   1       2.259  -1.675   1.033  0.00  0.00    -0.096 F 
ATOM     11  F3  UNL d   1       4.225  -1.308  -0.792  0.00  0.00    -0.097 F 
ATOM     12  F4  UNL d   1       3.644  -1.275  -3.458  0.00  0.00    -0.092 F 
ENDROOT
TORSDOF 0
ENDMDL
