MODEL 1
REMARK minimizedAffinity 17.5322666
REMARK minimizedRMSD -1
REMARK  0 active torsions:
REMARK  status: ('A' for Active; 'I' for Inactive)
ROOT
ATOM      1  C   UNL d   1       3.418   4.648  -0.916  0.00  0.00     0.124 A 
ATOM      2  C1  UNL d   1       2.315   5.106  -1.622  0.00  0.00     0.062 A 
ATOM      3  C2  UNL d   1       2.446   5.493  -2.953  0.00  0.00     0.162 A 
ATOM      4  C3  UNL d   1       3.687   5.422  -3.586  0.00  0.00    -0.034 A 
ATOM      5  C4  UNL d   1       4.793   4.962  -2.869  0.00  0.00     0.162 A 
ATOM      6  C5  UNL d   1       4.656   4.576  -1.540  0.00  0.00     0.062 A 
ATOM      7  F   UNL d   1       5.723   4.134  -0.859  0.00  0.00    -0.097 F 
ATOM      8  F1  UNL d   1       6.000   4.881  -3.448  0.00  0.00    -0.096 F 
ATOM      9  I   UNL d   1       3.888   6.000  -5.576  0.00  0.00    -0.060 I 
ATOM     10  F2  UNL d   1       1.363   5.931  -3.611  0.00  0.00    -0.096 F 
ATOM     11  F3  UNL d   1       1.118   5.177  -1.021  0.00  0.00    -0.097 F 
ATOM     12  F4  UNL d   1       3.289   4.278   0.365  0.00  0.00    -0.092 F 
ENDROOT
TORSDOF 0
ENDMDL
