MODEL 1
REMARK minimizedAffinity 6.57442617
REMARK minimizedRMSD -1
REMARK  0 active torsions:
REMARK  status: ('A' for Active; 'I' for Inactive)
ROOT
ATOM      1  C   UNL d   1      -0.292  -3.356  -3.117  0.00  0.00     0.124 A 
ATOM      2  C1  UNL d   1      -0.283  -4.508  -3.891  0.00  0.00     0.062 A 
ATOM      3  C2  UNL d   1      -1.419  -4.881  -4.604  0.00  0.00     0.162 A 
ATOM      4  C3  UNL d   1      -2.573  -4.100  -4.548  0.00  0.00    -0.034 A 
ATOM      5  C4  UNL d   1      -2.575  -2.943  -3.767  0.00  0.00     0.162 A 
ATOM      6  C5  UNL d   1      -1.437  -2.574  -3.056  0.00  0.00     0.062 A 
ATOM      7  F   UNL d   1      -1.447  -1.461  -2.309  0.00  0.00    -0.097 F 
ATOM      8  F1  UNL d   1      -3.667  -2.169  -3.690  0.00  0.00    -0.096 F 
ATOM      9  I   UNL d   1      -4.274  -4.653  -5.612  0.00  0.00    -0.060 I 
ATOM     10  F2  UNL d   1      -1.383  -5.999  -5.344  0.00  0.00    -0.096 F 
ATOM     11  F3  UNL d   1       0.821  -5.266  -3.951  0.00  0.00    -0.097 F 
ATOM     12  F4  UNL d   1       0.802  -3.000  -2.431  0.00  0.00    -0.092 F 
ENDROOT
TORSDOF 0
ENDMDL
