MODEL 1
REMARK minimizedAffinity 7.43797207
REMARK minimizedRMSD -1
REMARK  0 active torsions:
REMARK  status: ('A' for Active; 'I' for Inactive)
ROOT
ATOM      1  C   UNL d   1       2.974   3.973  -2.358  0.00  0.00     0.124 A 
ATOM      2  C1  UNL d   1       4.066   4.781  -2.070  0.00  0.00     0.062 A 
ATOM      3  C2  UNL d   1       4.931   5.176  -3.086  0.00  0.00     0.162 A 
ATOM      4  C3  UNL d   1       4.708   4.766  -4.400  0.00  0.00    -0.034 A 
ATOM      5  C4  UNL d   1       3.608   3.953  -4.682  0.00  0.00     0.162 A 
ATOM      6  C5  UNL d   1       2.746   3.560  -3.663  0.00  0.00     0.062 A 
ATOM      7  F   UNL d   1       1.692   2.780  -3.944  0.00  0.00    -0.097 F 
ATOM      8  F1  UNL d   1       3.364   3.540  -5.935  0.00  0.00    -0.096 F 
ATOM      9  I   UNL d   1       6.000   5.355  -5.922  0.00  0.00    -0.060 I 
ATOM     10  F2  UNL d   1       5.978   5.956  -2.779  0.00  0.00    -0.096 F 
ATOM     11  F3  UNL d   1       4.288   5.180  -0.810  0.00  0.00    -0.097 F 
ATOM     12  F4  UNL d   1       2.143   3.593  -1.379  0.00  0.00    -0.092 F 
ENDROOT
TORSDOF 0
ENDMDL
