MODEL 1
REMARK minimizedAffinity 18.0408993
REMARK minimizedRMSD -1
REMARK  0 active torsions:
REMARK  status: ('A' for Active; 'I' for Inactive)
ROOT
ATOM      1  C   UNL d   1       3.643   5.850  -4.569  0.00  0.00     0.124 A 
ATOM      2  C1  UNL d   1       2.401   5.918  -3.953  0.00  0.00     0.062 A 
ATOM      3  C2  UNL d   1       2.307   5.908  -2.564  0.00  0.00     0.162 A 
ATOM      4  C3  UNL d   1       3.458   5.829  -1.781  0.00  0.00    -0.034 A 
ATOM      5  C4  UNL d   1       4.704   5.760  -2.408  0.00  0.00     0.162 A 
ATOM      6  C5  UNL d   1       4.793   5.771  -3.796  0.00  0.00     0.062 A 
ATOM      7  F   UNL d   1       5.994   5.705  -4.389  0.00  0.00    -0.097 F 
ATOM      8  F1  UNL d   1       5.831   5.684  -1.685  0.00  0.00    -0.096 F 
ATOM      9  I   UNL d   1       3.321   5.813   0.295  0.00  0.00    -0.060 I 
ATOM     10  F2  UNL d   1       1.093   5.975  -1.997  0.00  0.00    -0.096 F 
ATOM     11  F3  UNL d   1       1.289   5.994  -4.698  0.00  0.00    -0.097 F 
ATOM     12  F4  UNL d   1       3.731   5.859  -5.905  0.00  0.00    -0.092 F 
ENDROOT
TORSDOF 0
ENDMDL
