MODEL 1
REMARK minimizedAffinity 18.5836563
REMARK minimizedRMSD -1
REMARK  0 active torsions:
REMARK  status: ('A' for Active; 'I' for Inactive)
ROOT
ATOM      1  C   UNL d   1       4.537   5.158  -3.462  0.00  0.00     0.124 A 
ATOM      2  C1  UNL d   1       4.754   4.677  -2.178  0.00  0.00     0.062 A 
ATOM      3  C2  UNL d   1       3.686   4.524  -1.299  0.00  0.00     0.162 A 
ATOM      4  C3  UNL d   1       2.391   4.851  -1.700  0.00  0.00    -0.034 A 
ATOM      5  C4  UNL d   1       2.180   5.334  -2.993  0.00  0.00     0.162 A 
ATOM      6  C5  UNL d   1       3.251   5.486  -3.868  0.00  0.00     0.062 A 
ATOM      7  F   UNL d   1       3.039   5.950  -5.108  0.00  0.00    -0.097 F 
ATOM      8  F1  UNL d   1       0.948   5.658  -3.412  0.00  0.00    -0.096 F 
ATOM      9  I   UNL d   1       0.791   4.623  -0.388  0.00  0.00    -0.060 I 
ATOM     10  F2  UNL d   1       3.925   4.057  -0.064  0.00  0.00    -0.096 F 
ATOM     11  F3  UNL d   1       5.995   4.361  -1.783  0.00  0.00    -0.097 F 
ATOM     12  F4  UNL d   1       5.566   5.305  -4.306  0.00  0.00    -0.092 F 
ENDROOT
TORSDOF 0
ENDMDL
