MODEL 1
REMARK minimizedAffinity 20.0191479
REMARK minimizedRMSD -1
REMARK  0 active torsions:
REMARK  status: ('A' for Active; 'I' for Inactive)
ROOT
ATOM      1  C   UNL d   1       4.861   4.898  -4.002  0.00  0.00     0.124 A 
ATOM      2  C1  UNL d   1       3.682   5.402  -4.535  0.00  0.00     0.062 A 
ATOM      3  C2  UNL d   1       2.504   5.358  -3.795  0.00  0.00     0.162 A 
ATOM      4  C3  UNL d   1       2.499   4.808  -2.513  0.00  0.00    -0.034 A 
ATOM      5  C4  UNL d   1       3.688   4.302  -1.984  0.00  0.00     0.162 A 
ATOM      6  C5  UNL d   1       4.862   4.348  -2.728  0.00  0.00     0.062 A 
ATOM      7  F   UNL d   1       6.000   3.861  -2.211  0.00  0.00    -0.097 F 
ATOM      8  F1  UNL d   1       3.718   3.766  -0.755  0.00  0.00    -0.096 F 
ATOM      9  I   UNL d   1       0.740   4.740  -1.403  0.00  0.00    -0.060 I 
ATOM     10  F2  UNL d   1       1.380   5.852  -4.334  0.00  0.00    -0.096 F 
ATOM     11  F3  UNL d   1       3.678   5.932  -5.766  0.00  0.00    -0.097 F 
ATOM     12  F4  UNL d   1       5.992   4.941  -4.717  0.00  0.00    -0.092 F 
ENDROOT
TORSDOF 0
ENDMDL
