MODEL 1
REMARK minimizedAffinity 16.2582016
REMARK minimizedRMSD -1
REMARK  0 active torsions:
REMARK  status: ('A' for Active; 'I' for Inactive)
ROOT
ATOM      1  C   UNL d   1       0.015  -1.313  -3.740  0.00  0.00     0.124 A 
ATOM      2  C1  UNL d   1      -0.112  -1.649  -2.399  0.00  0.00     0.062 A 
ATOM      3  C2  UNL d   1      -0.151  -2.986  -2.013  0.00  0.00     0.162 A 
ATOM      4  C3  UNL d   1      -0.061  -3.998  -2.969  0.00  0.00    -0.034 A 
ATOM      5  C4  UNL d   1       0.066  -3.652  -4.316  0.00  0.00     0.162 A 
ATOM      6  C5  UNL d   1       0.104  -2.315  -4.697  0.00  0.00     0.062 A 
ATOM      7  F   UNL d   1       0.228  -1.992  -5.992  0.00  0.00    -0.097 F 
ATOM      8  F1  UNL d   1       0.156  -4.599  -5.261  0.00  0.00    -0.096 F 
ATOM      9  I   UNL d   1      -0.118  -5.997  -2.396  0.00  0.00    -0.060 I 
ATOM     10  F2  UNL d   1      -0.275  -3.281  -0.710  0.00  0.00    -0.096 F 
ATOM     11  F3  UNL d   1      -0.200  -0.684  -1.473  0.00  0.00    -0.097 F 
ATOM     12  F4  UNL d   1       0.051  -0.026  -4.109  0.00  0.00    -0.092 F 
ENDROOT
TORSDOF 0
ENDMDL
