MODEL 1
REMARK minimizedAffinity 5.20516777
REMARK minimizedRMSD -1
REMARK  0 active torsions:
REMARK  status: ('A' for Active; 'I' for Inactive)
ROOT
ATOM      1  C   UNL d   1       2.878   4.296  -2.238  0.00  0.00     0.124 A 
ATOM      2  C1  UNL d   1       2.632   3.633  -3.433  0.00  0.00     0.062 A 
ATOM      3  C2  UNL d   1       3.521   3.753  -4.496  0.00  0.00     0.162 A 
ATOM      4  C3  UNL d   1       4.667   4.538  -4.370  0.00  0.00    -0.034 A 
ATOM      5  C4  UNL d   1       4.908   5.203  -3.166  0.00  0.00     0.162 A 
ATOM      6  C5  UNL d   1       4.016   5.080  -2.106  0.00  0.00     0.062 A 
ATOM      7  F   UNL d   1       4.256   5.721  -0.953  0.00  0.00    -0.097 F 
ATOM      8  F1  UNL d   1       6.000   5.966  -3.011  0.00  0.00    -0.096 F 
ATOM      9  I   UNL d   1       6.000   4.720  -5.958  0.00  0.00    -0.060 I 
ATOM     10  F2  UNL d   1       3.258   3.101  -5.639  0.00  0.00    -0.096 F 
ATOM     11  F3  UNL d   1       1.533   2.876  -3.563  0.00  0.00    -0.097 F 
ATOM     12  F4  UNL d   1       2.020   4.180  -1.217  0.00  0.00    -0.092 F 
ENDROOT
TORSDOF 0
ENDMDL
