MODEL 1
REMARK minimizedAffinity 12.0907249
REMARK minimizedRMSD -1
REMARK  0 active torsions:
REMARK  status: ('A' for Active; 'I' for Inactive)
ROOT
ATOM      1  C   UNL d   1       2.738   4.548  -2.285  0.00  0.00     0.124 A 
ATOM      2  C1  UNL d   1       3.927   5.250  -2.148  0.00  0.00     0.062 A 
ATOM      3  C2  UNL d   1       4.858   5.260  -3.182  0.00  0.00     0.162 A 
ATOM      4  C3  UNL d   1       4.603   4.565  -4.365  0.00  0.00    -0.034 A 
ATOM      5  C4  UNL d   1       3.405   3.860  -4.495  0.00  0.00     0.162 A 
ATOM      6  C5  UNL d   1       2.478   3.853  -3.458  0.00  0.00     0.062 A 
ATOM      7  F   UNL d   1       1.330   3.174  -3.593  0.00  0.00    -0.097 F 
ATOM      8  F1  UNL d   1       3.129   3.181  -5.618  0.00  0.00    -0.096 F 
ATOM      9  I   UNL d   1       5.992   4.578  -5.914  0.00  0.00    -0.060 I 
ATOM     10  F2  UNL d   1       5.998   5.948  -3.022  0.00  0.00    -0.096 F 
ATOM     11  F3  UNL d   1       4.181   5.921  -1.015  0.00  0.00    -0.097 F 
ATOM     12  F4  UNL d   1       1.845   4.539  -1.287  0.00  0.00    -0.092 F 
ENDROOT
TORSDOF 0
ENDMDL
