MODEL 1
REMARK minimizedAffinity 12.2329645
REMARK minimizedRMSD -1
REMARK  0 active torsions:
REMARK  status: ('A' for Active; 'I' for Inactive)
ROOT
ATOM      1  C   UNL d   1       2.480   5.284  -2.315  0.00  0.00     0.124 A 
ATOM      2  C1  UNL d   1       3.776   4.903  -1.999  0.00  0.00     0.062 A 
ATOM      3  C2  UNL d   1       4.755   4.862  -2.988  0.00  0.00     0.162 A 
ATOM      4  C3  UNL d   1       4.441   5.205  -4.303  0.00  0.00    -0.034 A 
ATOM      5  C4  UNL d   1       3.134   5.587  -4.614  0.00  0.00     0.162 A 
ATOM      6  C5  UNL d   1       2.160   5.626  -3.622  0.00  0.00     0.062 A 
ATOM      7  F   UNL d   1       0.908   5.995  -3.929  0.00  0.00    -0.097 F 
ATOM      8  F1  UNL d   1       2.798   5.923  -5.868  0.00  0.00    -0.096 F 
ATOM      9  I   UNL d   1       5.901   5.146  -5.785  0.00  0.00    -0.060 I 
ATOM     10  F2  UNL d   1       5.999   4.490  -2.654  0.00  0.00    -0.096 F 
ATOM     11  F3  UNL d   1       4.087   4.571  -0.738  0.00  0.00    -0.097 F 
ATOM     12  F4  UNL d   1       1.540   5.322  -1.362  0.00  0.00    -0.092 F 
ENDROOT
TORSDOF 0
ENDMDL
