MODEL 1
REMARK minimizedAffinity 12.7939777
REMARK minimizedRMSD -1
REMARK  0 active torsions:
REMARK  status: ('A' for Active; 'I' for Inactive)
ROOT
ATOM      1  C   UNL d   1      -1.426  -2.661   0.729  0.00  0.00     0.124 A 
ATOM      2  C1  UNL d   1      -0.118  -2.950   0.363  0.00  0.00     0.062 A 
ATOM      3  C2  UNL d   1       0.275  -2.847  -0.968  0.00  0.00     0.162 A 
ATOM      4  C3  UNL d   1      -0.640  -2.452  -1.944  0.00  0.00    -0.034 A 
ATOM      5  C4  UNL d   1      -1.953  -2.163  -1.569  0.00  0.00     0.162 A 
ATOM      6  C5  UNL d   1      -2.342  -2.268  -0.237  0.00  0.00     0.062 A 
ATOM      7  F   UNL d   1      -3.605  -1.988   0.114  0.00  0.00    -0.097 F 
ATOM      8  F1  UNL d   1      -2.858  -1.781  -2.481  0.00  0.00    -0.096 F 
ATOM      9  I   UNL d   1      -0.055  -2.297  -3.935  0.00  0.00    -0.060 I 
ATOM     10  F2  UNL d   1       1.545  -3.133  -1.292  0.00  0.00    -0.096 F 
ATOM     11  F3  UNL d   1       0.768  -3.331   1.294  0.00  0.00    -0.097 F 
ATOM     12  F4  UNL d   1      -1.802  -2.761   2.010  0.00  0.00    -0.092 F 
ENDROOT
TORSDOF 0
ENDMDL
