MODEL 1
REMARK minimizedAffinity 7.97670984
REMARK minimizedRMSD -1
REMARK  0 active torsions:
REMARK  status: ('A' for Active; 'I' for Inactive)
ROOT
ATOM      1  C   UNL d   1       2.706   4.234  -2.151  0.00  0.00     0.124 A 
ATOM      2  C1  UNL d   1       2.524   3.698  -3.418  0.00  0.00     0.062 A 
ATOM      3  C2  UNL d   1       3.462   3.934  -4.419  0.00  0.00     0.162 A 
ATOM      4  C3  UNL d   1       4.591   4.710  -4.156  0.00  0.00    -0.034 A 
ATOM      5  C4  UNL d   1       4.766   5.247  -2.879  0.00  0.00     0.162 A 
ATOM      6  C5  UNL d   1       3.826   5.008  -1.882  0.00  0.00     0.062 A 
ATOM      7  F   UNL d   1       4.003   5.526  -0.658  0.00  0.00    -0.097 F 
ATOM      8  F1  UNL d   1       5.840   5.997  -2.592  0.00  0.00    -0.096 F 
ATOM      9  I   UNL d   1       5.996   5.066  -5.650  0.00  0.00    -0.060 I 
ATOM     10  F2  UNL d   1       3.262   3.404  -5.634  0.00  0.00    -0.096 F 
ATOM     11  F3  UNL d   1       1.442   2.951  -3.680  0.00  0.00    -0.097 F 
ATOM     12  F4  UNL d   1       1.801   4.006  -1.190  0.00  0.00    -0.092 F 
ENDROOT
TORSDOF 0
ENDMDL
