MODEL 1
REMARK minimizedAffinity 11.6380196
REMARK minimizedRMSD -1
REMARK  0 active torsions:
REMARK  status: ('A' for Active; 'I' for Inactive)
ROOT
ATOM      1  C   UNL d   1       2.455   4.959  -2.151  0.00  0.00     0.124 A 
ATOM      2  C1  UNL d   1       2.055   5.417  -3.399  0.00  0.00     0.062 A 
ATOM      3  C2  UNL d   1       2.985   5.549  -4.426  0.00  0.00     0.162 A 
ATOM      4  C3  UNL d   1       4.323   5.222  -4.211  0.00  0.00    -0.034 A 
ATOM      5  C4  UNL d   1       4.718   4.763  -2.953  0.00  0.00     0.162 A 
ATOM      6  C5  UNL d   1       3.786   4.633  -1.929  0.00  0.00     0.062 A 
ATOM      7  F   UNL d   1       4.174   4.190  -0.724  0.00  0.00    -0.097 F 
ATOM      8  F1  UNL d   1       5.997   4.440  -2.712  0.00  0.00    -0.096 F 
ATOM      9  I   UNL d   1       5.716   5.418  -5.745  0.00  0.00    -0.060 I 
ATOM     10  F2  UNL d   1       2.570   5.994  -5.622  0.00  0.00    -0.096 F 
ATOM     11  F3  UNL d   1       0.771   5.734  -3.615  0.00  0.00    -0.097 F 
ATOM     12  F4  UNL d   1       1.559   4.834  -1.163  0.00  0.00    -0.092 F 
ENDROOT
TORSDOF 0
ENDMDL
