MODEL 1
REMARK minimizedAffinity 16.0632324
REMARK minimizedRMSD -1
REMARK  0 active torsions:
REMARK  status: ('A' for Active; 'I' for Inactive)
ROOT
ATOM      1  C   UNL d   1       0.290  -2.798  -2.141  0.00  0.00     0.124 A 
ATOM      2  C1  UNL d   1      -0.472  -1.963  -2.945  0.00  0.00     0.062 A 
ATOM      3  C2  UNL d   1      -1.173  -2.483  -4.029  0.00  0.00     0.162 A 
ATOM      4  C3  UNL d   1      -1.115  -3.847  -4.315  0.00  0.00    -0.034 A 
ATOM      5  C4  UNL d   1      -0.345  -4.681  -3.503  0.00  0.00     0.162 A 
ATOM      6  C5  UNL d   1       0.353  -4.156  -2.420  0.00  0.00     0.062 A 
ATOM      7  F   UNL d   1       1.089  -4.965  -1.644  0.00  0.00    -0.097 F 
ATOM      8  F1  UNL d   1      -0.268  -5.997  -3.749  0.00  0.00    -0.096 F 
ATOM      9  I   UNL d   1      -2.161  -4.629  -5.936  0.00  0.00    -0.060 I 
ATOM     10  F2  UNL d   1      -1.902  -1.653  -4.790  0.00  0.00    -0.096 F 
ATOM     11  F3  UNL d   1      -0.534  -0.650  -2.678  0.00  0.00    -0.097 F 
ATOM     12  F4  UNL d   1       0.964  -2.295  -1.098  0.00  0.00    -0.092 F 
ENDROOT
TORSDOF 0
ENDMDL
