MODEL 1
REMARK minimizedAffinity 11.1395874
REMARK minimizedRMSD -1
REMARK  0 active torsions:
REMARK  status: ('A' for Active; 'I' for Inactive)
ROOT
ATOM      1  C   UNL d   1      -0.136  -2.252  -1.697  0.00  0.00     0.124 A 
ATOM      2  C1  UNL d   1      -0.686  -1.975  -2.941  0.00  0.00     0.062 A 
ATOM      3  C2  UNL d   1      -0.984  -3.011  -3.821  0.00  0.00     0.162 A 
ATOM      4  C3  UNL d   1      -0.733  -4.335  -3.461  0.00  0.00    -0.034 A 
ATOM      5  C4  UNL d   1      -0.178  -4.605  -2.208  0.00  0.00     0.162 A 
ATOM      6  C5  UNL d   1       0.117  -3.566  -1.332  0.00  0.00     0.062 A 
ATOM      7  F   UNL d   1       0.649  -3.836  -0.131  0.00  0.00    -0.097 F 
ATOM      8  F1  UNL d   1       0.076  -5.867  -1.829  0.00  0.00    -0.096 F 
ATOM      9  I   UNL d   1      -1.176  -5.887  -4.774  0.00  0.00    -0.060 I 
ATOM     10  F2  UNL d   1      -1.515  -2.714  -5.017  0.00  0.00    -0.096 F 
ATOM     11  F3  UNL d   1      -0.931  -0.705  -3.297  0.00  0.00    -0.097 F 
ATOM     12  F4  UNL d   1       0.150  -1.252  -0.853  0.00  0.00    -0.092 F 
ENDROOT
TORSDOF 0
ENDMDL
