MODEL 1
REMARK minimizedAffinity 19.8867931
REMARK minimizedRMSD -1
REMARK  0 active torsions:
REMARK  status: ('A' for Active; 'I' for Inactive)
ROOT
ATOM      1  C1  DEN d   1      -4.173   0.241   2.722  0.00  0.00     0.130 A 
ATOM      2  C2  DEN d   1      -3.326  -0.765   3.357  0.00  0.00    -0.031 A 
ATOM      3  C3  DEN d   1      -3.099  -0.353   4.757  0.00  0.00     0.027 A 
ATOM      4  C4  DEN d   1      -3.976   1.731   5.998  0.00  0.00     0.027 A 
ATOM      5  C5  DEN d   1      -4.723   2.881   5.871  0.00  0.00    -0.003 A 
ATOM      6  C6  DEN d   1      -5.306   3.246   4.687  0.00  0.00     0.001 A 
ATOM      7  C7  DEN d   1      -5.189   2.430   3.593  0.00  0.00     0.017 A 
ATOM      8  C8  DEN d   1      -4.431   1.273   3.711  0.00  0.00    -0.094 A 
ATOM      9  C9  DEN d   1      -3.860   0.915   4.920  0.00  0.00    -0.072 A 
ENDROOT
TORSDOF 0
ENDMDL
