MODEL 1
REMARK minimizedAffinity 9.43367195
REMARK minimizedRMSD -1
REMARK  0 active torsions:
REMARK  status: ('A' for Active; 'I' for Inactive)
ROOT
ATOM      1  C1  DEN d   1      -4.698   0.214   2.924  0.00  0.00     0.130 A 
ATOM      2  C2  DEN d   1      -3.671  -0.717   3.382  0.00  0.00    -0.031 A 
ATOM      3  C3  DEN d   1      -3.144  -0.219   4.669  0.00  0.00     0.027 A 
ATOM      4  C4  DEN d   1      -3.819   1.890   5.992  0.00  0.00     0.027 A 
ATOM      5  C5  DEN d   1      -4.638   2.997   5.997  0.00  0.00    -0.003 A 
ATOM      6  C6  DEN d   1      -5.504   3.270   4.971  0.00  0.00     0.001 A 
ATOM      7  C7  DEN d   1      -5.602   2.401   3.917  0.00  0.00     0.017 A 
ATOM      8  C8  DEN d   1      -4.774   1.286   3.901  0.00  0.00    -0.094 A 
ATOM      9  C9  DEN d   1      -3.915   1.021   4.953  0.00  0.00    -0.072 A 
ENDROOT
TORSDOF 0
ENDMDL
