MODEL 1
REMARK minimizedAffinity 23.853199
REMARK minimizedRMSD -1
REMARK  0 active torsions:
REMARK  status: ('A' for Active; 'I' for Inactive)
ROOT
ATOM      1  C1  DEN d   1       1.271  -1.142  -2.227  0.00  0.00     0.130 A 
ATOM      2  C2  DEN d   1       1.222  -2.272  -1.302  0.00  0.00    -0.031 A 
ATOM      3  C3  DEN d   1       2.067  -1.944  -0.136  0.00  0.00     0.027 A 
ATOM      4  C4  DEN d   1       3.435   0.193   0.327  0.00  0.00     0.027 A 
ATOM      5  C5  DEN d   1       3.796   1.424  -0.172  0.00  0.00    -0.003 A 
ATOM      6  C6  DEN d   1       3.372   1.869  -1.396  0.00  0.00     0.001 A 
ATOM      7  C7  DEN d   1       2.525   1.095  -2.143  0.00  0.00     0.017 A 
ATOM      8  C8  DEN d   1       2.162  -0.152  -1.650  0.00  0.00    -0.094 A 
ATOM      9  C9  DEN d   1       2.591  -0.578  -0.405  0.00  0.00    -0.072 A 
ENDROOT
TORSDOF 0
ENDMDL
