MODEL 1
REMARK minimizedAffinity 12.353879
REMARK minimizedRMSD -1
REMARK  0 active torsions:
REMARK  status: ('A' for Active; 'I' for Inactive)
ROOT
ATOM      1  C1  DEN d   1      -0.293  -0.334   2.290  0.00  0.00     0.130 A 
ATOM      2  C2  DEN d   1       0.315   0.962   2.578  0.00  0.00    -0.031 A 
ATOM      3  C3  DEN d   1      -0.750   1.872   3.045  0.00  0.00     0.027 A 
ATOM      4  C4  DEN d   1      -3.267   1.401   3.354  0.00  0.00     0.027 A 
ATOM      5  C5  DEN d   1      -4.255   0.449   3.228  0.00  0.00    -0.003 A 
ATOM      6  C6  DEN d   1      -3.999  -0.809   2.752  0.00  0.00     0.001 A 
ATOM      7  C7  DEN d   1      -2.717  -1.165   2.427  0.00  0.00     0.017 A 
ATOM      8  C8  DEN d   1      -1.717  -0.209   2.545  0.00  0.00    -0.094 A 
ATOM      9  C9  DEN d   1      -1.993   1.055   3.039  0.00  0.00    -0.072 A 
ENDROOT
TORSDOF 0
ENDMDL
