MODEL 1
REMARK minimizedAffinity 17.663908
REMARK minimizedRMSD -1
REMARK  0 active torsions:
REMARK  status: ('A' for Active; 'I' for Inactive)
ROOT
ATOM      1  C1  DEN d   1      -3.043   0.028   1.365  0.00  0.00     0.130 A 
ATOM      2  C2  DEN d   1      -2.396   0.608   2.538  0.00  0.00    -0.031 A 
ATOM      3  C3  DEN d   1      -3.092   0.106   3.739  0.00  0.00     0.027 A 
ATOM      4  C4  DEN d   1      -5.097  -1.509   3.896  0.00  0.00     0.027 A 
ATOM      5  C5  DEN d   1      -5.995  -2.257   3.168  0.00  0.00    -0.003 A 
ATOM      6  C6  DEN d   1      -5.995  -2.269   1.798  0.00  0.00     0.001 A 
ATOM      7  C7  DEN d   1      -5.048  -1.554   1.114  0.00  0.00     0.017 A 
ATOM      8  C8  DEN d   1      -4.143  -0.791   1.841  0.00  0.00    -0.094 A 
ATOM      9  C9  DEN d   1      -4.152  -0.802   3.225  0.00  0.00    -0.072 A 
ENDROOT
TORSDOF 0
ENDMDL
