MODEL 1
REMARK minimizedAffinity 13.7257242
REMARK minimizedRMSD -1
REMARK  0 active torsions:
REMARK  status: ('A' for Active; 'I' for Inactive)
ROOT
ATOM      1  C1  DEN d   1      -4.131  -1.016   1.914  0.00  0.00     0.130 A 
ATOM      2  C2  DEN d   1      -3.819   0.363   1.550  0.00  0.00    -0.031 A 
ATOM      3  C3  DEN d   1      -3.423   1.081   2.778  0.00  0.00     0.027 A 
ATOM      4  C4  DEN d   1      -3.259   0.194   5.195  0.00  0.00     0.027 A 
ATOM      5  C5  DEN d   1      -3.435  -0.910   6.000  0.00  0.00    -0.003 A 
ATOM      6  C6  DEN d   1      -3.885  -2.107   5.509  0.00  0.00     0.001 A 
ATOM      7  C7  DEN d   1      -4.130  -2.242   4.168  0.00  0.00     0.017 A 
ATOM      8  C8  DEN d   1      -3.962  -1.132   3.351  0.00  0.00    -0.094 A 
ATOM      9  C9  DEN d   1      -3.495   0.067   3.864  0.00  0.00    -0.072 A 
ENDROOT
TORSDOF 0
ENDMDL
