MODEL 1
REMARK minimizedAffinity 8.54242611
REMARK minimizedRMSD -1
REMARK  0 active torsions:
REMARK  status: ('A' for Active; 'I' for Inactive)
ROOT
ATOM      1  C1  DEN d   1      -4.654  -5.969  -5.986  0.00  0.00     0.130 A 
ATOM      2  C2  DEN d   1      -5.997  -5.525  -5.625  0.00  0.00    -0.031 A 
ATOM      3  C3  DEN d   1      -5.916  -4.105  -5.227  0.00  0.00     0.027 A 
ATOM      4  C4  DEN d   1      -3.854  -2.559  -5.140  0.00  0.00     0.027 A 
ATOM      5  C5  DEN d   1      -2.493  -2.489  -5.343  0.00  0.00    -0.003 A 
ATOM      6  C6  DEN d   1      -1.758  -3.575  -5.739  0.00  0.00     0.001 A 
ATOM      7  C7  DEN d   1      -2.387  -4.767  -5.988  0.00  0.00     0.017 A 
ATOM      8  C8  DEN d   1      -3.757  -4.846  -5.778  0.00  0.00    -0.094 A 
ATOM      9  C9  DEN d   1      -4.485  -3.734  -5.389  0.00  0.00    -0.072 A 
ENDROOT
TORSDOF 0
ENDMDL
