MODEL 1
REMARK minimizedAffinity 3.51871586
REMARK minimizedRMSD -1
REMARK  0 active torsions:
REMARK  status: ('A' for Active; 'I' for Inactive)
ROOT
ATOM      1  C1  DEN d   1       2.168  -4.440  -0.509  0.00  0.00     0.130 A 
ATOM      2  C2  DEN d   1       2.885  -5.690  -0.270  0.00  0.00    -0.031 A 
ATOM      3  C3  DEN d   1       3.758  -5.945  -1.432  0.00  0.00     0.027 A 
ATOM      4  C4  DEN d   1       4.074  -4.530  -3.566  0.00  0.00     0.027 A 
ATOM      5  C5  DEN d   1       3.672  -3.391  -4.227  0.00  0.00    -0.003 A 
ATOM      6  C6  DEN d   1       2.723  -2.546  -3.715  0.00  0.00     0.001 A 
ATOM      7  C7  DEN d   1       2.177  -2.804  -2.485  0.00  0.00     0.017 A 
ATOM      8  C8  DEN d   1       2.572  -3.955  -1.816  0.00  0.00    -0.094 A 
ATOM      9  C9  DEN d   1       3.541  -4.790  -2.345  0.00  0.00    -0.072 A 
ENDROOT
TORSDOF 0
ENDMDL
