MODEL 1
REMARK minimizedAffinity 8.12756824
REMARK minimizedRMSD -1
REMARK  0 active torsions:
REMARK  status: ('A' for Active; 'I' for Inactive)
ROOT
ATOM      1  C1  DEN d   1       4.313  -0.142   0.410  0.00  0.00     0.130 A 
ATOM      2  C2  DEN d   1       4.297   1.249  -0.037  0.00  0.00    -0.031 A 
ATOM      3  C3  DEN d   1       3.309   1.366  -1.128  0.00  0.00     0.027 A 
ATOM      4  C4  DEN d   1       1.807  -0.459  -2.160  0.00  0.00     0.027 A 
ATOM      5  C5  DEN d   1       1.474  -1.795  -2.119  0.00  0.00    -0.003 A 
ATOM      6  C6  DEN d   1       2.083  -2.673  -1.262  0.00  0.00     0.001 A 
ATOM      7  C7  DEN d   1       3.026  -2.216  -0.380  0.00  0.00     0.017 A 
ATOM      8  C8  DEN d   1       3.372  -0.872  -0.420  0.00  0.00    -0.094 A 
ATOM      9  C9  DEN d   1       2.736   0.002  -1.285  0.00  0.00    -0.072 A 
ENDROOT
TORSDOF 0
ENDMDL
