MODEL 1
REMARK minimizedAffinity 5.65594339
REMARK minimizedRMSD -1
REMARK  0 active torsions:
REMARK  status: ('A' for Active; 'I' for Inactive)
ROOT
ATOM      1  C1  DEN d   1       1.125  -3.803  -1.829  0.00  0.00     0.130 A 
ATOM      2  C2  DEN d   1       0.215  -2.969  -2.609  0.00  0.00    -0.031 A 
ATOM      3  C3  DEN d   1       0.646  -1.564  -2.465  0.00  0.00     0.027 A 
ATOM      4  C4  DEN d   1       2.626  -0.604  -1.119  0.00  0.00     0.027 A 
ATOM      5  C5  DEN d   1       3.676  -0.922  -0.286  0.00  0.00    -0.003 A 
ATOM      6  C6  DEN d   1       3.926  -2.207   0.116  0.00  0.00     0.001 A 
ATOM      7  C7  DEN d   1       3.143  -3.229  -0.352  0.00  0.00     0.017 A 
ATOM      8  C8  DEN d   1       2.079  -2.916  -1.187  0.00  0.00    -0.094 A 
ATOM      9  C9  DEN d   1       1.849  -1.612  -1.592  0.00  0.00    -0.072 A 
ENDROOT
TORSDOF 0
ENDMDL
