MODEL 1
REMARK minimizedAffinity 10.1543369
REMARK minimizedRMSD -1
REMARK  0 active torsions:
REMARK  status: ('A' for Active; 'I' for Inactive)
ROOT
ATOM      1  C1  DEN d   1       1.113  -2.529  -3.954  0.00  0.00     0.130 A 
ATOM      2  C2  DEN d   1       1.034  -3.976  -3.778  0.00  0.00    -0.031 A 
ATOM      3  C3  DEN d   1       1.570  -4.304  -2.442  0.00  0.00     0.027 A 
ATOM      4  C4  DEN d   1       2.506  -2.717  -0.636  0.00  0.00     0.027 A 
ATOM      5  C5  DEN d   1       2.788  -1.404  -0.332  0.00  0.00    -0.003 A 
ATOM      6  C6  DEN d   1       2.564  -0.385  -1.220  0.00  0.00     0.001 A 
ATOM      7  C7  DEN d   1       2.002  -0.658  -2.439  0.00  0.00     0.017 A 
ATOM      8  C8  DEN d   1       1.722  -1.981  -2.755  0.00  0.00    -0.094 A 
ATOM      9  C9  DEN d   1       1.944  -2.996  -1.839  0.00  0.00    -0.072 A 
ENDROOT
TORSDOF 0
ENDMDL
