MODEL 1
REMARK minimizedAffinity 5.56496572
REMARK minimizedRMSD -1
REMARK  0 active torsions:
REMARK  status: ('A' for Active; 'I' for Inactive)
ROOT
ATOM      1  C1  DEN d   1       2.643  -0.408  -0.463  0.00  0.00     0.130 A 
ATOM      2  C2  DEN d   1       2.655   0.545  -1.569  0.00  0.00    -0.031 A 
ATOM      3  C3  DEN d   1       2.289  -0.181  -2.802  0.00  0.00     0.027 A 
ATOM      4  C4  DEN d   1       1.704  -2.674  -3.104  0.00  0.00     0.027 A 
ATOM      5  C5  DEN d   1       1.571  -3.882  -2.456  0.00  0.00    -0.003 A 
ATOM      6  C6  DEN d   1       1.817  -4.023  -1.115  0.00  0.00     0.001 A 
ATOM      7  C7  DEN d   1       2.165  -2.928  -0.371  0.00  0.00     0.017 A 
ATOM      8  C8  DEN d   1       2.309  -1.708  -1.018  0.00  0.00    -0.094 A 
ATOM      9  C9  DEN d   1       2.044  -1.583  -2.372  0.00  0.00    -0.072 A 
ENDROOT
TORSDOF 0
ENDMDL
