MODEL 1
REMARK minimizedAffinity 7.64045811
REMARK minimizedRMSD -1
REMARK  0 active torsions:
REMARK  status: ('A' for Active; 'I' for Inactive)
ROOT
ATOM      1  C1  DEN d   1       1.581  -0.257  -2.646  0.00  0.00     0.130 A 
ATOM      2  C2  DEN d   1       2.058   0.546  -1.524  0.00  0.00    -0.031 A 
ATOM      3  C3  DEN d   1       2.451  -0.375  -0.438  0.00  0.00     0.027 A 
ATOM      4  C4  DEN d   1       2.371  -2.952  -0.388  0.00  0.00     0.027 A 
ATOM      5  C5  DEN d   1       2.030  -4.079  -1.103  0.00  0.00    -0.003 A 
ATOM      6  C6  DEN d   1       1.488  -4.010  -2.359  0.00  0.00     0.001 A 
ATOM      7  C7  DEN d   1       1.313  -2.790  -2.957  0.00  0.00     0.017 A 
ATOM      8  C8  DEN d   1       1.648  -1.649  -2.239  0.00  0.00    -0.094 A 
ATOM      9  C9  DEN d   1       2.206  -1.740  -0.975  0.00  0.00    -0.072 A 
ENDROOT
TORSDOF 0
ENDMDL
