MODEL 1
REMARK minimizedAffinity 13.3142548
REMARK minimizedRMSD -1
REMARK  0 active torsions:
REMARK  status: ('A' for Active; 'I' for Inactive)
ROOT
ATOM      1  C1  DEN d   1      -3.057  -0.306   3.514  0.00  0.00     0.130 A 
ATOM      2  C2  DEN d   1      -2.355  -0.288   4.794  0.00  0.00    -0.031 A 
ATOM      3  C3  DEN d   1      -1.490   0.908   4.824  0.00  0.00     0.027 A 
ATOM      4  C4  DEN d   1      -1.176   2.729   3.024  0.00  0.00     0.027 A 
ATOM      5  C5  DEN d   1      -1.552   3.137   1.763  0.00  0.00    -0.003 A 
ATOM      6  C6  DEN d   1      -2.422   2.414   0.990  0.00  0.00     0.001 A 
ATOM      7  C7  DEN d   1      -2.981   1.268   1.489  0.00  0.00     0.017 A 
ATOM      8  C8  DEN d   1      -2.602   0.846   2.757  0.00  0.00    -0.094 A 
ATOM      9  C9  DEN d   1      -1.730   1.596   3.527  0.00  0.00    -0.072 A 
ENDROOT
TORSDOF 0
ENDMDL
