MODEL 1
REMARK minimizedAffinity -3.83464551
REMARK minimizedRMSD -1
REMARK  0 active torsions:
REMARK  status: ('A' for Active; 'I' for Inactive)
ROOT
ATOM      1  C   UNL d   1      -1.876  -5.997  -5.626  0.00  0.00     0.078 C 
ATOM      2  C1  UNL d   1      -2.928  -5.004  -5.234  0.00  0.00    -0.077 A 
ATOM      3  C2  UNL d   1      -4.217  -5.421  -4.878  0.00  0.00    -0.001 A 
ATOM      4  C3  UNL d   1      -5.189  -4.484  -4.525  0.00  0.00     0.003 A 
ATOM      5  C4  UNL d   1      -4.884  -3.124  -4.525  0.00  0.00    -0.005 A 
ATOM      6  C5  UNL d   1      -3.605  -2.700  -4.880  0.00  0.00     0.003 A 
ATOM      7  C6  UNL d   1      -2.631  -3.635  -5.233  0.00  0.00    -0.001 A 
ENDROOT
TORSDOF 0
ENDMDL
