MODEL 1
REMARK minimizedAffinity -3.6470952
REMARK minimizedRMSD -1
REMARK  0 active torsions:
REMARK  status: ('A' for Active; 'I' for Inactive)
ROOT
ATOM      1  C   UNL d   1      -1.864  -5.266  -5.245  0.00  0.00     0.078 C 
ATOM      2  C1  UNL d   1      -3.301  -4.878  -5.063  0.00  0.00    -0.077 A 
ATOM      3  C2  UNL d   1      -4.272  -5.250  -6.000  0.00  0.00    -0.001 A 
ATOM      4  C3  UNL d   1      -5.605  -4.874  -5.823  0.00  0.00     0.003 A 
ATOM      5  C4  UNL d   1      -5.977  -4.123  -4.709  0.00  0.00    -0.005 A 
ATOM      6  C5  UNL d   1      -5.017  -3.746  -3.773  0.00  0.00     0.003 A 
ATOM      7  C6  UNL d   1      -3.684  -4.122  -3.948  0.00  0.00    -0.001 A 
ENDROOT
TORSDOF 0
ENDMDL
