MODEL 1
REMARK minimizedAffinity -3.82381105
REMARK minimizedRMSD -1
REMARK  0 active torsions:
REMARK  status: ('A' for Active; 'I' for Inactive)
ROOT
ATOM      1  C   UNL d   1      -1.709  -4.750  -5.611  0.00  0.00     0.078 C 
ATOM      2  C1  UNL d   1      -3.168  -4.662  -5.279  0.00  0.00    -0.077 A 
ATOM      3  C2  UNL d   1      -3.858  -5.766  -4.763  0.00  0.00    -0.001 A 
ATOM      4  C3  UNL d   1      -5.219  -5.673  -4.467  0.00  0.00     0.003 A 
ATOM      5  C4  UNL d   1      -5.902  -4.478  -4.686  0.00  0.00    -0.005 A 
ATOM      6  C5  UNL d   1      -5.225  -3.375  -5.202  0.00  0.00     0.003 A 
ATOM      7  C6  UNL d   1      -3.864  -3.467  -5.498  0.00  0.00    -0.001 A 
ENDROOT
TORSDOF 0
ENDMDL
