MODEL 1
REMARK minimizedAffinity -4.0038023
REMARK minimizedRMSD -1
REMARK  0 active torsions:
REMARK  status: ('A' for Active; 'I' for Inactive)
ROOT
ATOM      1  C   UNL d   1      -2.299  -5.032  -5.204  0.00  0.00     0.078 C 
ATOM      2  C1  UNL d   1      -3.553  -4.317  -4.800  0.00  0.00    -0.077 A 
ATOM      3  C2  UNL d   1      -4.761  -5.009  -4.646  0.00  0.00    -0.001 A 
ATOM      4  C3  UNL d   1      -5.923  -4.329  -4.279  0.00  0.00     0.003 A 
ATOM      5  C4  UNL d   1      -5.890  -2.953  -4.065  0.00  0.00    -0.005 A 
ATOM      6  C5  UNL d   1      -4.694  -2.254  -4.218  0.00  0.00     0.003 A 
ATOM      7  C6  UNL d   1      -3.530  -2.933  -4.584  0.00  0.00    -0.001 A 
ENDROOT
TORSDOF 0
ENDMDL
