MODEL 1
REMARK minimizedAffinity -3.3809588
REMARK minimizedRMSD -1
REMARK  0 active torsions:
REMARK  status: ('A' for Active; 'I' for Inactive)
ROOT
ATOM      1  C   UNL d   1      -3.884  -6.000  -4.851  0.00  0.00     0.078 C 
ATOM      2  C1  UNL d   1      -4.239  -4.555  -5.035  0.00  0.00    -0.077 A 
ATOM      3  C2  UNL d   1      -5.390  -4.014  -4.449  0.00  0.00    -0.001 A 
ATOM      4  C3  UNL d   1      -5.713  -2.670  -4.637  0.00  0.00     0.003 A 
ATOM      5  C4  UNL d   1      -4.891  -1.854  -5.411  0.00  0.00    -0.005 A 
ATOM      6  C5  UNL d   1      -3.744  -2.383  -6.000  0.00  0.00     0.003 A 
ATOM      7  C6  UNL d   1      -3.420  -3.727  -5.813  0.00  0.00    -0.001 A 
ENDROOT
TORSDOF 0
ENDMDL
