MODEL 1
REMARK minimizedAffinity -3.41474319
REMARK minimizedRMSD -1
REMARK  0 active torsions:
REMARK  status: ('A' for Active; 'I' for Inactive)
ROOT
ATOM      1  C   UNL d   1      -5.978  -1.590  -5.140  0.00  0.00     0.078 C 
ATOM      2  C1  UNL d   1      -5.471  -2.996  -5.015  0.00  0.00    -0.077 A 
ATOM      3  C2  UNL d   1      -5.981  -3.863  -4.042  0.00  0.00    -0.001 A 
ATOM      4  C3  UNL d   1      -5.493  -5.166  -3.932  0.00  0.00     0.003 A 
ATOM      5  C4  UNL d   1      -4.491  -5.613  -4.791  0.00  0.00    -0.005 A 
ATOM      6  C5  UNL d   1      -3.975  -4.756  -5.761  0.00  0.00     0.003 A 
ATOM      7  C6  UNL d   1      -4.462  -3.453  -5.873  0.00  0.00    -0.001 A 
ENDROOT
TORSDOF 0
ENDMDL
