MODEL 1
REMARK minimizedAffinity -3.25790024
REMARK minimizedRMSD -1
REMARK  0 active torsions:
REMARK  status: ('A' for Active; 'I' for Inactive)
ROOT
ATOM      1  C   UNL d   1      -5.632  -1.590  -5.068  0.00  0.00     0.078 C 
ATOM      2  C1  UNL d   1      -5.065  -2.967  -5.252  0.00  0.00    -0.077 A 
ATOM      3  C2  UNL d   1      -3.747  -3.260  -4.882  0.00  0.00    -0.001 A 
ATOM      4  C3  UNL d   1      -3.231  -4.543  -5.068  0.00  0.00     0.003 A 
ATOM      5  C4  UNL d   1      -4.024  -5.543  -5.626  0.00  0.00    -0.005 A 
ATOM      6  C5  UNL d   1      -5.336  -5.260  -6.000  0.00  0.00     0.003 A 
ATOM      7  C6  UNL d   1      -5.855  -3.978  -5.815  0.00  0.00    -0.001 A 
ENDROOT
TORSDOF 0
ENDMDL
