MODEL 1
REMARK minimizedAffinity -2.68810678
REMARK minimizedRMSD -1
REMARK  0 active torsions:
REMARK  status: ('A' for Active; 'I' for Inactive)
ROOT
ATOM      1  C   UNL d   1      -5.987  -1.510  -5.331  0.00  0.00     0.078 C 
ATOM      2  C1  UNL d   1      -5.395  -2.887  -5.288  0.00  0.00    -0.077 A 
ATOM      3  C2  UNL d   1      -4.231  -3.149  -4.554  0.00  0.00    -0.001 A 
ATOM      4  C3  UNL d   1      -3.685  -4.434  -4.532  0.00  0.00     0.003 A 
ATOM      5  C4  UNL d   1      -4.296  -5.466  -5.241  0.00  0.00    -0.005 A 
ATOM      6  C5  UNL d   1      -5.453  -5.214  -5.975  0.00  0.00     0.003 A 
ATOM      7  C6  UNL d   1      -6.000  -3.931  -6.000  0.00  0.00    -0.001 A 
ENDROOT
TORSDOF 0
ENDMDL
