MODEL 1
REMARK minimizedAffinity -3.70588613
REMARK minimizedRMSD -1
REMARK  0 active torsions:
REMARK  status: ('A' for Active; 'I' for Inactive)
ROOT
ATOM      1  C   UNL d   1      -5.999  -5.964  -5.956  0.00  0.00     0.078 C 
ATOM      2  C1  UNL d   1      -5.186  -4.720  -5.753  0.00  0.00    -0.077 A 
ATOM      3  C2  UNL d   1      -3.803  -4.787  -5.545  0.00  0.00    -0.001 A 
ATOM      4  C3  UNL d   1      -3.061  -3.622  -5.348  0.00  0.00     0.003 A 
ATOM      5  C4  UNL d   1      -3.694  -2.380  -5.356  0.00  0.00    -0.005 A 
ATOM      6  C5  UNL d   1      -5.070  -2.303  -5.559  0.00  0.00     0.003 A 
ATOM      7  C6  UNL d   1      -5.814  -3.468  -5.757  0.00  0.00    -0.001 A 
ENDROOT
TORSDOF 0
ENDMDL
