MODEL 1
REMARK minimizedAffinity -4.05887079
REMARK minimizedRMSD -1
REMARK  0 active torsions:
REMARK  status: ('A' for Active; 'I' for Inactive)
ROOT
ATOM      1  C   UNL d   1      -1.662  -4.869  -5.312  0.00  0.00     0.078 C 
ATOM      2  C1  UNL d   1      -3.010  -4.212  -5.271  0.00  0.00    -0.077 A 
ATOM      3  C2  UNL d   1      -4.057  -4.762  -4.521  0.00  0.00    -0.001 A 
ATOM      4  C3  UNL d   1      -5.310  -4.146  -4.500  0.00  0.00     0.003 A 
ATOM      5  C4  UNL d   1      -5.527  -2.977  -5.227  0.00  0.00    -0.005 A 
ATOM      6  C5  UNL d   1      -4.491  -2.424  -5.977  0.00  0.00     0.003 A 
ATOM      7  C6  UNL d   1      -3.239  -3.039  -6.000  0.00  0.00    -0.001 A 
ENDROOT
TORSDOF 0
ENDMDL
