MODEL 1
REMARK minimizedAffinity -3.39728451
REMARK minimizedRMSD -1
REMARK  0 active torsions:
REMARK  status: ('A' for Active; 'I' for Inactive)
ROOT
ATOM      1  C   UNL d   1      -5.999  -2.647  -5.290  0.00  0.00     0.078 C 
ATOM      2  C1  UNL d   1      -4.928  -3.695  -5.334  0.00  0.00    -0.077 A 
ATOM      3  C2  UNL d   1      -5.222  -5.010  -5.715  0.00  0.00    -0.001 A 
ATOM      4  C3  UNL d   1      -4.217  -5.979  -5.743  0.00  0.00     0.003 A 
ATOM      5  C4  UNL d   1      -2.912  -5.643  -5.389  0.00  0.00    -0.005 A 
ATOM      6  C5  UNL d   1      -2.610  -4.337  -5.006  0.00  0.00     0.003 A 
ATOM      7  C6  UNL d   1      -3.614  -3.368  -4.978  0.00  0.00    -0.001 A 
ENDROOT
TORSDOF 0
ENDMDL
