MODEL 1
REMARK minimizedAffinity -3.26083183
REMARK minimizedRMSD -1
REMARK  0 active torsions:
REMARK  status: ('A' for Active; 'I' for Inactive)
ROOT
ATOM      1  C   UNL d   1      -5.984  -4.224  -3.475  0.00  0.00     0.078 C 
ATOM      2  C1  UNL d   1      -4.772  -4.189  -4.357  0.00  0.00    -0.077 A 
ATOM      3  C2  UNL d   1      -3.877  -5.265  -4.395  0.00  0.00    -0.001 A 
ATOM      4  C3  UNL d   1      -2.748  -5.215  -5.214  0.00  0.00     0.003 A 
ATOM      5  C4  UNL d   1      -2.502  -4.091  -6.000  0.00  0.00    -0.005 A 
ATOM      6  C5  UNL d   1      -3.386  -3.014  -5.967  0.00  0.00     0.003 A 
ATOM      7  C6  UNL d   1      -4.516  -3.063  -5.149  0.00  0.00    -0.001 A 
ENDROOT
TORSDOF 0
ENDMDL
