MODEL 1
REMARK minimizedAffinity -3.39218688
REMARK minimizedRMSD -1
REMARK  0 active torsions:
REMARK  status: ('A' for Active; 'I' for Inactive)
ROOT
ATOM      1  C   UNL d   1      -5.999  -2.579  -3.127  0.00  0.00     0.078 C 
ATOM      2  C1  UNL d   1      -5.235  -3.389  -4.132  0.00  0.00    -0.077 A 
ATOM      3  C2  UNL d   1      -5.900  -4.183  -5.074  0.00  0.00    -0.001 A 
ATOM      4  C3  UNL d   1      -5.176  -4.939  -5.997  0.00  0.00     0.003 A 
ATOM      5  C4  UNL d   1      -3.783  -4.909  -5.986  0.00  0.00    -0.005 A 
ATOM      6  C5  UNL d   1      -3.113  -4.123  -5.051  0.00  0.00     0.003 A 
ATOM      7  C6  UNL d   1      -3.835  -3.366  -4.128  0.00  0.00    -0.001 A 
ENDROOT
TORSDOF 0
ENDMDL
