MODEL 1
REMARK minimizedAffinity -3.82241201
REMARK minimizedRMSD -1
REMARK  0 active torsions:
REMARK  status: ('A' for Active; 'I' for Inactive)
ROOT
ATOM      1  C   UNL d   1      -1.316  -5.459  -6.000  0.00  0.00     0.078 C 
ATOM      2  C1  UNL d   1      -2.699  -5.057  -5.582  0.00  0.00    -0.077 A 
ATOM      3  C2  UNL d   1      -2.974  -3.751  -5.160  0.00  0.00    -0.001 A 
ATOM      4  C3  UNL d   1      -4.264  -3.393  -4.765  0.00  0.00     0.003 A 
ATOM      5  C4  UNL d   1      -5.289  -4.337  -4.787  0.00  0.00    -0.005 A 
ATOM      6  C5  UNL d   1      -5.025  -5.640  -5.204  0.00  0.00     0.003 A 
ATOM      7  C6  UNL d   1      -3.736  -5.999  -5.600  0.00  0.00    -0.001 A 
ENDROOT
TORSDOF 0
ENDMDL
