MODEL 1
REMARK minimizedAffinity -2.87896013
REMARK minimizedRMSD -1
REMARK  0 active torsions:
REMARK  status: ('A' for Active; 'I' for Inactive)
ROOT
ATOM      1  C   UNL d   1      -1.819  -5.328  -5.969  0.00  0.00     0.078 C 
ATOM      2  C1  UNL d   1      -3.274  -4.982  -5.865  0.00  0.00    -0.077 A 
ATOM      3  C2  UNL d   1      -3.712  -3.658  -5.998  0.00  0.00    -0.001 A 
ATOM      4  C3  UNL d   1      -5.068  -3.349  -5.889  0.00  0.00     0.003 A 
ATOM      5  C4  UNL d   1      -5.998  -4.357  -5.645  0.00  0.00    -0.005 A 
ATOM      6  C5  UNL d   1      -5.572  -5.677  -5.509  0.00  0.00     0.003 A 
ATOM      7  C6  UNL d   1      -4.216  -5.988  -5.618  0.00  0.00    -0.001 A 
ENDROOT
TORSDOF 0
ENDMDL
