MODEL 1
REMARK minimizedAffinity -1.52302361
REMARK minimizedRMSD -1
REMARK  0 active torsions:
REMARK  status: ('A' for Active; 'I' for Inactive)
ROOT
ATOM      1  C1  BNZ d   1      -3.738  -0.771  -5.542  0.00  0.00     0.000 A 
ATOM      2  C2  BNZ d   1      -2.371  -0.692  -5.536  0.00  0.00     0.000 A 
ATOM      3  C3  BNZ d   1      -1.605  -1.796  -5.785  0.00  0.00     0.000 A 
ATOM      4  C4  BNZ d   1      -2.205  -2.985  -6.000  0.00  0.00     0.000 A 
ATOM      5  C5  BNZ d   1      -3.583  -3.083  -6.000  0.00  0.00     0.000 A 
ATOM      6  C6  BNZ d   1      -4.351  -1.961  -5.787  0.00  0.00     0.000 A 
ENDROOT
TORSDOF 0
ENDMDL
