MODEL 1
REMARK minimizedAffinity 0.927414477
REMARK minimizedRMSD -1
REMARK  0 active torsions:
REMARK  status: ('A' for Active; 'I' for Inactive)
ROOT
ATOM      1  C1  BNZ d   1      -3.000  -3.093  -6.000  0.00  0.00     0.000 A 
ATOM      2  C2  BNZ d   1      -3.753  -1.963  -5.829  0.00  0.00     0.000 A 
ATOM      3  C3  BNZ d   1      -3.158  -0.743  -5.668  0.00  0.00     0.000 A 
ATOM      4  C4  BNZ d   1      -1.812  -0.661  -5.637  0.00  0.00     0.000 A 
ATOM      5  C5  BNZ d   1      -1.039  -1.793  -5.799  0.00  0.00     0.000 A 
ATOM      6  C6  BNZ d   1      -1.641  -3.014  -6.000  0.00  0.00     0.000 A 
ENDROOT
TORSDOF 0
ENDMDL
