MODEL 1
REMARK minimizedAffinity 3.22610283
REMARK minimizedRMSD -1
REMARK  0 active torsions:
REMARK  status: ('A' for Active; 'I' for Inactive)
ROOT
ATOM      1  C1  BNZ d   1      -1.923  -0.384  -5.270  0.00  0.00     0.000 A 
ATOM      2  C2  BNZ d   1      -3.007  -1.126  -5.655  0.00  0.00     0.000 A 
ATOM      3  C3  BNZ d   1      -2.869  -2.441  -6.000  0.00  0.00     0.000 A 
ATOM      4  C4  BNZ d   1      -1.642  -3.001  -5.999  0.00  0.00     0.000 A 
ATOM      5  C5  BNZ d   1      -0.537  -2.263  -5.623  0.00  0.00     0.000 A 
ATOM      6  C6  BNZ d   1      -0.686  -0.950  -5.239  0.00  0.00     0.000 A 
ENDROOT
TORSDOF 0
ENDMDL
