MODEL 1
REMARK minimizedAffinity 2.30426216
REMARK minimizedRMSD -1
REMARK  0 active torsions:
REMARK  status: ('A' for Active; 'I' for Inactive)
ROOT
ATOM      1  C1  BNZ d   1      -4.240   2.143   1.629  0.00  0.00     0.000 A 
ATOM      2  C2  BNZ d   1      -3.543   1.144   1.003  0.00  0.00     0.000 A 
ATOM      3  C3  BNZ d   1      -3.412  -0.087   1.583  0.00  0.00     0.000 A 
ATOM      4  C4  BNZ d   1      -3.942  -0.305   2.803  0.00  0.00     0.000 A 
ATOM      5  C5  BNZ d   1      -4.640   0.695   3.451  0.00  0.00     0.000 A 
ATOM      6  C6  BNZ d   1      -4.803   1.921   2.848  0.00  0.00     0.000 A 
ENDROOT
TORSDOF 0
ENDMDL
