MODEL 1
REMARK minimizedAffinity 6.30716658
REMARK minimizedRMSD -1
REMARK  0 active torsions:
REMARK  status: ('A' for Active; 'I' for Inactive)
ROOT
ATOM      1  C1  BNZ d   1      -5.035   3.992   4.053  0.00  0.00     0.000 A 
ATOM      2  C2  BNZ d   1      -5.995   4.009   5.029  0.00  0.00     0.000 A 
ATOM      3  C3  BNZ d   1      -5.998   4.981   5.991  0.00  0.00     0.000 A 
ATOM      4  C4  BNZ d   1      -5.020   5.909   5.999  0.00  0.00     0.000 A 
ATOM      5  C5  BNZ d   1      -4.040   5.900   5.026  0.00  0.00     0.000 A 
ATOM      6  C6  BNZ d   1      -4.062   4.944   4.037  0.00  0.00     0.000 A 
ENDROOT
TORSDOF 0
ENDMDL
