MODEL 1
REMARK minimizedAffinity -1.53975093
REMARK minimizedRMSD -1
REMARK  0 active torsions:
REMARK  status: ('A' for Active; 'I' for Inactive)
ROOT
ATOM      1  C1  BNZ d   1      -4.159  -3.060  -5.957  0.00  0.00     0.000 A 
ATOM      2  C2  BNZ d   1      -4.099  -1.692  -5.948  0.00  0.00     0.000 A 
ATOM      3  C3  BNZ d   1      -2.897  -1.043  -5.990  0.00  0.00     0.000 A 
ATOM      4  C4  BNZ d   1      -1.756  -1.762  -6.000  0.00  0.00     0.000 A 
ATOM      5  C5  BNZ d   1      -1.799  -3.142  -6.000  0.00  0.00     0.000 A 
ATOM      6  C6  BNZ d   1      -3.012  -3.792  -5.997  0.00  0.00     0.000 A 
ENDROOT
TORSDOF 0
ENDMDL
