MODEL 1
REMARK minimizedAffinity -0.198189676
REMARK minimizedRMSD -1
REMARK  0 active torsions:
REMARK  status: ('A' for Active; 'I' for Inactive)
ROOT
ATOM      1  C1  BNZ d   1      -3.343  -2.321  -6.000  0.00  0.00     0.000 A 
ATOM      2  C2  BNZ d   1      -3.721  -1.005  -6.000  0.00  0.00     0.000 A 
ATOM      3  C3  BNZ d   1      -5.042  -0.656  -5.975  0.00  0.00     0.000 A 
ATOM      4  C4  BNZ d   1      -5.983  -1.622  -5.990  0.00  0.00     0.000 A 
ATOM      5  C5  BNZ d   1      -5.619  -2.953  -6.000  0.00  0.00     0.000 A 
ATOM      6  C6  BNZ d   1      -4.287  -3.301  -5.986  0.00  0.00     0.000 A 
ENDROOT
TORSDOF 0
ENDMDL
