MODEL 1
REMARK minimizedAffinity 0.205291808
REMARK minimizedRMSD -1
REMARK  0 active torsions:
REMARK  status: ('A' for Active; 'I' for Inactive)
ROOT
ATOM      1  C1  BNZ d   1      -5.933   3.402   3.640  0.00  0.00     0.000 A 
ATOM      2  C2  BNZ d   1      -5.940   4.771   3.598  0.00  0.00     0.000 A 
ATOM      3  C3  BNZ d   1      -5.951   5.507   4.750  0.00  0.00     0.000 A 
ATOM      4  C4  BNZ d   1      -5.996   4.874   5.940  0.00  0.00     0.000 A 
ATOM      5  C5  BNZ d   1      -6.000   3.495   5.999  0.00  0.00     0.000 A 
ATOM      6  C6  BNZ d   1      -5.949   2.757   4.839  0.00  0.00     0.000 A 
ENDROOT
TORSDOF 0
ENDMDL
