MODEL 1
REMARK minimizedAffinity -1.60936284
REMARK minimizedRMSD -1
REMARK  0 active torsions:
REMARK  status: ('A' for Active; 'I' for Inactive)
ROOT
ATOM      1  C1  BNZ d   1      -2.653  -0.484  -5.999  0.00  0.00     0.000 A 
ATOM      2  C2  BNZ d   1      -3.987  -0.796  -6.000  0.00  0.00     0.000 A 
ATOM      3  C3  BNZ d   1      -4.401  -2.098  -5.976  0.00  0.00     0.000 A 
ATOM      4  C4  BNZ d   1      -3.483  -3.086  -5.991  0.00  0.00     0.000 A 
ATOM      5  C5  BNZ d   1      -2.135  -2.788  -6.000  0.00  0.00     0.000 A 
ATOM      6  C6  BNZ d   1      -1.722  -1.476  -5.985  0.00  0.00     0.000 A 
ENDROOT
TORSDOF 0
ENDMDL
