MODEL 1
REMARK minimizedAffinity -1.00390959
REMARK minimizedRMSD -1
REMARK  0 active torsions:
REMARK  status: ('A' for Active; 'I' for Inactive)
ROOT
ATOM      1  C1  BNZ d   1      -5.619   4.069   3.837  0.00  0.00     0.000 A 
ATOM      2  C2  BNZ d   1      -5.981   4.083   5.158  0.00  0.00     0.000 A 
ATOM      3  C3  BNZ d   1      -5.525   5.061   5.997  0.00  0.00     0.000 A 
ATOM      4  C4  BNZ d   1      -4.678   5.999   5.526  0.00  0.00     0.000 A 
ATOM      5  C5  BNZ d   1      -4.297   5.992   4.199  0.00  0.00     0.000 A 
ATOM      6  C6  BNZ d   1      -4.788   5.029   3.348  0.00  0.00     0.000 A 
ENDROOT
TORSDOF 0
ENDMDL
