MODEL 1
REMARK minimizedAffinity -0.272753149
REMARK minimizedRMSD -1
REMARK  0 active torsions:
REMARK  status: ('A' for Active; 'I' for Inactive)
ROOT
ATOM      1  C1  BNZ d   1       5.679  -2.355   3.657  0.00  0.00     0.000 A 
ATOM      2  C2  BNZ d   1       5.840  -3.708   3.518  0.00  0.00     0.000 A 
ATOM      3  C3  BNZ d   1       5.980  -4.512   4.615  0.00  0.00     0.000 A 
ATOM      4  C4  BNZ d   1       6.000  -3.958   5.844  0.00  0.00     0.000 A 
ATOM      5  C5  BNZ d   1       5.849  -2.595   6.000  0.00  0.00     0.000 A 
ATOM      6  C6  BNZ d   1       5.669  -1.793   4.896  0.00  0.00     0.000 A 
ENDROOT
TORSDOF 0
ENDMDL
