MODEL 1
REMARK minimizedAffinity -0.534913659
REMARK minimizedRMSD -1
REMARK  0 active torsions:
REMARK  status: ('A' for Active; 'I' for Inactive)
ROOT
ATOM      1  C1  BNZ d   1      -3.131  -3.149  -5.999  0.00  0.00     0.000 A 
ATOM      2  C2  BNZ d   1      -4.416  -3.621  -5.995  0.00  0.00     0.000 A 
ATOM      3  C3  BNZ d   1      -5.479  -2.761  -5.991  0.00  0.00     0.000 A 
ATOM      4  C4  BNZ d   1      -5.255  -1.432  -5.951  0.00  0.00     0.000 A 
ATOM      5  C5  BNZ d   1      -3.965  -0.940  -5.945  0.00  0.00     0.000 A 
ATOM      6  C6  BNZ d   1      -2.898  -1.808  -5.989  0.00  0.00     0.000 A 
ENDROOT
TORSDOF 0
ENDMDL
