MODEL 1
REMARK minimizedAffinity -3.35896325
REMARK minimizedRMSD -1
REMARK  2 active torsions:
REMARK  status: ('A' for Active; 'I' for Inactive)
REMARK    1  A    between atoms: C1_2  and  C2_3 
REMARK    2  A    between atoms: C2_3  and  C3_4 
ROOT
ATOM      1  C3  UNL d   1      -0.099  -0.290  -0.822  0.00  0.00    -0.075 A 
ATOM      2  C4  UNL d   1       0.879  -0.067   0.159  0.00  0.00     0.002 A 
ATOM      3  C5  UNL d   1       0.530   0.475   1.396  0.00  0.00     0.002 A 
ATOM      4  C6  UNL d   1      -0.796   0.810   1.665  0.00  0.00    -0.004 A 
ATOM      5  C7  UNL d   1      -1.772   0.608   0.692  0.00  0.00     0.002 A 
ATOM      6  C8  UNL d   1      -1.427   0.062  -0.546  0.00  0.00     0.002 A 
ENDROOT
BRANCH   1   7
ATOM      7  C2  UNL d   1       0.267  -0.903  -2.152  0.00  0.00     0.056 C 
BRANCH   7   8
ATOM      8  C1  UNL d   1       0.428   0.115  -3.286  0.00  0.00     0.007 C 
ATOM      9  C   UNL d   1       1.833   0.698  -3.375  0.00  0.00     0.009 C 
ENDBRANCH   7   8
ENDBRANCH   1   7
TORSDOF 2
ENDMDL
