MODEL 1
REMARK minimizedAffinity -6.23651934
REMARK minimizedRMSD -1
REMARK  2 active torsions:
REMARK  status: ('A' for Active; 'I' for Inactive)
REMARK    1  A    between atoms: C1_2  and  C2_3 
REMARK    2  A    between atoms: C2_3  and  C3_4 
ROOT
ATOM      1  C3  UNL d   1       0.352  -0.018   0.003  0.00  0.00    -0.075 A 
ATOM      2  C4  UNL d   1      -1.030   0.215  -0.052  0.00  0.00     0.002 A 
ATOM      3  C5  UNL d   1      -1.676   0.887   0.986  0.00  0.00     0.002 A 
ATOM      4  C6  UNL d   1      -0.954   1.324   2.093  0.00  0.00    -0.004 A 
ATOM      5  C7  UNL d   1       0.417   1.084   2.166  0.00  0.00     0.002 A 
ATOM      6  C8  UNL d   1       1.067   0.415   1.128  0.00  0.00     0.002 A 
ENDROOT
BRANCH   1   7
ATOM      7  C2  UNL d   1       1.063  -0.719  -1.130  0.00  0.00     0.056 C 
BRANCH   7   8
ATOM      8  C1  UNL d   1       0.766  -0.129  -2.512  0.00  0.00     0.007 C 
ATOM      9  C   UNL d   1       1.949   0.620  -3.112  0.00  0.00     0.009 C 
ENDBRANCH   7   8
ENDBRANCH   1   7
TORSDOF 2
ENDMDL
