MODEL 1
REMARK minimizedAffinity -1.76366818
REMARK minimizedRMSD -1
REMARK  2 active torsions:
REMARK  status: ('A' for Active; 'I' for Inactive)
REMARK    1  A    between atoms: C1_2  and  C2_3 
REMARK    2  A    between atoms: C2_3  and  C3_4 
ROOT
ATOM      1  C3  UNL d   1       0.767   0.179  -4.912  0.00  0.00    -0.075 A 
ATOM      2  C4  UNL d   1       2.079  -0.151  -5.284  0.00  0.00     0.002 A 
ATOM      3  C5  UNL d   1       3.166   0.365  -4.579  0.00  0.00     0.002 A 
ATOM      4  C6  UNL d   1       2.958   1.224  -3.502  0.00  0.00    -0.004 A 
ATOM      5  C7  UNL d   1       1.660   1.572  -3.134  0.00  0.00     0.002 A 
ATOM      6  C8  UNL d   1       0.570   1.054  -3.835  0.00  0.00     0.002 A 
ENDROOT
BRANCH   1   7
ATOM      7  C2  UNL d   1      -0.415  -0.399  -5.652  0.00  0.00     0.056 C 
BRANCH   7   8
ATOM      8  C1  UNL d   1      -0.800  -1.813  -5.205  0.00  0.00     0.007 C 
ATOM      9  C   UNL d   1      -1.991  -2.380  -5.966  0.00  0.00     0.009 C 
ENDBRANCH   7   8
ENDBRANCH   1   7
TORSDOF 2
ENDMDL
