MODEL 1
REMARK minimizedAffinity -5.80498314
REMARK minimizedRMSD -1
REMARK  2 active torsions:
REMARK  status: ('A' for Active; 'I' for Inactive)
REMARK    1  A    between atoms: C1_2  and  C2_3 
REMARK    2  A    between atoms: C2_3  and  C3_4 
ROOT
ATOM      1  C3  UNL d   1       0.179  -0.049  -0.070  0.00  0.00    -0.075 A 
ATOM      2  C4  UNL d   1       0.820   0.645   0.967  0.00  0.00     0.002 A 
ATOM      3  C5  UNL d   1       0.075   1.313   1.939  0.00  0.00     0.002 A 
ATOM      4  C6  UNL d   1      -1.317   1.305   1.881  0.00  0.00    -0.004 A 
ATOM      5  C7  UNL d   1      -1.964   0.633   0.846  0.00  0.00     0.002 A 
ATOM      6  C8  UNL d   1      -1.221  -0.040  -0.126  0.00  0.00     0.002 A 
ENDROOT
BRANCH   1   7
ATOM      7  C2  UNL d   1       0.980  -0.798  -1.108  0.00  0.00     0.056 C 
BRANCH   7   8
ATOM      8  C1  UNL d   1       0.663  -0.395  -2.552  0.00  0.00     0.007 C 
ATOM      9  C   UNL d   1       1.588   0.689  -3.089  0.00  0.00     0.009 C 
ENDBRANCH   7   8
ENDBRANCH   1   7
TORSDOF 2
ENDMDL
