MODEL 1
REMARK minimizedAffinity -5.04890251
REMARK minimizedRMSD -1
REMARK  0 active torsions:
REMARK  status: ('A' for Active; 'I' for Inactive)
ROOT
ATOM      1  C1  BNZ d   1      -1.436   3.155  -0.541  0.00  0.00     0.000 A 
ATOM      2  C2  BNZ d   1      -0.533   2.219  -0.971  0.00  0.00     0.000 A 
ATOM      3  C3  BNZ d   1      -0.363   1.046  -0.291  0.00  0.00     0.000 A 
ATOM      4  C4  BNZ d   1      -1.067   0.827   0.838  0.00  0.00     0.000 A 
ATOM      5  C5  BNZ d   1      -1.974   1.764   1.290  0.00  0.00     0.000 A 
ATOM      6  C6  BNZ d   1      -2.170   2.927   0.581  0.00  0.00     0.000 A 
ENDROOT
TORSDOF 0
ENDMDL
