MODEL 1
REMARK minimizedAffinity -4.88255692
REMARK minimizedRMSD -1
REMARK  0 active torsions:
REMARK  status: ('A' for Active; 'I' for Inactive)
ROOT
ATOM      1  C1  BNZ d   1      -2.035   2.396   1.504  0.00  0.00     0.000 A 
ATOM      2  C2  BNZ d   1      -1.886   3.364   0.546  0.00  0.00     0.000 A 
ATOM      3  C3  BNZ d   1      -1.201   3.106  -0.608  0.00  0.00     0.000 A 
ATOM      4  C4  BNZ d   1      -0.632   1.896  -0.786  0.00  0.00     0.000 A 
ATOM      5  C5  BNZ d   1      -0.765   0.913   0.175  0.00  0.00     0.000 A 
ATOM      6  C6  BNZ d   1      -1.488   1.164   1.318  0.00  0.00     0.000 A 
ENDROOT
TORSDOF 0
ENDMDL
