MODEL 1
REMARK minimizedAffinity -4.47583055
REMARK minimizedRMSD -1
REMARK  0 active torsions:
REMARK  status: ('A' for Active; 'I' for Inactive)
ROOT
ATOM      1  C1  BNZ d   1       1.090  -1.465  -2.786  0.00  0.00     0.000 A 
ATOM      2  C2  BNZ d   1       1.572  -0.299  -2.252  0.00  0.00     0.000 A 
ATOM      3  C3  BNZ d   1       0.739   0.573  -1.609  0.00  0.00     0.000 A 
ATOM      4  C4  BNZ d   1      -0.579   0.298  -1.535  0.00  0.00     0.000 A 
ATOM      5  C5  BNZ d   1      -1.082  -0.868  -2.076  0.00  0.00     0.000 A 
ATOM      6  C6  BNZ d   1      -0.234  -1.762  -2.689  0.00  0.00     0.000 A 
ENDROOT
TORSDOF 0
ENDMDL
