MODEL 1
REMARK minimizedAffinity -2.11755323
REMARK minimizedRMSD -1
REMARK  0 active torsions:
REMARK  status: ('A' for Active; 'I' for Inactive)
ROOT
ATOM      1  C1  BNZ d   1       0.385  -0.700   0.666  0.00  0.00     0.000 A 
ATOM      2  C2  BNZ d   1      -0.400   0.422   0.705  0.00  0.00     0.000 A 
ATOM      3  C3  BNZ d   1      -0.469   1.265  -0.368  0.00  0.00     0.000 A 
ATOM      4  C4  BNZ d   1       0.276   1.008  -1.462  0.00  0.00     0.000 A 
ATOM      5  C5  BNZ d   1       1.079  -0.114  -1.514  0.00  0.00     0.000 A 
ATOM      6  C6  BNZ d   1       1.116  -0.982  -0.446  0.00  0.00     0.000 A 
ENDROOT
TORSDOF 0
ENDMDL
