MODEL 1
REMARK minimizedAffinity -4.46250296
REMARK minimizedRMSD -1
REMARK  0 active torsions:
REMARK  status: ('A' for Active; 'I' for Inactive)
ROOT
ATOM      1  C1  BNZ d   1      -0.504   3.031  -0.872  0.00  0.00     0.000 A 
ATOM      2  C2  BNZ d   1       0.291   1.917  -0.800  0.00  0.00     0.000 A 
ATOM      3  C3  BNZ d   1      -0.072   0.847  -0.031  0.00  0.00     0.000 A 
ATOM      4  C4  BNZ d   1      -1.207   0.907   0.695  0.00  0.00     0.000 A 
ATOM      5  C5  BNZ d   1      -2.013   2.026   0.641  0.00  0.00     0.000 A 
ATOM      6  C6  BNZ d   1      -1.665   3.086  -0.165  0.00  0.00     0.000 A 
ENDROOT
TORSDOF 0
ENDMDL
