MODEL 1
REMARK minimizedAffinity -5.16807938
REMARK minimizedRMSD -1
REMARK  0 active torsions:
REMARK  status: ('A' for Active; 'I' for Inactive)
ROOT
ATOM      1  C1  BNZ d   1      -0.482   1.619   0.852  0.00  0.00     0.000 A 
ATOM      2  C2  BNZ d   1      -1.601   1.934   1.575  0.00  0.00     0.000 A 
ATOM      3  C3  BNZ d   1      -2.403   2.978   1.205  0.00  0.00     0.000 A 
ATOM      4  C4  BNZ d   1      -2.062   3.728   0.137  0.00  0.00     0.000 A 
ATOM      5  C5  BNZ d   1      -0.932   3.429  -0.596  0.00  0.00     0.000 A 
ATOM      6  C6  BNZ d   1      -0.149   2.354  -0.244  0.00  0.00     0.000 A 
ENDROOT
TORSDOF 0
ENDMDL
