MODEL 1
REMARK minimizedAffinity -2.60312462
REMARK minimizedRMSD -1
REMARK  0 active torsions:
REMARK  status: ('A' for Active; 'I' for Inactive)
ROOT
ATOM      1  C1  BNZ d   1      -0.999   0.809   2.105  0.00  0.00     0.000 A 
ATOM      2  C2  BNZ d   1      -0.551  -0.351   1.532  0.00  0.00     0.000 A 
ATOM      3  C3  BNZ d   1       0.099  -0.331   0.329  0.00  0.00     0.000 A 
ATOM      4  C4  BNZ d   1       0.265   0.841  -0.316  0.00  0.00     0.000 A 
ATOM      5  C5  BNZ d   1      -0.189   2.018   0.245  0.00  0.00     0.000 A 
ATOM      6  C6  BNZ d   1      -0.809   1.999   1.474  0.00  0.00     0.000 A 
ENDROOT
TORSDOF 0
ENDMDL
