MODEL 1
REMARK minimizedAffinity -4.16177034
REMARK minimizedRMSD -1
REMARK  0 active torsions:
REMARK  status: ('A' for Active; 'I' for Inactive)
ROOT
ATOM      1  C1  BNZ d   1      -1.704   2.162  -0.502  0.00  0.00     0.000 A 
ATOM      2  C2  BNZ d   1      -1.018   0.978  -0.544  0.00  0.00     0.000 A 
ATOM      3  C3  BNZ d   1      -0.794   0.259   0.597  0.00  0.00     0.000 A 
ATOM      4  C4  BNZ d   1      -1.219   0.744   1.781  0.00  0.00     0.000 A 
ATOM      5  C5  BNZ d   1      -1.904   1.942   1.841  0.00  0.00     0.000 A 
ATOM      6  C6  BNZ d   1      -2.162   2.643   0.685  0.00  0.00     0.000 A 
ENDROOT
TORSDOF 0
ENDMDL
