MODEL 1
REMARK minimizedAffinity -4.58234453
REMARK minimizedRMSD -1
REMARK  0 active torsions:
REMARK  status: ('A' for Active; 'I' for Inactive)
ROOT
ATOM      1  C1  BNZ d   1       0.804   0.129  -1.337  0.00  0.00     0.000 A 
ATOM      2  C2  BNZ d   1       1.031  -1.087  -0.751  0.00  0.00     0.000 A 
ATOM      3  C3  BNZ d   1       0.920  -2.243  -1.472  0.00  0.00     0.000 A 
ATOM      4  C4  BNZ d   1       0.543  -2.184  -2.765  0.00  0.00     0.000 A 
ATOM      5  C5  BNZ d   1       0.302  -0.966  -3.368  0.00  0.00     0.000 A 
ATOM      6  C6  BNZ d   1       0.452   0.198  -2.650  0.00  0.00     0.000 A 
ENDROOT
TORSDOF 0
ENDMDL
