MODEL 1
REMARK minimizedAffinity -4.88284969
REMARK minimizedRMSD -1
REMARK  0 active torsions:
REMARK  status: ('A' for Active; 'I' for Inactive)
ROOT
ATOM      1  C1  BNZ d   1      -1.882   4.064   0.823  0.00  0.00     0.000 A 
ATOM      2  C2  BNZ d   1      -2.454   2.950   1.378  0.00  0.00     0.000 A 
ATOM      3  C3  BNZ d   1      -1.991   1.701   1.074  0.00  0.00     0.000 A 
ATOM      4  C4  BNZ d   1      -0.985   1.564   0.186  0.00  0.00     0.000 A 
ATOM      5  C5  BNZ d   1      -0.404   2.677  -0.389  0.00  0.00     0.000 A 
ATOM      6  C6  BNZ d   1      -0.847   3.935  -0.051  0.00  0.00     0.000 A 
ENDROOT
TORSDOF 0
ENDMDL
