MODEL 1
REMARK minimizedAffinity -2.69860959
REMARK minimizedRMSD -1
REMARK  0 active torsions:
REMARK  status: ('A' for Active; 'I' for Inactive)
ROOT
ATOM      1  C1  BNZ d   1      -1.444   3.874   3.097  0.00  0.00     0.000 A 
ATOM      2  C2  BNZ d   1      -2.357   3.067   2.471  0.00  0.00     0.000 A 
ATOM      3  C3  BNZ d   1      -2.018   2.365   1.349  0.00  0.00     0.000 A 
ATOM      4  C4  BNZ d   1      -0.780   2.502   0.830  0.00  0.00     0.000 A 
ATOM      5  C5  BNZ d   1       0.148   3.319   1.444  0.00  0.00     0.000 A 
ATOM      6  C6  BNZ d   1      -0.185   3.993   2.596  0.00  0.00     0.000 A 
ENDROOT
TORSDOF 0
ENDMDL
