MODEL 1
REMARK minimizedAffinity -5.26857376
REMARK minimizedRMSD -1
REMARK  0 active torsions:
REMARK  status: ('A' for Active; 'I' for Inactive)
ROOT
ATOM      1  C1  BNZ d   1      -0.292   1.477  -0.306  0.00  0.00     0.000 A 
ATOM      2  C2  BNZ d   1      -0.114   2.732  -0.825  0.00  0.00     0.000 A 
ATOM      3  C3  BNZ d   1      -0.784   3.805  -0.308  0.00  0.00     0.000 A 
ATOM      4  C4  BNZ d   1      -1.660   3.617   0.700  0.00  0.00     0.000 A 
ATOM      5  C5  BNZ d   1      -1.857   2.357   1.228  0.00  0.00     0.000 A 
ATOM      6  C6  BNZ d   1      -1.152   1.285   0.731  0.00  0.00     0.000 A 
ENDROOT
TORSDOF 0
ENDMDL
