MODEL 1
REMARK minimizedAffinity -3.72829652
REMARK minimizedRMSD -1
REMARK  0 active torsions:
REMARK  status: ('A' for Active; 'I' for Inactive)
ROOT
ATOM      1  C1  BNZ d   1      -0.037   0.164  -0.008  0.00  0.00     0.000 A 
ATOM      2  C2  BNZ d   1      -0.252   1.499  -0.226  0.00  0.00     0.000 A 
ATOM      3  C3  BNZ d   1      -1.051   2.225   0.612  0.00  0.00     0.000 A 
ATOM      4  C4  BNZ d   1      -1.666   1.608   1.642  0.00  0.00     0.000 A 
ATOM      5  C5  BNZ d   1      -1.467   0.261   1.869  0.00  0.00     0.000 A 
ATOM      6  C6  BNZ d   1      -0.631  -0.459   1.046  0.00  0.00     0.000 A 
ENDROOT
TORSDOF 0
ENDMDL
