MODEL 1
REMARK minimizedAffinity -4.4521513
REMARK minimizedRMSD -1
REMARK  0 active torsions:
REMARK  status: ('A' for Active; 'I' for Inactive)
ROOT
ATOM      1  C1  BNZ d   1      -1.377   1.260   1.143  0.00  0.00     0.000 A 
ATOM      2  C2  BNZ d   1      -0.517   1.135   0.085  0.00  0.00     0.000 A 
ATOM      3  C3  BNZ d   1      -0.222   2.208  -0.709  0.00  0.00     0.000 A 
ATOM      4  C4  BNZ d   1      -0.817   3.393  -0.469  0.00  0.00     0.000 A 
ATOM      5  C5  BNZ d   1      -1.694   3.534   0.588  0.00  0.00     0.000 A 
ATOM      6  C6  BNZ d   1      -1.959   2.461   1.409  0.00  0.00     0.000 A 
ENDROOT
TORSDOF 0
ENDMDL
