MODEL 1
REMARK minimizedAffinity -3.67889261
REMARK minimizedRMSD -1
REMARK  0 active torsions:
REMARK  status: ('A' for Active; 'I' for Inactive)
ROOT
ATOM      1  C1  BNZ d   1      -0.130   1.518   0.305  0.00  0.00     0.000 A 
ATOM      2  C2  BNZ d   1       0.637   0.486  -0.168  0.00  0.00     0.000 A 
ATOM      3  C3  BNZ d   1       0.709  -0.699   0.508  0.00  0.00     0.000 A 
ATOM      4  C4  BNZ d   1       0.048  -0.838   1.675  0.00  0.00     0.000 A 
ATOM      5  C5  BNZ d   1      -0.722   0.196   2.170  0.00  0.00     0.000 A 
ATOM      6  C6  BNZ d   1      -0.824   1.374   1.466  0.00  0.00     0.000 A 
ENDROOT
TORSDOF 0
ENDMDL
