MODEL 1
REMARK minimizedAffinity -3.13140774
REMARK minimizedRMSD -1
REMARK  0 active torsions:
REMARK  status: ('A' for Active; 'I' for Inactive)
ROOT
ATOM      1  C   UNL d   1       0.653  -0.582  -0.438  0.00  0.00     0.077 C 
ATOM      2  C1  UNL d   1       0.550  -0.212  -1.887  0.00  0.00    -0.074 A 
ATOM      3  C2  UNL d   1       1.564   0.515  -2.518  0.00  0.00    -0.005 A 
ATOM      4  C3  UNL d   1       1.459   0.844  -3.869  0.00  0.00     0.006 A 
ATOM      5  C4  UNL d   1       0.339   0.449  -4.603  0.00  0.00    -0.005 A 
ATOM      6  C5  UNL d   1      -0.685  -0.279  -3.990  0.00  0.00    -0.074 A 
ATOM      7  C6  UNL d   1      -1.891  -0.720  -4.766  0.00  0.00     0.077 C 
ATOM      8  C7  UNL d   1      -0.568  -0.612  -2.633  0.00  0.00    -0.001 A 
ENDROOT
TORSDOF 0
ENDMDL
