MODEL 1
REMARK minimizedAffinity -3.52025914
REMARK minimizedRMSD -1
REMARK  0 active torsions:
REMARK  status: ('A' for Active; 'I' for Inactive)
ROOT
ATOM      1  C   UNL d   1      -3.009   0.280   1.789  0.00  0.00     0.077 C 
ATOM      2  C1  UNL d   1      -1.539   0.415   1.523  0.00  0.00    -0.074 A 
ATOM      3  C2  UNL d   1      -0.721   1.165   2.374  0.00  0.00    -0.005 A 
ATOM      4  C3  UNL d   1       0.646   1.274   2.119  0.00  0.00     0.006 A 
ATOM      5  C4  UNL d   1       1.208   0.635   1.013  0.00  0.00    -0.005 A 
ATOM      6  C5  UNL d   1       0.405  -0.120   0.151  0.00  0.00    -0.074 A 
ATOM      7  C6  UNL d   1       0.995  -0.821  -1.036  0.00  0.00     0.077 C 
ATOM      8  C7  UNL d   1      -0.966  -0.230   0.418  0.00  0.00    -0.001 A 
ENDROOT
TORSDOF 0
ENDMDL
