MODEL 1
REMARK minimizedAffinity -4.43448114
REMARK minimizedRMSD -1
REMARK  0 active torsions:
REMARK  status: ('A' for Active; 'I' for Inactive)
ROOT
ATOM      1  C   UNL d   1      -3.193   0.348   1.952  0.00  0.00     0.077 C 
ATOM      2  C1  UNL d   1      -1.725   0.539   1.711  0.00  0.00    -0.074 A 
ATOM      3  C2  UNL d   1      -0.960   1.355   2.550  0.00  0.00    -0.005 A 
ATOM      4  C3  UNL d   1       0.406   1.516   2.319  0.00  0.00     0.006 A 
ATOM      5  C4  UNL d   1       1.020   0.864   1.249  0.00  0.00    -0.005 A 
ATOM      6  C5  UNL d   1       0.271   0.043   0.400  0.00  0.00    -0.074 A 
ATOM      7  C6  UNL d   1       0.916  -0.673  -0.749  0.00  0.00     0.077 C 
ATOM      8  C7  UNL d   1      -1.100  -0.119   0.643  0.00  0.00    -0.001 A 
ENDROOT
TORSDOF 0
ENDMDL
