MODEL 1
REMARK minimizedAffinity -3.76916242
REMARK minimizedRMSD -1
REMARK  0 active torsions:
REMARK  status: ('A' for Active; 'I' for Inactive)
ROOT
ATOM      1  C   UNL d   1       1.251  -0.544  -0.688  0.00  0.00     0.077 C 
ATOM      2  C1  UNL d   1       0.810  -0.168   0.695  0.00  0.00    -0.074 A 
ATOM      3  C2  UNL d   1       1.733  -0.061   1.740  0.00  0.00    -0.005 A 
ATOM      4  C3  UNL d   1       1.308   0.298   3.019  0.00  0.00     0.006 A 
ATOM      5  C4  UNL d   1      -0.041   0.554   3.266  0.00  0.00    -0.005 A 
ATOM      6  C5  UNL d   1      -0.978   0.453   2.233  0.00  0.00    -0.074 A 
ATOM      7  C6  UNL d   1      -2.431   0.734   2.478  0.00  0.00     0.077 C 
ATOM      8  C7  UNL d   1      -0.543   0.098   0.949  0.00  0.00    -0.001 A 
ENDROOT
TORSDOF 0
ENDMDL
