MODEL 1
REMARK minimizedAffinity -3.07238865
REMARK minimizedRMSD -1
REMARK  0 active torsions:
REMARK  status: ('A' for Active; 'I' for Inactive)
ROOT
ATOM      1  C   UNL d   1       1.303  -0.570   0.228  0.00  0.00     0.077 C 
ATOM      2  C1  UNL d   1       0.395   0.280   1.066  0.00  0.00    -0.074 A 
ATOM      3  C2  UNL d   1       0.901   1.337   1.829  0.00  0.00    -0.005 A 
ATOM      4  C3  UNL d   1       0.042   2.125   2.596  0.00  0.00     0.006 A 
ATOM      5  C4  UNL d   1      -1.328   1.863   2.609  0.00  0.00    -0.005 A 
ATOM      6  C5  UNL d   1      -1.853   0.810   1.852  0.00  0.00    -0.074 A 
ATOM      7  C6  UNL d   1      -3.324   0.522   1.846  0.00  0.00     0.077 C 
ATOM      8  C7  UNL d   1      -0.985   0.028   1.078  0.00  0.00    -0.001 A 
ENDROOT
TORSDOF 0
ENDMDL
