MODEL 1
REMARK minimizedAffinity -4.9305625
REMARK minimizedRMSD -1
REMARK  0 active torsions:
REMARK  status: ('A' for Active; 'I' for Inactive)
ROOT
ATOM      1  C   UNL d   1      -0.614   1.974   3.360  0.00  0.00     0.077 C 
ATOM      2  C1  UNL d   1      -0.820   1.085   2.169  0.00  0.00    -0.074 A 
ATOM      3  C2  UNL d   1      -2.001   0.352   2.015  0.00  0.00    -0.005 A 
ATOM      4  C3  UNL d   1      -2.182  -0.464   0.898  0.00  0.00     0.006 A 
ATOM      5  C4  UNL d   1      -1.186  -0.554  -0.075  0.00  0.00    -0.005 A 
ATOM      6  C5  UNL d   1       0.001   0.173   0.062  0.00  0.00    -0.074 A 
ATOM      7  C6  UNL d   1       1.078   0.095  -0.980  0.00  0.00     0.077 C 
ATOM      8  C7  UNL d   1       0.173   0.995   1.184  0.00  0.00    -0.001 A 
ENDROOT
TORSDOF 0
ENDMDL
