MODEL 1
REMARK minimizedAffinity -4.41769171
REMARK minimizedRMSD -1
REMARK  0 active torsions:
REMARK  status: ('A' for Active; 'I' for Inactive)
ROOT
ATOM      1  C   UNL d   1      -2.904   0.132   2.344  0.00  0.00     0.077 C 
ATOM      2  C1  UNL d   1      -1.568   0.173   1.663  0.00  0.00    -0.074 A 
ATOM      3  C2  UNL d   1      -0.426   0.602   2.347  0.00  0.00    -0.005 A 
ATOM      4  C3  UNL d   1       0.812   0.626   1.703  0.00  0.00     0.006 A 
ATOM      5  C4  UNL d   1       0.919   0.222   0.372  0.00  0.00    -0.005 A 
ATOM      6  C5  UNL d   1      -0.212  -0.211  -0.328  0.00  0.00    -0.074 A 
ATOM      7  C6  UNL d   1      -0.112  -0.658  -1.756  0.00  0.00     0.077 C 
ATOM      8  C7  UNL d   1      -1.450  -0.238   0.328  0.00  0.00    -0.001 A 
ENDROOT
TORSDOF 0
ENDMDL
