MODEL 1
REMARK minimizedAffinity -4.59265327
REMARK minimizedRMSD -1
REMARK  0 active torsions:
REMARK  status: ('A' for Active; 'I' for Inactive)
ROOT
ATOM      1  C   UNL d   1       0.487  -1.119  -1.465  0.00  0.00     0.077 C 
ATOM      2  C1  UNL d   1       0.708  -0.734  -0.032  0.00  0.00    -0.074 A 
ATOM      3  C2  UNL d   1       1.889  -1.083   0.632  0.00  0.00    -0.005 A 
ATOM      4  C3  UNL d   1       2.085  -0.710   1.961  0.00  0.00     0.006 A 
ATOM      5  C4  UNL d   1       1.105   0.014   2.640  0.00  0.00    -0.005 A 
ATOM      6  C5  UNL d   1      -0.082   0.373   1.992  0.00  0.00    -0.074 A 
ATOM      7  C6  UNL d   1      -1.142   1.161   2.704  0.00  0.00     0.077 C 
ATOM      8  C7  UNL d   1      -0.269   0.001   0.654  0.00  0.00    -0.001 A 
ENDROOT
TORSDOF 0
ENDMDL
