MODEL 1
REMARK minimizedAffinity 9.27541924
REMARK minimizedRMSD -1
REMARK  0 active torsions:
REMARK  status: ('A' for Active; 'I' for Inactive)
ROOT
ATOM      1  C   UNL d   1       1.176  -1.380   3.808  0.00  0.00     0.020 A 
ATOM      2  C1  UNL d   1       0.397  -1.277   2.657  0.00  0.00     0.020 A 
ATOM      3  C2  UNL d   1      -0.318  -0.106   2.399  0.00  0.00     0.034 A 
ATOM      4  C3  UNL d   1      -0.255   0.968   3.295  0.00  0.00     0.017 A 
ATOM      5  C4  UNL d   1       0.527   0.864   4.451  0.00  0.00     0.017 A 
ATOM      6  C5  UNL d   1       1.241  -0.311   4.703  0.00  0.00     0.034 A 
ATOM      7 Cl   UNL d   1       0.654   2.147   5.602  0.00  0.00    -0.070 Cl
ATOM      8 Cl1  UNL d   1      -1.165   2.387   2.913  0.00  0.00    -0.070 Cl
ENDROOT
TORSDOF 0
ENDMDL
