MODEL 1
REMARK minimizedAffinity 18.3579807
REMARK minimizedRMSD -1
REMARK  0 active torsions:
REMARK  status: ('A' for Active; 'I' for Inactive)
ROOT
ATOM      1  C   UNL d   1      -1.274  -0.788   1.759  0.00  0.00     0.020 A 
ATOM      2  C1  UNL d   1      -0.089  -1.520   1.695  0.00  0.00     0.020 A 
ATOM      3  C2  UNL d   1       1.072  -1.021   2.288  0.00  0.00     0.034 A 
ATOM      4  C3  UNL d   1       1.052   0.213   2.947  0.00  0.00     0.017 A 
ATOM      5  C4  UNL d   1      -0.138   0.948   3.010  0.00  0.00     0.017 A 
ATOM      6  C5  UNL d   1      -1.298   0.443   2.415  0.00  0.00     0.034 A 
ATOM      7 Cl   UNL d   1      -0.241   2.479   3.805  0.00  0.00    -0.070 Cl
ATOM      8 Cl1  UNL d   1       2.525   0.769   3.658  0.00  0.00    -0.070 Cl
ENDROOT
TORSDOF 0
ENDMDL
