MODEL 1
REMARK minimizedAffinity 5.91493225
REMARK minimizedRMSD -1
REMARK  0 active torsions:
REMARK  status: ('A' for Active; 'I' for Inactive)
ROOT
ATOM      1  C   UNL d   1       0.809  -1.353   3.797  0.00  0.00     0.020 A 
ATOM      2  C1  UNL d   1       0.058  -1.172   2.636  0.00  0.00     0.020 A 
ATOM      3  C2  UNL d   1      -0.494   0.078   2.350  0.00  0.00     0.034 A 
ATOM      4  C3  UNL d   1      -0.297   1.152   3.225  0.00  0.00     0.017 A 
ATOM      5  C4  UNL d   1       0.457   0.969   4.390  0.00  0.00     0.017 A 
ATOM      6  C5  UNL d   1       1.008  -0.285   4.672  0.00  0.00     0.034 A 
ATOM      7 Cl   UNL d   1       0.743   2.247   5.519  0.00  0.00    -0.070 Cl
ATOM      8 Cl1  UNL d   1      -1.009   2.670   2.808  0.00  0.00    -0.070 Cl
ENDROOT
TORSDOF 0
ENDMDL
