MODEL 1
REMARK minimizedAffinity 10.1612997
REMARK minimizedRMSD -1
REMARK  0 active torsions:
REMARK  status: ('A' for Active; 'I' for Inactive)
ROOT
ATOM      1  C   UNL d   1       1.589  -2.605   3.878  0.00  0.00     0.020 A 
ATOM      2  C1  UNL d   1       0.608  -3.596   3.844  0.00  0.00     0.020 A 
ATOM      3  C2  UNL d   1      -0.636  -3.327   3.269  0.00  0.00     0.034 A 
ATOM      4  C3  UNL d   1      -0.903  -2.065   2.727  0.00  0.00     0.017 A 
ATOM      5  C4  UNL d   1       0.082  -1.071   2.763  0.00  0.00     0.017 A 
ATOM      6  C5  UNL d   1       1.326  -1.346   3.339  0.00  0.00     0.034 A 
ATOM      7 Cl   UNL d   1      -0.173   0.511   2.114  0.00  0.00    -0.070 Cl
ATOM      8 Cl1  UNL d   1      -2.463  -1.802   2.033  0.00  0.00    -0.070 Cl
ENDROOT
TORSDOF 0
ENDMDL
