MODEL 1
REMARK minimizedAffinity 9.13625622
REMARK minimizedRMSD -1
REMARK  0 active torsions:
REMARK  status: ('A' for Active; 'I' for Inactive)
ROOT
ATOM      1  C   UNL d   1      -1.324  -5.749  -6.000  0.00  0.00     0.020 A 
ATOM      2  C1  UNL d   1      -2.247  -4.711  -5.883  0.00  0.00     0.020 A 
ATOM      3  C2  UNL d   1      -1.804  -3.392  -5.766  0.00  0.00     0.034 A 
ATOM      4  C3  UNL d   1      -0.433  -3.108  -5.765  0.00  0.00     0.017 A 
ATOM      5  C4  UNL d   1       0.493  -4.151  -5.883  0.00  0.00     0.017 A 
ATOM      6  C5  UNL d   1       0.043  -5.470  -6.000  0.00  0.00     0.034 A 
ATOM      7 Cl   UNL d   1       2.200  -3.879  -5.890  0.00  0.00    -0.070 Cl
ATOM      8 Cl1  UNL d   1       0.045  -1.454  -5.617  0.00  0.00    -0.070 Cl
ENDROOT
TORSDOF 0
ENDMDL
