MODEL 1
REMARK minimizedAffinity 13.5459232
REMARK minimizedRMSD -1
REMARK  0 active torsions:
REMARK  status: ('A' for Active; 'I' for Inactive)
ROOT
ATOM      1  C   UNL d   1       1.567  -0.430   2.732  0.00  0.00     0.020 A 
ATOM      2  C1  UNL d   1       0.958  -1.655   2.463  0.00  0.00     0.020 A 
ATOM      3  C2  UNL d   1      -0.432  -1.736   2.362  0.00  0.00     0.034 A 
ATOM      4  C3  UNL d   1      -1.218  -0.591   2.530  0.00  0.00     0.017 A 
ATOM      5  C4  UNL d   1      -0.607   0.638   2.800  0.00  0.00     0.017 A 
ATOM      6  C5  UNL d   1       0.786   0.715   2.900  0.00  0.00     0.034 A 
ATOM      7 Cl   UNL d   1      -1.511   2.095   3.020  0.00  0.00    -0.070 Cl
ATOM      8 Cl1  UNL d   1      -2.932  -0.765   2.391  0.00  0.00    -0.070 Cl
ENDROOT
TORSDOF 0
ENDMDL
