MODEL 1
REMARK minimizedAffinity 8.5589304
REMARK minimizedRMSD -1
REMARK  0 active torsions:
REMARK  status: ('A' for Active; 'I' for Inactive)
ROOT
ATOM      1  C   UNL d   1       1.024  -1.171   2.932  0.00  0.00     0.020 A 
ATOM      2  C1  UNL d   1       0.925   0.216   2.842  0.00  0.00     0.020 A 
ATOM      3  C2  UNL d   1      -0.268   0.805   2.417  0.00  0.00     0.034 A 
ATOM      4  C3  UNL d   1      -1.366   0.006   2.079  0.00  0.00     0.017 A 
ATOM      5  C4  UNL d   1      -1.265  -1.387   2.169  0.00  0.00     0.017 A 
ATOM      6  C5  UNL d   1      -0.069  -1.971   2.596  0.00  0.00     0.034 A 
ATOM      7 Cl   UNL d   1      -2.577  -2.439   1.770  0.00  0.00    -0.070 Cl
ATOM      8 Cl1  UNL d   1      -2.810   0.801   1.561  0.00  0.00    -0.070 Cl
ENDROOT
TORSDOF 0
ENDMDL
