MODEL 1
REMARK minimizedAffinity 10.5424805
REMARK minimizedRMSD -1
REMARK  0 active torsions:
REMARK  status: ('A' for Active; 'I' for Inactive)
ROOT
ATOM      1  C   UNL d   1       0.541  -2.793   4.364  0.00  0.00     0.020 A 
ATOM      2  C1  UNL d   1       1.593  -2.527   5.240  0.00  0.00     0.020 A 
ATOM      3  C2  UNL d   1       2.356  -1.368   5.082  0.00  0.00     0.034 A 
ATOM      4  C3  UNL d   1       2.069  -0.472   4.046  0.00  0.00     0.017 A 
ATOM      5  C4  UNL d   1       1.013  -0.741   3.167  0.00  0.00     0.017 A 
ATOM      6  C5  UNL d   1       0.252  -1.902   3.330  0.00  0.00     0.034 A 
ATOM      7 Cl   UNL d   1       0.598   0.318   1.865  0.00  0.00    -0.070 Cl
ATOM      8 Cl1  UNL d   1       3.054   0.941   3.909  0.00  0.00    -0.070 Cl
ENDROOT
TORSDOF 0
ENDMDL
