MODEL 1
REMARK minimizedAffinity -1.07154393
REMARK minimizedRMSD -1
REMARK  0 active torsions:
REMARK  status: ('A' for Active; 'I' for Inactive)
ROOT
ATOM      1  C   UNL d   1      -3.843   0.505   1.140  0.00  0.00     0.078 C 
ATOM      2  C1  UNL d   1      -2.388   0.703   0.837  0.00  0.00    -0.077 A 
ATOM      3  C2  UNL d   1      -1.636   1.670   1.514  0.00  0.00    -0.001 A 
ATOM      4  C3  UNL d   1      -0.284   1.850   1.215  0.00  0.00     0.003 A 
ATOM      5  C4  UNL d   1       0.326   1.068   0.237  0.00  0.00    -0.005 A 
ATOM      6  C5  UNL d   1      -0.415   0.104  -0.444  0.00  0.00     0.003 A 
ATOM      7  C6  UNL d   1      -1.767  -0.077  -0.146  0.00  0.00    -0.001 A 
ENDROOT
TORSDOF 0
ENDMDL
