MODEL 1
REMARK minimizedAffinity -0.307318032
REMARK minimizedRMSD -1
REMARK  0 active torsions:
REMARK  status: ('A' for Active; 'I' for Inactive)
ROOT
ATOM      1  C   UNL d   1       1.141   2.164   0.151  0.00  0.00     0.078 C 
ATOM      2  C1  UNL d   1       0.853   0.718  -0.123  0.00  0.00    -0.077 A 
ATOM      3  C2  UNL d   1       1.872  -0.241  -0.083  0.00  0.00    -0.001 A 
ATOM      4  C3  UNL d   1       1.591  -1.581  -0.349  0.00  0.00     0.003 A 
ATOM      5  C4  UNL d   1       0.291  -1.975  -0.658  0.00  0.00    -0.005 A 
ATOM      6  C5  UNL d   1      -0.730  -1.028  -0.703  0.00  0.00     0.003 A 
ATOM      7  C6  UNL d   1      -0.451   0.313  -0.437  0.00  0.00    -0.001 A 
ENDROOT
TORSDOF 0
ENDMDL
