MODEL 1
REMARK minimizedAffinity -3.69516087
REMARK minimizedRMSD -1
REMARK  0 active torsions:
REMARK  status: ('A' for Active; 'I' for Inactive)
ROOT
ATOM      1  C   UNL d   1       3.722  -1.390   0.837  0.00  0.00     0.078 C 
ATOM      2  C1  UNL d   1       2.308  -1.140   0.405  0.00  0.00    -0.077 A 
ATOM      3  C2  UNL d   1       1.493  -0.233   1.093  0.00  0.00    -0.001 A 
ATOM      4  C3  UNL d   1       0.175  -0.017   0.685  0.00  0.00     0.003 A 
ATOM      5  C4  UNL d   1      -0.339  -0.705  -0.412  0.00  0.00    -0.005 A 
ATOM      6  C5  UNL d   1       0.464  -1.612  -1.101  0.00  0.00     0.003 A 
ATOM      7  C6  UNL d   1       1.781  -1.829  -0.695  0.00  0.00    -0.001 A 
ENDROOT
TORSDOF 0
ENDMDL
