MODEL 1
REMARK minimizedAffinity -5.4446063
REMARK minimizedRMSD -1
REMARK  0 active torsions:
REMARK  status: ('A' for Active; 'I' for Inactive)
ROOT
ATOM      1  C   UNL d   1       2.250  -1.234   0.661  0.00  0.00     0.078 C 
ATOM      2  C1  UNL d   1       3.093  -0.057   0.269  0.00  0.00    -0.077 A 
ATOM      3  C2  UNL d   1       3.113   1.107   1.047  0.00  0.00    -0.001 A 
ATOM      4  C3  UNL d   1       3.894   2.199   0.664  0.00  0.00     0.003 A 
ATOM      5  C4  UNL d   1       4.661   2.137  -0.498  0.00  0.00    -0.005 A 
ATOM      6  C5  UNL d   1       4.646   0.983  -1.279  0.00  0.00     0.003 A 
ATOM      7  C6  UNL d   1       3.865  -0.109  -0.898  0.00  0.00    -0.001 A 
ENDROOT
TORSDOF 0
ENDMDL
