MODEL 1
REMARK minimizedAffinity -5.97997856
REMARK minimizedRMSD -1
REMARK  0 active torsions:
REMARK  status: ('A' for Active; 'I' for Inactive)
ROOT
ATOM      1  C   UNL d   1      -0.189  -1.797  -0.402  0.00  0.00     0.078 C 
ATOM      2  C1  UNL d   1       0.765  -0.657  -0.201  0.00  0.00    -0.077 A 
ATOM      3  C2  UNL d   1       2.144  -0.879  -0.109  0.00  0.00    -0.001 A 
ATOM      4  C3  UNL d   1       3.019   0.191   0.087  0.00  0.00     0.003 A 
ATOM      5  C4  UNL d   1       2.524   1.489   0.195  0.00  0.00    -0.005 A 
ATOM      6  C5  UNL d   1       1.153   1.719   0.107  0.00  0.00     0.003 A 
ATOM      7  C6  UNL d   1       0.276   0.651  -0.090  0.00  0.00    -0.001 A 
ENDROOT
TORSDOF 0
ENDMDL
