MODEL 1
REMARK minimizedAffinity -5.31290436
REMARK minimizedRMSD -1
REMARK  0 active torsions:
REMARK  status: ('A' for Active; 'I' for Inactive)
ROOT
ATOM      1  C   UNL d   1       3.137  -0.447   0.586  0.00  0.00     0.078 C 
ATOM      2  C1  UNL d   1       1.763  -0.472  -0.012  0.00  0.00    -0.077 A 
ATOM      3  C2  UNL d   1       1.296  -1.599  -0.701  0.00  0.00    -0.001 A 
ATOM      4  C3  UNL d   1       0.018  -1.604  -1.261  0.00  0.00     0.003 A 
ATOM      5  C4  UNL d   1      -0.804  -0.486  -1.140  0.00  0.00    -0.005 A 
ATOM      6  C5  UNL d   1      -0.348   0.641  -0.458  0.00  0.00     0.003 A 
ATOM      7  C6  UNL d   1       0.930   0.648   0.103  0.00  0.00    -0.001 A 
ENDROOT
TORSDOF 0
ENDMDL
