MODEL 1
REMARK minimizedAffinity -3.4428823
REMARK minimizedRMSD -1
REMARK  0 active torsions:
REMARK  status: ('A' for Active; 'I' for Inactive)
ROOT
ATOM      1  C   UNL d   1      -2.207   0.953  -0.067  0.00  0.00     0.078 C 
ATOM      2  C1  UNL d   1      -0.975   0.107  -0.182  0.00  0.00    -0.077 A 
ATOM      3  C2  UNL d   1      -0.084  -0.019   0.891  0.00  0.00    -0.001 A 
ATOM      4  C3  UNL d   1       1.065  -0.802   0.767  0.00  0.00     0.003 A 
ATOM      5  C4  UNL d   1       1.333  -1.466  -0.429  0.00  0.00    -0.005 A 
ATOM      6  C5  UNL d   1       0.453  -1.346  -1.502  0.00  0.00     0.003 A 
ATOM      7  C6  UNL d   1      -0.696  -0.562  -1.380  0.00  0.00    -0.001 A 
ENDROOT
TORSDOF 0
ENDMDL
