MODEL 1
REMARK minimizedAffinity -1.54078913
REMARK minimizedRMSD -1
REMARK  0 active torsions:
REMARK  status: ('A' for Active; 'I' for Inactive)
ROOT
ATOM      1  C   UNL d   1       2.489  -1.814  -0.214  0.00  0.00     0.078 C 
ATOM      2  C1  UNL d   1       1.674  -0.555  -0.196  0.00  0.00    -0.077 A 
ATOM      3  C2  UNL d   1       2.267   0.685   0.067  0.00  0.00    -0.001 A 
ATOM      4  C3  UNL d   1       1.494   1.847   0.090  0.00  0.00     0.003 A 
ATOM      5  C4  UNL d   1       0.123   1.780  -0.149  0.00  0.00    -0.005 A 
ATOM      6  C5  UNL d   1      -0.477   0.550  -0.410  0.00  0.00     0.003 A 
ATOM      7  C6  UNL d   1       0.294  -0.613  -0.433  0.00  0.00    -0.001 A 
ENDROOT
TORSDOF 0
ENDMDL
