MODEL 1
REMARK minimizedAffinity 12.0788288
REMARK minimizedRMSD -1
REMARK  0 active torsions:
REMARK  status: ('A' for Active; 'I' for Inactive)
ROOT
ATOM      1  C   UNL d   1      -0.924   0.156   1.639  0.00  0.00     0.020 A 
ATOM      2  C1  UNL d   1      -0.938   1.532   1.863  0.00  0.00     0.020 A 
ATOM      3  C2  UNL d   1      -2.154   2.214   1.940  0.00  0.00     0.034 A 
ATOM      4  C3  UNL d   1      -3.361   1.521   1.792  0.00  0.00     0.017 A 
ATOM      5  C4  UNL d   1      -3.345   0.140   1.567  0.00  0.00     0.017 A 
ATOM      6  C5  UNL d   1      -2.125  -0.539   1.492  0.00  0.00     0.034 A 
ATOM      7 Cl   UNL d   1      -4.793  -0.784   1.375  0.00  0.00    -0.070 Cl
ATOM      8 Cl1  UNL d   1      -4.827   2.429   1.899  0.00  0.00    -0.070 Cl
ENDROOT
TORSDOF 0
ENDMDL
