MODEL 1
REMARK minimizedAffinity 5.31918907
REMARK minimizedRMSD -1
REMARK  0 active torsions:
REMARK  status: ('A' for Active; 'I' for Inactive)
ROOT
ATOM      1  C   UNL d   1      -1.721   1.464   1.492  0.00  0.00     0.020 A 
ATOM      2  C1  UNL d   1      -3.094   1.704   1.457  0.00  0.00     0.020 A 
ATOM      3  C2  UNL d   1      -3.985   0.638   1.311  0.00  0.00     0.034 A 
ATOM      4  C3  UNL d   1      -3.504  -0.672   1.199  0.00  0.00     0.017 A 
ATOM      5  C4  UNL d   1      -2.125  -0.911   1.235  0.00  0.00     0.017 A 
ATOM      6  C5  UNL d   1      -1.238   0.160   1.381  0.00  0.00     0.034 A 
ATOM      7 Cl   UNL d   1      -1.456  -2.499   1.103  0.00  0.00    -0.070 Cl
ATOM      8 Cl1  UNL d   1      -4.662  -1.941   1.022  0.00  0.00    -0.070 Cl
ENDROOT
TORSDOF 0
ENDMDL
