MODEL 1
REMARK minimizedAffinity 19.0458908
REMARK minimizedRMSD -1
REMARK  0 active torsions:
REMARK  status: ('A' for Active; 'I' for Inactive)
ROOT
ATOM      1  C   UNL d   1      -4.842  -3.206   5.666  0.00  0.00     0.020 A 
ATOM      2  C1  UNL d   1      -3.735  -2.427   6.000  0.00  0.00     0.020 A 
ATOM      3  C2  UNL d   1      -3.254  -1.474   5.099  0.00  0.00     0.034 A 
ATOM      4  C3  UNL d   1      -3.882  -1.297   3.861  0.00  0.00     0.017 A 
ATOM      5  C4  UNL d   1      -4.993  -2.079   3.527  0.00  0.00     0.017 A 
ATOM      6  C5  UNL d   1      -5.470  -3.032   4.432  0.00  0.00     0.034 A 
ATOM      7 Cl   UNL d   1      -5.820  -1.918   2.017  0.00  0.00    -0.070 Cl
ATOM      8 Cl1  UNL d   1      -3.234  -0.099   2.796  0.00  0.00    -0.070 Cl
ENDROOT
TORSDOF 0
ENDMDL
