MODEL 1
REMARK minimizedAffinity 10.007206
REMARK minimizedRMSD -1
REMARK  0 active torsions:
REMARK  status: ('A' for Active; 'I' for Inactive)
ROOT
ATOM      1  C   UNL d   1      -5.110  -1.677   0.938  0.00  0.00     0.020 A 
ATOM      2  C1  UNL d   1      -5.933  -2.044   2.003  0.00  0.00     0.020 A 
ATOM      3  C2  UNL d   1      -5.998  -3.379   2.407  0.00  0.00     0.034 A 
ATOM      4  C3  UNL d   1      -5.239  -4.352   1.747  0.00  0.00     0.017 A 
ATOM      5  C4  UNL d   1      -4.414  -3.983   0.678  0.00  0.00     0.017 A 
ATOM      6  C5  UNL d   1      -4.352  -2.645   0.278  0.00  0.00     0.034 A 
ATOM      7 Cl   UNL d   1      -3.448  -5.127  -0.185  0.00  0.00    -0.070 Cl
ATOM      8 Cl1  UNL d   1      -5.369  -5.984   2.300  0.00  0.00    -0.070 Cl
ENDROOT
TORSDOF 0
ENDMDL
