MODEL 1
REMARK minimizedAffinity 15.6411762
REMARK minimizedRMSD -1
REMARK  0 active torsions:
REMARK  status: ('A' for Active; 'I' for Inactive)
ROOT
ATOM      1  C   UNL d   1      -5.415  -4.163  -5.961  0.00  0.00     0.020 A 
ATOM      2  C1  UNL d   1      -4.978  -5.487  -5.975  0.00  0.00     0.020 A 
ATOM      3  C2  UNL d   1      -3.611  -5.771  -5.979  0.00  0.00     0.034 A 
ATOM      4  C3  UNL d   1      -2.675  -4.731  -5.969  0.00  0.00     0.017 A 
ATOM      5  C4  UNL d   1      -3.114  -3.402  -5.955  0.00  0.00     0.017 A 
ATOM      6  C5  UNL d   1      -4.485  -3.123  -5.951  0.00  0.00     0.034 A 
ATOM      7 Cl   UNL d   1      -2.020  -2.064  -5.942  0.00  0.00    -0.070 Cl
ATOM      8 Cl1  UNL d   1      -1.001  -5.156  -5.975  0.00  0.00    -0.070 Cl
ENDROOT
TORSDOF 0
ENDMDL
