MODEL 1
REMARK minimizedAffinity 11.1606197
REMARK minimizedRMSD -1
REMARK  0 active torsions:
REMARK  status: ('A' for Active; 'I' for Inactive)
ROOT
ATOM      1  C   UNL d   1       1.746  -1.484  -4.182  0.00  0.00     0.020 A 
ATOM      2  C1  UNL d   1       1.454  -0.152  -3.889  0.00  0.00     0.020 A 
ATOM      3  C2  UNL d   1       0.216   0.386  -4.247  0.00  0.00     0.034 A 
ATOM      4  C3  UNL d   1      -0.734  -0.407  -4.900  0.00  0.00     0.017 A 
ATOM      5  C4  UNL d   1      -0.440  -1.744  -5.194  0.00  0.00     0.017 A 
ATOM      6  C5  UNL d   1       0.801  -2.278  -4.834  0.00  0.00     0.034 A 
ATOM      7 Cl   UNL d   1      -1.561  -2.784  -5.998  0.00  0.00    -0.070 Cl
ATOM      8 Cl1  UNL d   1      -2.244   0.324  -5.313  0.00  0.00    -0.070 Cl
ENDROOT
TORSDOF 0
ENDMDL
