MODEL 1
REMARK minimizedAffinity 9.13671684
REMARK minimizedRMSD -1
REMARK  0 active torsions:
REMARK  status: ('A' for Active; 'I' for Inactive)
ROOT
ATOM      1  C   UNL d   1      -3.711   3.682   1.939  0.00  0.00     0.020 A 
ATOM      2  C1  UNL d   1      -5.030   3.264   1.765  0.00  0.00     0.020 A 
ATOM      3  C2  UNL d   1      -5.337   1.902   1.770  0.00  0.00     0.034 A 
ATOM      4  C3  UNL d   1      -4.324   0.953   1.949  0.00  0.00     0.017 A 
ATOM      5  C4  UNL d   1      -3.001   1.374   2.124  0.00  0.00     0.017 A 
ATOM      6  C5  UNL d   1      -2.699   2.739   2.118  0.00  0.00     0.034 A 
ATOM      7 Cl   UNL d   1      -1.697   0.262   2.351  0.00  0.00    -0.070 Cl
ATOM      8 Cl1  UNL d   1      -4.776  -0.715   1.945  0.00  0.00    -0.070 Cl
ENDROOT
TORSDOF 0
ENDMDL
