MODEL 1
REMARK minimizedAffinity 8.2304163
REMARK minimizedRMSD -1
REMARK  0 active torsions:
REMARK  status: ('A' for Active; 'I' for Inactive)
ROOT
ATOM      1  C   UNL d   1      -4.890  -5.127  -5.963  0.00  0.00     0.020 A 
ATOM      2  C1  UNL d   1      -6.000  -4.552  -5.345  0.00  0.00     0.020 A 
ATOM      3  C2  UNL d   1      -5.896  -3.288  -4.760  0.00  0.00     0.034 A 
ATOM      4  C3  UNL d   1      -4.681  -2.595  -4.792  0.00  0.00     0.017 A 
ATOM      5  C4  UNL d   1      -3.567  -3.173  -5.412  0.00  0.00     0.017 A 
ATOM      6  C5  UNL d   1      -3.676  -4.439  -5.996  0.00  0.00     0.034 A 
ATOM      7 Cl   UNL d   1      -2.034  -2.379  -5.491  0.00  0.00    -0.070 Cl
ATOM      8 Cl1  UNL d   1      -4.625  -1.036  -4.049  0.00  0.00    -0.070 Cl
ENDROOT
TORSDOF 0
ENDMDL
