MODEL 1
REMARK minimizedAffinity 13.5244923
REMARK minimizedRMSD -1
REMARK  0 active torsions:
REMARK  status: ('A' for Active; 'I' for Inactive)
ROOT
ATOM      1  C   UNL d   1       2.652   5.782  -4.641  0.00  0.00     0.020 A 
ATOM      2  C1  UNL d   1       1.990   4.970  -5.562  0.00  0.00     0.020 A 
ATOM      3  C2  UNL d   1       2.564   3.763  -5.968  0.00  0.00     0.034 A 
ATOM      4  C3  UNL d   1       3.804   3.366  -5.453  0.00  0.00     0.017 A 
ATOM      5  C4  UNL d   1       4.467   4.181  -4.530  0.00  0.00     0.017 A 
ATOM      6  C5  UNL d   1       3.887   5.388  -4.126  0.00  0.00     0.034 A 
ATOM      7 Cl   UNL d   1       5.999   3.757  -3.851  0.00  0.00    -0.070 Cl
ATOM      8 Cl1  UNL d   1       4.455   1.861  -6.000  0.00  0.00    -0.070 Cl
ENDROOT
TORSDOF 0
ENDMDL
