MODEL 1
REMARK minimizedAffinity 12.8196659
REMARK minimizedRMSD -1
REMARK  0 active torsions:
REMARK  status: ('A' for Active; 'I' for Inactive)
ROOT
ATOM      1  C   UNL d   1      -2.718   1.354   1.247  0.00  0.00     0.020 A 
ATOM      2  C1  UNL d   1      -1.506   1.156   0.586  0.00  0.00     0.020 A 
ATOM      3  C2  UNL d   1      -0.538   0.317   1.141  0.00  0.00     0.034 A 
ATOM      4  C3  UNL d   1      -0.779  -0.327   2.361  0.00  0.00     0.017 A 
ATOM      5  C4  UNL d   1      -1.996  -0.127   3.023  0.00  0.00     0.017 A 
ATOM      6  C5  UNL d   1      -2.962   0.714   2.462  0.00  0.00     0.034 A 
ATOM      7 Cl   UNL d   1      -2.366  -0.887   4.530  0.00  0.00    -0.070 Cl
ATOM      8 Cl1  UNL d   1       0.463  -1.351   2.988  0.00  0.00    -0.070 Cl
ENDROOT
TORSDOF 0
ENDMDL
