MODEL 1
REMARK minimizedAffinity 10.7026196
REMARK minimizedRMSD -1
REMARK  0 active torsions:
REMARK  status: ('A' for Active; 'I' for Inactive)
ROOT
ATOM      1  C   UNL d   1      -1.787  -0.147   1.899  0.00  0.00     0.020 A 
ATOM      2  C1  UNL d   1      -1.713   1.245   1.911  0.00  0.00     0.020 A 
ATOM      3  C2  UNL d   1      -2.883   2.006   1.863  0.00  0.00     0.034 A 
ATOM      4  C3  UNL d   1      -4.131   1.376   1.804  0.00  0.00     0.017 A 
ATOM      5  C4  UNL d   1      -4.204  -0.022   1.792  0.00  0.00     0.017 A 
ATOM      6  C5  UNL d   1      -3.029  -0.779   1.840  0.00  0.00     0.034 A 
ATOM      7 Cl   UNL d   1      -5.707  -0.871   1.720  0.00  0.00    -0.070 Cl
ATOM      8 Cl1  UNL d   1      -5.536   2.380   1.747  0.00  0.00    -0.070 Cl
ENDROOT
TORSDOF 0
ENDMDL
