MODEL 1
REMARK minimizedAffinity 7.20840311
REMARK minimizedRMSD -1
REMARK  0 active torsions:
REMARK  status: ('A' for Active; 'I' for Inactive)
ROOT
ATOM      1  C   UNL d   1       3.707   4.253  -5.119  0.00  0.00     0.020 A 
ATOM      2  C1  UNL d   1       3.218   5.255  -4.283  0.00  0.00     0.020 A 
ATOM      3  C2  UNL d   1       2.510   4.917  -3.128  0.00  0.00     0.034 A 
ATOM      4  C3  UNL d   1       2.288   3.572  -2.806  0.00  0.00     0.017 A 
ATOM      5  C4  UNL d   1       2.780   2.567  -3.647  0.00  0.00     0.017 A 
ATOM      6  C5  UNL d   1       3.488   2.912  -4.802  0.00  0.00     0.034 A 
ATOM      7 Cl   UNL d   1       2.546   0.887  -3.317  0.00  0.00    -0.070 Cl
ATOM      8 Cl1  UNL d   1       1.405   3.226  -1.363  0.00  0.00    -0.070 Cl
ENDROOT
TORSDOF 0
ENDMDL
