MODEL 1
REMARK minimizedAffinity 7.59402466
REMARK minimizedRMSD -1
REMARK  0 active torsions:
REMARK  status: ('A' for Active; 'I' for Inactive)
ROOT
ATOM      1  C   UNL d   1      -2.068   0.042   2.718  0.00  0.00     0.020 A 
ATOM      2  C1  UNL d   1      -2.136   1.136   1.856  0.00  0.00     0.020 A 
ATOM      3  C2  UNL d   1      -0.970   1.819   1.502  0.00  0.00     0.034 A 
ATOM      4  C3  UNL d   1       0.268   1.411   2.012  0.00  0.00     0.017 A 
ATOM      5  C4  UNL d   1       0.335   0.313   2.878  0.00  0.00     0.017 A 
ATOM      6  C5  UNL d   1      -0.835  -0.368   3.228  0.00  0.00     0.034 A 
ATOM      7 Cl   UNL d   1       1.825  -0.250   3.546  0.00  0.00    -0.070 Cl
ATOM      8 Cl1  UNL d   1       1.668   2.302   1.532  0.00  0.00    -0.070 Cl
ENDROOT
TORSDOF 0
ENDMDL
