MODEL 1
REMARK minimizedAffinity 11.002306
REMARK minimizedRMSD -1
REMARK  0 active torsions:
REMARK  status: ('A' for Active; 'I' for Inactive)
ROOT
ATOM      1  C   UNL d   1      -3.350   0.064   1.241  0.00  0.00     0.020 A 
ATOM      2  C1  UNL d   1      -2.878   1.314   0.841  0.00  0.00     0.020 A 
ATOM      3  C2  UNL d   1      -1.577   1.705   1.163  0.00  0.00     0.034 A 
ATOM      4  C3  UNL d   1      -0.743   0.846   1.887  0.00  0.00     0.017 A 
ATOM      5  C4  UNL d   1      -1.217  -0.409   2.288  0.00  0.00     0.017 A 
ATOM      6  C5  UNL d   1      -2.521  -0.795   1.963  0.00  0.00     0.034 A 
ATOM      7 Cl   UNL d   1      -0.246  -1.524   3.184  0.00  0.00    -0.070 Cl
ATOM      8 Cl1  UNL d   1       0.855   1.394   2.250  0.00  0.00    -0.070 Cl
ENDROOT
TORSDOF 0
ENDMDL
