MODEL 1
REMARK minimizedAffinity 15.0926008
REMARK minimizedRMSD -1
REMARK  0 active torsions:
REMARK  status: ('A' for Active; 'I' for Inactive)
ROOT
ATOM      1  C   UNL d   1      -2.283   1.728   2.577  0.00  0.00     0.020 A 
ATOM      2  C1  UNL d   1      -1.130   1.266   1.944  0.00  0.00     0.020 A 
ATOM      3  C2  UNL d   1      -1.094  -0.025   1.413  0.00  0.00     0.034 A 
ATOM      4  C3  UNL d   1      -2.214  -0.859   1.516  0.00  0.00     0.017 A 
ATOM      5  C4  UNL d   1      -3.370  -0.395   2.152  0.00  0.00     0.017 A 
ATOM      6  C5  UNL d   1      -3.401   0.899   2.681  0.00  0.00     0.034 A 
ATOM      7 Cl   UNL d   1      -4.791  -1.366   2.317  0.00  0.00    -0.070 Cl
ATOM      8 Cl1  UNL d   1      -2.099  -2.444   0.837  0.00  0.00    -0.070 Cl
ENDROOT
TORSDOF 0
ENDMDL
