MODEL 1
REMARK minimizedAffinity 10.939806
REMARK minimizedRMSD -1
REMARK  0 active torsions:
REMARK  status: ('A' for Active; 'I' for Inactive)
ROOT
ATOM      1  C   UNL d   1      -1.364   0.718   1.943  0.00  0.00     0.020 A 
ATOM      2  C1  UNL d   1      -2.659   0.944   1.477  0.00  0.00     0.020 A 
ATOM      3  C2  UNL d   1      -3.344  -0.068   0.801  0.00  0.00     0.034 A 
ATOM      4  C3  UNL d   1      -2.735  -1.310   0.589  0.00  0.00     0.017 A 
ATOM      5  C4  UNL d   1      -1.435  -1.536   1.057  0.00  0.00     0.017 A 
ATOM      6  C5  UNL d   1      -0.754  -0.519   1.734  0.00  0.00     0.034 A 
ATOM      7 Cl   UNL d   1      -0.618  -3.042   0.834  0.00  0.00    -0.070 Cl
ATOM      8 Cl1  UNL d   1      -3.641  -2.516  -0.254  0.00  0.00    -0.070 Cl
ENDROOT
TORSDOF 0
ENDMDL
