MODEL 1
REMARK minimizedAffinity 1.56560099
REMARK minimizedRMSD -1
REMARK  0 active torsions:
REMARK  status: ('A' for Active; 'I' for Inactive)
ROOT
ATOM      1  C   UNL d   1      -0.367   2.550   2.883  0.00  0.00     0.020 A 
ATOM      2  C1  UNL d   1      -0.077   1.197   2.707  0.00  0.00     0.020 A 
ATOM      3  C2  UNL d   1      -1.080   0.316   2.299  0.00  0.00     0.034 A 
ATOM      4  C3  UNL d   1      -2.378   0.785   2.066  0.00  0.00     0.017 A 
ATOM      5  C4  UNL d   1      -2.668   2.143   2.243  0.00  0.00     0.017 A 
ATOM      6  C5  UNL d   1      -1.659   3.021   2.651  0.00  0.00     0.034 A 
ATOM      7 Cl   UNL d   1      -4.245   2.797   1.975  0.00  0.00    -0.070 Cl
ATOM      8 Cl1  UNL d   1      -3.569  -0.361   1.563  0.00  0.00    -0.070 Cl
ENDROOT
TORSDOF 0
ENDMDL
