MODEL 1
REMARK minimizedAffinity 4.10186768
REMARK minimizedRMSD -1
REMARK  0 active torsions:
REMARK  status: ('A' for Active; 'I' for Inactive)
ROOT
ATOM      1  C   UNL d   1       4.245  -0.447  -5.994  0.00  0.00     0.020 A 
ATOM      2  C1  UNL d   1       3.563  -1.072  -4.951  0.00  0.00     0.020 A 
ATOM      3  C2  UNL d   1       3.026  -0.308  -3.912  0.00  0.00     0.034 A 
ATOM      4  C3  UNL d   1       3.170   1.084  -3.914  0.00  0.00     0.017 A 
ATOM      5  C4  UNL d   1       3.855   1.710  -4.962  0.00  0.00     0.017 A 
ATOM      6  C5  UNL d   1       4.390   0.941  -6.000  0.00  0.00     0.034 A 
ATOM      7 Cl   UNL d   1       4.073   3.423  -5.034  0.00  0.00    -0.070 Cl
ATOM      8 Cl1  UNL d   1       2.481   1.965  -2.597  0.00  0.00    -0.070 Cl
ENDROOT
TORSDOF 0
ENDMDL
