MODEL 1
REMARK minimizedAffinity 3.84173441
REMARK minimizedRMSD -1
REMARK  1 active torsions:
REMARK  status: ('A' for Active; 'I' for Inactive)
REMARK    1  A    between atoms: C1_2  and  C2_3 
ROOT
ATOM      1  C2  UNL d   1       1.326  -2.434  -0.705  0.00  0.00    -0.077 A 
ATOM      2  C3  UNL d   1       0.728  -1.736  -1.764  0.00  0.00     0.002 A 
ATOM      3  C4  UNL d   1      -0.428  -2.230  -2.372  0.00  0.00     0.002 A 
ATOM      4  C5  UNL d   1      -0.998  -3.420  -1.925  0.00  0.00    -0.004 A 
ATOM      5  C6  UNL d   1      -0.409  -4.123  -0.874  0.00  0.00     0.002 A 
ATOM      6  C7  UNL d   1       0.747  -3.631  -0.266  0.00  0.00     0.002 A 
ENDROOT
BRANCH   1   7
ATOM      7  C1  UNL d   1       2.545  -1.878  -0.016  0.00  0.00     0.055 C 
ATOM      8  C   UNL d   1       2.976  -0.556  -0.635  0.00  0.00     0.019 C 
ENDBRANCH   1   7
TORSDOF 1
ENDMDL
