MODEL 1
REMARK minimizedAffinity -0.923919737
REMARK minimizedRMSD -1
REMARK  1 active torsions:
REMARK  status: ('A' for Active; 'I' for Inactive)
REMARK    1  A    between atoms: C1_2  and  C2_3 
ROOT
ATOM      1  C2  UNL d   1       2.036   1.663   0.827  0.00  0.00    -0.077 A 
ATOM      2  C3  UNL d   1       0.951   1.512  -0.049  0.00  0.00     0.002 A 
ATOM      3  C4  UNL d   1      -0.343   1.357   0.450  0.00  0.00     0.002 A 
ATOM      4  C5  UNL d   1      -0.566   1.356   1.826  0.00  0.00    -0.004 A 
ATOM      5  C6  UNL d   1       0.506   1.503   2.705  0.00  0.00     0.002 A 
ATOM      6  C7  UNL d   1       1.801   1.656   2.208  0.00  0.00     0.002 A 
ENDROOT
BRANCH   1   7
ATOM      7  C1  UNL d   1       3.426   1.880   0.290  0.00  0.00     0.055 C 
ATOM      8  C   UNL d   1       3.814   0.790  -0.699  0.00  0.00     0.019 C 
ENDBRANCH   1   7
TORSDOF 1
ENDMDL
