MODEL 1
REMARK minimizedAffinity 7.9612546
REMARK minimizedRMSD -1
REMARK  1 active torsions:
REMARK  status: ('A' for Active; 'I' for Inactive)
REMARK    1  A    between atoms: C1_2  and  C2_3 
ROOT
ATOM      1  C2  UNL d   1       3.622   0.380  -0.548  0.00  0.00    -0.077 A 
ATOM      2  C3  UNL d   1       3.763   1.653  -1.119  0.00  0.00     0.002 A 
ATOM      3  C4  UNL d   1       4.947   2.374  -0.953  0.00  0.00     0.002 A 
ATOM      4  C5  UNL d   1       5.999   1.830  -0.220  0.00  0.00    -0.004 A 
ATOM      5  C6  UNL d   1       5.868   0.566   0.353  0.00  0.00     0.002 A 
ATOM      6  C7  UNL d   1       4.685  -0.156   0.189  0.00  0.00     0.002 A 
ENDROOT
BRANCH   1   7
ATOM      7  C1  UNL d   1       2.365  -0.420  -0.768  0.00  0.00     0.055 C 
ATOM      8  C   UNL d   1       2.657  -1.913  -0.796  0.00  0.00     0.019 C 
ENDBRANCH   1   7
TORSDOF 1
ENDMDL
