MODEL 1
REMARK minimizedAffinity 5.23843479
REMARK minimizedRMSD -1
REMARK  1 active torsions:
REMARK  status: ('A' for Active; 'I' for Inactive)
REMARK    1  A    between atoms: C1_2  and  C2_3 
ROOT
ATOM      1  C2  UNL d   1       3.943  -0.591  -0.589  0.00  0.00    -0.077 A 
ATOM      2  C3  UNL d   1       3.959   0.485  -1.486  0.00  0.00     0.002 A 
ATOM      3  C4  UNL d   1       4.982   1.434  -1.434  0.00  0.00     0.002 A 
ATOM      4  C5  UNL d   1       5.999   1.312  -0.490  0.00  0.00    -0.004 A 
ATOM      5  C6  UNL d   1       5.991   0.246   0.409  0.00  0.00     0.002 A 
ATOM      6  C7  UNL d   1       4.969  -0.702   0.359  0.00  0.00     0.002 A 
ENDROOT
BRANCH   1   7
ATOM      7  C1  UNL d   1       2.867  -1.642  -0.675  0.00  0.00     0.055 C 
ATOM      8  C   UNL d   1       2.944  -2.611   0.496  0.00  0.00     0.019 C 
ENDBRANCH   1   7
TORSDOF 1
ENDMDL
