MODEL 1
REMARK minimizedAffinity 5.60043907
REMARK minimizedRMSD -1
REMARK  1 active torsions:
REMARK  status: ('A' for Active; 'I' for Inactive)
REMARK    1  A    between atoms: C1_2  and  C2_3 
ROOT
ATOM      1  C2  UNL d   1       3.321  -0.887   0.046  0.00  0.00    -0.077 A 
ATOM      2  C3  UNL d   1       3.062   0.184  -0.821  0.00  0.00     0.002 A 
ATOM      3  C4  UNL d   1       3.997   1.210  -0.975  0.00  0.00     0.002 A 
ATOM      4  C5  UNL d   1       5.197   1.173  -0.269  0.00  0.00    -0.004 A 
ATOM      5  C6  UNL d   1       5.463   0.114   0.598  0.00  0.00     0.002 A 
ATOM      6  C7  UNL d   1       4.530  -0.912   0.754  0.00  0.00     0.002 A 
ENDROOT
BRANCH   1   7
ATOM      7  C1  UNL d   1       2.336  -2.019   0.176  0.00  0.00     0.055 C 
ATOM      8  C   UNL d   1       1.956  -2.581  -1.186  0.00  0.00     0.019 C 
ENDBRANCH   1   7
TORSDOF 1
ENDMDL
