MODEL 1
REMARK minimizedAffinity 1.74197578
REMARK minimizedRMSD -1
REMARK  1 active torsions:
REMARK  status: ('A' for Active; 'I' for Inactive)
REMARK    1  A    between atoms: C1_2  and  C2_3 
ROOT
ATOM      1  C2  UNL d   1       3.001  -1.303  -0.456  0.00  0.00    -0.077 A 
ATOM      2  C3  UNL d   1       3.455  -0.169   0.232  0.00  0.00     0.002 A 
ATOM      3  C4  UNL d   1       4.306   0.744  -0.395  0.00  0.00     0.002 A 
ATOM      4  C5  UNL d   1       4.705   0.535  -1.713  0.00  0.00    -0.004 A 
ATOM      5  C6  UNL d   1       4.260  -0.591  -2.405  0.00  0.00     0.002 A 
ATOM      6  C7  UNL d   1       3.411  -1.505  -1.780  0.00  0.00     0.002 A 
ENDROOT
BRANCH   1   7
ATOM      7  C1  UNL d   1       2.044  -2.263   0.202  0.00  0.00     0.055 C 
ATOM      8  C   UNL d   1       1.248  -3.047  -0.831  0.00  0.00     0.019 C 
ENDBRANCH   1   7
TORSDOF 1
ENDMDL
