MODEL 1
REMARK minimizedAffinity -1.09796774
REMARK minimizedRMSD -1
REMARK  0 active torsions:
REMARK  status: ('A' for Active; 'I' for Inactive)
ROOT
ATOM      1  C   UNL d   1       5.998   5.989  -1.848  0.00  0.00     0.172 C 
ATOM      2  N   UNL d   1       5.468   5.269  -2.982  0.00  0.00    -0.070 N 
ATOM      3  C1  UNL d   1       6.000   4.131  -3.525  0.00  0.00    -0.004 A 
ATOM      4  C2  UNL d   1       5.204   3.757  -4.587  0.00  0.00    -0.047 A 
ATOM      5  C3  UNL d   1       4.158   4.705  -4.686  0.00  0.00    -0.047 A 
ATOM      6  C4  UNL d   1       4.345   5.630  -3.680  0.00  0.00    -0.004 A 
ENDROOT
TORSDOF 0
ENDMDL
