MODEL 1
REMARK minimizedAffinity -1.94363868
REMARK minimizedRMSD -1
REMARK  0 active torsions:
REMARK  status: ('A' for Active; 'I' for Inactive)
ROOT
ATOM      1  C   UNL d   1       6.000  -3.638   5.842  0.00  0.00     0.172 C 
ATOM      2  N   UNL d   1       4.907  -2.968   5.177  0.00  0.00    -0.070 N 
ATOM      3  C1  UNL d   1       4.495  -3.197   3.891  0.00  0.00    -0.004 A 
ATOM      4  C2  UNL d   1       3.428  -2.362   3.635  0.00  0.00    -0.047 A 
ATOM      5  C3  UNL d   1       3.192  -1.606   4.807  0.00  0.00    -0.047 A 
ATOM      6  C4  UNL d   1       4.121  -2.001   5.746  0.00  0.00    -0.004 A 
ENDROOT
TORSDOF 0
ENDMDL
