MODEL 1
REMARK minimizedAffinity -1.50174701
REMARK minimizedRMSD -1
REMARK  0 active torsions:
REMARK  status: ('A' for Active; 'I' for Inactive)
ROOT
ATOM      1  C   UNL d   1       3.813  -3.227   2.538  0.00  0.00     0.172 C 
ATOM      2  N   UNL d   1       4.332  -3.182   3.885  0.00  0.00    -0.070 N 
ATOM      3  C1  UNL d   1       5.304  -4.002   4.394  0.00  0.00    -0.004 A 
ATOM      4  C2  UNL d   1       5.516  -3.642   5.707  0.00  0.00    -0.047 A 
ATOM      5  C3  UNL d   1       4.640  -2.569   5.998  0.00  0.00    -0.047 A 
ATOM      6  C4  UNL d   1       3.919  -2.305   4.852  0.00  0.00    -0.004 A 
ENDROOT
TORSDOF 0
ENDMDL
