MODEL 1
REMARK minimizedAffinity 1.21275127
REMARK minimizedRMSD -1
REMARK  0 active torsions:
REMARK  status: ('A' for Active; 'I' for Inactive)
ROOT
ATOM      1  C   UNL d   1       5.781  -2.959   5.929  0.00  0.00     0.172 C 
ATOM      2  N   UNL d   1       4.701  -2.388   5.159  0.00  0.00    -0.070 N 
ATOM      3  C1  UNL d   1       3.886  -1.365   5.563  0.00  0.00    -0.004 A 
ATOM      4  C2  UNL d   1       2.987  -1.115   4.549  0.00  0.00    -0.047 A 
ATOM      5  C3  UNL d   1       3.271  -2.021   3.499  0.00  0.00    -0.047 A 
ATOM      6  C4  UNL d   1       4.336  -2.797   3.903  0.00  0.00    -0.004 A 
ENDROOT
TORSDOF 0
ENDMDL
