MODEL 1
REMARK minimizedAffinity 6.70624161
REMARK minimizedRMSD -1
REMARK  0 active torsions:
REMARK  status: ('A' for Active; 'I' for Inactive)
ROOT
ATOM      1  C   UNL d   1      -5.734  -5.991  -4.280  0.00  0.00     0.172 C 
ATOM      2  N   UNL d   1      -4.350  -5.993  -4.690  0.00  0.00    -0.070 N 
ATOM      3  C1  UNL d   1      -3.900  -5.991  -5.984  0.00  0.00    -0.004 A 
ATOM      4  C2  UNL d   1      -2.522  -5.994  -5.952  0.00  0.00    -0.047 A 
ATOM      5  C3  UNL d   1      -2.130  -5.999  -4.592  0.00  0.00    -0.047 A 
ATOM      6  C4  UNL d   1      -3.281  -5.998  -3.833  0.00  0.00    -0.004 A 
ENDROOT
TORSDOF 0
ENDMDL
