MODEL 1
REMARK minimizedAffinity -0.516026199
REMARK minimizedRMSD -1
REMARK  0 active torsions:
REMARK  status: ('A' for Active; 'I' for Inactive)
ROOT
ATOM      1  C   UNL d   1       6.000  -4.293   5.883  0.00  0.00     0.172 C 
ATOM      2  N   UNL d   1       5.341  -3.009   5.928  0.00  0.00    -0.070 N 
ATOM      3  C1  UNL d   1       5.966  -1.791   5.963  0.00  0.00    -0.004 A 
ATOM      4  C2  UNL d   1       4.992  -0.817   6.000  0.00  0.00    -0.047 A 
ATOM      5  C3  UNL d   1       3.737  -1.473   5.988  0.00  0.00    -0.047 A 
ATOM      6  C4  UNL d   1       3.983  -2.829   5.943  0.00  0.00    -0.004 A 
ENDROOT
TORSDOF 0
ENDMDL
