MODEL 1
REMARK minimizedAffinity -0.91477865
REMARK minimizedRMSD -1
REMARK  0 active torsions:
REMARK  status: ('A' for Active; 'I' for Inactive)
ROOT
ATOM      1  C   UNL d   1       2.424  -1.331   5.996  0.00  0.00     0.172 C 
ATOM      2  N   UNL d   1       3.778  -1.832   5.979  0.00  0.00    -0.070 N 
ATOM      3  C1  UNL d   1       4.141  -3.153   5.996  0.00  0.00    -0.004 A 
ATOM      4  C2  UNL d   1       5.517  -3.213   5.970  0.00  0.00    -0.047 A 
ATOM      5  C3  UNL d   1       5.999  -1.883   5.938  0.00  0.00    -0.047 A 
ATOM      6  C4  UNL d   1       4.901  -1.048   5.945  0.00  0.00    -0.004 A 
ENDROOT
TORSDOF 0
ENDMDL
