MODEL 1
REMARK minimizedAffinity 0.746741414
REMARK minimizedRMSD -1
REMARK  0 active torsions:
REMARK  status: ('A' for Active; 'I' for Inactive)
ROOT
ATOM      1  C   UNL d   1       6.000  -3.850   5.998  0.00  0.00     0.172 C 
ATOM      2  N   UNL d   1       4.981  -3.161   5.241  0.00  0.00    -0.070 N 
ATOM      3  C1  UNL d   1       4.450  -3.582   4.051  0.00  0.00    -0.004 A 
ATOM      4  C2  UNL d   1       3.512  -2.652   3.656  0.00  0.00    -0.047 A 
ATOM      5  C3  UNL d   1       3.480  -1.638   4.642  0.00  0.00    -0.047 A 
ATOM      6  C4  UNL d   1       4.399  -1.978   5.611  0.00  0.00    -0.004 A 
ENDROOT
TORSDOF 0
ENDMDL
