MODEL 1
REMARK minimizedAffinity -1.01715529
REMARK minimizedRMSD -1
REMARK  0 active torsions:
REMARK  status: ('A' for Active; 'I' for Inactive)
ROOT
ATOM      1  C   UNL d   1       2.599   5.629  -3.387  0.00  0.00     0.172 C 
ATOM      2  N   UNL d   1       3.960   5.268  -3.066  0.00  0.00    -0.070 N 
ATOM      3  C1  UNL d   1       4.618   4.155  -3.516  0.00  0.00    -0.004 A 
ATOM      4  C2  UNL d   1       5.890   4.174  -2.987  0.00  0.00    -0.047 A 
ATOM      5  C3  UNL d   1       6.000   5.338  -2.190  0.00  0.00    -0.047 A 
ATOM      6  C4  UNL d   1       4.791   5.997  -2.257  0.00  0.00    -0.004 A 
ENDROOT
TORSDOF 0
ENDMDL
