MODEL 1
REMARK minimizedAffinity 1.94673073
REMARK minimizedRMSD -1
REMARK  0 active torsions:
REMARK  status: ('A' for Active; 'I' for Inactive)
ROOT
ATOM      1  C   UNL d   1       2.432  -2.443  -3.068  0.00  0.00     0.172 C 
ATOM      2  N   UNL d   1       1.055  -2.524  -2.639  0.00  0.00    -0.070 N 
ATOM      3  C1  UNL d   1       0.544  -1.986  -1.489  0.00  0.00    -0.004 A 
ATOM      4  C2  UNL d   1      -0.801  -2.281  -1.446  0.00  0.00    -0.047 A 
ATOM      5  C3  UNL d   1      -1.110  -3.023  -2.610  0.00  0.00    -0.047 A 
ATOM      6  C4  UNL d   1       0.058  -3.160  -3.331  0.00  0.00    -0.004 A 
ENDROOT
TORSDOF 0
ENDMDL
