MODEL 1
REMARK minimizedAffinity -1.64409578
REMARK minimizedRMSD -1
REMARK  0 active torsions:
REMARK  status: ('A' for Active; 'I' for Inactive)
ROOT
ATOM      1  C   UNL d   1       2.968   5.998  -3.748  0.00  0.00     0.172 C 
ATOM      2  N   UNL d   1       4.162   5.187  -3.715  0.00  0.00    -0.070 N 
ATOM      3  C1  UNL d   1       4.973   5.003  -2.627  0.00  0.00    -0.004 A 
ATOM      4  C2  UNL d   1       6.000   4.165  -3.003  0.00  0.00    -0.047 A 
ATOM      5  C3  UNL d   1       5.800   3.835  -4.364  0.00  0.00    -0.047 A 
ATOM      6  C4  UNL d   1       4.655   4.481  -4.780  0.00  0.00    -0.004 A 
ENDROOT
TORSDOF 0
ENDMDL
