MODEL 1
REMARK minimizedAffinity 1.9353677
REMARK minimizedRMSD -1
REMARK  0 active torsions:
REMARK  status: ('A' for Active; 'I' for Inactive)
ROOT
ATOM      1  C   UNL d   1       5.869   2.501  -3.776  0.00  0.00     0.172 C 
ATOM      2  N   UNL d   1       5.588   3.914  -3.682  0.00  0.00    -0.070 N 
ATOM      3  C1  UNL d   1       4.875   4.648  -4.593  0.00  0.00    -0.004 A 
ATOM      4  C2  UNL d   1       4.830   5.950  -4.142  0.00  0.00    -0.047 A 
ATOM      5  C3  UNL d   1       5.540   6.000  -2.920  0.00  0.00    -0.047 A 
ATOM      6  C4  UNL d   1       5.999   4.726  -2.658  0.00  0.00    -0.004 A 
ENDROOT
TORSDOF 0
ENDMDL
