MODEL 1
REMARK minimizedAffinity 10.2655678
REMARK minimizedRMSD -1
REMARK  1 active torsions:
REMARK  status: ('A' for Active; 'I' for Inactive)
REMARK    1  A    between atoms: C1_2  and  C2_3 
ROOT
ATOM      1  C2  UNL d   1       2.360  -2.486   3.766  0.00  0.00    -0.077 A 
ATOM      2  C3  UNL d   1       2.177  -3.818   3.369  0.00  0.00     0.002 A 
ATOM      3  C4  UNL d   1       3.065  -4.809   3.790  0.00  0.00     0.002 A 
ATOM      4  C5  UNL d   1       4.139  -4.480   4.614  0.00  0.00    -0.004 A 
ATOM      5  C6  UNL d   1       4.331  -3.158   5.014  0.00  0.00     0.002 A 
ATOM      6  C7  UNL d   1       3.445  -2.166   4.592  0.00  0.00     0.002 A 
ENDROOT
BRANCH   1   7
ATOM      7  C1  UNL d   1       1.376  -1.423   3.353  0.00  0.00     0.055 C 
ATOM      8  C   UNL d   1       1.945  -0.538   2.254  0.00  0.00     0.019 C 
ENDBRANCH   1   7
TORSDOF 1
ENDMDL
