MODEL 1
REMARK minimizedAffinity 9.1078167
REMARK minimizedRMSD -1
REMARK  1 active torsions:
REMARK  status: ('A' for Active; 'I' for Inactive)
REMARK    1  A    between atoms: C1_2  and  C2_3 
ROOT
ATOM      1  C2  UNL d   1       0.737  -0.758   0.901  0.00  0.00    -0.077 A 
ATOM      2  C3  UNL d   1       1.278  -1.680  -0.006  0.00  0.00     0.002 A 
ATOM      3  C4  UNL d   1       0.475  -2.249  -0.997  0.00  0.00     0.002 A 
ATOM      4  C5  UNL d   1      -0.870  -1.900  -1.092  0.00  0.00    -0.004 A 
ATOM      5  C6  UNL d   1      -1.417  -0.986  -0.193  0.00  0.00     0.002 A 
ATOM      6  C7  UNL d   1      -0.617  -0.416   0.798  0.00  0.00     0.002 A 
ENDROOT
BRANCH   1   7
ATOM      7  C1  UNL d   1       1.613  -0.105   1.939  0.00  0.00     0.055 C 
ATOM      8  C   UNL d   1       2.323  -1.143   2.796  0.00  0.00     0.019 C 
ENDBRANCH   1   7
TORSDOF 1
ENDMDL
