MODEL 1
REMARK minimizedAffinity -1.0259515
REMARK minimizedRMSD -1
REMARK  1 active torsions:
REMARK  status: ('A' for Active; 'I' for Inactive)
REMARK    1  A    between atoms: C3_4  and  O_7 
ROOT
ATOM      1  C   UNL d   1      -0.146  -1.346   3.301  0.00  0.00    -0.033 A 
ATOM      2  C1  UNL d   1      -0.741  -0.627   2.262  0.00  0.00     0.039 A 
ATOM      3  C2  UNL d   1      -0.328  -0.830   0.944  0.00  0.00    -0.080 A 
ATOM      4  C3  UNL d   1       0.679  -1.755   0.678  0.00  0.00     0.150 A 
ATOM      5  C4  UNL d   1       1.273  -2.477   1.708  0.00  0.00    -0.007 A 
ATOM      6  C5  UNL d   1       0.860  -2.272   3.023  0.00  0.00     0.039 A 
ENDROOT
BRANCH   4   7
ATOM      7  O   UNL d   1       1.118  -1.984  -0.592  0.00  0.00    -0.526 OA
ATOM      8  H5  UNL d   1       0.637  -1.393  -1.195  0.00  0.00     0.418 HD
ENDBRANCH   4   7
TORSDOF 1
ENDMDL
