MODEL 1
REMARK minimizedAffinity 2.77400064
REMARK minimizedRMSD -1
REMARK  1 active torsions:
REMARK  status: ('A' for Active; 'I' for Inactive)
REMARK    1  A    between atoms: C3_4  and  O_7 
ROOT
ATOM      1  C   UNL d   1       2.589  -2.987   0.234  0.00  0.00    -0.033 A 
ATOM      2  C1  UNL d   1       2.337  -3.661   1.431  0.00  0.00     0.039 A 
ATOM      3  C2  UNL d   1       1.487  -3.097   2.385  0.00  0.00    -0.080 A 
ATOM      4  C3  UNL d   1       0.896  -1.863   2.130  0.00  0.00     0.150 A 
ATOM      5  C4  UNL d   1       1.140  -1.188   0.938  0.00  0.00    -0.007 A 
ATOM      6  C5  UNL d   1       1.990  -1.752  -0.013  0.00  0.00     0.039 A 
ENDROOT
BRANCH   4   7
ATOM      7  O   UNL d   1       0.063  -1.271   3.033  0.00  0.00    -0.526 OA
ATOM      8  H5  UNL d   1       0.011  -1.838   3.820  0.00  0.00     0.418 HD
ENDBRANCH   4   7
TORSDOF 1
ENDMDL
