MODEL 1
REMARK minimizedAffinity 4.88020515
REMARK minimizedRMSD -1
REMARK  1 active torsions:
REMARK  status: ('A' for Active; 'I' for Inactive)
REMARK    1  A    between atoms: C3_4  and  O_7 
ROOT
ATOM      1  C   UNL d   1       1.185   4.139   5.328  0.00  0.00    -0.033 A 
ATOM      2  C1  UNL d   1       1.513   5.318   6.000  0.00  0.00     0.039 A 
ATOM      3  C2  UNL d   1       2.725   5.959   5.737  0.00  0.00    -0.080 A 
ATOM      4  C3  UNL d   1       3.598   5.413   4.800  0.00  0.00     0.150 A 
ATOM      5  C4  UNL d   1       3.276   4.240   4.124  0.00  0.00    -0.007 A 
ATOM      6  C5  UNL d   1       2.066   3.601   4.389  0.00  0.00     0.039 A 
ENDROOT
BRANCH   4   7
ATOM      7  O   UNL d   1       4.795   6.000   4.513  0.00  0.00    -0.526 OA
ATOM      8  H5  UNL d   1       4.895   6.785   5.077  0.00  0.00     0.418 HD
ENDBRANCH   4   7
TORSDOF 1
ENDMDL
