MODEL 1
REMARK minimizedAffinity 8.04508209
REMARK minimizedRMSD -1
REMARK  1 active torsions:
REMARK  status: ('A' for Active; 'I' for Inactive)
REMARK    1  A    between atoms: C3_4  and  O_7 
ROOT
ATOM      1  C   UNL d   1       5.988  -0.556  -1.126  0.00  0.00    -0.033 A 
ATOM      2  C1  UNL d   1       5.991   0.753  -1.613  0.00  0.00     0.039 A 
ATOM      3  C2  UNL d   1       5.996   1.830  -0.724  0.00  0.00    -0.080 A 
ATOM      4  C3  UNL d   1       5.998   1.585   0.646  0.00  0.00     0.150 A 
ATOM      5  C4  UNL d   1       5.999   0.283   1.138  0.00  0.00    -0.007 A 
ATOM      6  C5  UNL d   1       5.993  -0.791   0.249  0.00  0.00     0.039 A 
ENDROOT
BRANCH   4   7
ATOM      7  O   UNL d   1       5.998   2.603   1.552  0.00  0.00    -0.526 OA
ATOM      8  H5  UNL d   1       5.968   3.446   1.068  0.00  0.00     0.418 HD
ENDBRANCH   4   7
TORSDOF 1
ENDMDL
