MODEL 1
REMARK minimizedAffinity 1.99067962
REMARK minimizedRMSD -1
REMARK  1 active torsions:
REMARK  status: ('A' for Active; 'I' for Inactive)
REMARK    1  A    between atoms: C3_4  and  O_7 
ROOT
ATOM      1  C   UNL d   1       1.636   3.058  -5.305  0.00  0.00    -0.033 A 
ATOM      2  C1  UNL d   1       1.502   3.742  -4.095  0.00  0.00     0.039 A 
ATOM      3  C2  UNL d   1       0.479   3.401  -3.208  0.00  0.00    -0.080 A 
ATOM      4  C3  UNL d   1      -0.401   2.375  -3.542  0.00  0.00     0.150 A 
ATOM      5  C4  UNL d   1      -0.271   1.687  -4.744  0.00  0.00    -0.007 A 
ATOM      6  C5  UNL d   1       0.750   2.030  -5.629  0.00  0.00     0.039 A 
ENDROOT
BRANCH   4   7
ATOM      7  O   UNL d   1      -1.418   2.010  -2.710  0.00  0.00    -0.526 OA
ATOM      8  H5  UNL d   1      -1.402   2.591  -1.931  0.00  0.00     0.418 HD
ENDBRANCH   4   7
TORSDOF 1
ENDMDL
