MODEL 1
REMARK minimizedAffinity 8.80606079
REMARK minimizedRMSD -1
REMARK  1 active torsions:
REMARK  status: ('A' for Active; 'I' for Inactive)
REMARK    1  A    between atoms: C3_4  and  O_7 
ROOT
ATOM      1  C   UNL d   1      -0.792   2.032  -2.302  0.00  0.00    -0.033 A 
ATOM      2  C1  UNL d   1      -2.128   1.631  -2.260  0.00  0.00     0.039 A 
ATOM      3  C2  UNL d   1      -3.144   2.545  -2.547  0.00  0.00    -0.080 A 
ATOM      4  C3  UNL d   1      -2.809   3.856  -2.876  0.00  0.00     0.150 A 
ATOM      5  C4  UNL d   1      -1.480   4.262  -2.924  0.00  0.00    -0.007 A 
ATOM      6  C5  UNL d   1      -0.468   3.348  -2.636  0.00  0.00     0.039 A 
ENDROOT
BRANCH   4   7
ATOM      7  O   UNL d   1      -3.766   4.785  -3.160  0.00  0.00    -0.526 OA
ATOM      8  H5  UNL d   1      -4.638   4.369  -3.060  0.00  0.00     0.418 HD
ENDBRANCH   4   7
TORSDOF 1
ENDMDL
