MODEL 1
REMARK minimizedAffinity 6.83852768
REMARK minimizedRMSD -1
REMARK  1 active torsions:
REMARK  status: ('A' for Active; 'I' for Inactive)
REMARK    1  A    between atoms: C1_2  and  C2_3 
ROOT
ATOM      1  C2  UNL d   1      -2.254  -3.436   0.607  0.00  0.00    -0.076 A 
ATOM      2  C3  UNL d   1      -2.873  -4.679   0.387  0.00  0.00     0.004 A 
ATOM      3  C4  UNL d   1      -2.438  -5.824   1.053  0.00  0.00    -0.003 A 
ATOM      4  C5  UNL d   1      -1.379  -5.744   1.950  0.00  0.00     0.000 A 
ATOM      5  C6  UNL d   1      -0.766  -4.516   2.194  0.00  0.00     0.000 A 
ATOM      6  C7  UNL d   1      -1.202  -3.349   1.543  0.00  0.00    -0.073 A 
ATOM      7  C8  UNL d   1      -0.500  -2.052   1.839  0.00  0.00     0.078 C 
ENDROOT
BRANCH   1   8
ATOM      8  C1  UNL d   1      -2.751  -2.234  -0.165  0.00  0.00     0.053 C 
ATOM      9  C   UNL d   1      -2.812  -2.488  -1.663  0.00  0.00     0.018 C 
ENDBRANCH   1   8
TORSDOF 1
ENDMDL
