MODEL 1
REMARK minimizedAffinity 20.8616276
REMARK minimizedRMSD -1
REMARK  1 active torsions:
REMARK  status: ('A' for Active; 'I' for Inactive)
REMARK    1  A    between atoms: C1_2  and  C2_3 
ROOT
ATOM      1  C2  UNL d   1      -1.456   0.743   3.567  0.00  0.00    -0.076 A 
ATOM      2  C3  UNL d   1      -2.686   0.066   3.631  0.00  0.00     0.004 A 
ATOM      3  C4  UNL d   1      -3.888   0.767   3.706  0.00  0.00    -0.003 A 
ATOM      4  C5  UNL d   1      -3.880   2.158   3.719  0.00  0.00     0.000 A 
ATOM      5  C6  UNL d   1      -2.669   2.846   3.639  0.00  0.00     0.000 A 
ATOM      6  C7  UNL d   1      -1.450   2.154   3.546  0.00  0.00    -0.073 A 
ATOM      7  C8  UNL d   1      -0.174   2.947   3.468  0.00  0.00     0.078 C 
ENDROOT
BRANCH   1   8
ATOM      8  C1  UNL d   1      -0.183  -0.071   3.514  0.00  0.00     0.053 C 
ATOM      9  C   UNL d   1       0.491  -0.189   4.873  0.00  0.00     0.018 C 
ENDBRANCH   1   8
TORSDOF 1
ENDMDL
