MODEL 1
REMARK minimizedAffinity 17.6574001
REMARK minimizedRMSD -1
REMARK  1 active torsions:
REMARK  status: ('A' for Active; 'I' for Inactive)
REMARK    1  A    between atoms: C1_2  and  C2_3 
ROOT
ATOM      1  C2  UNL d   1      -4.464   1.831   4.236  0.00  0.00    -0.076 A 
ATOM      2  C3  UNL d   1      -4.000   3.157   4.188  0.00  0.00     0.004 A 
ATOM      3  C4  UNL d   1      -4.534   4.134   5.027  0.00  0.00    -0.003 A 
ATOM      4  C5  UNL d   1      -5.540   3.801   5.927  0.00  0.00     0.000 A 
ATOM      5  C6  UNL d   1      -6.000   2.487   6.000  0.00  0.00     0.000 A 
ATOM      6  C7  UNL d   1      -5.461   1.486   5.173  0.00  0.00    -0.073 A 
ATOM      7  C8  UNL d   1      -5.999   0.086   5.289  0.00  0.00     0.078 C 
ENDROOT
BRANCH   1   8
ATOM      8  C1  UNL d   1      -3.867   0.820   3.283  0.00  0.00     0.053 C 
ATOM      9  C   UNL d   1      -4.904   0.214   2.351  0.00  0.00     0.018 C 
ENDBRANCH   1   8
TORSDOF 1
ENDMDL
