MODEL 1
REMARK minimizedAffinity 10.0029678
REMARK minimizedRMSD -1
REMARK  1 active torsions:
REMARK  status: ('A' for Active; 'I' for Inactive)
REMARK    1  A    between atoms: C1_2  and  C2_3 
ROOT
ATOM      1  C2  UNL d   1      -5.388   0.890   3.636  0.00  0.00    -0.076 A 
ATOM      2  C3  UNL d   1      -5.969   0.378   4.810  0.00  0.00     0.004 A 
ATOM      3  C4  UNL d   1      -5.999   1.131   5.982  0.00  0.00    -0.003 A 
ATOM      4  C5  UNL d   1      -5.451   2.409   6.000  0.00  0.00     0.000 A 
ATOM      5  C6  UNL d   1      -4.886   2.939   4.840  0.00  0.00     0.000 A 
ATOM      6  C7  UNL d   1      -4.862   2.199   3.646  0.00  0.00    -0.073 A 
ATOM      7  C8  UNL d   1      -4.235   2.818   2.426  0.00  0.00     0.078 C 
ENDROOT
BRANCH   1   8
ATOM      8  C1  UNL d   1      -5.359   0.016   2.403  0.00  0.00     0.053 C 
ATOM      9  C   UNL d   1      -4.021  -0.682   2.214  0.00  0.00     0.018 C 
ENDBRANCH   1   8
TORSDOF 1
ENDMDL
