MODEL 1
REMARK minimizedAffinity 17.1958656
REMARK minimizedRMSD -1
REMARK  1 active torsions:
REMARK  status: ('A' for Active; 'I' for Inactive)
REMARK    1  A    between atoms: C1_2  and  C2_3 
ROOT
ATOM      1  C2  UNL d   1      -2.797  -3.604  -2.620  0.00  0.00    -0.076 A 
ATOM      2  C3  UNL d   1      -1.669  -3.268  -3.388  0.00  0.00     0.004 A 
ATOM      3  C4  UNL d   1      -0.752  -4.241  -3.780  0.00  0.00    -0.003 A 
ATOM      4  C5  UNL d   1      -0.949  -5.568  -3.412  0.00  0.00     0.000 A 
ATOM      5  C6  UNL d   1      -2.072  -5.922  -2.665  0.00  0.00     0.000 A 
ATOM      6  C7  UNL d   1      -3.015  -4.956  -2.275  0.00  0.00    -0.073 A 
ATOM      7  C8  UNL d   1      -4.205  -5.393  -1.466  0.00  0.00     0.078 C 
ENDROOT
BRANCH   1   8
ATOM      8  C1  UNL d   1      -3.743  -2.502  -2.200  0.00  0.00     0.053 C 
ATOM      9  C   UNL d   1      -3.173  -1.637  -1.087  0.00  0.00     0.018 C 
ENDBRANCH   1   8
TORSDOF 1
ENDMDL
