MODEL 1
REMARK minimizedAffinity 22.4307652
REMARK minimizedRMSD -1
REMARK  1 active torsions:
REMARK  status: ('A' for Active; 'I' for Inactive)
REMARK    1  A    between atoms: C1_2  and  C2_3 
ROOT
ATOM      1  C2  UNL d   1      -2.105  -3.522  -3.089  0.00  0.00    -0.076 A 
ATOM      2  C3  UNL d   1      -1.009  -3.027  -3.819  0.00  0.00     0.004 A 
ATOM      3  C4  UNL d   1      -0.044  -3.889  -4.336  0.00  0.00    -0.003 A 
ATOM      4  C5  UNL d   1      -0.158  -5.260  -4.133  0.00  0.00     0.000 A 
ATOM      5  C6  UNL d   1      -1.247  -5.770  -3.427  0.00  0.00     0.000 A 
ATOM      6  C7  UNL d   1      -2.238  -4.916  -2.913  0.00  0.00    -0.073 A 
ATOM      7  C8  UNL d   1      -3.388  -5.519  -2.154  0.00  0.00     0.078 C 
ENDROOT
BRANCH   1   8
ATOM      8  C1  UNL d   1      -3.106  -2.537  -2.529  0.00  0.00     0.053 C 
ATOM      9  C   UNL d   1      -2.731  -2.053  -1.137  0.00  0.00     0.018 C 
ENDBRANCH   1   8
TORSDOF 1
ENDMDL
