MODEL 1
REMARK minimizedAffinity 3.62259316
REMARK minimizedRMSD -1
REMARK  1 active torsions:
REMARK  status: ('A' for Active; 'I' for Inactive)
REMARK    1  A    between atoms: C1_2  and  C2_3 
ROOT
ATOM      1  C2  UNL d   1       3.734   1.258  -0.136  0.00  0.00    -0.076 A 
ATOM      2  C3  UNL d   1       2.632   2.069   0.190  0.00  0.00     0.004 A 
ATOM      3  C4  UNL d   1       1.823   1.773   1.285  0.00  0.00    -0.003 A 
ATOM      4  C5  UNL d   1       2.101   0.662   2.073  0.00  0.00     0.000 A 
ATOM      5  C6  UNL d   1       3.200  -0.144   1.775  0.00  0.00     0.000 A 
ATOM      6  C7  UNL d   1       4.036   0.150   0.684  0.00  0.00    -0.073 A 
ATOM      7  C8  UNL d   1       5.204  -0.756   0.405  0.00  0.00     0.078 C 
ENDROOT
BRANCH   1   8
ATOM      8  C1  UNL d   1       4.560   1.613  -1.352  0.00  0.00     0.053 C 
ATOM      9  C   UNL d   1       3.757   2.362  -2.404  0.00  0.00     0.018 C 
ENDBRANCH   1   8
TORSDOF 1
ENDMDL
