MODEL 1
REMARK minimizedAffinity 13.4877014
REMARK minimizedRMSD -1
REMARK  1 active torsions:
REMARK  status: ('A' for Active; 'I' for Inactive)
REMARK    1  A    between atoms: C1_2  and  C2_3 
ROOT
ATOM      1  C2  UNL d   1      -1.350  -2.296   1.020  0.00  0.00    -0.076 A 
ATOM      2  C3  UNL d   1      -0.786  -1.009   1.040  0.00  0.00     0.004 A 
ATOM      3  C4  UNL d   1      -0.408  -0.410   2.241  0.00  0.00    -0.003 A 
ATOM      4  C5  UNL d   1      -0.586  -1.089   3.441  0.00  0.00     0.000 A 
ATOM      5  C6  UNL d   1      -1.127  -2.375   3.438  0.00  0.00     0.000 A 
ATOM      6  C7  UNL d   1      -1.499  -2.999   2.235  0.00  0.00    -0.073 A 
ATOM      7  C8  UNL d   1      -2.083  -4.384   2.291  0.00  0.00     0.078 C 
ENDROOT
BRANCH   1   8
ATOM      8  C1  UNL d   1      -1.766  -2.884  -0.309  0.00  0.00     0.053 C 
ATOM      9  C   UNL d   1      -2.702  -1.968  -1.083  0.00  0.00     0.018 C 
ENDBRANCH   1   8
TORSDOF 1
ENDMDL
