MODEL 1
REMARK minimizedAffinity 6.45560503
REMARK minimizedRMSD -1
REMARK  1 active torsions:
REMARK  status: ('A' for Active; 'I' for Inactive)
REMARK    1  A    between atoms: C1_2  and  C2_3 
ROOT
ATOM      1  C2  UNL d   1      -4.679  -3.814  -3.083  0.00  0.00    -0.076 A 
ATOM      2  C3  UNL d   1      -3.469  -3.100  -3.146  0.00  0.00     0.004 A 
ATOM      3  C4  UNL d   1      -2.276  -3.670  -2.708  0.00  0.00    -0.003 A 
ATOM      4  C5  UNL d   1      -2.271  -4.964  -2.199  0.00  0.00     0.000 A 
ATOM      5  C6  UNL d   1      -3.458  -5.693  -2.145  0.00  0.00     0.000 A 
ATOM      6  C7  UNL d   1      -4.668  -5.139  -2.598  0.00  0.00    -0.073 A 
ATOM      7  C8  UNL d   1      -5.919  -5.969  -2.511  0.00  0.00     0.078 C 
ENDROOT
BRANCH   1   8
ATOM      8  C1  UNL d   1      -5.947  -3.134  -3.548  0.00  0.00     0.053 C 
ATOM      9  C   UNL d   1      -5.997  -2.965  -5.058  0.00  0.00     0.018 C 
ENDBRANCH   1   8
TORSDOF 1
ENDMDL
