MODEL 1
REMARK minimizedAffinity 6.71927929
REMARK minimizedRMSD -1
REMARK  1 active torsions:
REMARK  status: ('A' for Active; 'I' for Inactive)
REMARK    1  A    between atoms: C1_2  and  C2_3 
ROOT
ATOM      1  C2  UNL d   1      -4.918   3.586   3.297  0.00  0.00    -0.076 A 
ATOM      2  C3  UNL d   1      -4.626   3.724   4.665  0.00  0.00     0.004 A 
ATOM      3  C4  UNL d   1      -5.005   4.866   5.368  0.00  0.00    -0.003 A 
ATOM      4  C5  UNL d   1      -5.684   5.889   4.714  0.00  0.00     0.000 A 
ATOM      5  C6  UNL d   1      -5.998   5.761   3.362  0.00  0.00     0.000 A 
ATOM      6  C7  UNL d   1      -5.637   4.609   2.642  0.00  0.00    -0.073 A 
ATOM      7  C8  UNL d   1      -5.996   4.527   1.184  0.00  0.00     0.078 C 
ENDROOT
BRANCH   1   8
ATOM      8  C1  UNL d   1      -4.458   2.336   2.580  0.00  0.00     0.053 C 
ATOM      9  C   UNL d   1      -3.015   1.978   2.901  0.00  0.00     0.018 C 
ENDBRANCH   1   8
TORSDOF 1
ENDMDL
