MODEL 1
REMARK minimizedAffinity 17.8261833
REMARK minimizedRMSD -1
REMARK  1 active torsions:
REMARK  status: ('A' for Active; 'I' for Inactive)
REMARK    1  A    between atoms: C1_2  and  C2_3 
ROOT
ATOM      1  C2  UNL d   1      -3.003  -3.664  -0.023  0.00  0.00    -0.076 A 
ATOM      2  C3  UNL d   1      -2.795  -2.894  -1.180  0.00  0.00     0.004 A 
ATOM      3  C4  UNL d   1      -3.082  -3.405  -2.444  0.00  0.00    -0.003 A 
ATOM      4  C5  UNL d   1      -3.583  -4.696  -2.572  0.00  0.00     0.000 A 
ATOM      5  C6  UNL d   1      -3.813  -5.468  -1.434  0.00  0.00     0.000 A 
ATOM      6  C7  UNL d   1      -3.544  -4.961  -0.151  0.00  0.00    -0.073 A 
ATOM      7  C8  UNL d   1      -3.805  -5.840   1.042  0.00  0.00     0.078 C 
ENDROOT
BRANCH   1   8
ATOM      8  C1  UNL d   1      -2.647  -3.066   1.319  0.00  0.00     0.053 C 
ATOM      9  C   UNL d   1      -1.173  -3.226   1.656  0.00  0.00     0.018 C 
ENDBRANCH   1   8
TORSDOF 1
ENDMDL
