MODEL 1
REMARK minimizedAffinity 11.4368153
REMARK minimizedRMSD -1
REMARK  1 active torsions:
REMARK  status: ('A' for Active; 'I' for Inactive)
REMARK    1  A    between atoms: C1_2  and  C2_3 
ROOT
ATOM      1  C2  UNL d   1       3.659   3.384  -4.541  0.00  0.00    -0.076 A 
ATOM      2  C3  UNL d   1       3.269   2.539  -3.488  0.00  0.00     0.004 A 
ATOM      3  C4  UNL d   1       4.204   1.755  -2.814  0.00  0.00    -0.003 A 
ATOM      4  C5  UNL d   1       5.544   1.803  -3.182  0.00  0.00     0.000 A 
ATOM      5  C6  UNL d   1       5.951   2.649  -4.213  0.00  0.00     0.000 A 
ATOM      6  C7  UNL d   1       5.024   3.459  -4.892  0.00  0.00    -0.073 A 
ATOM      7  C8  UNL d   1       5.518   4.348  -6.000  0.00  0.00     0.078 C 
ENDROOT
BRANCH   1   8
ATOM      8  C1  UNL d   1       2.597   4.191  -5.253  0.00  0.00     0.053 C 
ATOM      9  C   UNL d   1       1.351   4.392  -4.405  0.00  0.00     0.018 C 
ENDBRANCH   1   8
TORSDOF 1
ENDMDL
