MODEL 1
REMARK minimizedAffinity 9.51823044
REMARK minimizedRMSD -1
REMARK  1 active torsions:
REMARK  status: ('A' for Active; 'I' for Inactive)
REMARK    1  A    between atoms: C1_2  and  C2_3 
ROOT
ATOM      1  C2  UNL d   1       1.726   0.912   0.856  0.00  0.00    -0.076 A 
ATOM      2  C3  UNL d   1       1.064  -0.193   1.420  0.00  0.00     0.004 A 
ATOM      3  C4  UNL d   1       0.157  -0.029   2.465  0.00  0.00    -0.003 A 
ATOM      4  C5  UNL d   1      -0.104   1.243   2.963  0.00  0.00     0.000 A 
ATOM      5  C6  UNL d   1       0.530   2.352   2.404  0.00  0.00     0.000 A 
ATOM      6  C7  UNL d   1       1.435   2.205   1.339  0.00  0.00    -0.073 A 
ATOM      7  C8  UNL d   1       2.095   3.435   0.778  0.00  0.00     0.078 C 
ENDROOT
BRANCH   1   8
ATOM      8  C1  UNL d   1       2.719   0.669  -0.258  0.00  0.00     0.053 C 
ATOM      9  C   UNL d   1       3.856  -0.247   0.165  0.00  0.00     0.018 C 
ENDBRANCH   1   8
TORSDOF 1
ENDMDL
