MODEL 1
REMARK minimizedAffinity 10.6108284
REMARK minimizedRMSD -1
REMARK  1 active torsions:
REMARK  status: ('A' for Active; 'I' for Inactive)
REMARK    1  A    between atoms: C1_2  and  C2_3 
ROOT
ATOM      1  C2  UNL d   1       3.319   3.455  -4.500  0.00  0.00    -0.076 A 
ATOM      2  C3  UNL d   1       2.790   2.564  -3.550  0.00  0.00     0.004 A 
ATOM      3  C4  UNL d   1       3.628   1.781  -2.757  0.00  0.00    -0.003 A 
ATOM      4  C5  UNL d   1       5.007   1.877  -2.901  0.00  0.00     0.000 A 
ATOM      5  C6  UNL d   1       5.550   2.769  -3.826  0.00  0.00     0.000 A 
ATOM      6  C7  UNL d   1       4.720   3.577  -4.622  0.00  0.00    -0.073 A 
ATOM      7  C8  UNL d   1       5.358   4.516  -5.608  0.00  0.00     0.078 C 
ENDROOT
BRANCH   1   8
ATOM      8  C1  UNL d   1       2.362   4.259  -5.351  0.00  0.00     0.053 C 
ATOM      9  C   UNL d   1       1.048   4.544  -4.639  0.00  0.00     0.018 C 
ENDBRANCH   1   8
TORSDOF 1
ENDMDL
