MODEL 1
REMARK minimizedAffinity 0.393675685
REMARK minimizedRMSD -1
REMARK  0 active torsions:
REMARK  status: ('A' for Active; 'I' for Inactive)
ROOT
ATOM      1  C   UNL d   1       2.329   3.469   1.145  0.00  0.00     0.124 A 
ATOM      2  C1  UNL d   1       2.995   2.252   1.103  0.00  0.00     0.062 A 
ATOM      3  C2  UNL d   1       2.336   1.108   0.660  0.00  0.00     0.162 A 
ATOM      4  C3  UNL d   1       1.004   1.177   0.254  0.00  0.00    -0.034 A 
ATOM      5  C4  UNL d   1       0.340   2.404   0.300  0.00  0.00     0.162 A 
ATOM      6  C5  UNL d   1       1.003   3.544   0.744  0.00  0.00     0.062 A 
ATOM      7  F   UNL d   1       0.358   4.719   0.784  0.00  0.00    -0.097 F 
ATOM      8  F1  UNL d   1      -0.941   2.505  -0.083  0.00  0.00    -0.096 F 
ATOM      9  I   UNL d   1       0.015  -0.531  -0.409  0.00  0.00    -0.060 I 
ATOM     10  F2  UNL d   1       3.005  -0.054   0.630  0.00  0.00    -0.096 F 
ATOM     11  F3  UNL d   1       4.276   2.176   1.491  0.00  0.00    -0.097 F 
ATOM     12  F4  UNL d   1       2.965   4.567   1.573  0.00  0.00    -0.092 F 
ENDROOT
TORSDOF 0
ENDMDL
