MODEL 1
REMARK minimizedAffinity -0.965978622
REMARK minimizedRMSD -1
REMARK  0 active torsions:
REMARK  status: ('A' for Active; 'I' for Inactive)
ROOT
ATOM      1  C   UNL d   1      -0.606  -2.103  -0.354  0.00  0.00     0.124 A 
ATOM      2  C1  UNL d   1      -0.056  -1.210  -1.264  0.00  0.00     0.062 A 
ATOM      3  C2  UNL d   1       0.157   0.116  -0.901  0.00  0.00     0.162 A 
ATOM      4  C3  UNL d   1      -0.179   0.559   0.378  0.00  0.00    -0.034 A 
ATOM      5  C4  UNL d   1      -0.731  -0.344   1.288  0.00  0.00     0.162 A 
ATOM      6  C5  UNL d   1      -0.943  -1.669   0.921  0.00  0.00     0.062 A 
ATOM      7  F   UNL d   1      -1.473  -2.530   1.801  0.00  0.00    -0.097 F 
ATOM      8  F1  UNL d   1      -1.065   0.048   2.526  0.00  0.00    -0.096 F 
ATOM      9  I   UNL d   1       0.139   2.542   0.924  0.00  0.00    -0.060 I 
ATOM     10  F2  UNL d   1       0.689   0.957  -1.801  0.00  0.00    -0.096 F 
ATOM     11  F3  UNL d   1       0.269  -1.627  -2.496  0.00  0.00    -0.097 F 
ATOM     12  F4  UNL d   1      -0.811  -3.379  -0.705  0.00  0.00    -0.092 F 
ENDROOT
TORSDOF 0
ENDMDL
