MODEL 1
REMARK minimizedAffinity 18.2828465
REMARK minimizedRMSD -1
REMARK  0 active torsions:
REMARK  status: ('A' for Active; 'I' for Inactive)
ROOT
ATOM      1  C   UNL d   1      -0.315  -1.573  -0.572  0.00  0.00     0.124 A 
ATOM      2  C1  UNL d   1      -0.761  -1.319   0.718  0.00  0.00     0.062 A 
ATOM      3  C2  UNL d   1      -1.913  -1.938   1.195  0.00  0.00     0.162 A 
ATOM      4  C3  UNL d   1      -2.627  -2.818   0.382  0.00  0.00    -0.034 A 
ATOM      5  C4  UNL d   1      -2.173  -3.068  -0.915  0.00  0.00     0.162 A 
ATOM      6  C5  UNL d   1      -1.021  -2.447  -1.386  0.00  0.00     0.062 A 
ATOM      7  F   UNL d   1      -0.592  -2.693  -2.633  0.00  0.00    -0.097 F 
ATOM      8  F1  UNL d   1      -2.835  -3.908  -1.723  0.00  0.00    -0.096 F 
ATOM      9  I   UNL d   1      -4.350  -3.745   1.091  0.00  0.00    -0.060 I 
ATOM     10  F2  UNL d   1      -2.321  -1.674   2.445  0.00  0.00    -0.096 F 
ATOM     11  F3  UNL d   1      -0.081  -0.475   1.507  0.00  0.00    -0.097 F 
ATOM     12  F4  UNL d   1       0.793  -0.975  -1.028  0.00  0.00    -0.092 F 
ENDROOT
TORSDOF 0
ENDMDL
