MODEL 1
REMARK minimizedAffinity -1.87605035
REMARK minimizedRMSD -1
REMARK  0 active torsions:
REMARK  status: ('A' for Active; 'I' for Inactive)
ROOT
ATOM      1  C   UNL d   1      -0.440  -2.072  -0.337  0.00  0.00     0.124 A 
ATOM      2  C1  UNL d   1       0.006  -1.162  -1.286  0.00  0.00     0.062 A 
ATOM      3  C2  UNL d   1       0.261   0.158  -0.925  0.00  0.00     0.162 A 
ATOM      4  C3  UNL d   1       0.072   0.576   0.392  0.00  0.00    -0.034 A 
ATOM      5  C4  UNL d   1      -0.378  -0.344   1.340  0.00  0.00     0.162 A 
ATOM      6  C5  UNL d   1      -0.632  -1.662   0.975  0.00  0.00     0.062 A 
ATOM      7  F   UNL d   1      -1.063  -2.540   1.893  0.00  0.00    -0.097 F 
ATOM      8  F1  UNL d   1      -0.571   0.024   2.616  0.00  0.00    -0.096 F 
ATOM      9  I   UNL d   1       0.452   2.549   0.936  0.00  0.00    -0.060 I 
ATOM     10  F2  UNL d   1       0.691   1.015  -1.863  0.00  0.00    -0.096 F 
ATOM     11  F3  UNL d   1       0.191  -1.555  -2.555  0.00  0.00    -0.097 F 
ATOM     12  F4  UNL d   1      -0.686  -3.341  -0.688  0.00  0.00    -0.092 F 
ENDROOT
TORSDOF 0
ENDMDL
