MODEL 1
REMARK minimizedAffinity -1.44875348
REMARK minimizedRMSD -1
REMARK  0 active torsions:
REMARK  status: ('A' for Active; 'I' for Inactive)
ROOT
ATOM      1  C   UNL d   1      -0.514   0.030   0.210  0.00  0.00     0.124 A 
ATOM      2  C1  UNL d   1      -1.468  -0.736   0.866  0.00  0.00     0.062 A 
ATOM      3  C2  UNL d   1      -1.556  -2.103   0.622  0.00  0.00     0.162 A 
ATOM      4  C3  UNL d   1      -0.687  -2.714  -0.282  0.00  0.00    -0.034 A 
ATOM      5  C4  UNL d   1       0.269  -1.937  -0.939  0.00  0.00     0.162 A 
ATOM      6  C5  UNL d   1       0.353  -0.571  -0.691  0.00  0.00     0.062 A 
ATOM      7  F   UNL d   1       1.274   0.168  -1.326  0.00  0.00    -0.097 F 
ATOM      8  F1  UNL d   1       1.120  -2.492  -1.814  0.00  0.00    -0.096 F 
ATOM      9  I   UNL d   1      -0.816  -4.759  -0.649  0.00  0.00    -0.060 I 
ATOM     10  F2  UNL d   1      -2.487  -2.819   1.271  0.00  0.00    -0.096 F 
ATOM     11  F3  UNL d   1      -2.307  -0.157   1.737  0.00  0.00    -0.097 F 
ATOM     12  F4  UNL d   1      -0.432   1.346   0.446  0.00  0.00    -0.092 F 
ENDROOT
TORSDOF 0
ENDMDL
