MODEL 1
REMARK minimizedAffinity 0.91600275
REMARK minimizedRMSD -1
REMARK  0 active torsions:
REMARK  status: ('A' for Active; 'I' for Inactive)
ROOT
ATOM      1  C   UNL d   1       1.951   2.966   0.703  0.00  0.00     0.124 A 
ATOM      2  C1  UNL d   1       0.578   2.826   0.554  0.00  0.00     0.062 A 
ATOM      3  C2  UNL d   1       0.017   1.563   0.390  0.00  0.00     0.162 A 
ATOM      4  C3  UNL d   1       0.829   0.429   0.376  0.00  0.00    -0.034 A 
ATOM      5  C4  UNL d   1       2.209   0.577   0.526  0.00  0.00     0.162 A 
ATOM      6  C5  UNL d   1       2.765   1.842   0.689  0.00  0.00     0.062 A 
ATOM      7  F   UNL d   1       4.092   1.975   0.833  0.00  0.00    -0.097 F 
ATOM      8  F1  UNL d   1       3.019  -0.492   0.517  0.00  0.00    -0.096 F 
ATOM      9  I   UNL d   1      -0.006  -1.462   0.132  0.00  0.00    -0.060 I 
ATOM     10  F2  UNL d   1      -1.312   1.457   0.248  0.00  0.00    -0.096 F 
ATOM     11  F3  UNL d   1      -0.210   3.911   0.566  0.00  0.00    -0.097 F 
ATOM     12  F4  UNL d   1       2.489   4.183   0.859  0.00  0.00    -0.092 F 
ENDROOT
TORSDOF 0
ENDMDL
