MODEL 1
REMARK minimizedAffinity 0.96901679
REMARK minimizedRMSD -1
REMARK  0 active torsions:
REMARK  status: ('A' for Active; 'I' for Inactive)
ROOT
ATOM      1  C   UNL d   1      -0.908  -2.066  -0.394  0.00  0.00     0.124 A 
ATOM      2  C1  UNL d   1      -0.354  -1.257  -1.377  0.00  0.00     0.062 A 
ATOM      3  C2  UNL d   1       0.122   0.010  -1.056  0.00  0.00     0.162 A 
ATOM      4  C3  UNL d   1       0.047   0.478   0.256  0.00  0.00    -0.034 A 
ATOM      5  C4  UNL d   1      -0.512  -0.340   1.240  0.00  0.00     0.162 A 
ATOM      6  C5  UNL d   1      -0.986  -1.606   0.913  0.00  0.00     0.062 A 
ATOM      7  F   UNL d   1      -1.521  -2.385   1.864  0.00  0.00    -0.097 F 
ATOM      8  F1  UNL d   1      -0.600   0.079   2.511  0.00  0.00    -0.096 F 
ATOM      9  I   UNL d   1       0.757   2.373   0.741  0.00  0.00    -0.060 I 
ATOM     10  F2  UNL d   1       0.652   0.770  -2.026  0.00  0.00    -0.096 F 
ATOM     11  F3  UNL d   1      -0.277  -1.699  -2.641  0.00  0.00    -0.097 F 
ATOM     12  F4  UNL d   1      -1.366  -3.285  -0.707  0.00  0.00    -0.092 F 
ENDROOT
TORSDOF 0
ENDMDL
