MODEL 1
REMARK minimizedAffinity 6.20393991
REMARK minimizedRMSD -1
REMARK  0 active torsions:
REMARK  status: ('A' for Active; 'I' for Inactive)
ROOT
ATOM      1  C   UNL d   1       0.122  -1.491  -1.041  0.00  0.00     0.124 A 
ATOM      2  C1  UNL d   1      -0.037  -0.119  -1.174  0.00  0.00     0.062 A 
ATOM      3  C2  UNL d   1      -1.061   0.536  -0.496  0.00  0.00     0.162 A 
ATOM      4  C3  UNL d   1      -1.934  -0.181   0.323  0.00  0.00    -0.034 A 
ATOM      5  C4  UNL d   1      -1.768  -1.561   0.450  0.00  0.00     0.162 A 
ATOM      6  C5  UNL d   1      -0.743  -2.211  -0.230  0.00  0.00     0.062 A 
ATOM      7  F   UNL d   1      -0.591  -3.537  -0.100  0.00  0.00    -0.097 F 
ATOM      8  F1  UNL d   1      -2.590  -2.281   1.229  0.00  0.00    -0.096 F 
ATOM      9  I   UNL d   1      -3.467   0.794   1.339  0.00  0.00    -0.060 I 
ATOM     10  F2  UNL d   1      -1.192   1.863  -0.642  0.00  0.00    -0.096 F 
ATOM     11  F3  UNL d   1       0.797   0.579  -1.958  0.00  0.00    -0.097 F 
ATOM     12  F4  UNL d   1       1.108  -2.118  -1.696  0.00  0.00    -0.092 F 
ENDROOT
TORSDOF 0
ENDMDL
