MODEL 1
REMARK minimizedAffinity 2.86698675
REMARK minimizedRMSD -1
REMARK  0 active torsions:
REMARK  status: ('A' for Active; 'I' for Inactive)
ROOT
ATOM      1  C   UNL d   1      -0.690  -1.922  -0.500  0.00  0.00     0.124 A 
ATOM      2  C1  UNL d   1      -0.967  -1.604   0.823  0.00  0.00     0.062 A 
ATOM      3  C2  UNL d   1      -0.622  -0.355   1.329  0.00  0.00     0.162 A 
ATOM      4  C3  UNL d   1       0.004   0.587   0.513  0.00  0.00    -0.034 A 
ATOM      5  C4  UNL d   1       0.281   0.260  -0.815  0.00  0.00     0.162 A 
ATOM      6  C5  UNL d   1      -0.066  -0.990  -1.317  0.00  0.00     0.062 A 
ATOM      7  F   UNL d   1       0.203  -1.295  -2.595  0.00  0.00    -0.097 F 
ATOM      8  F1  UNL d   1       0.882   1.142  -1.628  0.00  0.00    -0.096 F 
ATOM      9  I   UNL d   1       0.522   2.457   1.267  0.00  0.00    -0.060 I 
ATOM     10  F2  UNL d   1      -0.902  -0.075   2.611  0.00  0.00    -0.096 F 
ATOM     11  F3  UNL d   1      -1.569  -2.503   1.615  0.00  0.00    -0.097 F 
ATOM     12  F4  UNL d   1      -1.022  -3.125  -0.985  0.00  0.00    -0.092 F 
ENDROOT
TORSDOF 0
ENDMDL
