MODEL 1
REMARK minimizedAffinity 2.11257505
REMARK minimizedRMSD -1
REMARK  0 active torsions:
REMARK  status: ('A' for Active; 'I' for Inactive)
ROOT
ATOM      1  C   UNL d   1      -0.322  -2.057  -0.254  0.00  0.00     0.124 A 
ATOM      2  C1  UNL d   1      -0.844  -1.593   0.946  0.00  0.00     0.062 A 
ATOM      3  C2  UNL d   1      -0.854  -0.230   1.225  0.00  0.00     0.162 A 
ATOM      4  C3  UNL d   1      -0.341   0.681   0.301  0.00  0.00    -0.034 A 
ATOM      5  C4  UNL d   1       0.183   0.207  -0.903  0.00  0.00     0.162 A 
ATOM      6  C5  UNL d   1       0.191  -1.156  -1.177  0.00  0.00     0.062 A 
ATOM      7  F   UNL d   1       0.695  -1.602  -2.336  0.00  0.00    -0.097 F 
ATOM      8  F1  UNL d   1       0.684   1.055  -1.813  0.00  0.00    -0.096 F 
ATOM      9  I   UNL d   1      -0.354   2.721   0.714  0.00  0.00    -0.060 I 
ATOM     10  F2  UNL d   1      -1.364   0.190   2.392  0.00  0.00    -0.096 F 
ATOM     11  F3  UNL d   1      -1.340  -2.461   1.840  0.00  0.00    -0.097 F 
ATOM     12  F4  UNL d   1      -0.313  -3.369  -0.519  0.00  0.00    -0.092 F 
ENDROOT
TORSDOF 0
ENDMDL
