MODEL 1
REMARK minimizedAffinity -1.33201778
REMARK minimizedRMSD -1
REMARK  0 active torsions:
REMARK  status: ('A' for Active; 'I' for Inactive)
ROOT
ATOM      1  C   UNL d   1      -0.612  -2.049  -0.340  0.00  0.00     0.124 A 
ATOM      2  C1  UNL d   1      -0.814  -1.535   0.934  0.00  0.00     0.062 A 
ATOM      3  C2  UNL d   1      -0.467  -0.218   1.220  0.00  0.00     0.162 A 
ATOM      4  C3  UNL d   1       0.084   0.596   0.230  0.00  0.00    -0.034 A 
ATOM      5  C4  UNL d   1       0.285   0.071  -1.048  0.00  0.00     0.162 A 
ATOM      6  C5  UNL d   1      -0.063  -1.246  -1.329  0.00  0.00     0.062 A 
ATOM      7  F   UNL d   1       0.133  -1.741  -2.560  0.00  0.00    -0.097 F 
ATOM      8  F1  UNL d   1       0.813   0.826  -2.023  0.00  0.00    -0.096 F 
ATOM      9  I   UNL d   1       0.604   2.566   0.654  0.00  0.00    -0.060 I 
ATOM     10  F2  UNL d   1      -0.674   0.252   2.459  0.00  0.00    -0.096 F 
ATOM     11  F3  UNL d   1      -1.343  -2.310   1.892  0.00  0.00    -0.097 F 
ATOM     12  F4  UNL d   1      -0.945  -3.317  -0.612  0.00  0.00    -0.092 F 
ENDROOT
TORSDOF 0
ENDMDL
