MODEL 1
REMARK minimizedAffinity -2.16776538
REMARK minimizedRMSD -1
REMARK  0 active torsions:
REMARK  status: ('A' for Active; 'I' for Inactive)
ROOT
ATOM      1  C   UNL d   1      -0.465  -2.556  -0.912  0.00  0.00     0.124 A 
ATOM      2  C1  UNL d   1      -0.324  -2.169   0.413  0.00  0.00     0.062 A 
ATOM      3  C2  UNL d   1      -0.085  -0.835   0.731  0.00  0.00     0.162 A 
ATOM      4  C3  UNL d   1       0.014   0.122  -0.280  0.00  0.00    -0.034 A 
ATOM      5  C4  UNL d   1      -0.128  -0.276  -1.610  0.00  0.00     0.162 A 
ATOM      6  C5  UNL d   1      -0.367  -1.610  -1.922  0.00  0.00     0.062 A 
ATOM      7  F   UNL d   1      -0.503  -1.983  -3.203  0.00  0.00    -0.097 F 
ATOM      8  F1  UNL d   1      -0.039   0.618  -2.606  0.00  0.00    -0.096 F 
ATOM      9  I   UNL d   1       0.371   2.118   0.191  0.00  0.00    -0.060 I 
ATOM     10  F2  UNL d   1       0.047  -0.488   2.020  0.00  0.00    -0.096 F 
ATOM     11  F3  UNL d   1      -0.418  -3.081   1.391  0.00  0.00    -0.097 F 
ATOM     12  F4  UNL d   1      -0.694  -3.841  -1.214  0.00  0.00    -0.092 F 
ENDROOT
TORSDOF 0
ENDMDL
