MODEL 1
REMARK minimizedAffinity -2.50869536
REMARK minimizedRMSD -1
REMARK  0 active torsions:
REMARK  status: ('A' for Active; 'I' for Inactive)
ROOT
ATOM      1  C   UNL d   1      -0.657  -2.165  -0.481  0.00  0.00     0.124 A 
ATOM      2  C1  UNL d   1      -0.603  -1.257  -1.530  0.00  0.00     0.062 A 
ATOM      3  C2  UNL d   1      -0.177   0.048  -1.305  0.00  0.00     0.162 A 
ATOM      4  C3  UNL d   1       0.201   0.455  -0.025  0.00  0.00    -0.034 A 
ATOM      5  C4  UNL d   1       0.143  -0.463   1.025  0.00  0.00     0.162 A 
ATOM      6  C5  UNL d   1      -0.284  -1.767   0.795  0.00  0.00     0.062 A 
ATOM      7  F   UNL d   1      -0.336  -2.642   1.810  0.00  0.00    -0.097 F 
ATOM      8  F1  UNL d   1       0.499  -0.106   2.268  0.00  0.00    -0.096 F 
ATOM      9  I   UNL d   1       0.840   2.406   0.316  0.00  0.00    -0.060 I 
ATOM     10  F2  UNL d   1      -0.134   0.904  -2.337  0.00  0.00    -0.096 F 
ATOM     11  F3  UNL d   1      -0.964  -1.639  -2.764  0.00  0.00    -0.097 F 
ATOM     12  F4  UNL d   1      -1.069  -3.420  -0.700  0.00  0.00    -0.092 F 
ENDROOT
TORSDOF 0
ENDMDL
