MODEL 1
REMARK minimizedAffinity -1.50292873
REMARK minimizedRMSD -1
REMARK  0 active torsions:
REMARK  status: ('A' for Active; 'I' for Inactive)
ROOT
ATOM      1  C   UNL d   1      -0.564  -2.522  -0.740  0.00  0.00     0.124 A 
ATOM      2  C1  UNL d   1      -0.212  -1.578  -1.695  0.00  0.00     0.062 A 
ATOM      3  C2  UNL d   1      -0.101  -0.235  -1.345  0.00  0.00     0.162 A 
ATOM      4  C3  UNL d   1      -0.342   0.172  -0.032  0.00  0.00    -0.034 A 
ATOM      5  C4  UNL d   1      -0.697  -0.783   0.922  0.00  0.00     0.162 A 
ATOM      6  C5  UNL d   1      -0.806  -2.124   0.567  0.00  0.00     0.062 A 
ATOM      7  F   UNL d   1      -1.147  -3.034   1.491  0.00  0.00    -0.097 F 
ATOM      8  F1  UNL d   1      -0.936  -0.427   2.193  0.00  0.00    -0.096 F 
ATOM      9  I   UNL d   1      -0.178   2.178   0.496  0.00  0.00    -0.060 I 
ATOM     10  F2  UNL d   1       0.241   0.655  -2.288  0.00  0.00    -0.096 F 
ATOM     11  F3  UNL d   1       0.022  -1.959  -2.959  0.00  0.00    -0.097 F 
ATOM     12  F4  UNL d   1      -0.670  -3.813  -1.080  0.00  0.00    -0.092 F 
ENDROOT
TORSDOF 0
ENDMDL
