MODEL 1
REMARK minimizedAffinity -0.640511513
REMARK minimizedRMSD -1
REMARK  0 active torsions:
REMARK  status: ('A' for Active; 'I' for Inactive)
ROOT
ATOM      1  C   UNL d   1      -0.603   0.528  -0.006  0.00  0.00     0.124 A 
ATOM      2  C1  UNL d   1      -1.280  -0.549   0.549  0.00  0.00     0.062 A 
ATOM      3  C2  UNL d   1      -1.514  -1.694  -0.206  0.00  0.00     0.162 A 
ATOM      4  C3  UNL d   1      -1.069  -1.770  -1.526  0.00  0.00    -0.034 A 
ATOM      5  C4  UNL d   1      -0.389  -0.683  -2.078  0.00  0.00     0.162 A 
ATOM      6  C5  UNL d   1      -0.158   0.460  -1.319  0.00  0.00     0.062 A 
ATOM      7  F   UNL d   1       0.496   1.499  -1.858  0.00  0.00    -0.097 F 
ATOM      8  F1  UNL d   1       0.052  -0.721  -3.344  0.00  0.00    -0.096 F 
ATOM      9  I   UNL d   1      -1.416  -3.481  -2.659  0.00  0.00    -0.060 I 
ATOM     10  F2  UNL d   1      -2.171  -2.720   0.356  0.00  0.00    -0.096 F 
ATOM     11  F3  UNL d   1      -1.712  -0.486   1.817  0.00  0.00    -0.097 F 
ATOM     12  F4  UNL d   1      -0.381   1.629   0.723  0.00  0.00    -0.092 F 
ENDROOT
TORSDOF 0
ENDMDL
