MODEL 1
REMARK minimizedAffinity -4.21822357
REMARK minimizedRMSD -1
REMARK  0 active torsions:
REMARK  status: ('A' for Active; 'I' for Inactive)
ROOT
ATOM      1  C   UNL d   1       0.138  -2.837  -1.148  0.00  0.00     0.124 A 
ATOM      2  C1  UNL d   1       0.494  -2.446   0.135  0.00  0.00     0.062 A 
ATOM      3  C2  UNL d   1       0.632  -1.095   0.443  0.00  0.00     0.162 A 
ATOM      4  C3  UNL d   1       0.412  -0.125  -0.536  0.00  0.00    -0.034 A 
ATOM      5  C4  UNL d   1       0.056  -0.527  -1.824  0.00  0.00     0.162 A 
ATOM      6  C5  UNL d   1      -0.080  -1.878  -2.126  0.00  0.00     0.062 A 
ATOM      7  F   UNL d   1      -0.424  -2.254  -3.367  0.00  0.00    -0.097 F 
ATOM      8  F1  UNL d   1      -0.163   0.379  -2.789  0.00  0.00    -0.096 F 
ATOM      9  I   UNL d   1       0.617   1.895  -0.081  0.00  0.00    -0.060 I 
ATOM     10  F2  UNL d   1       0.976  -0.746   1.691  0.00  0.00    -0.096 F 
ATOM     11  F3  UNL d   1       0.707  -3.371   1.082  0.00  0.00    -0.097 F 
ATOM     12  F4  UNL d   1       0.008  -4.138  -1.441  0.00  0.00    -0.092 F 
ENDROOT
TORSDOF 0
ENDMDL
