MODEL 1
REMARK minimizedAffinity -2.56346512
REMARK minimizedRMSD -1
REMARK  0 active torsions:
REMARK  status: ('A' for Active; 'I' for Inactive)
ROOT
ATOM      1  C4' PXY d   1       2.883  -0.149  -1.111  0.00  0.00     0.077 C 
ATOM      2  C1' PXY d   1       3.499  -5.118   1.778  0.00  0.00     0.077 C 
ATOM      3  C1  PXY d   1       3.325  -3.816   1.021  0.00  0.00    -0.082 A 
ATOM      4  C2  PXY d   1       4.309  -3.365   0.260  0.00  0.00     0.003 A 
ATOM      5  C3  PXY d   1       4.180  -2.174  -0.406  0.00  0.00     0.003 A 
ATOM      6  C4  PXY d   1       3.012  -1.463  -0.336  0.00  0.00    -0.082 A 
ATOM      7  C5  PXY d   1       1.999  -1.922   0.430  0.00  0.00     0.003 A 
ATOM      8  C6  PXY d   1       2.165  -3.113   1.131  0.00  0.00     0.003 A 
ENDROOT
TORSDOF 0
ENDMDL
