MODEL 1
REMARK minimizedAffinity 2.14568138
REMARK minimizedRMSD -1
REMARK  0 active torsions:
REMARK  status: ('A' for Active; 'I' for Inactive)
ROOT
ATOM      1  C4' PXY d   1       5.981  -1.177   0.490  0.00  0.00     0.077 C 
ATOM      2  C1' PXY d   1       1.020   0.526  -1.939  0.00  0.00     0.077 C 
ATOM      3  C1  PXY d   1       2.314   0.070  -1.296  0.00  0.00    -0.082 A 
ATOM      4  C2  PXY d   1       3.299   0.936  -1.122  0.00  0.00     0.003 A 
ATOM      5  C3  PXY d   1       4.488   0.533  -0.571  0.00  0.00     0.003 A 
ATOM      6  C4  PXY d   1       4.653  -0.758  -0.146  0.00  0.00    -0.082 A 
ATOM      7  C5  PXY d   1       3.649  -1.646  -0.311  0.00  0.00     0.003 A 
ATOM      8  C6  PXY d   1       2.464  -1.226  -0.910  0.00  0.00     0.003 A 
ENDROOT
TORSDOF 0
ENDMDL
