MODEL 1
REMARK minimizedAffinity 12.6847095
REMARK minimizedRMSD -1
REMARK  0 active torsions:
REMARK  status: ('A' for Active; 'I' for Inactive)
ROOT
ATOM      1  C4' PXY d   1       1.201   0.814  -1.552  0.00  0.00     0.077 C 
ATOM      2  C1' PXY d   1       5.864  -2.206   0.043  0.00  0.00     0.077 C 
ATOM      3  C1  PXY d   1       4.646  -1.403  -0.370  0.00  0.00    -0.082 A 
ATOM      4  C2  PXY d   1       3.495  -2.021  -0.575  0.00  0.00     0.003 A 
ATOM      5  C3  PXY d   1       2.391  -1.315  -0.980  0.00  0.00     0.003 A 
ATOM      6  C4  PXY d   1       2.454   0.045  -1.125  0.00  0.00    -0.082 A 
ATOM      7  C5  PXY d   1       3.623   0.684  -0.907  0.00  0.00     0.003 A 
ATOM      8  C6  PXY d   1       4.742  -0.056  -0.537  0.00  0.00     0.003 A 
ENDROOT
TORSDOF 0
ENDMDL
