MODEL 1
REMARK minimizedAffinity 14.2178087
REMARK minimizedRMSD -1
REMARK  0 active torsions:
REMARK  status: ('A' for Active; 'I' for Inactive)
ROOT
ATOM      1  C4' PXY d   1       3.091   0.776  -0.896  0.00  0.00     0.077 C 
ATOM      2  C1' PXY d   1      -0.091  -1.209   3.503  0.00  0.00     0.077 C 
ATOM      3  C1  PXY d   1       0.749  -0.700   2.348  0.00  0.00    -0.082 A 
ATOM      4  C2  PXY d   1       0.999   0.594   2.242  0.00  0.00     0.003 A 
ATOM      5  C3  PXY d   1       1.731   1.075   1.187  0.00  0.00     0.003 A 
ATOM      6  C4  PXY d   1       2.255   0.216   0.259  0.00  0.00    -0.082 A 
ATOM      7  C5  PXY d   1       2.013  -1.107   0.366  0.00  0.00     0.003 A 
ATOM      8  C6  PXY d   1       1.234  -1.571   1.422  0.00  0.00     0.003 A 
ENDROOT
TORSDOF 0
ENDMDL
