MODEL 1
REMARK minimizedAffinity 0.258834571
REMARK minimizedRMSD -1
REMARK  0 active torsions:
REMARK  status: ('A' for Active; 'I' for Inactive)
ROOT
ATOM      1  C4' PXY d   1      -1.091  -3.605   3.999  0.00  0.00     0.077 C 
ATOM      2  C1' PXY d   1       2.029  -0.521   0.234  0.00  0.00     0.077 C 
ATOM      3  C1  PXY d   1       1.215  -1.341   1.217  0.00  0.00    -0.082 A 
ATOM      4  C2  PXY d   1       0.121  -0.825   1.751  0.00  0.00     0.003 A 
ATOM      5  C3  PXY d   1      -0.609  -1.540   2.665  0.00  0.00     0.003 A 
ATOM      6  C4  PXY d   1      -0.244  -2.817   2.996  0.00  0.00    -0.082 A 
ATOM      7  C5  PXY d   1       0.866  -3.356   2.447  0.00  0.00     0.003 A 
ATOM      8  C6  PXY d   1       1.616  -2.598   1.552  0.00  0.00     0.003 A 
ENDROOT
TORSDOF 0
ENDMDL
