MODEL 1
REMARK minimizedAffinity 2.08408165
REMARK minimizedRMSD -1
REMARK  0 active torsions:
REMARK  status: ('A' for Active; 'I' for Inactive)
ROOT
ATOM      1  C4' PXY d   1      -0.777   0.701   0.426  0.00  0.00     0.077 C 
ATOM      2  C1' PXY d   1       1.673  -4.025   2.678  0.00  0.00     0.077 C 
ATOM      3  C1  PXY d   1       1.042  -2.783   2.081  0.00  0.00    -0.082 A 
ATOM      4  C2  PXY d   1       0.043  -2.189   2.713  0.00  0.00     0.003 A 
ATOM      5  C3  PXY d   1      -0.561  -1.083   2.171  0.00  0.00     0.003 A 
ATOM      6  C4  PXY d   1      -0.103  -0.549   0.997  0.00  0.00    -0.082 A 
ATOM      7  C5  PXY d   1       0.923  -1.143   0.351  0.00  0.00     0.003 A 
ATOM      8  C6  PXY d   1       1.496  -2.289   0.897  0.00  0.00     0.003 A 
ENDROOT
TORSDOF 0
ENDMDL
