MODEL 1
REMARK minimizedAffinity -0.0992472693
REMARK minimizedRMSD -1
REMARK  0 active torsions:
REMARK  status: ('A' for Active; 'I' for Inactive)
ROOT
ATOM      1  C4' PXY d   1      -0.177  -0.275   1.514  0.00  0.00     0.077 C 
ATOM      2  C1' PXY d   1       1.359  -5.681   2.867  0.00  0.00     0.077 C 
ATOM      3  C1  PXY d   1       0.945  -4.265   2.519  0.00  0.00    -0.082 A 
ATOM      4  C2  PXY d   1       1.458  -3.678   1.450  0.00  0.00     0.003 A 
ATOM      5  C3  PXY d   1       1.119  -2.386   1.138  0.00  0.00     0.003 A 
ATOM      6  C4  PXY d   1       0.205  -1.707   1.899  0.00  0.00    -0.082 A 
ATOM      7  C5  PXY d   1      -0.330  -2.303   2.985  0.00  0.00     0.003 A 
ATOM      8  C6  PXY d   1       0.058  -3.600   3.308  0.00  0.00     0.003 A 
ENDROOT
TORSDOF 0
ENDMDL
