MODEL 1
REMARK minimizedAffinity -1.03878486
REMARK minimizedRMSD -1
REMARK  0 active torsions:
REMARK  status: ('A' for Active; 'I' for Inactive)
ROOT
ATOM      1  C4' PXY d   1       3.286  -3.839   0.982  0.00  0.00     0.077 C 
ATOM      2  C1' PXY d   1      -0.895   0.148   1.193  0.00  0.00     0.077 C 
ATOM      3  C1  PXY d   1       0.203  -0.895   1.125  0.00  0.00    -0.082 A 
ATOM      4  C2  PXY d   1       0.239  -1.867   2.023  0.00  0.00     0.003 A 
ATOM      5  C3  PXY d   1       1.244  -2.800   1.995  0.00  0.00     0.003 A 
ATOM      6  C4  PXY d   1       2.190  -2.769   1.006  0.00  0.00    -0.082 A 
ATOM      7  C5  PXY d   1       2.154  -1.788   0.081  0.00  0.00     0.003 A 
ATOM      8  C6  PXY d   1       1.150  -0.826   0.151  0.00  0.00     0.003 A 
ENDROOT
TORSDOF 0
ENDMDL
