MODEL 1
REMARK minimizedAffinity 7.10959339
REMARK minimizedRMSD -1
REMARK  0 active torsions:
REMARK  status: ('A' for Active; 'I' for Inactive)
ROOT
ATOM      1  C4' PXY d   1       1.658  -0.381  -0.585  0.00  0.00     0.077 C 
ATOM      2  C1' PXY d   1      -3.224   0.344   2.423  0.00  0.00     0.077 C 
ATOM      3  C1  PXY d   1      -1.937   0.154   1.645  0.00  0.00    -0.082 A 
ATOM      4  C2  PXY d   1      -1.882   0.513   0.373  0.00  0.00     0.003 A 
ATOM      5  C3  PXY d   1      -0.736   0.319  -0.354  0.00  0.00     0.003 A 
ATOM      6  C4  PXY d   1       0.383  -0.199   0.242  0.00  0.00    -0.082 A 
ATOM      7  C5  PXY d   1       0.338  -0.558   1.542  0.00  0.00     0.003 A 
ATOM      8  C6  PXY d   1      -0.848  -0.391   2.252  0.00  0.00     0.003 A 
ENDROOT
TORSDOF 0
ENDMDL
