MODEL 1
REMARK minimizedAffinity 2.85872293
REMARK minimizedRMSD -1
REMARK  0 active torsions:
REMARK  status: ('A' for Active; 'I' for Inactive)
ROOT
ATOM      1  C4' PXY d   1       1.885  -0.796  -0.639  0.00  0.00     0.077 C 
ATOM      2  C1' PXY d   1      -3.057   0.415   2.105  0.00  0.00     0.077 C 
ATOM      3  C1  PXY d   1      -1.754   0.100   1.397  0.00  0.00    -0.082 A 
ATOM      4  C2  PXY d   1      -1.683   0.210   0.080  0.00  0.00     0.003 A 
ATOM      5  C3  PXY d   1      -0.522  -0.102  -0.580  0.00  0.00     0.003 A 
ATOM      6  C4  PXY d   1       0.593  -0.479   0.120  0.00  0.00    -0.082 A 
ATOM      7  C5  PXY d   1       0.531  -0.583   1.464  0.00  0.00     0.003 A 
ATOM      8  C6  PXY d   1      -0.669  -0.302   2.112  0.00  0.00     0.003 A 
ENDROOT
TORSDOF 0
ENDMDL
