MODEL 1
REMARK minimizedAffinity -2.76456952
REMARK minimizedRMSD -1
REMARK  0 active torsions:
REMARK  status: ('A' for Active; 'I' for Inactive)
ROOT
ATOM      1  C   UNL d   1       5.344  -2.280   5.199  0.00  0.00     0.172 C 
ATOM      2  N   UNL d   1       5.510  -2.951   3.931  0.00  0.00    -0.070 N 
ATOM      3  C1  UNL d   1       5.222  -4.266   3.680  0.00  0.00    -0.004 A 
ATOM      4  C2  UNL d   1       5.516  -4.518   2.358  0.00  0.00    -0.047 A 
ATOM      5  C3  UNL d   1       6.000  -3.313   1.795  0.00  0.00    -0.047 A 
ATOM      6  C4  UNL d   1       5.986  -2.359   2.791  0.00  0.00    -0.004 A 
ENDROOT
TORSDOF 0
ENDMDL
