MODEL 1
REMARK minimizedAffinity -2.21182489
REMARK minimizedRMSD -1
REMARK  0 active torsions:
REMARK  status: ('A' for Active; 'I' for Inactive)
ROOT
ATOM      1  C   UNL d   1       4.961  -5.425   5.991  0.00  0.00     0.172 C 
ATOM      2  N   UNL d   1       5.264  -4.359   5.065  0.00  0.00    -0.070 N 
ATOM      3  C1  UNL d   1       5.905  -4.503   3.864  0.00  0.00    -0.004 A 
ATOM      4  C2  UNL d   1       6.000  -3.256   3.284  0.00  0.00    -0.047 A 
ATOM      5  C3  UNL d   1       5.395  -2.331   4.167  0.00  0.00    -0.047 A 
ATOM      6  C4  UNL d   1       4.948  -3.040   5.262  0.00  0.00    -0.004 A 
ENDROOT
TORSDOF 0
ENDMDL
