MODEL 1
REMARK minimizedAffinity -2.62973881
REMARK minimizedRMSD -1
REMARK  0 active torsions:
REMARK  status: ('A' for Active; 'I' for Inactive)
ROOT
ATOM      1  C   UNL d   1       6.000  -5.635   5.367  0.00  0.00     0.172 C 
ATOM      2  N   UNL d   1       5.784  -4.410   4.633  0.00  0.00    -0.070 N 
ATOM      3  C1  UNL d   1       6.000  -3.145   5.110  0.00  0.00    -0.004 A 
ATOM      4  C2  UNL d   1       5.677  -2.255   4.108  0.00  0.00    -0.047 A 
ATOM      5  C3  UNL d   1       5.251  -3.012   2.991  0.00  0.00    -0.047 A 
ATOM      6  C4  UNL d   1       5.327  -4.343   3.343  0.00  0.00    -0.004 A 
ENDROOT
TORSDOF 0
ENDMDL
