MODEL 1
REMARK minimizedAffinity -2.57612729
REMARK minimizedRMSD -1
REMARK  0 active torsions:
REMARK  status: ('A' for Active; 'I' for Inactive)
ROOT
ATOM      1  C   UNL d   1       4.849  -5.634   5.749  0.00  0.00     0.172 C 
ATOM      2  N   UNL d   1       5.247  -4.616   4.805  0.00  0.00    -0.070 N 
ATOM      3  C1  UNL d   1       5.224  -3.265   5.031  0.00  0.00    -0.004 A 
ATOM      4  C2  UNL d   1       5.679  -2.639   3.890  0.00  0.00    -0.047 A 
ATOM      5  C3  UNL d   1       5.985  -3.648   2.947  0.00  0.00    -0.047 A 
ATOM      6  C4  UNL d   1       5.709  -4.862   3.539  0.00  0.00    -0.004 A 
ENDROOT
TORSDOF 0
ENDMDL
