MODEL 1
REMARK minimizedAffinity -2.5113163
REMARK minimizedRMSD -1
REMARK  0 active torsions:
REMARK  status: ('A' for Active; 'I' for Inactive)
ROOT
ATOM      1  C   UNL d   1       4.852  -5.848   5.998  0.00  0.00     0.172 C 
ATOM      2  N   UNL d   1       5.209  -4.795   5.078  0.00  0.00    -0.070 N 
ATOM      3  C1  UNL d   1       5.661  -3.550   5.426  0.00  0.00    -0.004 A 
ATOM      4  C2  UNL d   1       5.890  -2.844   4.264  0.00  0.00    -0.047 A 
ATOM      5  C3  UNL d   1       5.563  -3.693   3.181  0.00  0.00    -0.047 A 
ATOM      6  C4  UNL d   1       5.144  -4.895   3.713  0.00  0.00    -0.004 A 
ENDROOT
TORSDOF 0
ENDMDL
