MODEL 1
REMARK minimizedAffinity -2.55879307
REMARK minimizedRMSD -1
REMARK  0 active torsions:
REMARK  status: ('A' for Active; 'I' for Inactive)
ROOT
ATOM      1  C   UNL d   1       5.973  -3.065   5.738  0.00  0.00     0.172 C 
ATOM      2  N   UNL d   1       5.855  -3.196   4.304  0.00  0.00    -0.070 N 
ATOM      3  C1  UNL d   1       5.981  -2.178   3.397  0.00  0.00    -0.004 A 
ATOM      4  C2  UNL d   1       5.802  -2.710   2.139  0.00  0.00    -0.047 A 
ATOM      5  C3  UNL d   1       5.559  -4.095   2.295  0.00  0.00    -0.047 A 
ATOM      6  C4  UNL d   1       5.598  -4.369   3.646  0.00  0.00    -0.004 A 
ENDROOT
TORSDOF 0
ENDMDL
