MODEL 1
REMARK minimizedAffinity -2.81710386
REMARK minimizedRMSD -1
REMARK  0 active torsions:
REMARK  status: ('A' for Active; 'I' for Inactive)
ROOT
ATOM      1  C   UNL d   1       4.876  -5.446   5.194  0.00  0.00     0.172 C 
ATOM      2  N   UNL d   1       5.197  -4.317   4.353  0.00  0.00    -0.070 N 
ATOM      3  C1  UNL d   1       5.517  -4.378   3.023  0.00  0.00    -0.004 A 
ATOM      4  C2  UNL d   1       5.754  -3.093   2.586  0.00  0.00    -0.047 A 
ATOM      5  C3  UNL d   1       5.572  -2.229   3.692  0.00  0.00    -0.047 A 
ATOM      6  C4  UNL d   1       5.228  -3.014   4.773  0.00  0.00    -0.004 A 
ENDROOT
TORSDOF 0
ENDMDL
