MODEL 1
REMARK minimizedAffinity -2.56586862
REMARK minimizedRMSD -1
REMARK  0 active torsions:
REMARK  status: ('A' for Active; 'I' for Inactive)
ROOT
ATOM      1  C   UNL d   1       5.465  -6.000   4.328  0.00  0.00     0.172 C 
ATOM      2  N   UNL d   1       5.122  -4.668   4.768  0.00  0.00    -0.070 N 
ATOM      3  C1  UNL d   1       5.423  -3.507   4.108  0.00  0.00    -0.004 A 
ATOM      4  C2  UNL d   1       4.925  -2.458   4.850  0.00  0.00    -0.047 A 
ATOM      5  C3  UNL d   1       4.304  -3.008   5.997  0.00  0.00    -0.047 A 
ATOM      6  C4  UNL d   1       4.441  -4.378   5.921  0.00  0.00    -0.004 A 
ENDROOT
TORSDOF 0
ENDMDL
