MODEL 1
REMARK minimizedAffinity -2.80007529
REMARK minimizedRMSD -1
REMARK  0 active torsions:
REMARK  status: ('A' for Active; 'I' for Inactive)
ROOT
ATOM      1  C   UNL d   1       4.672  -2.545   5.693  0.00  0.00     0.172 C 
ATOM      2  N   UNL d   1       5.178  -2.990   4.415  0.00  0.00    -0.070 N 
ATOM      3  C1  UNL d   1       5.590  -2.177   3.393  0.00  0.00    -0.004 A 
ATOM      4  C2  UNL d   1       5.999  -2.983   2.353  0.00  0.00    -0.047 A 
ATOM      5  C3  UNL d   1       5.825  -4.326   2.763  0.00  0.00    -0.047 A 
ATOM      6  C4  UNL d   1       5.316  -4.301   4.044  0.00  0.00    -0.004 A 
ENDROOT
TORSDOF 0
ENDMDL
