MODEL 1
REMARK minimizedAffinity -2.62945294
REMARK minimizedRMSD -1
REMARK  0 active torsions:
REMARK  status: ('A' for Active; 'I' for Inactive)
ROOT
ATOM      1  C   UNL d   1       6.000  -4.090   1.942  0.00  0.00     0.172 C 
ATOM      2  N   UNL d   1       5.698  -3.541   3.243  0.00  0.00    -0.070 N 
ATOM      3  C1  UNL d   1       5.224  -4.247   4.317  0.00  0.00    -0.004 A 
ATOM      4  C2  UNL d   1       5.066  -3.366   5.364  0.00  0.00    -0.047 A 
ATOM      5  C3  UNL d   1       5.457  -2.086   4.904  0.00  0.00    -0.047 A 
ATOM      6  C4  UNL d   1       5.843  -2.223   3.588  0.00  0.00    -0.004 A 
ENDROOT
TORSDOF 0
ENDMDL
