MODEL 1
REMARK minimizedAffinity -2.41534662
REMARK minimizedRMSD -1
REMARK  0 active torsions:
REMARK  status: ('A' for Active; 'I' for Inactive)
ROOT
ATOM      1  C   UNL d   1       5.999  -5.084   2.721  0.00  0.00     0.172 C 
ATOM      2  N   UNL d   1       5.721  -4.352   3.934  0.00  0.00    -0.070 N 
ATOM      3  C1  UNL d   1       5.144  -4.868   5.064  0.00  0.00    -0.004 A 
ATOM      4  C2  UNL d   1       5.053  -3.854   5.992  0.00  0.00    -0.047 A 
ATOM      5  C3  UNL d   1       5.594  -2.688   5.400  0.00  0.00    -0.047 A 
ATOM      6  C4  UNL d   1       6.000  -3.025   4.126  0.00  0.00    -0.004 A 
ENDROOT
TORSDOF 0
ENDMDL
