MODEL 1
REMARK minimizedAffinity -2.43899155
REMARK minimizedRMSD -1
REMARK  0 active torsions:
REMARK  status: ('A' for Active; 'I' for Inactive)
ROOT
ATOM      1  C   UNL d   1       5.959  -5.999   3.859  0.00  0.00     0.172 C 
ATOM      2  N   UNL d   1       5.540  -4.794   4.534  0.00  0.00    -0.070 N 
ATOM      3  C1  UNL d   1       4.716  -4.735   5.626  0.00  0.00    -0.004 A 
ATOM      4  C2  UNL d   1       4.560  -3.409   5.967  0.00  0.00    -0.047 A 
ATOM      5  C3  UNL d   1       5.316  -2.644   5.048  0.00  0.00    -0.047 A 
ATOM      6  C4  UNL d   1       5.912  -3.526   4.172  0.00  0.00    -0.004 A 
ENDROOT
TORSDOF 0
ENDMDL
