MODEL 1
REMARK minimizedAffinity -2.60128379
REMARK minimizedRMSD -1
REMARK  0 active torsions:
REMARK  status: ('A' for Active; 'I' for Inactive)
ROOT
ATOM      1  C   UNL d   1       5.100  -2.753   5.961  0.00  0.00     0.172 C 
ATOM      2  N   UNL d   1       5.375  -3.545   4.786  0.00  0.00    -0.070 N 
ATOM      3  C1  UNL d   1       5.217  -4.902   4.683  0.00  0.00    -0.004 A 
ATOM      4  C2  UNL d   1       5.584  -5.274   3.408  0.00  0.00    -0.047 A 
ATOM      5  C3  UNL d   1       5.978  -4.101   2.721  0.00  0.00    -0.047 A 
ATOM      6  C4  UNL d   1       5.839  -3.046   3.598  0.00  0.00    -0.004 A 
ENDROOT
TORSDOF 0
ENDMDL
