MODEL 1
REMARK minimizedAffinity -2.63465738
REMARK minimizedRMSD -1
REMARK  0 active torsions:
REMARK  status: ('A' for Active; 'I' for Inactive)
ROOT
ATOM      1  C   UNL d   1       5.712  -5.801   2.875  0.00  0.00     0.172 C 
ATOM      2  N   UNL d   1       5.443  -4.717   3.791  0.00  0.00    -0.070 N 
ATOM      3  C1  UNL d   1       5.370  -3.391   3.458  0.00  0.00    -0.004 A 
ATOM      4  C2  UNL d   1       5.097  -2.682   4.608  0.00  0.00    -0.047 A 
ATOM      5  C3  UNL d   1       5.003  -3.615   5.669  0.00  0.00    -0.047 A 
ATOM      6  C4  UNL d   1       5.222  -4.867   5.134  0.00  0.00    -0.004 A 
ENDROOT
TORSDOF 0
ENDMDL
