MODEL 1
REMARK minimizedAffinity -2.57258868
REMARK minimizedRMSD -1
REMARK  0 active torsions:
REMARK  status: ('A' for Active; 'I' for Inactive)
ROOT
ATOM      1  C   UNL d   1       4.936  -5.870   5.633  0.00  0.00     0.172 C 
ATOM      2  N   UNL d   1       5.112  -4.591   4.986  0.00  0.00    -0.070 N 
ATOM      3  C1  UNL d   1       5.114  -3.373   5.612  0.00  0.00    -0.004 A 
ATOM      4  C2  UNL d   1       5.310  -2.404   4.651  0.00  0.00    -0.047 A 
ATOM      5  C3  UNL d   1       5.429  -3.063   3.405  0.00  0.00    -0.047 A 
ATOM      6  C4  UNL d   1       5.302  -4.416   3.641  0.00  0.00    -0.004 A 
ENDROOT
TORSDOF 0
ENDMDL
