MODEL 1
REMARK minimizedAffinity -2.22238564
REMARK minimizedRMSD -1
REMARK  0 active torsions:
REMARK  status: ('A' for Active; 'I' for Inactive)
ROOT
ATOM      1  C   UNL d   1       4.090  -5.475   6.000  0.00  0.00     0.172 C 
ATOM      2  N   UNL d   1       4.851  -4.449   5.326  0.00  0.00    -0.070 N 
ATOM      3  C1  UNL d   1       5.325  -3.300   5.900  0.00  0.00    -0.004 A 
ATOM      4  C2  UNL d   1       5.997  -2.589   4.929  0.00  0.00    -0.047 A 
ATOM      5  C3  UNL d   1       5.923  -3.337   3.730  0.00  0.00    -0.047 A 
ATOM      6  C4  UNL d   1       5.208  -4.483   4.004  0.00  0.00    -0.004 A 
ENDROOT
TORSDOF 0
ENDMDL
