MODEL 1
REMARK minimizedAffinity -2.63613367
REMARK minimizedRMSD -1
REMARK  0 active torsions:
REMARK  status: ('A' for Active; 'I' for Inactive)
ROOT
ATOM      1  C   UNL d   1       5.999  -5.759   6.000  0.00  0.00     0.172 C 
ATOM      2  N   UNL d   1       5.240  -4.663   5.445  0.00  0.00    -0.070 N 
ATOM      3  C1  UNL d   1       5.586  -3.930   4.341  0.00  0.00    -0.004 A 
ATOM      4  C2  UNL d   1       4.606  -2.983   4.138  0.00  0.00    -0.047 A 
ATOM      5  C3  UNL d   1       3.637  -3.152   5.156  0.00  0.00    -0.047 A 
ATOM      6  C4  UNL d   1       4.055  -4.198   5.951  0.00  0.00    -0.004 A 
ENDROOT
TORSDOF 0
ENDMDL
