MODEL 1
REMARK minimizedAffinity -2.71888065
REMARK minimizedRMSD -1
REMARK  0 active torsions:
REMARK  status: ('A' for Active; 'I' for Inactive)
ROOT
ATOM      1  C   UNL d   1       5.285  -1.829   4.509  0.00  0.00     0.172 C 
ATOM      2  N   UNL d   1       5.494  -2.864   3.524  0.00  0.00    -0.070 N 
ATOM      3  C1  UNL d   1       5.631  -4.201   3.787  0.00  0.00    -0.004 A 
ATOM      4  C2  UNL d   1       5.813  -4.852   2.586  0.00  0.00    -0.047 A 
ATOM      5  C3  UNL d   1       5.785  -3.872   1.565  0.00  0.00    -0.047 A 
ATOM      6  C4  UNL d   1       5.586  -2.650   2.174  0.00  0.00    -0.004 A 
ENDROOT
TORSDOF 0
ENDMDL
