MODEL 1
REMARK minimizedAffinity -4.63276482
REMARK minimizedRMSD -1
REMARK  0 active torsions:
REMARK  status: ('A' for Active; 'I' for Inactive)
ROOT
ATOM      1  C1  DEN d   1       0.588  -0.263  -0.068  0.00  0.00     0.130 A 
ATOM      2  C2  DEN d   1      -0.639   0.150   0.608  0.00  0.00    -0.031 A 
ATOM      3  C3  DEN d   1      -1.628  -0.937   0.462  0.00  0.00     0.027 A 
ATOM      4  C4  DEN d   1      -1.379  -3.209  -0.732  0.00  0.00     0.027 A 
ATOM      5  C5  DEN d   1      -0.525  -4.006  -1.462  0.00  0.00    -0.003 A 
ATOM      6  C6  DEN d   1       0.738  -3.600  -1.805  0.00  0.00     0.001 A 
ATOM      7  C7  DEN d   1       1.199  -2.383  -1.379  0.00  0.00     0.017 A 
ATOM      8  C8  DEN d   1       0.341  -1.571  -0.649  0.00  0.00    -0.094 A 
ATOM      9  C9  DEN d   1      -0.928  -2.004  -0.302  0.00  0.00    -0.072 A 
ENDROOT
TORSDOF 0
ENDMDL
