MODEL 1
REMARK minimizedAffinity -4.3084693
REMARK minimizedRMSD -1
REMARK  0 active torsions:
REMARK  status: ('A' for Active; 'I' for Inactive)
ROOT
ATOM      1  C1  DEN d   1       0.430   0.360  -1.866  0.00  0.00     0.130 A 
ATOM      2  C2  DEN d   1      -0.043   1.613  -1.284  0.00  0.00    -0.031 A 
ATOM      3  C3  DEN d   1      -0.596   1.315   0.052  0.00  0.00     0.027 A 
ATOM      4  C4  DEN d   1      -0.761  -0.951   1.272  0.00  0.00     0.027 A 
ATOM      5  C5  DEN d   1      -0.502  -2.301   1.173  0.00  0.00    -0.003 A 
ATOM      6  C6  DEN d   1       0.050  -2.858   0.050  0.00  0.00     0.001 A 
ATOM      7  C7  DEN d   1       0.403  -2.056  -1.002  0.00  0.00     0.017 A 
ATOM      8  C8  DEN d   1       0.138  -0.696  -0.913  0.00  0.00    -0.094 A 
ATOM      9  C9  DEN d   1      -0.409  -0.149   0.235  0.00  0.00    -0.072 A 
ENDROOT
TORSDOF 0
ENDMDL
