MODEL 1
REMARK minimizedAffinity -2.68829584
REMARK minimizedRMSD -1
REMARK  0 active torsions:
REMARK  status: ('A' for Active; 'I' for Inactive)
ROOT
ATOM      1  C1  DEN d   1       0.750  -2.028  -0.777  0.00  0.00     0.130 A 
ATOM      2  C2  DEN d   1      -0.074  -2.979  -0.037  0.00  0.00    -0.031 A 
ATOM      3  C3  DEN d   1      -1.001  -2.212   0.819  0.00  0.00     0.027 A 
ATOM      4  C4  DEN d   1      -1.243   0.344   1.065  0.00  0.00     0.027 A 
ATOM      5  C5  DEN d   1      -0.754   1.563   0.649  0.00  0.00    -0.003 A 
ATOM      6  C6  DEN d   1       0.284   1.669  -0.238  0.00  0.00     0.001 A 
ATOM      7  C7  DEN d   1       0.838   0.537  -0.773  0.00  0.00     0.017 A 
ATOM      8  C8  DEN d   1       0.356  -0.696  -0.353  0.00  0.00    -0.094 A 
ATOM      9  C9  DEN d   1      -0.702  -0.782   0.535  0.00  0.00    -0.072 A 
ENDROOT
TORSDOF 0
ENDMDL
