MODEL 1
REMARK minimizedAffinity 2.60528135
REMARK minimizedRMSD -1
REMARK  0 active torsions:
REMARK  status: ('A' for Active; 'I' for Inactive)
ROOT
ATOM      1  C1  DEN d   1      -0.171   0.156   0.497  0.00  0.00     0.130 A 
ATOM      2  C2  DEN d   1      -1.514   0.515   0.946  0.00  0.00    -0.031 A 
ATOM      3  C3  DEN d   1      -2.323  -0.719   0.995  0.00  0.00     0.027 A 
ATOM      4  C4  DEN d   1      -1.630  -3.138   0.428  0.00  0.00     0.027 A 
ATOM      5  C5  DEN d   1      -0.596  -3.937  -0.009  0.00  0.00    -0.003 A 
ATOM      6  C6  DEN d   1       0.632  -3.426  -0.337  0.00  0.00     0.001 A 
ATOM      7  C7  DEN d   1       0.871  -2.085  -0.191  0.00  0.00     0.017 A 
ATOM      8  C8  DEN d   1      -0.169  -1.273   0.242  0.00  0.00    -0.094 A 
ATOM      9  C9  DEN d   1      -1.400  -1.810   0.581  0.00  0.00    -0.072 A 
ENDROOT
TORSDOF 0
ENDMDL
