MODEL 1
REMARK minimizedAffinity 1.03527379
REMARK minimizedRMSD -1
REMARK  0 active torsions:
REMARK  status: ('A' for Active; 'I' for Inactive)
ROOT
ATOM      1  C1  DEN d   1      -2.539  -0.804   1.086  0.00  0.00     0.130 A 
ATOM      2  C2  DEN d   1      -1.925   0.511   1.251  0.00  0.00    -0.031 A 
ATOM      3  C3  DEN d   1      -0.484   0.382   0.955  0.00  0.00     0.027 A 
ATOM      4  C4  DEN d   1       0.848  -1.713   0.255  0.00  0.00     0.027 A 
ATOM      5  C5  DEN d   1       0.761  -3.062  -0.005  0.00  0.00    -0.003 A 
ATOM      6  C6  DEN d   1      -0.414  -3.755   0.113  0.00  0.00     0.001 A 
ATOM      7  C7  DEN d   1      -1.562  -3.091   0.456  0.00  0.00     0.017 A 
ATOM      8  C8  DEN d   1      -1.482  -1.731   0.727  0.00  0.00    -0.094 A 
ATOM      9  C9  DEN d   1      -0.286  -1.047   0.591  0.00  0.00    -0.072 A 
ENDROOT
TORSDOF 0
ENDMDL
