MODEL 1
REMARK minimizedAffinity -1.89890182
REMARK minimizedRMSD -1
REMARK  0 active torsions:
REMARK  status: ('A' for Active; 'I' for Inactive)
ROOT
ATOM      1  C1  DEN d   1      -1.121   0.248   0.636  0.00  0.00     0.130 A 
ATOM      2  C2  DEN d   1      -0.370   1.146  -0.239  0.00  0.00    -0.031 A 
ATOM      3  C3  DEN d   1       0.682   0.355  -0.909  0.00  0.00     0.027 A 
ATOM      4  C4  DEN d   1       1.215  -2.158  -0.683  0.00  0.00     0.027 A 
ATOM      5  C5  DEN d   1       0.859  -3.329  -0.051  0.00  0.00    -0.003 A 
ATOM      6  C6  DEN d   1      -0.152  -3.382   0.872  0.00  0.00     0.001 A 
ATOM      7  C7  DEN d   1      -0.872  -2.252   1.156  0.00  0.00     0.017 A 
ATOM      8  C8  DEN d   1      -0.514  -1.066   0.528  0.00  0.00    -0.094 A 
ATOM      9  C9  DEN d   1       0.503  -1.035  -0.411  0.00  0.00    -0.072 A 
ENDROOT
TORSDOF 0
ENDMDL
