MODEL 1
REMARK minimizedAffinity -4.3560214
REMARK minimizedRMSD -1
REMARK  0 active torsions:
REMARK  status: ('A' for Active; 'I' for Inactive)
ROOT
ATOM      1  C1  DEN d   1      -0.668   0.423   1.070  0.00  0.00     0.130 A 
ATOM      2  C2  DEN d   1      -0.038   1.275   0.065  0.00  0.00    -0.031 A 
ATOM      3  C3  DEN d   1       0.613   0.400  -0.931  0.00  0.00     0.027 A 
ATOM      4  C4  DEN d   1       0.701  -2.176  -1.017  0.00  0.00     0.027 A 
ATOM      5  C5  DEN d   1       0.320  -3.334  -0.376  0.00  0.00    -0.003 A 
ATOM      6  C6  DEN d   1      -0.381  -3.321   0.800  0.00  0.00     0.001 A 
ATOM      7  C7  DEN d   1      -0.763  -2.126   1.349  0.00  0.00     0.017 A 
ATOM      8  C8  DEN d   1      -0.377  -0.953   0.713  0.00  0.00    -0.094 A 
ATOM      9  C9  DEN d   1       0.321  -0.988  -0.483  0.00  0.00    -0.072 A 
ENDROOT
TORSDOF 0
ENDMDL
