MODEL 1
REMARK minimizedAffinity -6.05422544
REMARK minimizedRMSD -1
REMARK  0 active torsions:
REMARK  status: ('A' for Active; 'I' for Inactive)
ROOT
ATOM      1  C1  DEN d   1      -1.333   0.497   0.691  0.00  0.00     0.130 A 
ATOM      2  C2  DEN d   1      -0.730   1.265  -0.395  0.00  0.00    -0.031 A 
ATOM      3  C3  DEN d   1       0.317   0.430  -1.018  0.00  0.00     0.027 A 
ATOM      4  C4  DEN d   1       1.056  -1.965  -0.412  0.00  0.00     0.027 A 
ATOM      5  C5  DEN d   1       0.845  -3.022   0.446  0.00  0.00    -0.003 A 
ATOM      6  C6  DEN d   1      -0.075  -2.968   1.459  0.00  0.00     0.001 A 
ATOM      7  C7  DEN d   1      -0.852  -1.849   1.611  0.00  0.00     0.017 A 
ATOM      8  C8  DEN d   1      -0.639  -0.777   0.755  0.00  0.00    -0.094 A 
ATOM      9  C9  DEN d   1       0.288  -0.856  -0.271  0.00  0.00    -0.072 A 
ENDROOT
TORSDOF 0
ENDMDL
