MODEL 1
REMARK minimizedAffinity -0.36376673
REMARK minimizedRMSD -1
REMARK  0 active torsions:
REMARK  status: ('A' for Active; 'I' for Inactive)
ROOT
ATOM      1  C1  DEN d   1      -0.741  -2.801  -0.392  0.00  0.00     0.130 A 
ATOM      2  C2  DEN d   1      -1.178  -2.566   0.982  0.00  0.00    -0.031 A 
ATOM      3  C3  DEN d   1      -0.865  -1.165   1.327  0.00  0.00     0.027 A 
ATOM      4  C4  DEN d   1       0.243   0.656  -0.125  0.00  0.00     0.027 A 
ATOM      5  C5  DEN d   1       0.799   0.926  -1.356  0.00  0.00    -0.003 A 
ATOM      6  C6  DEN d   1       0.910  -0.028  -2.332  0.00  0.00     0.001 A 
ATOM      7  C7  DEN d   1       0.418  -1.287  -2.109  0.00  0.00     0.017 A 
ATOM      8  C8  DEN d   1      -0.137  -1.569  -0.868  0.00  0.00    -0.094 A 
ATOM      9  C9  DEN d   1      -0.251  -0.587   0.101  0.00  0.00    -0.072 A 
ENDROOT
TORSDOF 0
ENDMDL
