MODEL 1
REMARK minimizedAffinity -5.24506998
REMARK minimizedRMSD -1
REMARK  0 active torsions:
REMARK  status: ('A' for Active; 'I' for Inactive)
ROOT
ATOM      1  C1  DEN d   1      -0.639   0.496   1.413  0.00  0.00     0.130 A 
ATOM      2  C2  DEN d   1      -0.167   1.591   0.569  0.00  0.00    -0.031 A 
ATOM      3  C3  DEN d   1       0.465   1.004  -0.629  0.00  0.00     0.027 A 
ATOM      4  C4  DEN d   1       0.754  -1.481  -1.258  0.00  0.00     0.027 A 
ATOM      5  C5  DEN d   1       0.524  -2.776  -0.850  0.00  0.00    -0.003 A 
ATOM      6  C6  DEN d   1      -0.074  -3.070   0.347  0.00  0.00     0.001 A 
ATOM      7  C7  DEN d   1      -0.504  -2.053   1.158  0.00  0.00     0.017 A 
ATOM      8  C8  DEN d   1      -0.269  -0.744   0.756  0.00  0.00    -0.094 A 
ATOM      9  C9  DEN d   1       0.326  -0.468  -0.463  0.00  0.00    -0.072 A 
ENDROOT
TORSDOF 0
ENDMDL
