MODEL 1
REMARK minimizedAffinity -3.27970719
REMARK minimizedRMSD -1
REMARK  0 active torsions:
REMARK  status: ('A' for Active; 'I' for Inactive)
ROOT
ATOM      1  C1  DEN d   1       1.769   0.295  -0.216  0.00  0.00     0.130 A 
ATOM      2  C2  DEN d   1       1.267   1.590   0.234  0.00  0.00    -0.031 A 
ATOM      3  C3  DEN d   1      -0.006   1.363   0.947  0.00  0.00     0.027 A 
ATOM      4  C4  DEN d   1      -1.240  -0.857   1.397  0.00  0.00     0.027 A 
ATOM      5  C5  DEN d   1      -1.207  -2.220   1.199  0.00  0.00    -0.003 A 
ATOM      6  C6  DEN d   1      -0.206  -2.831   0.491  0.00  0.00     0.001 A 
ATOM      7  C7  DEN d   1       0.828  -2.083  -0.005  0.00  0.00     0.017 A 
ATOM      8  C8  DEN d   1       0.799  -0.707   0.184  0.00  0.00    -0.094 A 
ATOM      9  C9  DEN d   1      -0.216  -0.110   0.913  0.00  0.00    -0.072 A 
ENDROOT
TORSDOF 0
ENDMDL
