MODEL 1
REMARK minimizedAffinity -4.18455029
REMARK minimizedRMSD -1
REMARK  0 active torsions:
REMARK  status: ('A' for Active; 'I' for Inactive)
ROOT
ATOM      1  C1  DEN d   1      -0.044  -3.745  -0.262  0.00  0.00     0.130 A 
ATOM      2  C2  DEN d   1       0.110  -3.676  -1.712  0.00  0.00    -0.031 A 
ATOM      3  C3  DEN d   1       0.155  -2.252  -2.099  0.00  0.00     0.027 A 
ATOM      4  C4  DEN d   1       0.008  -0.158  -0.601  0.00  0.00     0.027 A 
ATOM      5  C5  DEN d   1      -0.138   0.288   0.694  0.00  0.00    -0.003 A 
ATOM      6  C6  DEN d   1      -0.297  -0.572   1.749  0.00  0.00     0.001 A 
ATOM      7  C7  DEN d   1      -0.267  -1.924   1.532  0.00  0.00     0.017 A 
ATOM      8  C8  DEN d   1      -0.127  -2.381   0.228  0.00  0.00    -0.094 A 
ATOM      9  C9  DEN d   1       0.044  -1.496  -0.823  0.00  0.00    -0.072 A 
ENDROOT
TORSDOF 0
ENDMDL
