MODEL 1
REMARK minimizedAffinity -4.65820885
REMARK minimizedRMSD -1
REMARK  0 active torsions:
REMARK  status: ('A' for Active; 'I' for Inactive)
ROOT
ATOM      1  C1  DEN d   1       1.703   0.140  -0.462  0.00  0.00     0.130 A 
ATOM      2  C2  DEN d   1       1.064   1.453  -0.486  0.00  0.00    -0.031 A 
ATOM      3  C3  DEN d   1      -0.295   1.309   0.072  0.00  0.00     0.027 A 
ATOM      4  C4  DEN d   1      -1.465  -0.806   0.971  0.00  0.00     0.027 A 
ATOM      5  C5  DEN d   1      -1.327  -2.159   1.187  0.00  0.00    -0.003 A 
ATOM      6  C6  DEN d   1      -0.192  -2.842   0.840  0.00  0.00     0.001 A 
ATOM      7  C7  DEN d   1       0.869  -2.164   0.299  0.00  0.00     0.017 A 
ATOM      8  C8  DEN d   1       0.735  -0.801   0.072  0.00  0.00    -0.094 A 
ATOM      9  C9  DEN d   1      -0.417  -0.127   0.441  0.00  0.00    -0.072 A 
ENDROOT
TORSDOF 0
ENDMDL
