MODEL 1
REMARK minimizedAffinity -3.6928165
REMARK minimizedRMSD -1
REMARK  0 active torsions:
REMARK  status: ('A' for Active; 'I' for Inactive)
ROOT
ATOM      1  C1  DEN d   1       0.839  -2.374  -0.709  0.00  0.00     0.130 A 
ATOM      2  C2  DEN d   1       0.001  -3.344  -0.010  0.00  0.00    -0.031 A 
ATOM      3  C3  DEN d   1      -1.027  -2.600   0.745  0.00  0.00     0.027 A 
ATOM      4  C4  DEN d   1      -1.403  -0.052   0.894  0.00  0.00     0.027 A 
ATOM      5  C5  DEN d   1      -0.937   1.177   0.483  0.00  0.00    -0.003 A 
ATOM      6  C6  DEN d   1       0.164   1.309  -0.321  0.00  0.00     0.001 A 
ATOM      7  C7  DEN d   1       0.811   0.191  -0.775  0.00  0.00     0.017 A 
ATOM      8  C8  DEN d   1       0.352  -1.052  -0.359  0.00  0.00    -0.094 A 
ATOM      9  C9  DEN d   1      -0.771  -1.165   0.444  0.00  0.00    -0.072 A 
ENDROOT
TORSDOF 0
ENDMDL
