MODEL 1
REMARK minimizedAffinity -5.27659178
REMARK minimizedRMSD -1
REMARK  0 active torsions:
REMARK  status: ('A' for Active; 'I' for Inactive)
ROOT
ATOM      1  C1  DEN d   1      -0.651   0.733  -0.203  0.00  0.00     0.130 A 
ATOM      2  C2  DEN d   1      -1.366   0.482   1.045  0.00  0.00    -0.031 A 
ATOM      3  C3  DEN d   1      -1.630  -0.968   1.138  0.00  0.00     0.027 A 
ATOM      4  C4  DEN d   1      -0.999  -2.840  -0.520  0.00  0.00     0.027 A 
ATOM      5  C5  DEN d   1      -0.395  -3.114  -1.727  0.00  0.00    -0.003 A 
ATOM      6  C6  DEN d   1       0.131  -2.130  -2.521  0.00  0.00     0.001 A 
ATOM      7  C7  DEN d   1       0.103  -0.828  -2.095  0.00  0.00     0.017 A 
ATOM      8  C8  DEN d   1      -0.510  -0.543  -0.882  0.00  0.00    -0.094 A 
ATOM      9  C9  DEN d   1      -1.025  -1.554  -0.089  0.00  0.00    -0.072 A 
ENDROOT
TORSDOF 0
ENDMDL
