MODEL 1
REMARK minimizedAffinity -5.27876949
REMARK minimizedRMSD -1
REMARK  0 active torsions:
REMARK  status: ('A' for Active; 'I' for Inactive)
ROOT
ATOM      1  C4' PXY d   1      -0.079  -3.995  -0.567  0.00  0.00     0.077 C 
ATOM      2  C1' PXY d   1      -0.380   1.756  -0.070  0.00  0.00     0.077 C 
ATOM      3  C1  PXY d   1      -0.299   0.249  -0.214  0.00  0.00    -0.082 A 
ATOM      4  C2  PXY d   1      -0.872  -0.526   0.693  0.00  0.00     0.003 A 
ATOM      5  C3  PXY d   1      -0.782  -1.891   0.596  0.00  0.00     0.003 A 
ATOM      6  C4  PXY d   1      -0.143  -2.469  -0.468  0.00  0.00    -0.082 A 
ATOM      7  C5  PXY d   1       0.435  -1.685  -1.403  0.00  0.00     0.003 A 
ATOM      8  C6  PXY d   1       0.367  -0.302  -1.264  0.00  0.00     0.003 A 
ENDROOT
TORSDOF 0
ENDMDL
