MODEL 1
REMARK minimizedAffinity -4.40193319
REMARK minimizedRMSD -1
REMARK  0 active torsions:
REMARK  status: ('A' for Active; 'I' for Inactive)
ROOT
ATOM      1  C4' PXY d   1      -0.046  -2.577  -0.636  0.00  0.00     0.077 C 
ATOM      2  C1' PXY d   1       0.256   3.178  -0.183  0.00  0.00     0.077 C 
ATOM      3  C1  PXY d   1       0.171   1.670  -0.313  0.00  0.00    -0.082 A 
ATOM      4  C2  PXY d   1       0.202   0.917   0.774  0.00  0.00     0.003 A 
ATOM      5  C3  PXY d   1       0.159  -0.450   0.672  0.00  0.00     0.003 A 
ATOM      6  C4  PXY d   1       0.028  -1.050  -0.552  0.00  0.00    -0.082 A 
ATOM      7  C5  PXY d   1      -0.016  -0.287  -1.665  0.00  0.00     0.003 A 
ATOM      8  C6  PXY d   1       0.071   1.096  -1.543  0.00  0.00     0.003 A 
ENDROOT
TORSDOF 0
ENDMDL
