MODEL 1
REMARK minimizedAffinity -3.24175262
REMARK minimizedRMSD -1
REMARK  0 active torsions:
REMARK  status: ('A' for Active; 'I' for Inactive)
ROOT
ATOM      1  C4' PXY d   1      -0.488  -2.912   0.550  0.00  0.00     0.077 C 
ATOM      2  C1' PXY d   1       0.255   2.805   0.128  0.00  0.00     0.077 C 
ATOM      3  C1  PXY d   1       0.059   1.307   0.252  0.00  0.00    -0.082 A 
ATOM      4  C2  PXY d   1       0.574   0.502  -0.663  0.00  0.00     0.003 A 
ATOM      5  C3  PXY d   1       0.379  -0.853  -0.584  0.00  0.00     0.003 A 
ATOM      6  C4  PXY d   1      -0.306  -1.394   0.471  0.00  0.00    -0.082 A 
ATOM      7  C5  PXY d   1      -0.826  -0.580   1.414  0.00  0.00     0.003 A 
ATOM      8  C6  PXY d   1      -0.652   0.796   1.293  0.00  0.00     0.003 A 
ENDROOT
TORSDOF 0
ENDMDL
