MODEL 1
REMARK minimizedAffinity -3.43778825
REMARK minimizedRMSD -1
REMARK  0 active torsions:
REMARK  status: ('A' for Active; 'I' for Inactive)
ROOT
ATOM      1  C4' PXY d   1      -1.560   0.700   1.285  0.00  0.00     0.077 C 
ATOM      2  C1' PXY d   1       1.440  -1.904  -2.914  0.00  0.00     0.077 C 
ATOM      3  C1  PXY d   1       0.657  -1.209  -1.817  0.00  0.00    -0.082 A 
ATOM      4  C2  PXY d   1       0.351  -1.871  -0.713  0.00  0.00     0.003 A 
ATOM      5  C3  PXY d   1      -0.383  -1.268   0.275  0.00  0.00     0.003 A 
ATOM      6  C4  PXY d   1      -0.763   0.042   0.155  0.00  0.00    -0.082 A 
ATOM      7  C5  PXY d   1      -0.446   0.727  -0.964  0.00  0.00     0.003 A 
ATOM      8  C6  PXY d   1       0.265   0.084  -1.974  0.00  0.00     0.003 A 
ENDROOT
TORSDOF 0
ENDMDL
