MODEL 1
REMARK minimizedAffinity -4.60792208
REMARK minimizedRMSD -1
REMARK  0 active torsions:
REMARK  status: ('A' for Active; 'I' for Inactive)
ROOT
ATOM      1  C4' PXY d   1      -0.447  -3.428   0.554  0.00  0.00     0.077 C 
ATOM      2  C1' PXY d   1       0.606   2.243   0.171  0.00  0.00     0.077 C 
ATOM      3  C1  PXY d   1       0.331   0.756   0.285  0.00  0.00    -0.082 A 
ATOM      4  C2  PXY d   1       0.546  -0.030  -0.758  0.00  0.00     0.003 A 
ATOM      5  C3  PXY d   1       0.273  -1.372  -0.683  0.00  0.00     0.003 A 
ATOM      6  C4  PXY d   1      -0.175  -1.923   0.488  0.00  0.00    -0.082 A 
ATOM      7  C5  PXY d   1      -0.386  -1.129   1.559  0.00  0.00     0.003 A 
ATOM      8  C6  PXY d   1      -0.142   0.236   1.450  0.00  0.00     0.003 A 
ENDROOT
TORSDOF 0
ENDMDL
