MODEL 1
REMARK minimizedAffinity -4.75172997
REMARK minimizedRMSD -1
REMARK  0 active torsions:
REMARK  status: ('A' for Active; 'I' for Inactive)
ROOT
ATOM      1  C4' PXY d   1       0.037   2.630  -0.022  0.00  0.00     0.077 C 
ATOM      2  C1' PXY d   1      -0.188  -3.123   0.496  0.00  0.00     0.077 C 
ATOM      3  C1  PXY d   1      -0.118  -1.615   0.354  0.00  0.00    -0.082 A 
ATOM      4  C2  PXY d   1      -0.768  -0.846   1.212  0.00  0.00     0.003 A 
ATOM      5  C3  PXY d   1      -0.741   0.518   1.079  0.00  0.00     0.003 A 
ATOM      6  C4  PXY d   1       0.002   1.104   0.089  0.00  0.00    -0.082 A 
ATOM      7  C5  PXY d   1       0.676   0.326  -0.785  0.00  0.00     0.003 A 
ATOM      8  C6  PXY d   1       0.603  -1.058  -0.657  0.00  0.00     0.003 A 
ENDROOT
TORSDOF 0
ENDMDL
