MODEL 1
REMARK minimizedAffinity -4.36770821
REMARK minimizedRMSD -1
REMARK  0 active torsions:
REMARK  status: ('A' for Active; 'I' for Inactive)
ROOT
ATOM      1  C4' PXY d   1      -0.093   2.287   0.072  0.00  0.00     0.077 C 
ATOM      2  C1' PXY d   1      -0.150  -3.486   0.359  0.00  0.00     0.077 C 
ATOM      3  C1  PXY d   1      -0.124  -1.972   0.277  0.00  0.00    -0.082 A 
ATOM      4  C2  PXY d   1      -0.771  -1.257   1.183  0.00  0.00     0.003 A 
ATOM      5  C3  PXY d   1      -0.785   0.112   1.105  0.00  0.00     0.003 A 
ATOM      6  C4  PXY d   1      -0.084   0.757   0.121  0.00  0.00    -0.082 A 
ATOM      7  C5  PXY d   1       0.588   0.034  -0.800  0.00  0.00     0.003 A 
ATOM      8  C6  PXY d   1       0.555  -1.355  -0.728  0.00  0.00     0.003 A 
ENDROOT
TORSDOF 0
ENDMDL
