MODEL 1
REMARK minimizedAffinity -4.7132926
REMARK minimizedRMSD -1
REMARK  0 active torsions:
REMARK  status: ('A' for Active; 'I' for Inactive)
ROOT
ATOM      1  C4' PXY d   1       0.125   2.232   0.195  0.00  0.00     0.077 C 
ATOM      2  C1' PXY d   1      -0.276  -3.531  -0.029  0.00  0.00     0.077 C 
ATOM      3  C1  PXY d   1      -0.160  -2.020   0.022  0.00  0.00    -0.082 A 
ATOM      4  C2  PXY d   1      -0.701  -1.356   1.031  0.00  0.00     0.003 A 
ATOM      5  C3  PXY d   1      -0.633   0.012   1.076  0.00  0.00     0.003 A 
ATOM      6  C4  PXY d   1       0.041   0.705   0.107  0.00  0.00    -0.082 A 
ATOM      7  C5  PXY d   1       0.605   0.035  -0.920  0.00  0.00     0.003 A 
ATOM      8  C6  PXY d   1       0.490  -1.352  -0.969  0.00  0.00     0.003 A 
ENDROOT
TORSDOF 0
ENDMDL
