MODEL 1
REMARK minimizedAffinity -4.80750942
REMARK minimizedRMSD -1
REMARK  0 active torsions:
REMARK  status: ('A' for Active; 'I' for Inactive)
ROOT
ATOM      1  C4' PXY d   1       0.510   2.334  -0.419  0.00  0.00     0.077 C 
ATOM      2  C1' PXY d   1      -0.356  -3.221   0.922  0.00  0.00     0.077 C 
ATOM      3  C1  PXY d   1      -0.141  -1.761   0.576  0.00  0.00    -0.082 A 
ATOM      4  C2  PXY d   1       0.700  -1.437  -0.393  0.00  0.00     0.003 A 
ATOM      5  C3  PXY d   1       0.931  -0.120  -0.699  0.00  0.00     0.003 A 
ATOM      6  C4  PXY d   1       0.254   0.873  -0.041  0.00  0.00    -0.082 A 
ATOM      7  C5  PXY d   1      -0.613   0.549   0.941  0.00  0.00     0.003 A 
ATOM      8  C6  PXY d   1      -0.802  -0.792   1.264  0.00  0.00     0.003 A 
ENDROOT
TORSDOF 0
ENDMDL
