MODEL 1
REMARK minimizedAffinity -3.90770364
REMARK minimizedRMSD -1
REMARK  0 active torsions:
REMARK  status: ('A' for Active; 'I' for Inactive)
ROOT
ATOM      1  C4' PXY d   1       0.024  -3.581  -0.031  0.00  0.00     0.077 C 
ATOM      2  C1' PXY d   1      -0.076   2.190  -0.349  0.00  0.00     0.077 C 
ATOM      3  C1  PXY d   1      -0.050   0.676  -0.279  0.00  0.00    -0.082 A 
ATOM      4  C2  PXY d   1      -0.517   0.063   0.797  0.00  0.00     0.003 A 
ATOM      5  C3  PXY d   1      -0.471  -1.304   0.890  0.00  0.00     0.003 A 
ATOM      6  C4  PXY d   1       0.009  -2.054  -0.150  0.00  0.00    -0.082 A 
ATOM      7  C5  PXY d   1       0.478  -1.436  -1.255  0.00  0.00     0.003 A 
ATOM      8  C6  PXY d   1       0.460  -0.046  -1.313  0.00  0.00     0.003 A 
ENDROOT
TORSDOF 0
ENDMDL
