MODEL 1
REMARK minimizedAffinity -5.20674515
REMARK minimizedRMSD -1
REMARK  0 active torsions:
REMARK  status: ('A' for Active; 'I' for Inactive)
ROOT
ATOM      1  C4' PXY d   1      -0.096   2.675  -0.075  0.00  0.00     0.077 C 
ATOM      2  C1' PXY d   1      -0.539  -3.028   0.757  0.00  0.00     0.077 C 
ATOM      3  C1  PXY d   1      -0.434  -1.530   0.545  0.00  0.00    -0.082 A 
ATOM      4  C2  PXY d   1       0.235  -1.062  -0.496  0.00  0.00     0.003 A 
ATOM      5  C3  PXY d   1       0.367   0.290  -0.684  0.00  0.00     0.003 A 
ATOM      6  C4  PXY d   1      -0.237   1.171   0.172  0.00  0.00    -0.082 A 
ATOM      7  C5  PXY d   1      -0.930   0.701   1.231  0.00  0.00     0.003 A 
ATOM      8  C6  PXY d   1      -1.017  -0.674   1.428  0.00  0.00     0.003 A 
ENDROOT
TORSDOF 0
ENDMDL
