MODEL 1
REMARK minimizedAffinity -2.89559698
REMARK minimizedRMSD -1
REMARK  0 active torsions:
REMARK  status: ('A' for Active; 'I' for Inactive)
ROOT
ATOM      1  C4' PXY d   1       2.183   3.684  -0.037  0.00  0.00     0.077 C 
ATOM      2  C1' PXY d   1      -1.014  -1.042   0.893  0.00  0.00     0.077 C 
ATOM      3  C1  PXY d   1      -0.182   0.199   0.638  0.00  0.00    -0.082 A 
ATOM      4  C2  PXY d   1       1.016   0.309   1.189  0.00  0.00     0.003 A 
ATOM      5  C3  PXY d   1       1.768   1.439   0.995  0.00  0.00     0.003 A 
ATOM      6  C4  PXY d   1       1.312   2.444   0.185  0.00  0.00    -0.082 A 
ATOM      7  C5  PXY d   1       0.095   2.335  -0.390  0.00  0.00     0.003 A 
ATOM      8  C6  PXY d   1      -0.670   1.198  -0.147  0.00  0.00     0.003 A 
ENDROOT
TORSDOF 0
ENDMDL
