MODEL 1
REMARK minimizedAffinity -3.72010112
REMARK minimizedRMSD -1
REMARK  0 active torsions:
REMARK  status: ('A' for Active; 'I' for Inactive)
ROOT
ATOM      1  C4' PXY d   1       0.568  -2.933  -2.861  0.00  0.00     0.077 C 
ATOM      2  C1' PXY d   1      -0.881  -0.984   2.385  0.00  0.00     0.077 C 
ATOM      3  C1  PXY d   1      -0.499  -1.507   1.014  0.00  0.00    -0.082 A 
ATOM      4  C2  PXY d   1      -0.044  -0.669   0.097  0.00  0.00     0.003 A 
ATOM      5  C3  PXY d   1       0.276  -1.119  -1.157  0.00  0.00     0.003 A 
ATOM      6  C4  PXY d   1       0.179  -2.451  -1.461  0.00  0.00    -0.082 A 
ATOM      7  C5  PXY d   1      -0.274  -3.315  -0.528  0.00  0.00     0.003 A 
ATOM      8  C6  PXY d   1      -0.632  -2.831   0.727  0.00  0.00     0.003 A 
ENDROOT
TORSDOF 0
ENDMDL
