MODEL 1
REMARK minimizedAffinity -4.92494631
REMARK minimizedRMSD -1
REMARK  0 active torsions:
REMARK  status: ('A' for Active; 'I' for Inactive)
ROOT
ATOM      1  C4' PXY d   1      -0.618  -3.259   0.180  0.00  0.00     0.077 C 
ATOM      2  C1' PXY d   1      -0.065   2.490  -0.043  0.00  0.00     0.077 C 
ATOM      3  C1  PXY d   1      -0.207   0.982   0.003  0.00  0.00    -0.082 A 
ATOM      4  C2  PXY d   1      -0.956   0.423   0.940  0.00  0.00     0.003 A 
ATOM      5  C3  PXY d   1      -1.070  -0.941   1.015  0.00  0.00     0.003 A 
ATOM      6  C4  PXY d   1      -0.453  -1.740   0.090  0.00  0.00    -0.082 A 
ATOM      7  C5  PXY d   1       0.304  -1.177  -0.876  0.00  0.00     0.003 A 
ATOM      8  C6  PXY d   1       0.440   0.208  -0.910  0.00  0.00     0.003 A 
ENDROOT
TORSDOF 0
ENDMDL
