MODEL 1
REMARK minimizedAffinity -5.51976824
REMARK minimizedRMSD -1
REMARK  0 active torsions:
REMARK  status: ('A' for Active; 'I' for Inactive)
ROOT
ATOM      1  C4' PXY d   1      -1.574  -0.497   2.236  0.00  0.00     0.077 C 
ATOM      2  C1' PXY d   1       0.613  -2.265  -2.814  0.00  0.00     0.077 C 
ATOM      3  C1  PXY d   1       0.045  -1.790  -1.491  0.00  0.00    -0.082 A 
ATOM      4  C2  PXY d   1      -0.238  -2.671  -0.546  0.00  0.00     0.003 A 
ATOM      5  C3  PXY d   1      -0.782  -2.262   0.644  0.00  0.00     0.003 A 
ATOM      6  C4  PXY d   1      -0.990  -0.931   0.889  0.00  0.00    -0.082 A 
ATOM      7  C5  PXY d   1      -0.694  -0.024  -0.066  0.00  0.00     0.003 A 
ATOM      8  C6  PXY d   1      -0.181  -0.464  -1.283  0.00  0.00     0.003 A 
ENDROOT
TORSDOF 0
ENDMDL
