MODEL 1
REMARK minimizedAffinity -3.55009866
REMARK minimizedRMSD -1
REMARK  0 active torsions:
REMARK  status: ('A' for Active; 'I' for Inactive)
ROOT
ATOM      1  C4' PXY d   1       0.373   2.217  -0.088  0.00  0.00     0.077 C 
ATOM      2  C1' PXY d   1      -0.311  -3.507   0.343  0.00  0.00     0.077 C 
ATOM      3  C1  PXY d   1      -0.144  -2.004   0.234  0.00  0.00    -0.082 A 
ATOM      4  C2  PXY d   1       0.763  -1.505  -0.590  0.00  0.00     0.003 A 
ATOM      5  C3  PXY d   1       0.949  -0.150  -0.677  0.00  0.00     0.003 A 
ATOM      6  C4  PXY d   1       0.163   0.706   0.047  0.00  0.00    -0.082 A 
ATOM      7  C5  PXY d   1      -0.772   0.205   0.882  0.00  0.00     0.003 A 
ATOM      8  C6  PXY d   1      -0.917  -1.176   0.987  0.00  0.00     0.003 A 
ENDROOT
TORSDOF 0
ENDMDL
