MODEL 1
REMARK minimizedAffinity -4.36337852
REMARK minimizedRMSD -1
REMARK  0 active torsions:
REMARK  status: ('A' for Active; 'I' for Inactive)
ROOT
ATOM      1  C4' PXY d   1      -0.107  -3.676   0.327  0.00  0.00     0.077 C 
ATOM      2  C1' PXY d   1      -0.370   2.096   0.140  0.00  0.00     0.077 C 
ATOM      3  C1  PXY d   1      -0.299   0.582   0.176  0.00  0.00    -0.082 A 
ATOM      4  C2  PXY d   1      -0.876  -0.077   1.168  0.00  0.00     0.003 A 
ATOM      5  C3  PXY d   1      -0.794  -1.444   1.234  0.00  0.00     0.003 A 
ATOM      6  C4  PXY d   1      -0.161  -2.148   0.245  0.00  0.00    -0.082 A 
ATOM      7  C5  PXY d   1       0.421  -1.484  -0.777  0.00  0.00     0.003 A 
ATOM      8  C6  PXY d   1       0.362  -0.094  -0.803  0.00  0.00     0.003 A 
ENDROOT
TORSDOF 0
ENDMDL
