MODEL 1
REMARK minimizedAffinity -3.37425756
REMARK minimizedRMSD -1
REMARK  0 active torsions:
REMARK  status: ('A' for Active; 'I' for Inactive)
ROOT
ATOM      1  C4' PXY d   1      -0.030   2.278  -0.667  0.00  0.00     0.077 C 
ATOM      2  C1' PXY d   1      -0.215  -3.338   0.691  0.00  0.00     0.077 C 
ATOM      3  C1  PXY d   1      -0.157  -1.867   0.326  0.00  0.00    -0.082 A 
ATOM      4  C2  PXY d   1      -0.587  -0.962   1.190  0.00  0.00     0.003 A 
ATOM      5  C3  PXY d   1      -0.572   0.370   0.864  0.00  0.00     0.003 A 
ATOM      6  C4  PXY d   1      -0.061   0.783  -0.338  0.00  0.00    -0.082 A 
ATOM      7  C5  PXY d   1       0.390  -0.134  -1.220  0.00  0.00     0.003 A 
ATOM      8  C6  PXY d   1       0.327  -1.484  -0.886  0.00  0.00     0.003 A 
ENDROOT
TORSDOF 0
ENDMDL
