MODEL 1
REMARK minimizedAffinity -4.17661142
REMARK minimizedRMSD -1
REMARK  0 active torsions:
REMARK  status: ('A' for Active; 'I' for Inactive)
ROOT
ATOM      1  C4' PXY d   1      -1.651  -0.413   2.363  0.00  0.00     0.077 C 
ATOM      2  C1' PXY d   1       1.075  -2.540  -2.269  0.00  0.00     0.077 C 
ATOM      3  C1  PXY d   1       0.367  -1.971  -1.055  0.00  0.00    -0.082 A 
ATOM      4  C2  PXY d   1      -0.191  -2.791  -0.180  0.00  0.00     0.003 A 
ATOM      5  C3  PXY d   1      -0.862  -2.293   0.907  0.00  0.00     0.003 A 
ATOM      6  C4  PXY d   1      -0.918  -0.943   1.128  0.00  0.00    -0.082 A 
ATOM      7  C5  PXY d   1      -0.342  -0.100   0.244  0.00  0.00     0.003 A 
ATOM      8  C6  PXY d   1       0.299  -0.624  -0.874  0.00  0.00     0.003 A 
ENDROOT
TORSDOF 0
ENDMDL
