MODEL 1
REMARK minimizedAffinity -2.27655578
REMARK minimizedRMSD -1
REMARK  0 active torsions:
REMARK  status: ('A' for Active; 'I' for Inactive)
ROOT
ATOM      1  C   UNL d   1      -1.362   0.552   0.166  0.00  0.00     0.172 C 
ATOM      2  N   UNL d   1      -0.392  -0.505   0.006  0.00  0.00    -0.070 N 
ATOM      3  C1  UNL d   1      -0.218  -1.565   0.855  0.00  0.00    -0.004 A 
ATOM      4  C2  UNL d   1       0.802  -2.345   0.354  0.00  0.00    -0.047 A 
ATOM      5  C3  UNL d   1       1.256  -1.733  -0.838  0.00  0.00    -0.047 A 
ATOM      6  C4  UNL d   1       0.501  -0.596  -1.030  0.00  0.00    -0.004 A 
ENDROOT
TORSDOF 0
ENDMDL
