MODEL 1
REMARK minimizedAffinity -4.06434298
REMARK minimizedRMSD -1
REMARK  0 active torsions:
REMARK  status: ('A' for Active; 'I' for Inactive)
ROOT
ATOM      1  C   UNL d   1      -0.382   0.551   0.190  0.00  0.00     0.172 C 
ATOM      2  N   UNL d   1       0.932  -0.029   0.342  0.00  0.00    -0.070 N 
ATOM      3  C1  UNL d   1       2.044   0.623   0.804  0.00  0.00    -0.004 A 
ATOM      4  C2  UNL d   1       3.091  -0.273   0.800  0.00  0.00    -0.047 A 
ATOM      5  C3  UNL d   1       2.591  -1.506   0.318  0.00  0.00    -0.047 A 
ATOM      6  C4  UNL d   1       1.252  -1.327   0.042  0.00  0.00    -0.004 A 
ENDROOT
TORSDOF 0
ENDMDL
