MODEL 1
REMARK minimizedAffinity -1.67391837
REMARK minimizedRMSD -1
REMARK  0 active torsions:
REMARK  status: ('A' for Active; 'I' for Inactive)
ROOT
ATOM      1  C   UNL d   1       2.148  -1.773  -0.288  0.00  0.00     0.172 C 
ATOM      2  N   UNL d   1       0.919  -1.014  -0.299  0.00  0.00    -0.070 N 
ATOM      3  C1  UNL d   1       0.696   0.153   0.381  0.00  0.00    -0.004 A 
ATOM      4  C2  UNL d   1      -0.594   0.559   0.111  0.00  0.00    -0.047 A 
ATOM      5  C3  UNL d   1      -1.166  -0.399  -0.760  0.00  0.00    -0.047 A 
ATOM      6  C4  UNL d   1      -0.207  -1.362  -0.997  0.00  0.00    -0.004 A 
ENDROOT
TORSDOF 0
ENDMDL
