MODEL 1
REMARK minimizedAffinity -2.74146986
REMARK minimizedRMSD -1
REMARK  0 active torsions:
REMARK  status: ('A' for Active; 'I' for Inactive)
ROOT
ATOM      1  C   UNL d   1       2.157   0.690   1.067  0.00  0.00     0.172 C 
ATOM      2  N   UNL d   1       0.836   0.862   0.511  0.00  0.00    -0.070 N 
ATOM      3  C1  UNL d   1       0.372   1.990  -0.113  0.00  0.00    -0.004 A 
ATOM      4  C2  UNL d   1      -0.930   1.754  -0.499  0.00  0.00    -0.047 A 
ATOM      5  C3  UNL d   1      -1.260   0.440  -0.092  0.00  0.00    -0.047 A 
ATOM      6  C4  UNL d   1      -0.149  -0.090   0.530  0.00  0.00    -0.004 A 
ENDROOT
TORSDOF 0
ENDMDL
