MODEL 1
REMARK minimizedAffinity -4.18845463
REMARK minimizedRMSD -1
REMARK  0 active torsions:
REMARK  status: ('A' for Active; 'I' for Inactive)
ROOT
ATOM      1  C   UNL d   1      -0.319  -0.135  -0.837  0.00  0.00     0.172 C 
ATOM      2  N   UNL d   1       0.924  -0.325  -0.127  0.00  0.00    -0.070 N 
ATOM      3  C1  UNL d   1       1.492  -1.533   0.178  0.00  0.00    -0.004 A 
ATOM      4  C2  UNL d   1       2.666  -1.288   0.855  0.00  0.00    -0.047 A 
ATOM      5  C3  UNL d   1       2.809   0.115   0.962  0.00  0.00    -0.047 A 
ATOM      6  C4  UNL d   1       1.716   0.687   0.345  0.00  0.00    -0.004 A 
ENDROOT
TORSDOF 0
ENDMDL
