MODEL 1
REMARK minimizedAffinity -3.16705561
REMARK minimizedRMSD -1
REMARK  0 active torsions:
REMARK  status: ('A' for Active; 'I' for Inactive)
ROOT
ATOM      1  C   UNL d   1      -1.238   0.254   0.138  0.00  0.00     0.172 C 
ATOM      2  N   UNL d   1      -0.069  -0.591   0.066  0.00  0.00    -0.070 N 
ATOM      3  C1  UNL d   1       0.886  -0.717   1.039  0.00  0.00    -0.004 A 
ATOM      4  C2  UNL d   1       1.830  -1.614   0.590  0.00  0.00    -0.047 A 
ATOM      5  C3  UNL d   1       1.429  -2.042  -0.698  0.00  0.00    -0.047 A 
ATOM      6  C4  UNL d   1       0.250  -1.393  -0.997  0.00  0.00    -0.004 A 
ENDROOT
TORSDOF 0
ENDMDL
