MODEL 1
REMARK minimizedAffinity -2.96310782
REMARK minimizedRMSD -1
REMARK  0 active torsions:
REMARK  status: ('A' for Active; 'I' for Inactive)
ROOT
ATOM      1  C   UNL d   1       2.712   0.974   0.093  0.00  0.00     0.172 C 
ATOM      2  N   UNL d   1       1.539   0.140  -0.025  0.00  0.00    -0.070 N 
ATOM      3  C1  UNL d   1       1.535  -1.192  -0.344  0.00  0.00    -0.004 A 
ATOM      4  C2  UNL d   1       0.225  -1.620  -0.355  0.00  0.00    -0.047 A 
ATOM      5  C3  UNL d   1      -0.586  -0.506  -0.033  0.00  0.00    -0.047 A 
ATOM      6  C4  UNL d   1       0.253   0.570   0.166  0.00  0.00    -0.004 A 
ENDROOT
TORSDOF 0
ENDMDL
