MODEL 1
REMARK minimizedAffinity 3.3286159
REMARK minimizedRMSD -1
REMARK  0 active torsions:
REMARK  status: ('A' for Active; 'I' for Inactive)
ROOT
ATOM      1  C   UNL d   1       2.436  -2.461  -0.795  0.00  0.00     0.172 C 
ATOM      2  N   UNL d   1       1.058  -2.297  -0.396  0.00  0.00    -0.070 N 
ATOM      3  C1  UNL d   1       0.148  -3.308  -0.235  0.00  0.00    -0.004 A 
ATOM      4  C2  UNL d   1      -1.048  -2.741   0.151  0.00  0.00    -0.047 A 
ATOM      5  C3  UNL d   1      -0.850  -1.342   0.222  0.00  0.00    -0.047 A 
ATOM      6  C4  UNL d   1       0.462  -1.095  -0.121  0.00  0.00    -0.004 A 
ENDROOT
TORSDOF 0
ENDMDL
