MODEL 1
REMARK minimizedAffinity 4.18547392
REMARK minimizedRMSD -1
REMARK  0 active torsions:
REMARK  status: ('A' for Active; 'I' for Inactive)
ROOT
ATOM      1  C   UNL d   1       1.150  -2.943   4.910  0.00  0.00     0.078 C 
ATOM      2  C1  UNL d   1       0.820  -1.699   4.142  0.00  0.00    -0.077 A 
ATOM      3  C2  UNL d   1       1.180  -0.435   4.626  0.00  0.00    -0.001 A 
ATOM      4  C3  UNL d   1       0.857   0.715   3.905  0.00  0.00     0.003 A 
ATOM      5  C4  UNL d   1       0.171   0.614   2.697  0.00  0.00    -0.005 A 
ATOM      6  C5  UNL d   1      -0.194  -0.638   2.208  0.00  0.00     0.003 A 
ATOM      7  C6  UNL d   1       0.128  -1.790   2.928  0.00  0.00    -0.001 A 
ENDROOT
TORSDOF 0
ENDMDL
