MODEL 1
REMARK minimizedAffinity 10.1286793
REMARK minimizedRMSD -1
REMARK  0 active torsions:
REMARK  status: ('A' for Active; 'I' for Inactive)
ROOT
ATOM      1  C   UNL d   1      -3.363  -1.780  -0.186  0.00  0.00     0.078 C 
ATOM      2  C1  UNL d   1      -3.961  -0.415  -0.353  0.00  0.00    -0.077 A 
ATOM      3  C2  UNL d   1      -3.714   0.599   0.581  0.00  0.00    -0.001 A 
ATOM      4  C3  UNL d   1      -4.285   1.863   0.418  0.00  0.00     0.003 A 
ATOM      5  C4  UNL d   1      -5.107   2.123  -0.677  0.00  0.00    -0.005 A 
ATOM      6  C5  UNL d   1      -5.359   1.119  -1.610  0.00  0.00     0.003 A 
ATOM      7  C6  UNL d   1      -4.790  -0.144  -1.449  0.00  0.00    -0.001 A 
ENDROOT
TORSDOF 0
ENDMDL
