MODEL 1
REMARK minimizedAffinity 10.9654226
REMARK minimizedRMSD -1
REMARK  0 active torsions:
REMARK  status: ('A' for Active; 'I' for Inactive)
ROOT
ATOM      1  C   UNL d   1      -1.934  -2.295  -2.959  0.00  0.00     0.078 C 
ATOM      2  C1  UNL d   1      -0.737  -1.869  -3.755  0.00  0.00    -0.077 A 
ATOM      3  C2  UNL d   1      -0.097  -0.651  -3.500  0.00  0.00    -0.001 A 
ATOM      4  C3  UNL d   1       1.011  -0.263  -4.256  0.00  0.00     0.003 A 
ATOM      5  C4  UNL d   1       1.486  -1.088  -5.274  0.00  0.00    -0.005 A 
ATOM      6  C5  UNL d   1       0.854  -2.301  -5.537  0.00  0.00     0.003 A 
ATOM      7  C6  UNL d   1      -0.253  -2.690  -4.782  0.00  0.00    -0.001 A 
ENDROOT
TORSDOF 0
ENDMDL
