MODEL 1
REMARK minimizedAffinity 2.66716552
REMARK minimizedRMSD -1
REMARK  0 active torsions:
REMARK  status: ('A' for Active; 'I' for Inactive)
ROOT
ATOM      1  C   UNL d   1       5.512   4.754  -5.901  0.00  0.00     0.078 C 
ATOM      2  C1  UNL d   1       5.324   3.367  -5.364  0.00  0.00    -0.077 A 
ATOM      3  C2  UNL d   1       4.469   2.457  -5.999  0.00  0.00    -0.001 A 
ATOM      4  C3  UNL d   1       4.296   1.172  -5.483  0.00  0.00     0.003 A 
ATOM      5  C4  UNL d   1       4.974   0.785  -4.329  0.00  0.00    -0.005 A 
ATOM      6  C5  UNL d   1       5.824   1.683  -3.688  0.00  0.00     0.003 A 
ATOM      7  C6  UNL d   1       5.998   2.969  -4.203  0.00  0.00    -0.001 A 
ENDROOT
TORSDOF 0
ENDMDL
