MODEL 1
REMARK minimizedAffinity -3.71085167
REMARK minimizedRMSD -1
REMARK  0 active torsions:
REMARK  status: ('A' for Active; 'I' for Inactive)
ROOT
ATOM      1  C2' OXE d   1      -0.701   0.005  -0.361  0.00  0.00     0.078 C 
ATOM      2  C1' OXE d   1      -1.579   0.821   2.178  0.00  0.00     0.078 C 
ATOM      3  C1  OXE d   1      -0.142   0.386   2.037  0.00  0.00    -0.078 A 
ATOM      4  C2  OXE d   1       0.267  -0.056   0.802  0.00  0.00    -0.078 A 
ATOM      5  C3  OXE d   1       1.596  -0.417   0.604  0.00  0.00     0.003 A 
ATOM      6  C4  OXE d   1       2.482  -0.480   1.687  0.00  0.00    -0.002 A 
ATOM      7  C5  OXE d   1       2.075  -0.073   2.962  0.00  0.00    -0.002 A 
ATOM      8  C6  OXE d   1       0.781   0.402   3.145  0.00  0.00     0.003 A 
ENDROOT
TORSDOF 0
ENDMDL
