MODEL 1
REMARK minimizedAffinity -4.33346605
REMARK minimizedRMSD -1
REMARK  0 active torsions:
REMARK  status: ('A' for Active; 'I' for Inactive)
ROOT
ATOM      1  C2' OXE d   1      -2.626  -0.391   0.155  0.00  0.00     0.078 C 
ATOM      2  C1' OXE d   1      -0.089  -0.257  -1.040  0.00  0.00     0.078 C 
ATOM      3  C1  OXE d   1      -0.239   0.295   0.355  0.00  0.00    -0.078 A 
ATOM      4  C2  OXE d   1      -1.494   0.267   0.914  0.00  0.00    -0.078 A 
ATOM      5  C3  OXE d   1      -1.677   0.713   2.220  0.00  0.00     0.003 A 
ATOM      6  C4  OXE d   1      -0.628   1.330   2.912  0.00  0.00    -0.002 A 
ATOM      7  C5  OXE d   1       0.649   1.404   2.346  0.00  0.00    -0.002 A 
ATOM      8  C6  OXE d   1       0.870   0.854   1.088  0.00  0.00     0.003 A 
ENDROOT
TORSDOF 0
ENDMDL
