MODEL 1
REMARK minimizedAffinity -5.14722729
REMARK minimizedRMSD -1
REMARK  0 active torsions:
REMARK  status: ('A' for Active; 'I' for Inactive)
ROOT
ATOM      1  C2' OXE d   1       1.934   0.210   2.278  0.00  0.00     0.078 C 
ATOM      2  C1' OXE d   1      -0.624   1.269   2.740  0.00  0.00     0.078 C 
ATOM      3  C1  OXE d   1      -0.395   0.520   1.451  0.00  0.00    -0.078 A 
ATOM      4  C2  OXE d   1       0.872   0.046   1.212  0.00  0.00    -0.078 A 
ATOM      5  C3  OXE d   1       1.124  -0.699   0.064  0.00  0.00     0.003 A 
ATOM      6  C4  OXE d   1       0.139  -0.838  -0.922  0.00  0.00    -0.002 A 
ATOM      7  C5  OXE d   1      -1.147  -0.328  -0.716  0.00  0.00    -0.002 A 
ATOM      8  C6  OXE d   1      -1.442   0.315   0.481  0.00  0.00     0.003 A 
ENDROOT
TORSDOF 0
ENDMDL
