MODEL 1
REMARK minimizedAffinity -5.23097372
REMARK minimizedRMSD -1
REMARK  0 active torsions:
REMARK  status: ('A' for Active; 'I' for Inactive)
ROOT
ATOM      1  C2' OXE d   1       0.235  -0.354  -1.156  0.00  0.00     0.078 C 
ATOM      2  C1' OXE d   1      -2.196  -1.340  -0.158  0.00  0.00     0.078 C 
ATOM      3  C1  OXE d   1      -1.424  -0.370   0.702  0.00  0.00    -0.078 A 
ATOM      4  C2  OXE d   1      -0.213   0.072   0.226  0.00  0.00    -0.078 A 
ATOM      5  C3  OXE d   1       0.514   1.009   0.954  0.00  0.00     0.003 A 
ATOM      6  C4  OXE d   1       0.097   1.390   2.235  0.00  0.00    -0.002 A 
ATOM      7  C5  OXE d   1      -1.115   0.922   2.756  0.00  0.00    -0.002 A 
ATOM      8  C6  OXE d   1      -1.906   0.077   1.986  0.00  0.00     0.003 A 
ENDROOT
TORSDOF 0
ENDMDL
