MODEL 1
REMARK minimizedAffinity -4.23386431
REMARK minimizedRMSD -1
REMARK  0 active torsions:
REMARK  status: ('A' for Active; 'I' for Inactive)
ROOT
ATOM      1  C2' OXE d   1       0.341   0.409  -5.518  0.00  0.00     0.078 C 
ATOM      2  C1' OXE d   1       1.159   2.653  -4.042  0.00  0.00     0.078 C 
ATOM      3  C1  OXE d   1       0.779   1.409  -3.279  0.00  0.00    -0.078 A 
ATOM      4  C2  OXE d   1       0.336   0.331  -4.007  0.00  0.00    -0.078 A 
ATOM      5  C3  OXE d   1       0.025  -0.860  -3.356  0.00  0.00     0.003 A 
ATOM      6  C4  OXE d   1       0.013  -0.921  -1.957  0.00  0.00    -0.002 A 
ATOM      7  C5  OXE d   1       0.423   0.178  -1.195  0.00  0.00    -0.002 A 
ATOM      8  C6  OXE d   1       0.849   1.334  -1.840  0.00  0.00     0.003 A 
ENDROOT
TORSDOF 0
ENDMDL
