MODEL 1
REMARK minimizedAffinity -2.79665208
REMARK minimizedRMSD -1
REMARK  0 active torsions:
REMARK  status: ('A' for Active; 'I' for Inactive)
ROOT
ATOM      1  C2' OXE d   1       0.309  -0.330  -1.314  0.00  0.00     0.078 C 
ATOM      2  C1' OXE d   1      -1.896  -1.307   0.122  0.00  0.00     0.078 C 
ATOM      3  C1  OXE d   1      -1.122  -0.158   0.718  0.00  0.00    -0.078 A 
ATOM      4  C2  OXE d   1      -0.016   0.284   0.030  0.00  0.00    -0.078 A 
ATOM      5  C3  OXE d   1       0.701   1.377   0.508  0.00  0.00     0.003 A 
ATOM      6  C4  OXE d   1       0.400   1.931   1.758  0.00  0.00    -0.002 A 
ATOM      7  C5  OXE d   1      -0.698   1.471   2.493  0.00  0.00    -0.002 A 
ATOM      8  C6  OXE d   1      -1.493   0.457   1.968  0.00  0.00     0.003 A 
ENDROOT
TORSDOF 0
ENDMDL
