MODEL 1
REMARK minimizedAffinity -6.06793833
REMARK minimizedRMSD -1
REMARK  0 active torsions:
REMARK  status: ('A' for Active; 'I' for Inactive)
ROOT
ATOM      1  C2' OXE d   1       1.943   0.407   2.176  0.00  0.00     0.078 C 
ATOM      2  C1' OXE d   1      -0.714   1.238   2.535  0.00  0.00     0.078 C 
ATOM      3  C1  OXE d   1      -0.420   0.294   1.396  0.00  0.00    -0.078 A 
ATOM      4  C2  OXE d   1       0.890  -0.070   1.199  0.00  0.00    -0.078 A 
ATOM      5  C3  OXE d   1       1.209  -0.982   0.197  0.00  0.00     0.003 A 
ATOM      6  C4  OXE d   1       0.231  -1.411  -0.709  0.00  0.00    -0.002 A 
ATOM      7  C5  OXE d   1      -1.102  -1.020  -0.551  0.00  0.00    -0.002 A 
ATOM      8  C6  OXE d   1      -1.451  -0.203   0.519  0.00  0.00     0.003 A 
ENDROOT
TORSDOF 0
ENDMDL
