MODEL 1
REMARK minimizedAffinity -1.19101262
REMARK minimizedRMSD -1
REMARK  0 active torsions:
REMARK  status: ('A' for Active; 'I' for Inactive)
ROOT
ATOM      1  C2' OXE d   1      -1.815  -0.884  -0.061  0.00  0.00     0.078 C 
ATOM      2  C1' OXE d   1       0.372   0.575  -1.047  0.00  0.00     0.078 C 
ATOM      3  C1  OXE d   1      -0.048   0.815   0.382  0.00  0.00    -0.078 A 
ATOM      4  C2  OXE d   1      -1.148   0.131   0.841  0.00  0.00    -0.078 A 
ATOM      5  C3  OXE d   1      -1.544   0.275   2.168  0.00  0.00     0.003 A 
ATOM      6  C4  OXE d   1      -0.928   1.223   2.993  0.00  0.00    -0.002 A 
ATOM      7  C5  OXE d   1       0.169   1.959   2.533  0.00  0.00    -0.002 A 
ATOM      8  C6  OXE d   1       0.647   1.737   1.246  0.00  0.00     0.003 A 
ENDROOT
TORSDOF 0
ENDMDL
