MODEL 1
REMARK minimizedAffinity -0.834033966
REMARK minimizedRMSD -1
REMARK  1 active torsions:
REMARK  status: ('A' for Active; 'I' for Inactive)
REMARK    1  A    between atoms: C1_2  and  C2_3 
ROOT
ATOM      1  C2  UNL d   1      -1.029   0.013   0.781  0.00  0.00    -0.081 A 
ATOM      2  C3  UNL d   1      -0.584  -1.310   0.667  0.00  0.00     0.006 A 
ATOM      3  C4  UNL d   1       0.525  -1.618  -0.125  0.00  0.00     0.002 A 
ATOM      4  C5  UNL d   1       1.210  -0.609  -0.810  0.00  0.00    -0.080 A 
ATOM      5  C6  UNL d   1       2.420  -0.923  -1.639  0.00  0.00     0.076 C 
ATOM      6  C7  UNL d   1       0.755   0.710  -0.711  0.00  0.00     0.002 A 
ATOM      7  C8  UNL d   1      -0.354   1.019   0.081  0.00  0.00     0.006 A 
ENDROOT
BRANCH   1   8
ATOM      8  C1  UNL d   1      -2.185   0.357   1.685  0.00  0.00     0.054 C 
ATOM      9  C   UNL d   1      -1.710   0.651   3.101  0.00  0.00     0.018 C 
ENDBRANCH   1   8
TORSDOF 1
ENDMDL
