MODEL 1
REMARK minimizedAffinity -1.11513293
REMARK minimizedRMSD -1
REMARK  1 active torsions:
REMARK  status: ('A' for Active; 'I' for Inactive)
REMARK    1  A    between atoms: C1_2  and  C2_3 
ROOT
ATOM      1  C2  UNL d   1      -0.744  -0.035   1.086  0.00  0.00    -0.081 A 
ATOM      2  C3  UNL d   1      -0.704   0.732  -0.085  0.00  0.00     0.006 A 
ATOM      3  C4  UNL d   1       0.249   0.467  -1.072  0.00  0.00     0.002 A 
ATOM      4  C5  UNL d   1       1.172  -0.572  -0.907  0.00  0.00    -0.080 A 
ATOM      5  C6  UNL d   1       2.181  -0.886  -1.972  0.00  0.00     0.076 C 
ATOM      6  C7  UNL d   1       1.143  -1.326   0.271  0.00  0.00     0.002 A 
ATOM      7  C8  UNL d   1       0.191  -1.062   1.258  0.00  0.00     0.006 A 
ENDROOT
BRANCH   1   8
ATOM      8  C1  UNL d   1      -1.812   0.206   2.123  0.00  0.00     0.054 C 
ATOM      9  C   UNL d   1      -1.205   0.622   3.456  0.00  0.00     0.018 C 
ENDBRANCH   1   8
TORSDOF 1
ENDMDL
