MODEL 1
REMARK minimizedAffinity -1.73824406
REMARK minimizedRMSD -1
REMARK  1 active torsions:
REMARK  status: ('A' for Active; 'I' for Inactive)
REMARK    1  A    between atoms: C1_2  and  C2_3 
ROOT
ATOM      1  C2  UNL d   1      -1.362   0.276   1.048  0.00  0.00    -0.081 A 
ATOM      2  C3  UNL d   1      -0.994   1.022  -0.078  0.00  0.00     0.006 A 
ATOM      3  C4  UNL d   1       0.062   0.602  -0.891  0.00  0.00     0.002 A 
ATOM      4  C5  UNL d   1       0.761  -0.572  -0.596  0.00  0.00    -0.080 A 
ATOM      5  C6  UNL d   1       1.877  -1.050  -1.477  0.00  0.00     0.076 C 
ATOM      6  C7  UNL d   1       0.405  -1.308   0.539  0.00  0.00     0.002 A 
ATOM      7  C8  UNL d   1      -0.650  -0.889   1.353  0.00  0.00     0.006 A 
ENDROOT
BRANCH   1   8
ATOM      8  C1  UNL d   1      -2.542   0.690   1.890  0.00  0.00     0.054 C 
ATOM      9  C   UNL d   1      -2.198   0.671   3.372  0.00  0.00     0.018 C 
ENDBRANCH   1   8
TORSDOF 1
ENDMDL
