MODEL 1
REMARK minimizedAffinity -4.96639204
REMARK minimizedRMSD -1
REMARK  1 active torsions:
REMARK  status: ('A' for Active; 'I' for Inactive)
REMARK    1  A    between atoms: C1_2  and  C2_3 
ROOT
ATOM      1  C2  UNL d   1      -1.197  -0.055   0.693  0.00  0.00    -0.081 A 
ATOM      2  C3  UNL d   1      -0.579  -1.304   0.832  0.00  0.00     0.006 A 
ATOM      3  C4  UNL d   1       0.491  -1.660   0.007  0.00  0.00     0.002 A 
ATOM      4  C5  UNL d   1       0.965  -0.771  -0.964  0.00  0.00    -0.080 A 
ATOM      5  C6  UNL d   1       2.132  -1.128  -1.836  0.00  0.00     0.076 C 
ATOM      6  C7  UNL d   1       0.336   0.470  -1.114  0.00  0.00     0.002 A 
ATOM      7  C8  UNL d   1      -0.734   0.826  -0.290  0.00  0.00     0.006 A 
ENDROOT
BRANCH   1   8
ATOM      8  C1  UNL d   1      -2.309   0.357   1.624  0.00  0.00     0.054 C 
ATOM      9  C   UNL d   1      -1.773   1.142   2.813  0.00  0.00     0.018 C 
ENDBRANCH   1   8
TORSDOF 1
ENDMDL
