MODEL 1
REMARK minimizedAffinity -2.02177572
REMARK minimizedRMSD -1
REMARK  1 active torsions:
REMARK  status: ('A' for Active; 'I' for Inactive)
REMARK    1  A    between atoms: C1_2  and  C2_3 
ROOT
ATOM      1  C2  UNL d   1       1.596   0.347  -1.946  0.00  0.00    -0.081 A 
ATOM      2  C3  UNL d   1       2.260  -0.879  -1.820  0.00  0.00     0.006 A 
ATOM      3  C4  UNL d   1       1.846  -1.813  -0.867  0.00  0.00     0.002 A 
ATOM      4  C5  UNL d   1       0.757  -1.541  -0.032  0.00  0.00    -0.080 A 
ATOM      5  C6  UNL d   1       0.284  -2.547   0.974  0.00  0.00     0.076 C 
ATOM      6  C7  UNL d   1       0.105  -0.308  -0.147  0.00  0.00     0.002 A 
ATOM      7  C8  UNL d   1       0.519   0.626  -1.098  0.00  0.00     0.006 A 
ENDROOT
BRANCH   1   8
ATOM      8  C1  UNL d   1       2.000   1.330  -3.016  0.00  0.00     0.054 C 
ATOM      9  C   UNL d   1       1.191   2.616  -2.920  0.00  0.00     0.018 C 
ENDBRANCH   1   8
TORSDOF 1
ENDMDL
