MODEL 1
REMARK minimizedAffinity -0.137457505
REMARK minimizedRMSD -1
REMARK  1 active torsions:
REMARK  status: ('A' for Active; 'I' for Inactive)
REMARK    1  A    between atoms: C1_2  and  C2_3 
ROOT
ATOM      1  C2  UNL d   1      -1.129  -0.090   1.264  0.00  0.00    -0.081 A 
ATOM      2  C3  UNL d   1      -0.638   0.739   0.247  0.00  0.00     0.006 A 
ATOM      3  C4  UNL d   1       0.316   0.263  -0.656  0.00  0.00     0.002 A 
ATOM      4  C5  UNL d   1       0.788  -1.051  -0.563  0.00  0.00    -0.080 A 
ATOM      5  C6  UNL d   1       1.789  -1.584  -1.544  0.00  0.00     0.076 C 
ATOM      6  C7  UNL d   1       0.310  -1.873   0.463  0.00  0.00     0.002 A 
ATOM      7  C8  UNL d   1      -0.643  -1.398   1.366  0.00  0.00     0.006 A 
ENDROOT
BRANCH   1   8
ATOM      8  C1  UNL d   1      -2.205   0.400   2.199  0.00  0.00     0.054 C 
ATOM      9  C   UNL d   1      -1.900   1.802   2.707  0.00  0.00     0.018 C 
ENDBRANCH   1   8
TORSDOF 1
ENDMDL
