MODEL 1
REMARK minimizedAffinity -2.27543998
REMARK minimizedRMSD -1
REMARK  1 active torsions:
REMARK  status: ('A' for Active; 'I' for Inactive)
REMARK    1  A    between atoms: C1_2  and  C2_3 
ROOT
ATOM      1  C2  UNL d   1      -1.075   0.156   0.879  0.00  0.00    -0.081 A 
ATOM      2  C3  UNL d   1      -0.239   1.086   0.248  0.00  0.00     0.006 A 
ATOM      3  C4  UNL d   1       0.820   0.657  -0.554  0.00  0.00     0.002 A 
ATOM      4  C5  UNL d   1       1.058  -0.708  -0.745  0.00  0.00    -0.080 A 
ATOM      5  C6  UNL d   1       2.174  -1.182  -1.628  0.00  0.00     0.076 C 
ATOM      6  C7  UNL d   1       0.234  -1.638  -0.102  0.00  0.00     0.002 A 
ATOM      7  C8  UNL d   1      -0.826  -1.209   0.701  0.00  0.00     0.006 A 
ENDROOT
BRANCH   1   8
ATOM      8  C1  UNL d   1      -2.258   0.616   1.692  0.00  0.00     0.054 C 
ATOM      9  C   UNL d   1      -1.828   1.549   2.815  0.00  0.00     0.018 C 
ENDBRANCH   1   8
TORSDOF 1
ENDMDL
