MODEL 1
REMARK minimizedAffinity -2.94262409
REMARK minimizedRMSD -1
REMARK  1 active torsions:
REMARK  status: ('A' for Active; 'I' for Inactive)
REMARK    1  A    between atoms: C1_2  and  C2_3 
ROOT
ATOM      1  C2  UNL d   1      -1.169   0.252   0.739  0.00  0.00    -0.081 A 
ATOM      2  C3  UNL d   1      -0.507  -0.967   0.929  0.00  0.00     0.006 A 
ATOM      3  C4  UNL d   1       0.560  -1.330   0.103  0.00  0.00     0.002 A 
ATOM      4  C5  UNL d   1       0.986  -0.478  -0.921  0.00  0.00    -0.080 A 
ATOM      5  C6  UNL d   1       2.149  -0.842  -1.795  0.00  0.00     0.076 C 
ATOM      6  C7  UNL d   1       0.313   0.732  -1.123  0.00  0.00     0.002 A 
ATOM      7  C8  UNL d   1      -0.754   1.095  -0.298  0.00  0.00     0.006 A 
ENDROOT
BRANCH   1   8
ATOM      8  C1  UNL d   1      -2.278   0.675   1.668  0.00  0.00     0.054 C 
ATOM      9  C   UNL d   1      -1.723   1.265   2.957  0.00  0.00     0.018 C 
ENDBRANCH   1   8
TORSDOF 1
ENDMDL
