MODEL 1
REMARK minimizedAffinity -2.85501432
REMARK minimizedRMSD -1
REMARK  1 active torsions:
REMARK  status: ('A' for Active; 'I' for Inactive)
REMARK    1  A    between atoms: C1_2  and  C2_3 
ROOT
ATOM      1  C2  UNL d   1      -1.291   0.424   1.288  0.00  0.00    -0.081 A 
ATOM      2  C3  UNL d   1      -1.535   0.389  -0.090  0.00  0.00     0.006 A 
ATOM      3  C4  UNL d   1      -0.698  -0.339  -0.939  0.00  0.00     0.002 A 
ATOM      4  C5  UNL d   1       0.392  -1.048  -0.424  0.00  0.00    -0.080 A 
ATOM      5  C6  UNL d   1       1.281  -1.857  -1.321  0.00  0.00     0.076 C 
ATOM      6  C7  UNL d   1       0.647  -0.998   0.951  0.00  0.00     0.002 A 
ATOM      7  C8  UNL d   1      -0.189  -0.271   1.800  0.00  0.00     0.006 A 
ENDROOT
BRANCH   1   8
ATOM      8  C1  UNL d   1      -2.229   1.155   2.214  0.00  0.00     0.054 C 
ATOM      9  C   UNL d   1      -1.714   1.142   3.647  0.00  0.00     0.018 C 
ENDBRANCH   1   8
TORSDOF 1
ENDMDL
