MODEL 1
REMARK minimizedAffinity -2.06186652
REMARK minimizedRMSD -1
REMARK  1 active torsions:
REMARK  status: ('A' for Active; 'I' for Inactive)
REMARK    1  A    between atoms: C1_2  and  C2_3 
ROOT
ATOM      1  C2  UNL d   1       0.717   0.981  -1.813  0.00  0.00    -0.081 A 
ATOM      2  C3  UNL d   1       0.694  -0.284  -1.212  0.00  0.00     0.006 A 
ATOM      3  C4  UNL d   1      -0.175  -0.547  -0.151  0.00  0.00     0.002 A 
ATOM      4  C5  UNL d   1      -1.040   0.446   0.322  0.00  0.00    -0.080 A 
ATOM      5  C6  UNL d   1      -1.999   0.167   1.441  0.00  0.00     0.076 C 
ATOM      6  C7  UNL d   1      -1.004   1.714  -0.266  0.00  0.00     0.002 A 
ATOM      7  C8  UNL d   1      -0.135   1.979  -1.327  0.00  0.00     0.006 A 
ENDROOT
BRANCH   1   8
ATOM      8  C1  UNL d   1       1.607   1.249  -3.000  0.00  0.00     0.054 C 
ATOM      9  C   UNL d   1       2.311  -0.019  -3.461  0.00  0.00     0.018 C 
ENDBRANCH   1   8
TORSDOF 1
ENDMDL
