MODEL 1
REMARK minimizedAffinity 0.518968999
REMARK minimizedRMSD -1
REMARK  1 active torsions:
REMARK  status: ('A' for Active; 'I' for Inactive)
REMARK    1  A    between atoms: C1_2  and  C2_3 
ROOT
ATOM      1  C2  UNL d   1      -1.116  -0.478   0.121  0.00  0.00    -0.081 A 
ATOM      2  C3  UNL d   1      -0.491   0.775   0.096  0.00  0.00     0.006 A 
ATOM      3  C4  UNL d   1      -0.774   1.727   1.078  0.00  0.00     0.002 A 
ATOM      4  C5  UNL d   1      -1.678   1.439   2.106  0.00  0.00    -0.080 A 
ATOM      5  C6  UNL d   1      -1.967   2.440   3.184  0.00  0.00     0.076 C 
ATOM      6  C7  UNL d   1      -2.315   0.193   2.122  0.00  0.00     0.002 A 
ATOM      7  C8  UNL d   1      -2.034  -0.758   1.139  0.00  0.00     0.006 A 
ENDROOT
BRANCH   1   8
ATOM      8  C1  UNL d   1      -0.765  -1.530  -0.901  0.00  0.00     0.054 C 
ATOM      9  C   UNL d   1       0.687  -1.968  -0.767  0.00  0.00     0.018 C 
ENDBRANCH   1   8
TORSDOF 1
ENDMDL
