MODEL 1
REMARK minimizedAffinity -1.53299832
REMARK minimizedRMSD -1
REMARK  1 active torsions:
REMARK  status: ('A' for Active; 'I' for Inactive)
REMARK    1  A    between atoms: C1_2  and  C2_3 
ROOT
ATOM      1  C2  UNL d   1       1.337   0.384  -1.991  0.00  0.00    -0.081 A 
ATOM      2  C3  UNL d   1       0.271   0.429  -1.085  0.00  0.00     0.006 A 
ATOM      3  C4  UNL d   1       0.138  -0.552  -0.099  0.00  0.00     0.002 A 
ATOM      4  C5  UNL d   1       1.072  -1.589   0.002  0.00  0.00    -0.080 A 
ATOM      5  C6  UNL d   1       0.958  -2.631   1.074  0.00  0.00     0.076 C 
ATOM      6  C7  UNL d   1       2.128  -1.643  -0.915  0.00  0.00     0.002 A 
ATOM      7  C8  UNL d   1       2.261  -0.663  -1.901  0.00  0.00     0.006 A 
ENDROOT
BRANCH   1   8
ATOM      8  C1  UNL d   1       1.520   1.477  -3.014  0.00  0.00     0.054 C 
ATOM      9  C   UNL d   1       0.691   2.704  -2.666  0.00  0.00     0.018 C 
ENDBRANCH   1   8
TORSDOF 1
ENDMDL
