MODEL 1
REMARK minimizedAffinity 0.818644881
REMARK minimizedRMSD -1
REMARK  2 active torsions:
REMARK  status: ('A' for Active; 'I' for Inactive)
REMARK    1  A    between atoms: C1_2  and  C2_3 
REMARK    2  A    between atoms: C2_3  and  C3_4 
ROOT
ATOM      1  C3  UNL d   1       1.834  -3.773   4.057  0.00  0.00    -0.075 A 
ATOM      2  C4  UNL d   1       0.918  -2.723   4.222  0.00  0.00     0.002 A 
ATOM      3  C5  UNL d   1       1.123  -1.498   3.587  0.00  0.00     0.002 A 
ATOM      4  C6  UNL d   1       2.248  -1.303   2.789  0.00  0.00    -0.004 A 
ATOM      5  C7  UNL d   1       3.173  -2.333   2.631  0.00  0.00     0.002 A 
ATOM      6  C8  UNL d   1       2.968  -3.562   3.261  0.00  0.00     0.002 A 
ENDROOT
BRANCH   1   7
ATOM      7  C2  UNL d   1       1.602  -5.111   4.717  0.00  0.00     0.056 C 
BRANCH   7   8
ATOM      8  C1  UNL d   1       0.766  -5.038   5.999  0.00  0.00     0.007 C 
ATOM      9  C   UNL d   1      -0.417  -5.996   6.000  0.00  0.00     0.009 C 
ENDBRANCH   7   8
ENDBRANCH   1   7
TORSDOF 2
ENDMDL
