MODEL 1
REMARK minimizedAffinity 5.81911898
REMARK minimizedRMSD -1
REMARK  2 active torsions:
REMARK  status: ('A' for Active; 'I' for Inactive)
REMARK    1  A    between atoms: C1_2  and  C2_3 
REMARK    2  A    between atoms: C2_3  and  C3_4 
ROOT
ATOM      1  C3  UNL d   1      -2.866   1.852  -0.157  0.00  0.00    -0.075 A 
ATOM      2  C4  UNL d   1      -3.218   1.830  -1.514  0.00  0.00     0.002 A 
ATOM      3  C5  UNL d   1      -2.774   0.801  -2.344  0.00  0.00     0.002 A 
ATOM      4  C6  UNL d   1      -1.966  -0.212  -1.831  0.00  0.00    -0.004 A 
ATOM      5  C7  UNL d   1      -1.597  -0.191  -0.488  0.00  0.00     0.002 A 
ATOM      6  C8  UNL d   1      -2.044   0.836   0.346  0.00  0.00     0.002 A 
ENDROOT
BRANCH   1   7
ATOM      7  C2  UNL d   1      -3.368   2.948   0.753  0.00  0.00     0.056 C 
BRANCH   7   8
ATOM      8  C1  UNL d   1      -4.838   2.797   1.160  0.00  0.00     0.007 C 
ATOM      9  C   UNL d   1      -5.762   3.774   0.444  0.00  0.00     0.009 C 
ENDBRANCH   7   8
ENDBRANCH   1   7
TORSDOF 2
ENDMDL
