MODEL 1
REMARK minimizedAffinity 6.4633112
REMARK minimizedRMSD -1
REMARK  2 active torsions:
REMARK  status: ('A' for Active; 'I' for Inactive)
REMARK    1  A    between atoms: C1_2  and  C2_3 
REMARK    2  A    between atoms: C2_3  and  C3_4 
ROOT
ATOM      1  C3  UNL d   1       2.202  -3.401   1.853  0.00  0.00    -0.075 A 
ATOM      2  C4  UNL d   1       2.972  -2.279   1.513  0.00  0.00     0.002 A 
ATOM      3  C5  UNL d   1       2.549  -0.997   1.863  0.00  0.00     0.002 A 
ATOM      4  C6  UNL d   1       1.348  -0.819   2.548  0.00  0.00    -0.004 A 
ATOM      5  C7  UNL d   1       0.567  -1.925   2.876  0.00  0.00     0.002 A 
ATOM      6  C8  UNL d   1       0.991  -3.210   2.531  0.00  0.00     0.002 A 
ENDROOT
BRANCH   1   7
ATOM      7  C2  UNL d   1       2.670  -4.794   1.503  0.00  0.00     0.056 C 
BRANCH   7   8
ATOM      8  C1  UNL d   1       1.809  -5.493   0.446  0.00  0.00     0.007 C 
ATOM      9  C   UNL d   1       2.455  -5.520  -0.933  0.00  0.00     0.009 C 
ENDBRANCH   7   8
ENDBRANCH   1   7
TORSDOF 2
ENDMDL
