MODEL 1
REMARK minimizedAffinity 3.02874017
REMARK minimizedRMSD -1
REMARK  2 active torsions:
REMARK  status: ('A' for Active; 'I' for Inactive)
REMARK    1  A    between atoms: C1_2  and  C2_3 
REMARK    2  A    between atoms: C2_3  and  C3_4 
ROOT
ATOM      1  C3  UNL d   1       2.338  -2.096   2.981  0.00  0.00    -0.075 A 
ATOM      2  C4  UNL d   1       3.520  -2.156   3.734  0.00  0.00     0.002 A 
ATOM      3  C5  UNL d   1       3.898  -3.341   4.366  0.00  0.00     0.002 A 
ATOM      4  C6  UNL d   1       3.097  -4.475   4.263  0.00  0.00    -0.004 A 
ATOM      5  C7  UNL d   1       1.912  -4.423   3.531  0.00  0.00     0.002 A 
ATOM      6  C8  UNL d   1       1.534  -3.240   2.894  0.00  0.00     0.002 A 
ENDROOT
BRANCH   1   7
ATOM      7  C2  UNL d   1       1.938  -0.825   2.270  0.00  0.00     0.056 C 
BRANCH   7   8
ATOM      8  C1  UNL d   1       2.867  -0.438   1.115  0.00  0.00     0.007 C 
ATOM      9  C   UNL d   1       2.974   1.067   0.909  0.00  0.00     0.009 C 
ENDBRANCH   7   8
ENDBRANCH   1   7
TORSDOF 2
ENDMDL
