MODEL 1
REMARK minimizedAffinity 6.02216864
REMARK minimizedRMSD -1
REMARK  2 active torsions:
REMARK  status: ('A' for Active; 'I' for Inactive)
REMARK    1  A    between atoms: C1_2  and  C2_3 
REMARK    2  A    between atoms: C2_3  and  C3_4 
ROOT
ATOM      1  C3  UNL d   1      -4.146   3.532   1.521  0.00  0.00    -0.075 A 
ATOM      2  C4  UNL d   1      -3.927   4.362   2.630  0.00  0.00     0.002 A 
ATOM      3  C5  UNL d   1      -2.644   4.519   3.155  0.00  0.00     0.002 A 
ATOM      4  C6  UNL d   1      -1.568   3.843   2.585  0.00  0.00    -0.004 A 
ATOM      5  C7  UNL d   1      -1.776   3.002   1.494  0.00  0.00     0.002 A 
ATOM      6  C8  UNL d   1      -3.058   2.847   0.964  0.00  0.00     0.002 A 
ENDROOT
BRANCH   1   7
ATOM      7  C2  UNL d   1      -5.528   3.380   0.931  0.00  0.00     0.056 C 
BRANCH   7   8
ATOM      8  C1  UNL d   1      -5.722   4.118  -0.398  0.00  0.00     0.007 C 
ATOM      9  C   UNL d   1      -5.999   3.184  -1.569  0.00  0.00     0.009 C 
ENDBRANCH   7   8
ENDBRANCH   1   7
TORSDOF 2
ENDMDL
