MODEL 1
REMARK minimizedAffinity 5.94649792
REMARK minimizedRMSD -1
REMARK  2 active torsions:
REMARK  status: ('A' for Active; 'I' for Inactive)
REMARK    1  A    between atoms: C1_2  and  C2_3 
REMARK    2  A    between atoms: C2_3  and  C3_4 
ROOT
ATOM      1  C3  UNL d   1      -3.378  -0.280  -4.123  0.00  0.00    -0.075 A 
ATOM      2  C4  UNL d   1      -3.021   0.038  -2.805  0.00  0.00     0.002 A 
ATOM      3  C5  UNL d   1      -3.096   1.355  -2.350  0.00  0.00     0.002 A 
ATOM      4  C6  UNL d   1      -3.518   2.369  -3.207  0.00  0.00    -0.004 A 
ATOM      5  C7  UNL d   1      -3.858   2.066  -4.524  0.00  0.00     0.002 A 
ATOM      6  C8  UNL d   1      -3.789   0.749  -4.981  0.00  0.00     0.002 A 
ENDROOT
BRANCH   1   7
ATOM      7  C2  UNL d   1      -3.327  -1.708  -4.614  0.00  0.00     0.056 C 
BRANCH   7   8
ATOM      8  C1  UNL d   1      -3.985  -1.921  -5.981  0.00  0.00     0.007 C 
ATOM      9  C   UNL d   1      -4.972  -3.081  -5.998  0.00  0.00     0.009 C 
ENDBRANCH   7   8
ENDBRANCH   1   7
TORSDOF 2
ENDMDL
