MODEL 1
REMARK minimizedAffinity 4.72829533
REMARK minimizedRMSD -1
REMARK  2 active torsions:
REMARK  status: ('A' for Active; 'I' for Inactive)
REMARK    1  A    between atoms: C1_2  and  C2_3 
REMARK    2  A    between atoms: C2_3  and  C3_4 
ROOT
ATOM      1  C3  UNL d   1       1.106  -3.322   3.656  0.00  0.00    -0.075 A 
ATOM      2  C4  UNL d   1       1.887  -4.213   2.906  0.00  0.00     0.002 A 
ATOM      3  C5  UNL d   1       2.686  -3.748   1.861  0.00  0.00     0.002 A 
ATOM      4  C6  UNL d   1       2.707  -2.390   1.547  0.00  0.00    -0.004 A 
ATOM      5  C7  UNL d   1       1.922  -1.499   2.275  0.00  0.00     0.002 A 
ATOM      6  C8  UNL d   1       1.125  -1.961   3.324  0.00  0.00     0.002 A 
ENDROOT
BRANCH   1   7
ATOM      7  C2  UNL d   1       0.261  -3.816   4.807  0.00  0.00     0.056 C 
BRANCH   7   8
ATOM      8  C1  UNL d   1       0.801  -5.083   5.477  0.00  0.00     0.007 C 
ATOM      9  C   UNL d   1      -0.297  -6.000   6.000  0.00  0.00     0.009 C 
ENDBRANCH   7   8
ENDBRANCH   1   7
TORSDOF 2
ENDMDL
