MODEL 1
REMARK minimizedAffinity 14.5593338
REMARK minimizedRMSD -1
REMARK  2 active torsions:
REMARK  status: ('A' for Active; 'I' for Inactive)
REMARK    1  A    between atoms: C1_2  and  C2_3 
REMARK    2  A    between atoms: C2_3  and  C3_4 
ROOT
ATOM      1  C3  UNL d   1       2.920  -2.192   3.061  0.00  0.00    -0.075 A 
ATOM      2  C4  UNL d   1       3.416  -1.474   1.963  0.00  0.00     0.002 A 
ATOM      3  C5  UNL d   1       2.761  -0.326   1.514  0.00  0.00     0.002 A 
ATOM      4  C6  UNL d   1       1.601   0.111   2.149  0.00  0.00    -0.004 A 
ATOM      5  C7  UNL d   1       1.090  -0.605   3.230  0.00  0.00     0.002 A 
ATOM      6  C8  UNL d   1       1.745  -1.751   3.684  0.00  0.00     0.002 A 
ENDROOT
BRANCH   1   7
ATOM      7  C2  UNL d   1       3.640  -3.418   3.570  0.00  0.00     0.056 C 
BRANCH   7   8
ATOM      8  C1  UNL d   1       4.605  -3.139   4.727  0.00  0.00     0.007 C 
ATOM      9  C   UNL d   1       5.999  -2.741   4.264  0.00  0.00     0.009 C 
ENDBRANCH   7   8
ENDBRANCH   1   7
TORSDOF 2
ENDMDL
