MODEL 1
REMARK minimizedAffinity 11.2528534
REMARK minimizedRMSD -1
REMARK  2 active torsions:
REMARK  status: ('A' for Active; 'I' for Inactive)
REMARK    1  A    between atoms: C1_2  and  C2_3 
REMARK    2  A    between atoms: C2_3  and  C3_4 
ROOT
ATOM      1  C3  UNL d   1       1.922  -0.152   2.328  0.00  0.00    -0.075 A 
ATOM      2  C4  UNL d   1       0.878  -0.726   3.068  0.00  0.00     0.002 A 
ATOM      3  C5  UNL d   1       0.904  -2.082   3.395  0.00  0.00     0.002 A 
ATOM      4  C6  UNL d   1       1.966  -2.882   2.980  0.00  0.00    -0.004 A 
ATOM      5  C7  UNL d   1       3.000  -2.326   2.230  0.00  0.00     0.002 A 
ATOM      6  C8  UNL d   1       2.979  -0.969   1.905  0.00  0.00     0.002 A 
ENDROOT
BRANCH   1   7
ATOM      7  C2  UNL d   1       1.915   1.321   1.996  0.00  0.00     0.056 C 
BRANCH   7   8
ATOM      8  C1  UNL d   1       2.998   1.740   0.997  0.00  0.00     0.007 C 
ATOM      9  C   UNL d   1       2.640   2.998   0.217  0.00  0.00     0.009 C 
ENDBRANCH   7   8
ENDBRANCH   1   7
TORSDOF 2
ENDMDL
