MODEL 1
REMARK minimizedAffinity 3.77826142
REMARK minimizedRMSD -1
REMARK  2 active torsions:
REMARK  status: ('A' for Active; 'I' for Inactive)
REMARK    1  A    between atoms: C1_2  and  C2_3 
REMARK    2  A    between atoms: C2_3  and  C3_4 
ROOT
ATOM      1  C3  UNL d   1       2.079  -2.011   3.077  0.00  0.00    -0.075 A 
ATOM      2  C4  UNL d   1       2.762  -1.923   4.299  0.00  0.00     0.002 A 
ATOM      3  C5  UNL d   1       3.053  -3.074   5.031  0.00  0.00     0.002 A 
ATOM      4  C6  UNL d   1       2.658  -4.323   4.558  0.00  0.00    -0.004 A 
ATOM      5  C7  UNL d   1       1.965  -4.421   3.354  0.00  0.00     0.002 A 
ATOM      6  C8  UNL d   1       1.676  -3.271   2.617  0.00  0.00     0.002 A 
ENDROOT
BRANCH   1   7
ATOM      7  C2  UNL d   1       1.786  -0.772   2.265  0.00  0.00     0.056 C 
BRANCH   7   8
ATOM      8  C1  UNL d   1       3.029  -0.122   1.648  0.00  0.00     0.007 C 
ATOM      9  C   UNL d   1       2.804   1.324   1.226  0.00  0.00     0.009 C 
ENDBRANCH   7   8
ENDBRANCH   1   7
TORSDOF 2
ENDMDL
