MODEL 1
REMARK minimizedAffinity 4.62584543
REMARK minimizedRMSD -1
REMARK  2 active torsions:
REMARK  status: ('A' for Active; 'I' for Inactive)
REMARK    1  A    between atoms: C1_2  and  C2_3 
REMARK    2  A    between atoms: C2_3  and  C3_4 
ROOT
ATOM      1  C3  UNL d   1      -4.419   2.562  -1.525  0.00  0.00    -0.075 A 
ATOM      2  C4  UNL d   1      -3.372   2.266  -0.641  0.00  0.00     0.002 A 
ATOM      3  C5  UNL d   1      -2.344   1.404  -1.024  0.00  0.00     0.002 A 
ATOM      4  C6  UNL d   1      -2.356   0.820  -2.289  0.00  0.00    -0.004 A 
ATOM      5  C7  UNL d   1      -3.400   1.095  -3.169  0.00  0.00     0.002 A 
ATOM      6  C8  UNL d   1      -4.427   1.961  -2.790  0.00  0.00     0.002 A 
ENDROOT
BRANCH   1   7
ATOM      7  C2  UNL d   1      -5.519   3.518  -1.126  0.00  0.00     0.056 C 
BRANCH   7   8
ATOM      8  C1  UNL d   1      -5.961   4.462  -2.249  0.00  0.00     0.007 C 
ATOM      9  C   UNL d   1      -5.958   5.928  -1.836  0.00  0.00     0.009 C 
ENDBRANCH   7   8
ENDBRANCH   1   7
TORSDOF 2
ENDMDL
