MODEL 1
REMARK minimizedAffinity 14.5242758
REMARK minimizedRMSD -1
REMARK  0 active torsions:
REMARK  status: ('A' for Active; 'I' for Inactive)
ROOT
ATOM      1  C1  DEN d   1      -0.743   1.873  -5.251  0.00  0.00     0.130 A 
ATOM      2  C2  DEN d   1       0.402   1.359  -5.997  0.00  0.00    -0.031 A 
ATOM      3  C3  DEN d   1       1.491   1.092  -5.036  0.00  0.00     0.027 A 
ATOM      4  C4  DEN d   1       1.513   1.418  -2.478  0.00  0.00     0.027 A 
ATOM      5  C5  DEN d   1       0.775   1.841  -1.394  0.00  0.00    -0.003 A 
ATOM      6  C6  DEN d   1      -0.497   2.332  -1.523  0.00  0.00     0.001 A 
ATOM      7  C7  DEN d   1      -1.088   2.370  -2.758  0.00  0.00     0.017 A 
ATOM      8  C8  DEN d   1      -0.348   1.952  -3.857  0.00  0.00    -0.094 A 
ATOM      9  C9  DEN d   1       0.932   1.448  -3.704  0.00  0.00    -0.072 A 
ENDROOT
TORSDOF 0
ENDMDL
