MODEL 1
REMARK minimizedAffinity 22.5025578
REMARK minimizedRMSD -1
REMARK  0 active torsions:
REMARK  status: ('A' for Active; 'I' for Inactive)
ROOT
ATOM      1  C1  DEN d   1      -3.533   2.078   1.825  0.00  0.00     0.130 A 
ATOM      2  C2  DEN d   1      -3.508   2.572   0.451  0.00  0.00    -0.031 A 
ATOM      3  C3  DEN d   1      -2.155   2.339  -0.094  0.00  0.00     0.027 A 
ATOM      4  C4  DEN d   1      -0.109   1.263   1.050  0.00  0.00     0.027 A 
ATOM      5  C5  DEN d   1       0.357   0.699   2.217  0.00  0.00    -0.003 A 
ATOM      6  C6  DEN d   1      -0.424   0.588   3.337  0.00  0.00     0.001 A 
ATOM      7  C7  DEN d   1      -1.728   1.005   3.299  0.00  0.00     0.017 A 
ATOM      8  C8  DEN d   1      -2.203   1.581   2.128  0.00  0.00    -0.094 A 
ATOM      9  C9  DEN d   1      -1.401   1.674   1.003  0.00  0.00    -0.072 A 
ENDROOT
TORSDOF 0
ENDMDL
