MODEL 1
REMARK minimizedAffinity 11.6178112
REMARK minimizedRMSD -1
REMARK  0 active torsions:
REMARK  status: ('A' for Active; 'I' for Inactive)
ROOT
ATOM      1  C1  DEN d   1      -3.937   1.364  -4.869  0.00  0.00     0.130 A 
ATOM      2  C2  DEN d   1      -5.231   1.510  -5.531  0.00  0.00    -0.031 A 
ATOM      3  C3  DEN d   1      -5.350   2.907  -5.996  0.00  0.00     0.027 A 
ATOM      4  C4  DEN d   1      -3.665   4.846  -5.759  0.00  0.00     0.027 A 
ATOM      5  C5  DEN d   1      -2.433   5.207  -5.262  0.00  0.00    -0.003 A 
ATOM      6  C6  DEN d   1      -1.637   4.330  -4.575  0.00  0.00     0.001 A 
ATOM      7  C7  DEN d   1      -2.045   3.033  -4.405  0.00  0.00     0.017 A 
ATOM      8  C8  DEN d   1      -3.289   2.663  -4.897  0.00  0.00    -0.094 A 
ATOM      9  C9  DEN d   1      -4.074   3.561  -5.600  0.00  0.00    -0.072 A 
ENDROOT
TORSDOF 0
ENDMDL
