MODEL 1
REMARK minimizedAffinity 15.8313456
REMARK minimizedRMSD -1
REMARK  0 active torsions:
REMARK  status: ('A' for Active; 'I' for Inactive)
ROOT
ATOM      1  C1  DEN d   1      -1.864   0.377   4.498  0.00  0.00     0.130 A 
ATOM      2  C2  DEN d   1      -0.865   0.749   3.500  0.00  0.00    -0.031 A 
ATOM      3  C3  DEN d   1       0.005  -0.422   3.267  0.00  0.00     0.027 A 
ATOM      4  C4  DEN d   1      -0.101  -2.762   4.346  0.00  0.00     0.027 A 
ATOM      5  C5  DEN d   1      -0.770  -3.549   5.258  0.00  0.00    -0.003 A 
ATOM      6  C6  DEN d   1      -1.820  -3.075   6.000  0.00  0.00     0.001 A 
ATOM      7  C7  DEN d   1      -2.261  -1.792   5.809  0.00  0.00     0.017 A 
ATOM      8  C8  DEN d   1      -1.588  -0.991   4.897  0.00  0.00    -0.094 A 
ATOM      9  C9  DEN d   1      -0.536  -1.492   4.148  0.00  0.00    -0.072 A 
ENDROOT
TORSDOF 0
ENDMDL
