MODEL 1
REMARK minimizedAffinity 3.38387012
REMARK minimizedRMSD -1
REMARK  0 active torsions:
REMARK  status: ('A' for Active; 'I' for Inactive)
ROOT
ATOM      1  C1  DEN d   1      -4.783   3.347  -5.279  0.00  0.00     0.130 A 
ATOM      2  C2  DEN d   1      -4.459   1.973  -4.904  0.00  0.00    -0.031 A 
ATOM      3  C3  DEN d   1      -3.031   1.926  -4.533  0.00  0.00     0.027 A 
ATOM      4  C4  DEN d   1      -1.299   3.837  -4.498  0.00  0.00     0.027 A 
ATOM      5  C5  DEN d   1      -1.102   5.178  -4.745  0.00  0.00    -0.003 A 
ATOM      6  C6  DEN d   1      -2.101   5.988  -5.217  0.00  0.00     0.001 A 
ATOM      7  C7  DEN d   1      -3.356   5.474  -5.412  0.00  0.00     0.017 A 
ATOM      8  C8  DEN d   1      -3.560   4.122  -5.172  0.00  0.00    -0.094 A 
ATOM      9  C9  DEN d   1      -2.541   3.322  -4.684  0.00  0.00    -0.072 A 
ENDROOT
TORSDOF 0
ENDMDL
