MODEL 1
REMARK minimizedAffinity 1.99419355
REMARK minimizedRMSD -1
REMARK  0 active torsions:
REMARK  status: ('A' for Active; 'I' for Inactive)
ROOT
ATOM      1  C1  DEN d   1      -3.697   1.884  -5.122  0.00  0.00     0.130 A 
ATOM      2  C2  DEN d   1      -5.053   1.685  -5.627  0.00  0.00    -0.031 A 
ATOM      3  C3  DEN d   1      -5.600   3.005  -6.000  0.00  0.00     0.027 A 
ATOM      4  C4  DEN d   1      -4.484   5.325  -5.850  0.00  0.00     0.027 A 
ATOM      5  C5  DEN d   1      -3.344   6.000  -5.474  0.00  0.00    -0.003 A 
ATOM      6  C6  DEN d   1      -2.263   5.360  -4.928  0.00  0.00     0.001 A 
ATOM      7  C7  DEN d   1      -2.282   3.998  -4.784  0.00  0.00     0.017 A 
ATOM      8  C8  DEN d   1      -3.432   3.311  -5.153  0.00  0.00    -0.094 A 
ATOM      9  C9  DEN d   1      -4.509   3.975  -5.715  0.00  0.00    -0.072 A 
ENDROOT
TORSDOF 0
ENDMDL
