MODEL 1
REMARK minimizedAffinity 0.252514303
REMARK minimizedRMSD -1
REMARK  0 active torsions:
REMARK  status: ('A' for Active; 'I' for Inactive)
ROOT
ATOM      1  C1  DEN d   1      -5.924   3.881  -6.000  0.00  0.00     0.130 A 
ATOM      2  C2  DEN d   1      -5.931   2.458  -5.670  0.00  0.00    -0.031 A 
ATOM      3  C3  DEN d   1      -4.666   2.144  -4.975  0.00  0.00     0.027 A 
ATOM      4  C4  DEN d   1      -2.710   3.716  -4.378  0.00  0.00     0.027 A 
ATOM      5  C5  DEN d   1      -2.241   5.008  -4.464  0.00  0.00    -0.003 A 
ATOM      6  C6  DEN d   1      -2.947   6.000  -5.093  0.00  0.00     0.001 A 
ATOM      7  C7  DEN d   1      -4.181   5.725  -5.621  0.00  0.00     0.017 A 
ATOM      8  C8  DEN d   1      -4.656   4.423  -5.545  0.00  0.00    -0.094 A 
ATOM      9  C9  DEN d   1      -3.933   3.437  -4.894  0.00  0.00    -0.072 A 
ENDROOT
TORSDOF 0
ENDMDL
