MODEL 1
REMARK minimizedAffinity 7.18455076
REMARK minimizedRMSD -1
REMARK  0 active torsions:
REMARK  status: ('A' for Active; 'I' for Inactive)
ROOT
ATOM      1  C1  DEN d   1      -5.708  -3.179   5.997  0.00  0.00     0.130 A 
ATOM      2  C2  DEN d   1      -5.998  -4.470   5.379  0.00  0.00    -0.031 A 
ATOM      3  C3  DEN d   1      -4.782  -4.922   4.674  0.00  0.00     0.027 A 
ATOM      4  C4  DEN d   1      -2.488  -3.756   4.486  0.00  0.00     0.027 A 
ATOM      5  C5  DEN d   1      -1.766  -2.636   4.834  0.00  0.00    -0.003 A 
ATOM      6  C6  DEN d   1      -2.313  -1.612   5.560  0.00  0.00     0.001 A 
ATOM      7  C7  DEN d   1      -3.607  -1.706   6.000  0.00  0.00     0.017 A 
ATOM      8  C8  DEN d   1      -4.344  -2.829   5.646  0.00  0.00    -0.094 A 
ATOM      9  C9  DEN d   1      -3.769  -3.860   4.922  0.00  0.00    -0.072 A 
ENDROOT
TORSDOF 0
ENDMDL
