MODEL 1
REMARK minimizedAffinity 22.3004475
REMARK minimizedRMSD -1
REMARK  0 active torsions:
REMARK  status: ('A' for Active; 'I' for Inactive)
ROOT
ATOM      1  C1  DEN d   1      -0.751  -3.078   5.188  0.00  0.00     0.130 A 
ATOM      2  C2  DEN d   1      -1.959  -3.195   5.999  0.00  0.00    -0.031 A 
ATOM      3  C3  DEN d   1      -2.666  -1.899   5.955  0.00  0.00     0.027 A 
ATOM      4  C4  DEN d   1      -2.013   0.264   4.711  0.00  0.00     0.027 A 
ATOM      5  C5  DEN d   1      -1.067   0.850   3.900  0.00  0.00    -0.003 A 
ATOM      6  C6  DEN d   1       0.059   0.185   3.493  0.00  0.00     0.001 A 
ATOM      7  C7  DEN d   1       0.245  -1.122   3.858  0.00  0.00     0.017 A 
ATOM      8  C8  DEN d   1      -0.701  -1.718   4.682  0.00  0.00    -0.094 A 
ATOM      9  C9  DEN d   1      -1.839  -1.033   5.073  0.00  0.00    -0.072 A 
ENDROOT
TORSDOF 0
ENDMDL
