MODEL 1
REMARK minimizedAffinity 8.33496475
REMARK minimizedRMSD -1
REMARK  0 active torsions:
REMARK  status: ('A' for Active; 'I' for Inactive)
ROOT
ATOM      1  C1  DEN d   1      -1.995  -3.691   4.448  0.00  0.00     0.130 A 
ATOM      2  C2  DEN d   1      -1.615  -2.531   5.249  0.00  0.00    -0.031 A 
ATOM      3  C3  DEN d   1      -2.806  -2.084   5.999  0.00  0.00     0.027 A 
ATOM      4  C4  DEN d   1      -5.188  -3.072   6.000  0.00  0.00     0.027 A 
ATOM      5  C5  DEN d   1      -5.997  -4.052   5.468  0.00  0.00    -0.003 A 
ATOM      6  C6  DEN d   1      -5.541  -4.952   4.542  0.00  0.00     0.001 A 
ATOM      7  C7  DEN d   1      -4.229  -4.918   4.151  0.00  0.00     0.017 A 
ATOM      8  C8  DEN d   1      -3.409  -3.928   4.677  0.00  0.00    -0.094 A 
ATOM      9  C9  DEN d   1      -3.885  -3.036   5.622  0.00  0.00    -0.072 A 
ENDROOT
TORSDOF 0
ENDMDL
