MODEL 1
REMARK minimizedAffinity 5.36357164
REMARK minimizedRMSD -1
REMARK  0 active torsions:
REMARK  status: ('A' for Active; 'I' for Inactive)
ROOT
ATOM      1  C1  DEN d   1      -5.238   2.852  -5.999  0.00  0.00     0.130 A 
ATOM      2  C2  DEN d   1      -4.871   1.490  -5.625  0.00  0.00    -0.031 A 
ATOM      3  C3  DEN d   1      -3.493   1.518  -5.095  0.00  0.00     0.027 A 
ATOM      4  C4  DEN d   1      -1.902   3.529  -4.816  0.00  0.00     0.027 A 
ATOM      5  C5  DEN d   1      -1.765   4.886  -5.007  0.00  0.00    -0.003 A 
ATOM      6  C6  DEN d   1      -2.755   5.649  -5.568  0.00  0.00     0.001 A 
ATOM      7  C7  DEN d   1      -3.944   5.066  -5.917  0.00  0.00     0.017 A 
ATOM      8  C8  DEN d   1      -4.088   3.697  -5.735  0.00  0.00    -0.094 A 
ATOM      9  C9  DEN d   1      -3.080   2.946  -5.155  0.00  0.00    -0.072 A 
ENDROOT
TORSDOF 0
ENDMDL
