MODEL 1
REMARK minimizedAffinity 0.960140407
REMARK minimizedRMSD -1
REMARK  0 active torsions:
REMARK  status: ('A' for Active; 'I' for Inactive)
ROOT
ATOM      1  C1  DEN d   1      -3.449   1.988  -5.254  0.00  0.00     0.130 A 
ATOM      2  C2  DEN d   1      -4.856   1.993  -5.646  0.00  0.00    -0.031 A 
ATOM      3  C3  DEN d   1      -5.227   3.378  -5.999  0.00  0.00     0.027 A 
ATOM      4  C4  DEN d   1      -3.765   5.503  -5.984  0.00  0.00     0.027 A 
ATOM      5  C5  DEN d   1      -2.509   6.000  -5.714  0.00  0.00    -0.003 A 
ATOM      6  C6  DEN d   1      -1.496   5.207  -5.243  0.00  0.00     0.001 A 
ATOM      7  C7  DEN d   1      -1.709   3.865  -5.071  0.00  0.00     0.017 A 
ATOM      8  C8  DEN d   1      -2.975   3.358  -5.334  0.00  0.00    -0.094 A 
ATOM      9  C9  DEN d   1      -3.982   4.174  -5.821  0.00  0.00    -0.072 A 
ENDROOT
TORSDOF 0
ENDMDL
