MODEL 1
REMARK minimizedAffinity 7.42419577
REMARK minimizedRMSD -1
REMARK  0 active torsions:
REMARK  status: ('A' for Active; 'I' for Inactive)
ROOT
ATOM      1  C1  DEN d   1      -3.738   2.228  -4.604  0.00  0.00     0.130 A 
ATOM      2  C2  DEN d   1      -4.917   2.375  -5.453  0.00  0.00    -0.031 A 
ATOM      3  C3  DEN d   1      -4.919   3.747  -6.000  0.00  0.00     0.027 A 
ATOM      4  C4  DEN d   1      -3.216   5.646  -5.620  0.00  0.00     0.027 A 
ATOM      5  C5  DEN d   1      -2.055   6.000  -4.968  0.00  0.00    -0.003 A 
ATOM      6  C6  DEN d   1      -1.398   5.139  -4.129  0.00  0.00     0.001 A 
ATOM      7  C7  DEN d   1      -1.872   3.866  -3.955  0.00  0.00     0.017 A 
ATOM      8  C8  DEN d   1      -3.046   3.505  -4.604  0.00  0.00    -0.094 A 
ATOM      9  C9  DEN d   1      -3.689   4.385  -5.457  0.00  0.00    -0.072 A 
ENDROOT
TORSDOF 0
ENDMDL
