MODEL 1
REMARK minimizedAffinity 16.6207104
REMARK minimizedRMSD -1
REMARK  0 active torsions:
REMARK  status: ('A' for Active; 'I' for Inactive)
ROOT
ATOM      1  C1  DEN d   1       0.831   0.769   2.004  0.00  0.00     0.130 A 
ATOM      2  C2  DEN d   1       0.181   0.197   3.180  0.00  0.00    -0.031 A 
ATOM      3  C3  DEN d   1      -1.272   0.434   3.059  0.00  0.00     0.027 A 
ATOM      4  C4  DEN d   1      -2.571   1.620   1.172  0.00  0.00     0.027 A 
ATOM      5  C5  DEN d   1      -2.450   2.281  -0.030  0.00  0.00    -0.003 A 
ATOM      6  C6  DEN d   1      -1.235   2.513  -0.617  0.00  0.00     0.001 A 
ATOM      7  C7  DEN d   1      -0.094   2.040  -0.024  0.00  0.00     0.017 A 
ATOM      8  C8  DEN d   1      -0.207   1.379   1.191  0.00  0.00    -0.094 A 
ATOM      9  C9  DEN d   1      -1.446   1.144   1.763  0.00  0.00    -0.072 A 
ENDROOT
TORSDOF 0
ENDMDL
