MODEL 1
REMARK minimizedAffinity -0.798958063
REMARK minimizedRMSD -1
REMARK  1 active torsions:
REMARK  status: ('A' for Active; 'I' for Inactive)
REMARK    1  A    between atoms: C3_4  and  O_7 
ROOT
ATOM      1  C   UNL d   1       4.074  -4.323   0.049  0.00  0.00    -0.033 A 
ATOM      2  C1  UNL d   1       5.211  -4.978   0.526  0.00  0.00     0.039 A 
ATOM      3  C2  UNL d   1       5.453  -5.051   1.899  0.00  0.00    -0.080 A 
ATOM      4  C3  UNL d   1       4.551  -4.467   2.784  0.00  0.00     0.150 A 
ATOM      5  C4  UNL d   1       3.414  -3.816   2.316  0.00  0.00    -0.007 A 
ATOM      6  C5  UNL d   1       3.175  -3.743   0.944  0.00  0.00     0.039 A 
ENDROOT
BRANCH   4   7
ATOM      7  O   UNL d   1       4.746  -4.508   4.132  0.00  0.00    -0.526 OA
ATOM      8  H5  UNL d   1       5.586  -4.964   4.308  0.00  0.00     0.418 HD
ENDBRANCH   4   7
TORSDOF 1
ENDMDL
