MODEL 1
REMARK minimizedAffinity -0.612583756
REMARK minimizedRMSD -1
REMARK  1 active torsions:
REMARK  status: ('A' for Active; 'I' for Inactive)
REMARK    1  A    between atoms: C3_4  and  O_7 
ROOT
ATOM      1  C   UNL d   1      -4.435  -1.181  -5.706  0.00  0.00    -0.033 A 
ATOM      2  C1  UNL d   1      -4.754  -2.051  -4.663  0.00  0.00     0.039 A 
ATOM      3  C2  UNL d   1      -4.440  -1.710  -3.346  0.00  0.00    -0.080 A 
ATOM      4  C3  UNL d   1      -3.808  -0.497  -3.086  0.00  0.00     0.150 A 
ATOM      5  C4  UNL d   1      -3.491   0.377  -4.121  0.00  0.00    -0.007 A 
ATOM      6  C5  UNL d   1      -3.804   0.034  -5.435  0.00  0.00     0.039 A 
ENDROOT
BRANCH   4   7
ATOM      7  O   UNL d   1      -3.478  -0.123  -1.818  0.00  0.00    -0.526 OA
ATOM      8  H5  UNL d   1      -3.731  -0.838  -1.210  0.00  0.00     0.418 HD
ENDBRANCH   4   7
TORSDOF 1
ENDMDL
