MODEL 1
REMARK minimizedAffinity 0.931010604
REMARK minimizedRMSD -1
REMARK  1 active torsions:
REMARK  status: ('A' for Active; 'I' for Inactive)
REMARK    1  A    between atoms: C3_4  and  O_7 
ROOT
ATOM      1  C   UNL d   1      -3.437   0.629  -5.881  0.00  0.00    -0.033 A 
ATOM      2  C1  UNL d   1      -2.494  -0.374  -5.650  0.00  0.00     0.039 A 
ATOM      3  C2  UNL d   1      -2.522  -1.100  -4.457  0.00  0.00    -0.080 A 
ATOM      4  C3  UNL d   1      -3.498  -0.815  -3.507  0.00  0.00     0.150 A 
ATOM      5  C4  UNL d   1      -4.444   0.180  -3.733  0.00  0.00    -0.007 A 
ATOM      6  C5  UNL d   1      -4.413   0.905  -4.923  0.00  0.00     0.039 A 
ENDROOT
BRANCH   4   7
ATOM      7  O   UNL d   1      -3.563  -1.493  -2.326  0.00  0.00    -0.526 OA
ATOM      8  H5  UNL d   1      -2.830  -2.130  -2.297  0.00  0.00     0.418 HD
ENDBRANCH   4   7
TORSDOF 1
ENDMDL
