MODEL 1
REMARK minimizedAffinity 0.983696938
REMARK minimizedRMSD -1
REMARK  1 active torsions:
REMARK  status: ('A' for Active; 'I' for Inactive)
REMARK    1  A    between atoms: C3_4  and  O_7 
ROOT
ATOM      1  C   UNL d   1      -4.037  -1.702  -5.636  0.00  0.00    -0.033 A 
ATOM      2  C1  UNL d   1      -3.145  -0.635  -5.516  0.00  0.00     0.039 A 
ATOM      3  C2  UNL d   1      -2.958  -0.015  -4.279  0.00  0.00    -0.080 A 
ATOM      4  C3  UNL d   1      -3.666  -0.472  -3.172  0.00  0.00     0.150 A 
ATOM      5  C4  UNL d   1      -4.553  -1.537  -3.283  0.00  0.00    -0.007 A 
ATOM      6  C5  UNL d   1      -4.740  -2.154  -4.520  0.00  0.00     0.039 A 
ENDROOT
BRANCH   4   7
ATOM      7  O   UNL d   1      -3.520   0.104  -1.945  0.00  0.00    -0.526 OA
ATOM      8  H5  UNL d   1      -2.897   0.845  -2.025  0.00  0.00     0.418 HD
ENDBRANCH   4   7
TORSDOF 1
ENDMDL
