MODEL 1
REMARK minimizedAffinity 6.35386133
REMARK minimizedRMSD -1
REMARK  1 active torsions:
REMARK  status: ('A' for Active; 'I' for Inactive)
REMARK    1  A    between atoms: C3_4  and  O_7 
ROOT
ATOM      1  C   UNL d   1       4.865  -5.602   3.925  0.00  0.00    -0.033 A 
ATOM      2  C1  UNL d   1       4.875  -5.580   5.321  0.00  0.00     0.039 A 
ATOM      3  C2  UNL d   1       5.253  -4.420   6.000  0.00  0.00    -0.080 A 
ATOM      4  C3  UNL d   1       5.618  -3.290   5.272  0.00  0.00     0.150 A 
ATOM      5  C4  UNL d   1       5.607  -3.304   3.881  0.00  0.00    -0.007 A 
ATOM      6  C5  UNL d   1       5.230  -4.463   3.205  0.00  0.00     0.039 A 
ENDROOT
BRANCH   4   7
ATOM      7  O   UNL d   1       5.999  -2.137   5.890  0.00  0.00    -0.526 OA
ATOM      8  H5  UNL d   1       5.986  -2.283   6.851  0.00  0.00     0.418 HD
ENDBRANCH   4   7
TORSDOF 1
ENDMDL
