MODEL 1
REMARK minimizedAffinity 3.20960546
REMARK minimizedRMSD -1
REMARK  1 active torsions:
REMARK  status: ('A' for Active; 'I' for Inactive)
REMARK    1  A    between atoms: C3_4  and  O_7 
ROOT
ATOM      1  C   UNL d   1      -4.671   1.430  -5.174  0.00  0.00    -0.033 A 
ATOM      2  C1  UNL d   1      -5.182   0.172  -4.849  0.00  0.00     0.039 A 
ATOM      3  C2  UNL d   1      -4.336  -0.938  -4.811  0.00  0.00    -0.080 A 
ATOM      4  C3  UNL d   1      -2.983  -0.777  -5.097  0.00  0.00     0.150 A 
ATOM      5  C4  UNL d   1      -2.467   0.475  -5.417  0.00  0.00    -0.007 A 
ATOM      6  C5  UNL d   1      -3.314   1.582  -5.456  0.00  0.00     0.039 A 
ENDROOT
BRANCH   4   7
ATOM      7  O   UNL d   1      -2.120  -1.831  -5.076  0.00  0.00    -0.526 OA
ATOM      8  H5  UNL d   1      -2.622  -2.636  -4.868  0.00  0.00     0.418 HD
ENDBRANCH   4   7
TORSDOF 1
ENDMDL
