MODEL 1
REMARK minimizedAffinity -1.66745126
REMARK minimizedRMSD -1
REMARK  1 active torsions:
REMARK  status: ('A' for Active; 'I' for Inactive)
REMARK    1  A    between atoms: C3_4  and  O_7 
ROOT
ATOM      1  C   UNL d   1      -4.811   0.376  -5.999  0.00  0.00    -0.033 A 
ATOM      2  C1  UNL d   1      -3.642  -0.387  -6.000  0.00  0.00     0.039 A 
ATOM      3  C2  UNL d   1      -3.307  -1.155  -4.883  0.00  0.00    -0.080 A 
ATOM      4  C3  UNL d   1      -4.149  -1.151  -3.774  0.00  0.00     0.150 A 
ATOM      5  C4  UNL d   1      -5.317  -0.395  -3.768  0.00  0.00    -0.007 A 
ATOM      6  C5  UNL d   1      -5.649   0.371  -4.884  0.00  0.00     0.039 A 
ENDROOT
BRANCH   4   7
ATOM      7  O   UNL d   1      -3.861  -1.880  -2.658  0.00  0.00    -0.526 OA
ATOM      8  H5  UNL d   1      -3.010  -2.329  -2.795  0.00  0.00     0.418 HD
ENDBRANCH   4   7
TORSDOF 1
ENDMDL
