MODEL 1
REMARK minimizedAffinity -4.35768557
REMARK minimizedRMSD -1
REMARK  1 active torsions:
REMARK  status: ('A' for Active; 'I' for Inactive)
REMARK    1  A    between atoms: C3_4  and  O_7 
ROOT
ATOM      1  C   UNL d   1      -5.548   0.129  -4.196  0.00  0.00    -0.033 A 
ATOM      2  C1  UNL d   1      -4.988  -0.603  -3.147  0.00  0.00     0.039 A 
ATOM      3  C2  UNL d   1      -3.759  -1.242  -3.318  0.00  0.00    -0.080 A 
ATOM      4  C3  UNL d   1      -3.100  -1.141  -4.540  0.00  0.00     0.150 A 
ATOM      5  C4  UNL d   1      -3.650  -0.410  -5.588  0.00  0.00    -0.007 A 
ATOM      6  C5  UNL d   1      -4.878   0.227  -5.416  0.00  0.00     0.039 A 
ENDROOT
BRANCH   4   7
ATOM      7  O   UNL d   1      -1.900  -1.751  -4.755  0.00  0.00    -0.526 OA
ATOM      8  H5  UNL d   1      -1.657  -2.244  -3.954  0.00  0.00     0.418 HD
ENDBRANCH   4   7
TORSDOF 1
ENDMDL
