MODEL 1
REMARK minimizedAffinity 8.86231041
REMARK minimizedRMSD -1
REMARK  0 active torsions:
REMARK  status: ('A' for Active; 'I' for Inactive)
ROOT
ATOM      1  C1  DEN d   1      -0.638  -4.187   1.242  0.00  0.00     0.130 A 
ATOM      2  C2  DEN d   1      -1.454  -3.147   1.864  0.00  0.00    -0.031 A 
ATOM      3  C3  DEN d   1      -0.606  -1.953   2.050  0.00  0.00     0.027 A 
ATOM      4  C4  DEN d   1       1.875  -1.612   1.434  0.00  0.00     0.027 A 
ATOM      5  C5  DEN d   1       2.991  -2.213   0.895  0.00  0.00    -0.003 A 
ATOM      6  C6  DEN d   1       2.985  -3.515   0.469  0.00  0.00     0.001 A 
ATOM      7  C7  DEN d   1       1.827  -4.244   0.532  0.00  0.00     0.017 A 
ATOM      8  C8  DEN d   1       0.700  -3.647   1.081  0.00  0.00    -0.094 A 
ATOM      9  C9  DEN d   1       0.723  -2.326   1.496  0.00  0.00    -0.072 A 
ENDROOT
TORSDOF 0
ENDMDL
