MODEL 1
REMARK minimizedAffinity 16.6127338
REMARK minimizedRMSD -1
REMARK  0 active torsions:
REMARK  status: ('A' for Active; 'I' for Inactive)
ROOT
ATOM      1  C1  DEN d   1       1.500  -3.450   0.409  0.00  0.00     0.130 A 
ATOM      2  C2  DEN d   1       2.738  -2.684   0.293  0.00  0.00    -0.031 A 
ATOM      3  C3  DEN d   1       2.614  -1.484   1.146  0.00  0.00     0.027 A 
ATOM      4  C4  DEN d   1       0.638  -0.745   2.629  0.00  0.00     0.027 A 
ATOM      5  C5  DEN d   1      -0.636  -1.065   3.043  0.00  0.00    -0.003 A 
ATOM      6  C6  DEN d   1      -1.296  -2.174   2.585  0.00  0.00     0.001 A 
ATOM      7  C7  DEN d   1      -0.665  -3.030   1.720  0.00  0.00     0.017 A 
ATOM      8  C8  DEN d   1       0.617  -2.710   1.293  0.00  0.00    -0.094 A 
ATOM      9  C9  DEN d   1       1.271  -1.590   1.777  0.00  0.00    -0.072 A 
ENDROOT
TORSDOF 0
ENDMDL
