MODEL 1
REMARK minimizedAffinity 5.8894248
REMARK minimizedRMSD -1
REMARK  0 active torsions:
REMARK  status: ('A' for Active; 'I' for Inactive)
ROOT
ATOM      1  C1  DEN d   1       1.665  -5.433  -0.001  0.00  0.00     0.130 A 
ATOM      2  C2  DEN d   1       3.006  -6.000   0.113  0.00  0.00    -0.031 A 
ATOM      3  C3  DEN d   1       3.915  -4.931   0.573  0.00  0.00     0.027 A 
ATOM      4  C4  DEN d   1       3.378  -2.468   1.121  0.00  0.00     0.027 A 
ATOM      5  C5  DEN d   1       2.381  -1.519   1.163  0.00  0.00    -0.003 A 
ATOM      6  C6  DEN d   1       1.092  -1.798   0.790  0.00  0.00     0.001 A 
ATOM      7  C7  DEN d   1       0.757  -3.068   0.402  0.00  0.00     0.017 A 
ATOM      8  C8  DEN d   1       1.759  -4.028   0.350  0.00  0.00    -0.094 A 
ATOM      9  C9  DEN d   1       3.053  -3.730   0.742  0.00  0.00    -0.072 A 
ENDROOT
TORSDOF 0
ENDMDL
