MODEL 1
REMARK minimizedAffinity 20.2562733
REMARK minimizedRMSD -1
REMARK  0 active torsions:
REMARK  status: ('A' for Active; 'I' for Inactive)
ROOT
ATOM      1  C1  DEN d   1      -3.730  -1.460  -1.246  0.00  0.00     0.130 A 
ATOM      2  C2  DEN d   1      -3.510  -0.063  -0.882  0.00  0.00    -0.031 A 
ATOM      3  C3  DEN d   1      -4.184   0.783  -1.887  0.00  0.00     0.027 A 
ATOM      4  C4  DEN d   1      -5.546   0.069  -3.958  0.00  0.00     0.027 A 
ATOM      5  C5  DEN d   1      -5.998  -1.009  -4.687  0.00  0.00    -0.003 A 
ATOM      6  C6  DEN d   1      -5.701  -2.301  -4.342  0.00  0.00     0.001 A 
ATOM      7  C7  DEN d   1      -4.966  -2.549  -3.213  0.00  0.00     0.017 A 
ATOM      8  C8  DEN d   1      -4.500  -1.468  -2.477  0.00  0.00    -0.094 A 
ATOM      9  C9  DEN d   1      -4.822  -0.170  -2.835  0.00  0.00    -0.072 A 
ENDROOT
TORSDOF 0
ENDMDL
