MODEL 1
REMARK minimizedAffinity 17.6513081
REMARK minimizedRMSD -1
REMARK  0 active torsions:
REMARK  status: ('A' for Active; 'I' for Inactive)
ROOT
ATOM      1  C1  DEN d   1       1.907  -1.497  -0.278  0.00  0.00     0.130 A 
ATOM      2  C2  DEN d   1       1.484  -2.446   0.749  0.00  0.00    -0.031 A 
ATOM      3  C3  DEN d   1       2.686  -2.888   1.484  0.00  0.00     0.027 A 
ATOM      4  C4  DEN d   1       5.147  -2.196   1.138  0.00  0.00     0.027 A 
ATOM      5  C5  DEN d   1       6.000  -1.425   0.380  0.00  0.00    -0.003 A 
ATOM      6  C6  DEN d   1       5.557  -0.657  -0.663  0.00  0.00     0.001 A 
ATOM      7  C7  DEN d   1       4.218  -0.607  -0.949  0.00  0.00     0.017 A 
ATOM      8  C8  DEN d   1       3.352  -1.387  -0.194  0.00  0.00    -0.094 A 
ATOM      9  C9  DEN d   1       3.818  -2.148   0.865  0.00  0.00    -0.072 A 
ENDROOT
TORSDOF 0
ENDMDL
