MODEL 1
REMARK minimizedAffinity 15.2502041
REMARK minimizedRMSD -1
REMARK  0 active torsions:
REMARK  status: ('A' for Active; 'I' for Inactive)
ROOT
ATOM      1  C1  DEN d   1      -3.386  -0.035   1.690  0.00  0.00     0.130 A 
ATOM      2  C2  DEN d   1      -2.149  -0.314   2.413  0.00  0.00    -0.031 A 
ATOM      3  C3  DEN d   1      -2.211   0.385   3.712  0.00  0.00     0.027 A 
ATOM      4  C4  DEN d   1      -4.095   1.862   4.672  0.00  0.00     0.027 A 
ATOM      5  C5  DEN d   1      -5.338   2.399   4.421  0.00  0.00    -0.003 A 
ATOM      6  C6  DEN d   1      -5.998   2.193   3.238  0.00  0.00     0.001 A 
ATOM      7  C7  DEN d   1      -5.436   1.392   2.279  0.00  0.00     0.017 A 
ATOM      8  C8  DEN d   1      -4.180   0.852   2.522  0.00  0.00    -0.094 A 
ATOM      9  C9  DEN d   1      -3.535   1.063   3.729  0.00  0.00    -0.072 A 
ENDROOT
TORSDOF 0
ENDMDL
