MODEL 1
REMARK minimizedAffinity 8.95478535
REMARK minimizedRMSD -1
REMARK  0 active torsions:
REMARK  status: ('A' for Active; 'I' for Inactive)
ROOT
ATOM      1  C1  DEN d   1      -0.548  -2.207   2.295  0.00  0.00     0.130 A 
ATOM      2  C2  DEN d   1       0.100  -0.929   2.577  0.00  0.00    -0.031 A 
ATOM      3  C3  DEN d   1       1.424  -0.935   1.923  0.00  0.00     0.027 A 
ATOM      4  C4  DEN d   1       2.525  -2.788   0.505  0.00  0.00     0.027 A 
ATOM      5  C5  DEN d   1       2.365  -4.059  -0.001  0.00  0.00    -0.003 A 
ATOM      6  C6  DEN d   1       1.247  -4.809   0.250  0.00  0.00     0.001 A 
ATOM      7  C7  DEN d   1       0.224  -4.277   0.990  0.00  0.00     0.017 A 
ATOM      8  C8  DEN d   1       0.381  -2.998   1.509  0.00  0.00    -0.094 A 
ATOM      9  C9  DEN d   1       1.514  -2.251   1.234  0.00  0.00    -0.072 A 
ENDROOT
TORSDOF 0
ENDMDL
