MODEL 1
REMARK minimizedAffinity 18.2005196
REMARK minimizedRMSD -1
REMARK  0 active torsions:
REMARK  status: ('A' for Active; 'I' for Inactive)
ROOT
ATOM      1  C1  DEN d   1      -1.806  -3.162   1.012  0.00  0.00     0.130 A 
ATOM      2  C2  DEN d   1      -2.212  -2.056   1.874  0.00  0.00    -0.031 A 
ATOM      3  C3  DEN d   1      -1.046  -1.168   2.056  0.00  0.00     0.027 A 
ATOM      4  C4  DEN d   1       1.334  -1.396   1.089  0.00  0.00     0.027 A 
ATOM      5  C5  DEN d   1       2.159  -2.177   0.310  0.00  0.00    -0.003 A 
ATOM      6  C6  DEN d   1       1.734  -3.349  -0.257  0.00  0.00     0.001 A 
ATOM      7  C7  DEN d   1       0.435  -3.751  -0.091  0.00  0.00     0.017 A 
ATOM      8  C8  DEN d   1      -0.401  -2.973   0.699  0.00  0.00    -0.094 A 
ATOM      9  C9  DEN d   1       0.045  -1.785   1.254  0.00  0.00    -0.072 A 
ENDROOT
TORSDOF 0
ENDMDL
