MODEL 1
REMARK minimizedAffinity 8.2553215
REMARK minimizedRMSD -1
REMARK  0 active torsions:
REMARK  status: ('A' for Active; 'I' for Inactive)
ROOT
ATOM      1  C   UNL d   1       2.883  -4.550  -2.254  0.00  0.00     0.124 A 
ATOM      2  C1  UNL d   1       3.571  -4.240  -1.089  0.00  0.00     0.062 A 
ATOM      3  C2  UNL d   1       3.462  -2.972  -0.527  0.00  0.00     0.162 A 
ATOM      4  C3  UNL d   1       2.660  -2.002  -1.129  0.00  0.00    -0.034 A 
ATOM      5  C4  UNL d   1       1.971  -2.320  -2.301  0.00  0.00     0.162 A 
ATOM      6  C5  UNL d   1       2.084  -3.590  -2.859  0.00  0.00     0.062 A 
ATOM      7  F   UNL d   1       1.418  -3.887  -3.984  0.00  0.00    -0.097 F 
ATOM      8  F1  UNL d   1       1.192  -1.412  -2.906  0.00  0.00    -0.096 F 
ATOM      9  I   UNL d   1       2.493  -0.104  -0.292  0.00  0.00    -0.060 I 
ATOM     10  F2  UNL d   1       4.138  -2.701   0.599  0.00  0.00    -0.096 F 
ATOM     11  F3  UNL d   1       4.345  -5.166  -0.503  0.00  0.00    -0.097 F 
ATOM     12  F4  UNL d   1       2.991  -5.771  -2.793  0.00  0.00    -0.092 F 
ENDROOT
TORSDOF 0
ENDMDL
