MODEL 1
REMARK minimizedAffinity 23.9376163
REMARK minimizedRMSD -1
REMARK  0 active torsions:
REMARK  status: ('A' for Active; 'I' for Inactive)
ROOT
ATOM      1  C   UNL d   1       1.516   2.633   1.613  0.00  0.00     0.124 A 
ATOM      2  C1  UNL d   1       1.904   2.353   0.310  0.00  0.00     0.062 A 
ATOM      3  C2  UNL d   1       1.730   3.303  -0.692  0.00  0.00     0.162 A 
ATOM      4  C3  UNL d   1       1.165   4.544  -0.394  0.00  0.00    -0.034 A 
ATOM      5  C4  UNL d   1       0.776   4.817   0.918  0.00  0.00     0.162 A 
ATOM      6  C5  UNL d   1       0.953   3.864   1.916  0.00  0.00     0.062 A 
ATOM      7  F   UNL d   1       0.577   4.136   3.174  0.00  0.00    -0.097 F 
ATOM      8  F1  UNL d   1       0.230   6.000   1.239  0.00  0.00    -0.096 F 
ATOM      9  I   UNL d   1       0.902   5.967  -1.889  0.00  0.00    -0.060 I 
ATOM     10  F2  UNL d   1       2.114   3.006  -1.942  0.00  0.00    -0.096 F 
ATOM     11  F3  UNL d   1       2.448   1.163   0.015  0.00  0.00    -0.097 F 
ATOM     12  F4  UNL d   1       1.684   1.716   2.575  0.00  0.00    -0.092 F 
ENDROOT
TORSDOF 0
ENDMDL
