MODEL 1
REMARK minimizedAffinity 13.9662561
REMARK minimizedRMSD -1
REMARK  0 active torsions:
REMARK  status: ('A' for Active; 'I' for Inactive)
ROOT
ATOM      1  C   UNL d   1       3.468  -4.459  -0.544  0.00  0.00     0.124 A 
ATOM      2  C1  UNL d   1       2.524  -3.464  -0.758  0.00  0.00     0.062 A 
ATOM      3  C2  UNL d   1       2.229  -3.047  -2.053  0.00  0.00     0.162 A 
ATOM      4  C3  UNL d   1       2.877  -3.625  -3.144  0.00  0.00    -0.034 A 
ATOM      5  C4  UNL d   1       3.826  -4.625  -2.920  0.00  0.00     0.162 A 
ATOM      6  C5  UNL d   1       4.118  -5.038  -1.624  0.00  0.00     0.062 A 
ATOM      7  F   UNL d   1       5.030  -6.000  -1.419  0.00  0.00    -0.097 F 
ATOM      8  F1  UNL d   1       4.468  -5.202  -3.946  0.00  0.00    -0.096 F 
ATOM      9  I   UNL d   1       2.439  -3.004  -5.081  0.00  0.00    -0.060 I 
ATOM     10  F2  UNL d   1       1.313  -2.084  -2.230  0.00  0.00    -0.096 F 
ATOM     11  F3  UNL d   1       1.896  -2.902   0.285  0.00  0.00    -0.097 F 
ATOM     12  F4  UNL d   1       3.751  -4.858   0.703  0.00  0.00    -0.092 F 
ENDROOT
TORSDOF 0
ENDMDL
