MODEL 1
REMARK minimizedAffinity 15.923049
REMARK minimizedRMSD -1
REMARK  0 active torsions:
REMARK  status: ('A' for Active; 'I' for Inactive)
ROOT
ATOM      1  C   UNL d   1      -0.831   0.597   3.011  0.00  0.00     0.124 A 
ATOM      2  C1  UNL d   1      -2.187   0.422   2.775  0.00  0.00     0.062 A 
ATOM      3  C2  UNL d   1      -3.126   0.996   3.627  0.00  0.00     0.162 A 
ATOM      4  C3  UNL d   1      -2.712   1.752   4.723  0.00  0.00    -0.034 A 
ATOM      5  C4  UNL d   1      -1.346   1.923   4.955  0.00  0.00     0.162 A 
ATOM      6  C5  UNL d   1      -0.411   1.347   4.101  0.00  0.00     0.062 A 
ATOM      7  F   UNL d   1       0.899   1.518   4.331  0.00  0.00    -0.097 F 
ATOM      8  F1  UNL d   1      -0.913   2.645   6.000  0.00  0.00    -0.096 F 
ATOM      9  I   UNL d   1      -4.112   2.613   6.000  0.00  0.00    -0.060 I 
ATOM     10  F2  UNL d   1      -4.430   0.810   3.374  0.00  0.00    -0.096 F 
ATOM     11  F3  UNL d   1      -2.595  -0.304   1.724  0.00  0.00    -0.097 F 
ATOM     12  F4  UNL d   1       0.071   0.042   2.190  0.00  0.00    -0.092 F 
ENDROOT
TORSDOF 0
ENDMDL
