MODEL 1
REMARK minimizedAffinity 15.5196562
REMARK minimizedRMSD -1
REMARK  0 active torsions:
REMARK  status: ('A' for Active; 'I' for Inactive)
ROOT
ATOM      1  C   UNL d   1       3.690  -4.241  -1.649  0.00  0.00     0.124 A 
ATOM      2  C1  UNL d   1       3.239  -3.353  -0.682  0.00  0.00     0.062 A 
ATOM      3  C2  UNL d   1       2.403  -2.298  -1.035  0.00  0.00     0.162 A 
ATOM      4  C3  UNL d   1       2.012  -2.125  -2.363  0.00  0.00    -0.034 A 
ATOM      5  C4  UNL d   1       2.471  -3.021  -3.330  0.00  0.00     0.162 A 
ATOM      6  C5  UNL d   1       3.306  -4.074  -2.972  0.00  0.00     0.062 A 
ATOM      7  F   UNL d   1       3.741  -4.930  -3.907  0.00  0.00    -0.097 F 
ATOM      8  F1  UNL d   1       2.114  -2.884  -4.616  0.00  0.00    -0.096 F 
ATOM      9  I   UNL d   1       0.762  -0.548  -2.896  0.00  0.00    -0.060 I 
ATOM     10  F2  UNL d   1       1.982  -1.456  -0.080  0.00  0.00    -0.096 F 
ATOM     11  F3  UNL d   1       3.610  -3.512   0.597  0.00  0.00    -0.097 F 
ATOM     12  F4  UNL d   1       4.496  -5.254  -1.306  0.00  0.00    -0.092 F 
ENDROOT
TORSDOF 0
ENDMDL
