MODEL 1
REMARK minimizedAffinity 7.13596249
REMARK minimizedRMSD -1
REMARK  0 active torsions:
REMARK  status: ('A' for Active; 'I' for Inactive)
ROOT
ATOM      1  C   UNL d   1       2.311  -2.959  -2.247  0.00  0.00     0.124 A 
ATOM      2  C1  UNL d   1       2.813  -4.082  -2.889  0.00  0.00     0.062 A 
ATOM      3  C2  UNL d   1       3.759  -4.885  -2.259  0.00  0.00     0.162 A 
ATOM      4  C3  UNL d   1       4.210  -4.567  -0.978  0.00  0.00    -0.034 A 
ATOM      5  C4  UNL d   1       3.702  -3.435  -0.338  0.00  0.00     0.162 A 
ATOM      6  C5  UNL d   1       2.756  -2.636  -0.972  0.00  0.00     0.062 A 
ATOM      7  F   UNL d   1       2.272  -1.551  -0.350  0.00  0.00    -0.097 F 
ATOM      8  F1  UNL d   1       4.114  -3.101   0.894  0.00  0.00    -0.096 F 
ATOM      9  I   UNL d   1       5.626  -5.765  -0.032  0.00  0.00    -0.060 I 
ATOM     10  F2  UNL d   1       4.227  -5.964  -2.904  0.00  0.00    -0.096 F 
ATOM     11  F3  UNL d   1       2.385  -4.395  -4.121  0.00  0.00    -0.097 F 
ATOM     12  F4  UNL d   1       1.401  -2.188  -2.855  0.00  0.00    -0.092 F 
ENDROOT
TORSDOF 0
ENDMDL
