MODEL 1
REMARK minimizedAffinity 8.95727825
REMARK minimizedRMSD -1
REMARK  0 active torsions:
REMARK  status: ('A' for Active; 'I' for Inactive)
ROOT
ATOM      1  C   UNL d   1       3.381  -4.444  -2.013  0.00  0.00     0.124 A 
ATOM      2  C1  UNL d   1       3.014  -3.736  -0.877  0.00  0.00     0.062 A 
ATOM      3  C2  UNL d   1       2.502  -2.447  -0.990  0.00  0.00     0.162 A 
ATOM      4  C3  UNL d   1       2.353  -1.857  -2.245  0.00  0.00    -0.034 A 
ATOM      5  C4  UNL d   1       2.725  -2.574  -3.383  0.00  0.00     0.162 A 
ATOM      6  C5  UNL d   1       3.236  -3.863  -3.265  0.00  0.00     0.062 A 
ATOM      7  F   UNL d   1       3.590  -4.545  -4.363  0.00  0.00    -0.097 F 
ATOM      8  F1  UNL d   1       2.595  -2.037  -4.605  0.00  0.00    -0.096 F 
ATOM      9  I   UNL d   1       1.588   0.071  -2.419  0.00  0.00    -0.060 I 
ATOM     10  F2  UNL d   1       2.155  -1.787   0.125  0.00  0.00    -0.096 F 
ATOM     11  F3  UNL d   1       3.153  -4.295   0.334  0.00  0.00    -0.097 F 
ATOM     12  F4  UNL d   1       3.874  -5.684  -1.901  0.00  0.00    -0.092 F 
ENDROOT
TORSDOF 0
ENDMDL
