MODEL 1
REMARK minimizedAffinity 11.5763388
REMARK minimizedRMSD -1
REMARK  0 active torsions:
REMARK  status: ('A' for Active; 'I' for Inactive)
ROOT
ATOM      1  C   UNL d   1       3.597  -4.117  -0.456  0.00  0.00     0.124 A 
ATOM      2  C1  UNL d   1       4.160  -4.962  -1.402  0.00  0.00     0.062 A 
ATOM      3  C2  UNL d   1       3.945  -4.737  -2.758  0.00  0.00     0.162 A 
ATOM      4  C3  UNL d   1       3.164  -3.661  -3.178  0.00  0.00    -0.034 A 
ATOM      5  C4  UNL d   1       2.599  -2.815  -2.221  0.00  0.00     0.162 A 
ATOM      6  C5  UNL d   1       2.817  -3.045  -0.866  0.00  0.00     0.062 A 
ATOM      7  F   UNL d   1       2.272  -2.227   0.046  0.00  0.00    -0.097 F 
ATOM      8  F1  UNL d   1       1.842  -1.771  -2.590  0.00  0.00    -0.096 F 
ATOM      9  I   UNL d   1       2.840  -3.320  -5.206  0.00  0.00    -0.060 I 
ATOM     10  F2  UNL d   1       4.502  -5.570  -3.650  0.00  0.00    -0.096 F 
ATOM     11  F3  UNL d   1       4.913  -5.999  -1.008  0.00  0.00    -0.097 F 
ATOM     12  F4  UNL d   1       3.804  -4.336   0.849  0.00  0.00    -0.092 F 
ENDROOT
TORSDOF 0
ENDMDL
