MODEL 1
REMARK minimizedAffinity 23.9091454
REMARK minimizedRMSD -1
REMARK  0 active torsions:
REMARK  status: ('A' for Active; 'I' for Inactive)
ROOT
ATOM      1  C   UNL d   1       3.506  -4.109  -0.357  0.00  0.00     0.124 A 
ATOM      2  C1  UNL d   1       3.985  -5.064  -1.244  0.00  0.00     0.062 A 
ATOM      3  C2  UNL d   1       3.575  -5.053  -2.574  0.00  0.00     0.162 A 
ATOM      4  C3  UNL d   1       2.680  -4.083  -3.026  0.00  0.00    -0.034 A 
ATOM      5  C4  UNL d   1       2.202  -3.126  -2.128  0.00  0.00     0.162 A 
ATOM      6  C5  UNL d   1       2.615  -3.142  -0.800  0.00  0.00     0.062 A 
ATOM      7  F   UNL d   1       2.151  -2.219   0.055  0.00  0.00    -0.097 F 
ATOM      8  F1  UNL d   1       1.341  -2.180  -2.530  0.00  0.00    -0.096 F 
ATOM      9  I   UNL d   1       2.064  -4.063  -5.014  0.00  0.00    -0.060 I 
ATOM     10  F2  UNL d   1       4.054  -5.987  -3.408  0.00  0.00    -0.096 F 
ATOM     11  F3  UNL d   1       4.845  -6.000  -0.818  0.00  0.00    -0.097 F 
ATOM     12  F4  UNL d   1       3.901  -4.123   0.922  0.00  0.00    -0.092 F 
ENDROOT
TORSDOF 0
ENDMDL
