MODEL 1
REMARK minimizedAffinity 14.6404696
REMARK minimizedRMSD -1
REMARK  0 active torsions:
REMARK  status: ('A' for Active; 'I' for Inactive)
ROOT
ATOM      1  C   UNL d   1       2.125  -2.993  -2.628  0.00  0.00     0.124 A 
ATOM      2  C1  UNL d   1       2.475  -2.688  -1.320  0.00  0.00     0.062 A 
ATOM      3  C2  UNL d   1       3.369  -3.501  -0.627  0.00  0.00     0.162 A 
ATOM      4  C3  UNL d   1       3.919  -4.625  -1.242  0.00  0.00    -0.034 A 
ATOM      5  C4  UNL d   1       3.561  -4.926  -2.557  0.00  0.00     0.162 A 
ATOM      6  C5  UNL d   1       2.668  -4.111  -3.245  0.00  0.00     0.062 A 
ATOM      7  F   UNL d   1       2.330  -4.407  -4.509  0.00  0.00    -0.097 F 
ATOM      8  F1  UNL d   1       4.071  -6.000  -3.178  0.00  0.00    -0.096 F 
ATOM      9  I   UNL d   1       5.255  -5.842  -0.209  0.00  0.00    -0.060 I 
ATOM     10  F2  UNL d   1       3.689  -3.182   0.636  0.00  0.00    -0.096 F 
ATOM     11  F3  UNL d   1       1.951  -1.609  -0.721  0.00  0.00    -0.097 F 
ATOM     12  F4  UNL d   1       1.264  -2.210  -3.292  0.00  0.00    -0.092 F 
ENDROOT
TORSDOF 0
ENDMDL
