MODEL 1
REMARK minimizedAffinity 6.90164137
REMARK minimizedRMSD -1
REMARK  0 active torsions:
REMARK  status: ('A' for Active; 'I' for Inactive)
ROOT
ATOM      1  C   UNL d   1       3.539  -4.479  -1.592  0.00  0.00     0.124 A 
ATOM      2  C1  UNL d   1       3.273  -4.258  -2.936  0.00  0.00     0.062 A 
ATOM      3  C2  UNL d   1       2.543  -3.141  -3.332  0.00  0.00     0.162 A 
ATOM      4  C3  UNL d   1       2.075  -2.234  -2.381  0.00  0.00    -0.034 A 
ATOM      5  C4  UNL d   1       2.345  -2.463  -1.031  0.00  0.00     0.162 A 
ATOM      6  C5  UNL d   1       3.075  -3.581  -0.641  0.00  0.00     0.062 A 
ATOM      7  F   UNL d   1       3.331  -3.793   0.659  0.00  0.00    -0.097 F 
ATOM      8  F1  UNL d   1       1.909  -1.612  -0.090  0.00  0.00    -0.096 F 
ATOM      9  I   UNL d   1       0.983  -0.562  -2.968  0.00  0.00    -0.060 I 
ATOM     10  F2  UNL d   1       2.301  -2.953  -4.637  0.00  0.00    -0.096 F 
ATOM     11  F3  UNL d   1       3.720  -5.124  -3.857  0.00  0.00    -0.097 F 
ATOM     12  F4  UNL d   1       4.241  -5.555  -1.214  0.00  0.00    -0.092 F 
ENDROOT
TORSDOF 0
ENDMDL
