MODEL 1
REMARK minimizedAffinity 18.6649742
REMARK minimizedRMSD -1
REMARK  0 active torsions:
REMARK  status: ('A' for Active; 'I' for Inactive)
ROOT
ATOM      1  C   UNL d   1       2.795  -4.344  -4.066  0.00  0.00     0.124 A 
ATOM      2  C1  UNL d   1       4.142  -4.520  -3.779  0.00  0.00     0.062 A 
ATOM      3  C2  UNL d   1       4.546  -4.844  -2.487  0.00  0.00     0.162 A 
ATOM      4  C3  UNL d   1       3.601  -4.997  -1.472  0.00  0.00    -0.034 A 
ATOM      5  C4  UNL d   1       2.249  -4.818  -1.768  0.00  0.00     0.162 A 
ATOM      6  C5  UNL d   1       1.850  -4.494  -3.061  0.00  0.00     0.062 A 
ATOM      7  F   UNL d   1       0.549  -4.325  -3.336  0.00  0.00    -0.097 F 
ATOM      8  F1  UNL d   1       1.314  -4.957  -0.816  0.00  0.00    -0.096 F 
ATOM      9  I   UNL d   1       4.201  -5.482   0.461  0.00  0.00    -0.060 I 
ATOM     10  F2  UNL d   1       5.853  -5.008  -2.238  0.00  0.00    -0.096 F 
ATOM     11  F3  UNL d   1       5.057  -4.375  -4.748  0.00  0.00    -0.097 F 
ATOM     12  F4  UNL d   1       2.409  -4.031  -5.310  0.00  0.00    -0.092 F 
ENDROOT
TORSDOF 0
ENDMDL
