MODEL 1
REMARK minimizedAffinity 12.0503807
REMARK minimizedRMSD -1
REMARK  0 active torsions:
REMARK  status: ('A' for Active; 'I' for Inactive)
ROOT
ATOM      1  C   UNL d   1       1.968  -2.638  -2.565  0.00  0.00     0.124 A 
ATOM      2  C1  UNL d   1       2.256  -3.921  -3.010  0.00  0.00     0.062 A 
ATOM      3  C2  UNL d   1       3.053  -4.765  -2.243  0.00  0.00     0.162 A 
ATOM      4  C3  UNL d   1       3.569  -4.330  -1.022  0.00  0.00    -0.034 A 
ATOM      5  C4  UNL d   1       3.276  -3.038  -0.582  0.00  0.00     0.162 A 
ATOM      6  C5  UNL d   1       2.478  -2.198  -1.352  0.00  0.00     0.062 A 
ATOM      7  F   UNL d   1       2.201  -0.959  -0.921  0.00  0.00    -0.097 F 
ATOM      8  F1  UNL d   1       3.755  -2.587   0.587  0.00  0.00    -0.096 F 
ATOM      9  I   UNL d   1       4.762  -5.589   0.128  0.00  0.00    -0.060 I 
ATOM     10  F2  UNL d   1       3.315  -6.000  -2.697  0.00  0.00    -0.096 F 
ATOM     11  F3  UNL d   1       1.765  -4.349  -4.182  0.00  0.00    -0.097 F 
ATOM     12  F4  UNL d   1       1.201  -1.828  -3.306  0.00  0.00    -0.092 F 
ENDROOT
TORSDOF 0
ENDMDL
