MODEL 1
REMARK minimizedAffinity 19.9291382
REMARK minimizedRMSD -1
REMARK  0 active torsions:
REMARK  status: ('A' for Active; 'I' for Inactive)
ROOT
ATOM      1  C   UNL d   1       1.069   4.710   0.193  0.00  0.00     0.124 A 
ATOM      2  C1  UNL d   1       1.115   3.878   1.302  0.00  0.00     0.062 A 
ATOM      3  C2  UNL d   1       1.467   2.539   1.159  0.00  0.00     0.162 A 
ATOM      4  C3  UNL d   1       1.777   2.024  -0.100  0.00  0.00    -0.034 A 
ATOM      5  C4  UNL d   1       1.728   2.867  -1.211  0.00  0.00     0.162 A 
ATOM      6  C5  UNL d   1       1.376   4.204  -1.063  0.00  0.00     0.062 A 
ATOM      7  F   UNL d   1       1.332   5.007  -2.136  0.00  0.00    -0.097 F 
ATOM      8  F1  UNL d   1       2.020   2.404  -2.436  0.00  0.00    -0.096 F 
ATOM      9  I   UNL d   1       2.303   0.022  -0.318  0.00  0.00    -0.060 I 
ATOM     10  F2  UNL d   1       1.503   1.758   2.249  0.00  0.00    -0.096 F 
ATOM     11  F3  UNL d   1       0.818   4.364   2.516  0.00  0.00    -0.097 F 
ATOM     12  F4  UNL d   1       0.730   5.998   0.333  0.00  0.00    -0.092 F 
ENDROOT
TORSDOF 0
ENDMDL
