MODEL 1
REMARK minimizedAffinity 27.9402313
REMARK minimizedRMSD -1
REMARK  0 active torsions:
REMARK  status: ('A' for Active; 'I' for Inactive)
ROOT
ATOM      1  C   UNL d   1      -0.334  -4.899  -2.546  0.00  0.00     0.124 A 
ATOM      2  C1  UNL d   1      -1.635  -4.945  -2.064  0.00  0.00     0.062 A 
ATOM      3  C2  UNL d   1      -2.704  -4.660  -2.909  0.00  0.00     0.162 A 
ATOM      4  C3  UNL d   1      -2.478  -4.328  -4.244  0.00  0.00    -0.034 A 
ATOM      5  C4  UNL d   1      -1.167  -4.283  -4.721  0.00  0.00     0.162 A 
ATOM      6  C5  UNL d   1      -0.101  -4.568  -3.873  0.00  0.00     0.062 A 
ATOM      7  F   UNL d   1       1.155  -4.523  -4.341  0.00  0.00    -0.097 F 
ATOM      8  F1  UNL d   1      -0.913  -3.967  -6.000  0.00  0.00    -0.096 F 
ATOM      9  I   UNL d   1      -4.074  -3.902  -5.510  0.00  0.00    -0.060 I 
ATOM     10  F2  UNL d   1      -3.951  -4.713  -2.416  0.00  0.00    -0.096 F 
ATOM     11  F3  UNL d   1      -1.863  -5.263  -0.782  0.00  0.00    -0.097 F 
ATOM     12  F4  UNL d   1       0.693  -5.172  -1.731  0.00  0.00    -0.092 F 
ENDROOT
TORSDOF 0
ENDMDL
