MODEL 1
REMARK minimizedAffinity 2.29088926
REMARK minimizedRMSD -1
REMARK  0 active torsions:
REMARK  status: ('A' for Active; 'I' for Inactive)
ROOT
ATOM      1  C1  DEN d   1       4.809  -0.182   3.730  0.00  0.00     0.130 A 
ATOM      2  C2  DEN d   1       4.107   0.225   4.944  0.00  0.00    -0.031 A 
ATOM      3  C3  DEN d   1       2.771   0.721   4.555  0.00  0.00     0.027 A 
ATOM      4  C4  DEN d   1       1.727   0.893   2.203  0.00  0.00     0.027 A 
ATOM      5  C5  DEN d   1       1.944   0.680   0.860  0.00  0.00    -0.003 A 
ATOM      6  C6  DEN d   1       3.134   0.200   0.380  0.00  0.00     0.001 A 
ATOM      7  C7  DEN d   1       4.137  -0.126   1.254  0.00  0.00     0.017 A 
ATOM      8  C8  DEN d   1       3.928   0.094   2.610  0.00  0.00    -0.094 A 
ATOM      9  C9  DEN d   1       2.714   0.569   3.076  0.00  0.00    -0.072 A 
ENDROOT
TORSDOF 0
ENDMDL
