MODEL 1
REMARK minimizedAffinity 5.76440573
REMARK minimizedRMSD -1
REMARK  0 active torsions:
REMARK  status: ('A' for Active; 'I' for Inactive)
ROOT
ATOM      1  C1  DEN d   1       1.947   0.677   1.003  0.00  0.00     0.130 A 
ATOM      2  C2  DEN d   1       3.132   0.555   0.158  0.00  0.00    -0.031 A 
ATOM      3  C3  DEN d   1       4.309   0.418   1.039  0.00  0.00     0.027 A 
ATOM      4  C4  DEN d   1       4.411   0.378   3.616  0.00  0.00     0.027 A 
ATOM      5  C5  DEN d   1       3.664   0.461   4.770  0.00  0.00    -0.003 A 
ATOM      6  C6  DEN d   1       2.308   0.654   4.751  0.00  0.00     0.001 A 
ATOM      7  C7  DEN d   1       1.650   0.725   3.551  0.00  0.00     0.017 A 
ATOM      8  C8  DEN d   1       2.397   0.651   2.383  0.00  0.00    -0.094 A 
ATOM      9  C9  DEN d   1       3.766   0.443   2.424  0.00  0.00    -0.072 A 
ENDROOT
TORSDOF 0
ENDMDL
