MODEL 1
REMARK minimizedAffinity 1.59729671
REMARK minimizedRMSD -1
REMARK  0 active torsions:
REMARK  status: ('A' for Active; 'I' for Inactive)
ROOT
ATOM      1  C1  DEN d   1       1.588   1.969  -1.570  0.00  0.00     0.130 A 
ATOM      2  C2  DEN d   1       1.459   3.389  -1.254  0.00  0.00    -0.031 A 
ATOM      3  C3  DEN d   1       0.735   3.509   0.027  0.00  0.00     0.027 A 
ATOM      4  C4  DEN d   1      -0.191   1.642   1.547  0.00  0.00     0.027 A 
ATOM      5  C5  DEN d   1      -0.334   0.280   1.692  0.00  0.00    -0.003 A 
ATOM      6  C6  DEN d   1       0.119  -0.606   0.751  0.00  0.00     0.001 A 
ATOM      7  C7  DEN d   1       0.778  -0.142  -0.356  0.00  0.00     0.017 A 
ATOM      8  C8  DEN d   1       0.920   1.231  -0.513  0.00  0.00    -0.094 A 
ATOM      9  C9  DEN d   1       0.466   2.110   0.456  0.00  0.00    -0.072 A 
ENDROOT
TORSDOF 0
ENDMDL
