MODEL 1
REMARK minimizedAffinity -1.8382349
REMARK minimizedRMSD -1
REMARK  0 active torsions:
REMARK  status: ('A' for Active; 'I' for Inactive)
ROOT
ATOM      1  C1  DEN d   1      -1.054   5.966  -2.157  0.00  0.00     0.130 A 
ATOM      2  C2  DEN d   1      -1.129   5.988  -0.699  0.00  0.00    -0.031 A 
ATOM      3  C3  DEN d   1      -2.555   5.999  -0.315  0.00  0.00     0.027 A 
ATOM      4  C4  DEN d   1      -4.643   5.981  -1.830  0.00  0.00     0.027 A 
ATOM      5  C5  DEN d   1      -5.083   5.975  -3.135  0.00  0.00    -0.003 A 
ATOM      6  C6  DEN d   1      -4.218   6.000  -4.197  0.00  0.00     0.001 A 
ATOM      7  C7  DEN d   1      -2.867   5.986  -3.973  0.00  0.00     0.017 A 
ATOM      8  C8  DEN d   1      -2.416   6.000  -2.660  0.00  0.00    -0.094 A 
ATOM      9  C9  DEN d   1      -3.306   5.962  -1.600  0.00  0.00    -0.072 A 
ENDROOT
TORSDOF 0
ENDMDL
