MODEL 1
REMARK minimizedAffinity 0.100829661
REMARK minimizedRMSD -1
REMARK  0 active torsions:
REMARK  status: ('A' for Active; 'I' for Inactive)
ROOT
ATOM      1  C1  DEN d   1      -2.112   5.991  -1.157  0.00  0.00     0.130 A 
ATOM      2  C2  DEN d   1      -0.914   5.950  -1.990  0.00  0.00    -0.031 A 
ATOM      3  C3  DEN d   1      -1.340   5.935  -3.404  0.00  0.00     0.027 A 
ATOM      4  C4  DEN d   1      -3.728   5.976  -4.378  0.00  0.00     0.027 A 
ATOM      5  C5  DEN d   1      -5.069   5.999  -4.063  0.00  0.00    -0.003 A 
ATOM      6  C6  DEN d   1      -5.515   5.987  -2.768  0.00  0.00     0.001 A 
ATOM      7  C7  DEN d   1      -4.611   5.997  -1.739  0.00  0.00     0.017 A 
ATOM      8  C8  DEN d   1      -3.258   5.965  -2.049  0.00  0.00    -0.094 A 
ATOM      9  C9  DEN d   1      -2.827   5.990  -3.364  0.00  0.00    -0.072 A 
ENDROOT
TORSDOF 0
ENDMDL
