MODEL 1
REMARK minimizedAffinity -1.86037552
REMARK minimizedRMSD -1
REMARK  0 active torsions:
REMARK  status: ('A' for Active; 'I' for Inactive)
ROOT
ATOM      1  C1  DEN d   1       0.701  -1.480   0.161  0.00  0.00     0.130 A 
ATOM      2  C2  DEN d   1      -0.697  -1.349   0.564  0.00  0.00    -0.031 A 
ATOM      3  C3  DEN d   1      -0.973   0.084   0.793  0.00  0.00     0.027 A 
ATOM      4  C4  DEN d   1       0.618   2.100   0.558  0.00  0.00     0.027 A 
ATOM      5  C5  DEN d   1       1.904   2.486   0.252  0.00  0.00    -0.003 A 
ATOM      6  C6  DEN d   1       2.880   1.581  -0.070  0.00  0.00     0.001 A 
ATOM      7  C7  DEN d   1       2.574   0.247  -0.138  0.00  0.00     0.017 A 
ATOM      8  C8  DEN d   1       1.281  -0.150   0.177  0.00  0.00    -0.094 A 
ATOM      9  C9  DEN d   1       0.305   0.782   0.488  0.00  0.00    -0.072 A 
ENDROOT
TORSDOF 0
ENDMDL
