MODEL 1
REMARK minimizedAffinity 1.3310262
REMARK minimizedRMSD -1
REMARK  0 active torsions:
REMARK  status: ('A' for Active; 'I' for Inactive)
ROOT
ATOM      1  C1  DEN d   1       0.711   5.607  -4.194  0.00  0.00     0.130 A 
ATOM      2  C2  DEN d   1       0.598   5.465  -5.643  0.00  0.00    -0.031 A 
ATOM      3  C3  DEN d   1      -0.834   5.532  -5.998  0.00  0.00     0.027 A 
ATOM      4  C4  DEN d   1      -2.875   5.846  -4.452  0.00  0.00     0.027 A 
ATOM      5  C5  DEN d   1      -3.280   6.000  -3.145  0.00  0.00    -0.003 A 
ATOM      6  C6  DEN d   1      -2.393   6.000  -2.101  0.00  0.00     0.001 A 
ATOM      7  C7  DEN d   1      -1.051   5.888  -2.351  0.00  0.00     0.017 A 
ATOM      8  C8  DEN d   1      -0.636   5.724  -3.666  0.00  0.00    -0.094 A 
ATOM      9  C9  DEN d   1      -1.547   5.739  -4.708  0.00  0.00    -0.072 A 
ENDROOT
TORSDOF 0
ENDMDL
