MODEL 1
REMARK minimizedAffinity -1.303002
REMARK minimizedRMSD -1
REMARK  0 active torsions:
REMARK  status: ('A' for Active; 'I' for Inactive)
ROOT
ATOM      1  C1  DEN d   1      -1.110   0.583   1.838  0.00  0.00     0.130 A 
ATOM      2  C2  DEN d   1      -1.628  -0.739   1.496  0.00  0.00    -0.031 A 
ATOM      3  C3  DEN d   1      -0.806  -1.281   0.395  0.00  0.00     0.027 A 
ATOM      4  C4  DEN d   1       1.210  -0.208  -0.804  0.00  0.00     0.027 A 
ATOM      5  C5  DEN d   1       2.012   0.910  -0.871  0.00  0.00    -0.003 A 
ATOM      6  C6  DEN d   1       1.810   2.002  -0.069  0.00  0.00     0.001 A 
ATOM      7  C7  DEN d   1       0.809   1.982   0.866  0.00  0.00     0.017 A 
ATOM      8  C8  DEN d   1      -0.009   0.861   0.934  0.00  0.00    -0.094 A 
ATOM      9  C9  DEN d   1       0.219  -0.238   0.123  0.00  0.00    -0.072 A 
ENDROOT
TORSDOF 0
ENDMDL
