MODEL 1
REMARK minimizedAffinity 6.26385832
REMARK minimizedRMSD -1
REMARK  0 active torsions:
REMARK  status: ('A' for Active; 'I' for Inactive)
ROOT
ATOM      1  C1  DEN d   1      -4.923   5.977  -0.989  0.00  0.00     0.130 A 
ATOM      2  C2  DEN d   1      -4.376   5.930   0.364  0.00  0.00    -0.031 A 
ATOM      3  C3  DEN d   1      -2.903   5.915   0.261  0.00  0.00     0.027 A 
ATOM      4  C4  DEN d   1      -1.424   5.966  -1.851  0.00  0.00     0.027 A 
ATOM      5  C5  DEN d   1      -1.434   5.996  -3.228  0.00  0.00    -0.003 A 
ATOM      6  C6  DEN d   1      -2.598   5.988  -3.951  0.00  0.00     0.001 A 
ATOM      7  C7  DEN d   1      -3.802   5.995  -3.297  0.00  0.00     0.017 A 
ATOM      8  C8  DEN d   1      -3.800   5.956  -1.909  0.00  0.00    -0.094 A 
ATOM      9  C9  DEN d   1      -2.613   5.977  -1.197  0.00  0.00    -0.072 A 
ENDROOT
TORSDOF 0
ENDMDL
