MODEL 1
REMARK minimizedAffinity 5.81027651
REMARK minimizedRMSD -1
REMARK  0 active torsions:
REMARK  status: ('A' for Active; 'I' for Inactive)
ROOT
ATOM      1  C1  DEN d   1      -3.936   5.988  -3.666  0.00  0.00     0.130 A 
ATOM      2  C2  DEN d   1      -4.585   5.943  -2.359  0.00  0.00    -0.031 A 
ATOM      3  C3  DEN d   1      -3.530   5.927  -1.326  0.00  0.00     0.027 A 
ATOM      4  C4  DEN d   1      -0.968   5.972  -1.622  0.00  0.00     0.027 A 
ATOM      5  C5  DEN d   1       0.055   6.000  -2.544  0.00  0.00    -0.003 A 
ATOM      6  C6  DEN d   1      -0.178   5.991  -3.894  0.00  0.00     0.001 A 
ATOM      7  C7  DEN d   1      -1.466   5.999  -4.360  0.00  0.00     0.017 A 
ATOM      8  C8  DEN d   1      -2.503   5.964  -3.437  0.00  0.00    -0.094 A 
ATOM      9  C9  DEN d   1      -2.247   5.986  -2.076  0.00  0.00    -0.072 A 
ENDROOT
TORSDOF 0
ENDMDL
