MODEL 1
REMARK minimizedAffinity 8.37730503
REMARK minimizedRMSD -1
REMARK  0 active torsions:
REMARK  status: ('A' for Active; 'I' for Inactive)
ROOT
ATOM      1  C1  DEN d   1      -0.026  -0.875   0.072  0.00  0.00     0.130 A 
ATOM      2  C2  DEN d   1      -0.296  -0.643   1.489  0.00  0.00    -0.031 A 
ATOM      3  C3  DEN d   1       0.238   0.687   1.843  0.00  0.00     0.027 A 
ATOM      4  C4  DEN d   1       1.446   2.403   0.344  0.00  0.00     0.027 A 
ATOM      5  C5  DEN d   1       1.916   2.648  -0.927  0.00  0.00    -0.003 A 
ATOM      6  C6  DEN d   1       1.802   1.731  -1.938  0.00  0.00     0.001 A 
ATOM      7  C7  DEN d   1       1.164   0.541  -1.705  0.00  0.00     0.017 A 
ATOM      8  C8  DEN d   1       0.695   0.283  -0.424  0.00  0.00    -0.094 A 
ATOM      9  C9  DEN d   1       0.808   1.229   0.581  0.00  0.00    -0.072 A 
ENDROOT
TORSDOF 0
ENDMDL
