MODEL 1
REMARK minimizedAffinity 1.21556306
REMARK minimizedRMSD -1
REMARK  0 active torsions:
REMARK  status: ('A' for Active; 'I' for Inactive)
ROOT
ATOM      1  C1  DEN d   1      -0.588   5.918  -1.856  0.00  0.00     0.130 A 
ATOM      2  C2  DEN d   1      -2.044   5.965  -1.954  0.00  0.00    -0.031 A 
ATOM      3  C3  DEN d   1      -2.404   6.000  -3.386  0.00  0.00     0.027 A 
ATOM      4  C4  DEN d   1      -0.857   5.980  -5.449  0.00  0.00     0.027 A 
ATOM      5  C5  DEN d   1       0.455   5.956  -5.869  0.00  0.00    -0.003 A 
ATOM      6  C6  DEN d   1       1.503   5.953  -4.987  0.00  0.00     0.001 A 
ATOM      7  C7  DEN d   1       1.257   5.927  -3.640  0.00  0.00     0.017 A 
ATOM      8  C8  DEN d   1      -0.063   5.958  -3.209  0.00  0.00    -0.094 A 
ATOM      9  C9  DEN d   1      -1.109   5.949  -4.116  0.00  0.00    -0.072 A 
ENDROOT
TORSDOF 0
ENDMDL
