MODEL 1
REMARK minimizedAffinity 8.09180355
REMARK minimizedRMSD -1
REMARK  0 active torsions:
REMARK  status: ('A' for Active; 'I' for Inactive)
ROOT
ATOM      1  C1  DEN d   1       0.871   3.714  -5.193  0.00  0.00     0.130 A 
ATOM      2  C2  DEN d   1       0.140   4.843  -5.763  0.00  0.00    -0.031 A 
ATOM      3  C3  DEN d   1       1.101   5.940  -5.993  0.00  0.00     0.027 A 
ATOM      4  C4  DEN d   1       3.637   6.000  -5.527  0.00  0.00     0.027 A 
ATOM      5  C5  DEN d   1       4.705   5.282  -5.035  0.00  0.00    -0.003 A 
ATOM      6  C6  DEN d   1       4.566   4.015  -4.534  0.00  0.00     0.001 A 
ATOM      7  C7  DEN d   1       3.337   3.409  -4.556  0.00  0.00     0.017 A 
ATOM      8  C8  DEN d   1       2.254   4.128  -5.043  0.00  0.00    -0.094 A 
ATOM      9  C9  DEN d   1       2.418   5.404  -5.556  0.00  0.00    -0.072 A 
ENDROOT
TORSDOF 0
ENDMDL
