MODEL 1
REMARK minimizedAffinity 6.32632923
REMARK minimizedRMSD -1
REMARK  0 active torsions:
REMARK  status: ('A' for Active; 'I' for Inactive)
ROOT
ATOM      1  C1  DEN d   1      -0.095   0.121  -0.266  0.00  0.00     0.130 A 
ATOM      2  C2  DEN d   1      -0.380  -0.251   1.117  0.00  0.00    -0.031 A 
ATOM      3  C3  DEN d   1       0.142   0.817   1.994  0.00  0.00     0.027 A 
ATOM      4  C4  DEN d   1       1.352   3.001   1.347  0.00  0.00     0.027 A 
ATOM      5  C5  DEN d   1       1.831   3.749   0.295  0.00  0.00    -0.003 A 
ATOM      6  C6  DEN d   1       1.733   3.328  -1.005  0.00  0.00     0.001 A 
ATOM      7  C7  DEN d   1       1.102   2.147  -1.290  0.00  0.00     0.017 A 
ATOM      8  C8  DEN d   1       0.622   1.383  -0.234  0.00  0.00    -0.094 A 
ATOM      9  C9  DEN d   1       0.720   1.832   1.073  0.00  0.00    -0.072 A 
ENDROOT
TORSDOF 0
ENDMDL
