MODEL 1
REMARK minimizedAffinity 8.29161263
REMARK minimizedRMSD -1
REMARK  0 active torsions:
REMARK  status: ('A' for Active; 'I' for Inactive)
ROOT
ATOM      1  C1  DEN d   1       2.351  -0.056   3.045  0.00  0.00     0.130 A 
ATOM      2  C2  DEN d   1       1.033   0.279   3.579  0.00  0.00    -0.031 A 
ATOM      3  C3  DEN d   1       0.211   0.802   2.469  0.00  0.00     0.027 A 
ATOM      4  C4  DEN d   1       0.846   1.118  -0.011  0.00  0.00     0.027 A 
ATOM      5  C5  DEN d   1       1.857   0.985  -0.937  0.00  0.00    -0.003 A 
ATOM      6  C6  DEN d   1       3.103   0.531  -0.596  0.00  0.00     0.001 A 
ATOM      7  C7  DEN d   1       3.358   0.151   0.695  0.00  0.00     0.017 A 
ATOM      8  C8  DEN d   1       2.346   0.290   1.635  0.00  0.00    -0.094 A 
ATOM      9  C9  DEN d   1       1.089   0.739   1.269  0.00  0.00    -0.072 A 
ENDROOT
TORSDOF 0
ENDMDL
