MODEL 1
REMARK minimizedAffinity 2.31659174
REMARK minimizedRMSD -1
REMARK  0 active torsions:
REMARK  status: ('A' for Active; 'I' for Inactive)
ROOT
ATOM      1  C   UNL d   1       5.245   1.161  -0.626  0.00  0.00     0.020 A 
ATOM      2  C1  UNL d   1       4.618   2.223   0.024  0.00  0.00     0.020 A 
ATOM      3  C2  UNL d   1       3.308   2.083   0.488  0.00  0.00     0.034 A 
ATOM      4  C3  UNL d   1       2.620   0.878   0.302  0.00  0.00     0.017 A 
ATOM      5  C4  UNL d   1       3.251  -0.188  -0.351  0.00  0.00     0.017 A 
ATOM      6  C5  UNL d   1       4.562  -0.042  -0.812  0.00  0.00     0.034 A 
ATOM      7 Cl   UNL d   1       2.467  -1.705  -0.617  0.00  0.00    -0.070 Cl
ATOM      8 Cl1  UNL d   1       1.003   0.775   0.901  0.00  0.00    -0.070 Cl
ENDROOT
TORSDOF 0
ENDMDL
