MODEL 1
REMARK minimizedAffinity 7.75710392
REMARK minimizedRMSD -1
REMARK  0 active torsions:
REMARK  status: ('A' for Active; 'I' for Inactive)
ROOT
ATOM      1  C   UNL d   1      -1.453   2.220   1.825  0.00  0.00     0.020 A 
ATOM      2  C1  UNL d   1      -0.769   3.242   2.482  0.00  0.00     0.020 A 
ATOM      3  C2  UNL d   1       0.244   2.933   3.391  0.00  0.00     0.034 A 
ATOM      4  C3  UNL d   1       0.578   1.597   3.645  0.00  0.00     0.017 A 
ATOM      5  C4  UNL d   1      -0.109   0.572   2.985  0.00  0.00     0.017 A 
ATOM      6  C5  UNL d   1      -1.123   0.888   2.076  0.00  0.00     0.034 A 
ATOM      7 Cl   UNL d   1       0.246  -1.099   3.247  0.00  0.00    -0.070 Cl
ATOM      8 Cl1  UNL d   1       1.842   1.287   4.781  0.00  0.00    -0.070 Cl
ENDROOT
TORSDOF 0
ENDMDL
