MODEL 1
REMARK minimizedAffinity 9.8896122
REMARK minimizedRMSD -1
REMARK  0 active torsions:
REMARK  status: ('A' for Active; 'I' for Inactive)
ROOT
ATOM      1  C   UNL d   1       4.067   0.749  -0.973  0.00  0.00     0.020 A 
ATOM      2  C1  UNL d   1       3.135   0.625   0.057  0.00  0.00     0.020 A 
ATOM      3  C2  UNL d   1       2.355  -0.529   0.156  0.00  0.00     0.034 A 
ATOM      4  C3  UNL d   1       2.505  -1.563  -0.776  0.00  0.00     0.017 A 
ATOM      5  C4  UNL d   1       3.440  -1.437  -1.809  0.00  0.00     0.017 A 
ATOM      6  C5  UNL d   1       4.219  -0.279  -1.904  0.00  0.00     0.034 A 
ATOM      7 Cl   UNL d   1       3.682  -2.669  -2.996  0.00  0.00    -0.070 Cl
ATOM      8 Cl1  UNL d   1       1.507  -2.961  -0.592  0.00  0.00    -0.070 Cl
ENDROOT
TORSDOF 0
ENDMDL
