MODEL 1
REMARK minimizedAffinity 7.13691854
REMARK minimizedRMSD -1
REMARK  0 active torsions:
REMARK  status: ('A' for Active; 'I' for Inactive)
ROOT
ATOM      1  C   UNL d   1       3.711   0.349  -0.869  0.00  0.00     0.020 A 
ATOM      2  C1  UNL d   1       2.833   0.086   0.182  0.00  0.00     0.020 A 
ATOM      3  C2  UNL d   1       2.079  -1.090   0.184  0.00  0.00     0.034 A 
ATOM      4  C3  UNL d   1       2.202  -2.007  -0.867  0.00  0.00     0.017 A 
ATOM      5  C4  UNL d   1       3.084  -1.742  -1.921  0.00  0.00     0.017 A 
ATOM      6  C5  UNL d   1       3.836  -0.563  -1.918  0.00  0.00     0.034 A 
ATOM      7 Cl   UNL d   1       3.290  -2.825  -3.252  0.00  0.00    -0.070 Cl
ATOM      8 Cl1  UNL d   1       1.240  -3.440  -0.799  0.00  0.00    -0.070 Cl
ENDROOT
TORSDOF 0
ENDMDL
