MODEL 1
REMARK minimizedAffinity 7.74689579
REMARK minimizedRMSD -1
REMARK  0 active torsions:
REMARK  status: ('A' for Active; 'I' for Inactive)
ROOT
ATOM      1  C   UNL d   1      -0.323  -3.588  -1.105  0.00  0.00     0.020 A 
ATOM      2  C1  UNL d   1      -0.092  -2.714  -2.165  0.00  0.00     0.020 A 
ATOM      3  C2  UNL d   1       0.912  -1.748  -2.067  0.00  0.00     0.034 A 
ATOM      4  C3  UNL d   1       1.687  -1.654  -0.906  0.00  0.00     0.017 A 
ATOM      5  C4  UNL d   1       1.454  -2.532   0.158  0.00  0.00     0.017 A 
ATOM      6  C5  UNL d   1       0.448  -3.498   0.055  0.00  0.00     0.034 A 
ATOM      7 Cl   UNL d   1       2.370  -2.478   1.623  0.00  0.00    -0.070 Cl
ATOM      8 Cl1  UNL d   1       2.912  -0.435  -0.854  0.00  0.00    -0.070 Cl
ENDROOT
TORSDOF 0
ENDMDL
