MODEL 1
REMARK minimizedAffinity 2.2768712
REMARK minimizedRMSD -1
REMARK  0 active torsions:
REMARK  status: ('A' for Active; 'I' for Inactive)
ROOT
ATOM      1  C   UNL d   1       0.082   1.666   3.062  0.00  0.00     0.020 A 
ATOM      2  C1  UNL d   1       1.457   1.793   3.250  0.00  0.00     0.020 A 
ATOM      3  C2  UNL d   1       2.323   1.700   2.158  0.00  0.00     0.034 A 
ATOM      4  C3  UNL d   1       1.814   1.478   0.874  0.00  0.00     0.017 A 
ATOM      5  C4  UNL d   1       0.433   1.351   0.686  0.00  0.00     0.017 A 
ATOM      6  C5  UNL d   1      -0.429   1.445   1.783  0.00  0.00     0.034 A 
ATOM      7 Cl   UNL d   1      -0.269   1.076  -0.869  0.00  0.00    -0.070 Cl
ATOM      8 Cl1  UNL d   1       2.942   1.374  -0.431  0.00  0.00    -0.070 Cl
ENDROOT
TORSDOF 0
ENDMDL
