MODEL 1
REMARK minimizedAffinity 5.49711514
REMARK minimizedRMSD -1
REMARK  0 active torsions:
REMARK  status: ('A' for Active; 'I' for Inactive)
ROOT
ATOM      1  C   UNL d   1       2.485  -1.452  -0.359  0.00  0.00     0.020 A 
ATOM      2  C1  UNL d   1       2.485  -0.284  -1.120  0.00  0.00     0.020 A 
ATOM      3  C2  UNL d   1       3.580   0.582  -1.071  0.00  0.00     0.034 A 
ATOM      4  C3  UNL d   1       4.680   0.280  -0.259  0.00  0.00     0.017 A 
ATOM      5  C4  UNL d   1       4.679  -0.893   0.504  0.00  0.00     0.017 A 
ATOM      6  C5  UNL d   1       3.580  -1.756   0.451  0.00  0.00     0.034 A 
ATOM      7 Cl   UNL d   1       5.999  -1.333   1.529  0.00  0.00    -0.070 Cl
ATOM      8 Cl1  UNL d   1       6.000   1.395  -0.247  0.00  0.00    -0.070 Cl
ENDROOT
TORSDOF 0
ENDMDL
