MODEL 1
REMARK minimizedAffinity 8.10603714
REMARK minimizedRMSD -1
REMARK  0 active torsions:
REMARK  status: ('A' for Active; 'I' for Inactive)
ROOT
ATOM      1  C   UNL d   1       5.295   1.480  -0.745  0.00  0.00     0.020 A 
ATOM      2  C1  UNL d   1       6.000   0.368  -0.285  0.00  0.00     0.020 A 
ATOM      3  C2  UNL d   1       5.316  -0.801   0.054  0.00  0.00     0.034 A 
ATOM      4  C3  UNL d   1       3.923  -0.862  -0.067  0.00  0.00     0.017 A 
ATOM      5  C4  UNL d   1       3.216   0.255  -0.529  0.00  0.00     0.017 A 
ATOM      6  C5  UNL d   1       3.906   1.423  -0.866  0.00  0.00     0.034 A 
ATOM      7 Cl   UNL d   1       1.497   0.255  -0.704  0.00  0.00    -0.070 Cl
ATOM      8 Cl1  UNL d   1       3.142  -2.340   0.369  0.00  0.00    -0.070 Cl
ENDROOT
TORSDOF 0
ENDMDL
