MODEL 1
REMARK minimizedAffinity 4.64240026
REMARK minimizedRMSD -1
REMARK  0 active torsions:
REMARK  status: ('A' for Active; 'I' for Inactive)
ROOT
ATOM      1  C   UNL d   1      -6.000   3.404  -3.007  0.00  0.00     0.020 A 
ATOM      2  C1  UNL d   1      -4.850   3.831  -3.670  0.00  0.00     0.020 A 
ATOM      3  C2  UNL d   1      -3.674   3.084  -3.581  0.00  0.00     0.034 A 
ATOM      4  C3  UNL d   1      -3.645   1.905  -2.827  0.00  0.00     0.017 A 
ATOM      5  C4  UNL d   1      -4.799   1.476  -2.162  0.00  0.00     0.017 A 
ATOM      6  C5  UNL d   1      -5.974   2.229  -2.254  0.00  0.00     0.034 A 
ATOM      7 Cl   UNL d   1      -4.840   0.033  -1.213  0.00  0.00    -0.070 Cl
ATOM      8 Cl1  UNL d   1      -2.156   1.030  -2.762  0.00  0.00    -0.070 Cl
ENDROOT
TORSDOF 0
ENDMDL
