MODEL 1
REMARK minimizedAffinity -0.468668908
REMARK minimizedRMSD -1
REMARK  3 active torsions:
REMARK  status: ('A' for Active; 'I' for Inactive)
REMARK    1  A    between atoms: C3'_2  and  C2'_3 
REMARK    2  A    between atoms: C2'_3  and  C1'_4 
REMARK    3  A    between atoms: C1'_4  and  C1_5 
ROOT
ATOM      1  C1  N4B d   1       0.025   2.497   0.662  0.00  0.00    -0.075 A 
ATOM      2  C2  N4B d   1      -0.428   1.930  -0.550  0.00  0.00     0.002 A 
ATOM      3  C3  N4B d   1      -0.467   2.693  -1.691  0.00  0.00     0.002 A 
ATOM      4  C4  N4B d   1      -0.078   4.023  -1.641  0.00  0.00    -0.004 A 
ATOM      5  C5  N4B d   1       0.382   4.555  -0.473  0.00  0.00     0.002 A 
ATOM      6  C6  N4B d   1       0.431   3.800   0.682  0.00  0.00     0.002 A 
ENDROOT
BRANCH   1   7
ATOM      7  C1' N4B d   1       0.004   1.727   1.955  0.00  0.00     0.057 C 
BRANCH   7   8
ATOM      8  C2' N4B d   1      -0.229   0.250   1.655  0.00  0.00     0.009 C 
BRANCH   8   9
ATOM      9  C3' N4B d   1       1.060  -0.552   1.711  0.00  0.00     0.004 C 
ATOM     10  C4' N4B d   1       1.419  -1.167   0.392  0.00  0.00     0.003 C 
ENDBRANCH   8   9
ENDBRANCH   7   8
ENDBRANCH   1   7
TORSDOF 3
ENDMDL
