MODEL 1
REMARK minimizedAffinity 6.28618193
REMARK minimizedRMSD -1
REMARK  0 active torsions:
REMARK  status: ('A' for Active; 'I' for Inactive)
ROOT
ATOM      1  C2' OXE d   1       3.935   0.079  -3.649  0.00  0.00     0.078 C 
ATOM      2  C1' OXE d   1       3.015  -2.501  -3.032  0.00  0.00     0.078 C 
ATOM      3  C1  OXE d   1       2.916  -1.444  -1.961  0.00  0.00    -0.078 A 
ATOM      4  C2  OXE d   1       3.412  -0.197  -2.256  0.00  0.00    -0.078 A 
ATOM      5  C3  OXE d   1       3.296   0.829  -1.322  0.00  0.00     0.003 A 
ATOM      6  C4  OXE d   1       2.819   0.564  -0.032  0.00  0.00    -0.002 A 
ATOM      7  C5  OXE d   1       2.346  -0.710   0.301  0.00  0.00    -0.002 A 
ATOM      8  C6  OXE d   1       2.348  -1.712  -0.663  0.00  0.00     0.003 A 
ENDROOT
TORSDOF 0
ENDMDL
