MODEL 1
REMARK minimizedAffinity 9.71266747
REMARK minimizedRMSD -1
REMARK  0 active torsions:
REMARK  status: ('A' for Active; 'I' for Inactive)
ROOT
ATOM      1  C2' OXE d   1       5.063   3.499  -1.601  0.00  0.00     0.078 C 
ATOM      2  C1' OXE d   1       4.653   1.215  -3.180  0.00  0.00     0.078 C 
ATOM      3  C1  OXE d   1       3.974   1.271  -1.835  0.00  0.00    -0.078 A 
ATOM      4  C2  OXE d   1       4.218   2.372  -1.049  0.00  0.00    -0.078 A 
ATOM      5  C3  OXE d   1       3.573   2.500   0.178  0.00  0.00     0.003 A 
ATOM      6  C4  OXE d   1       2.800   1.448   0.685  0.00  0.00    -0.002 A 
ATOM      7  C5  OXE d   1       2.571   0.301  -0.082  0.00  0.00    -0.002 A 
ATOM      8  C6  OXE d   1       3.115   0.215  -1.359  0.00  0.00     0.003 A 
ENDROOT
TORSDOF 0
ENDMDL
