MODEL 1
REMARK minimizedAffinity 11.5806932
REMARK minimizedRMSD -1
REMARK  0 active torsions:
REMARK  status: ('A' for Active; 'I' for Inactive)
ROOT
ATOM      1  C2' OXE d   1       0.523  -1.722  -2.603  0.00  0.00     0.078 C 
ATOM      2  C1' OXE d   1       0.686  -3.553  -0.481  0.00  0.00     0.078 C 
ATOM      3  C1  OXE d   1       1.475  -2.272  -0.368  0.00  0.00    -0.078 A 
ATOM      4  C2  OXE d   1       1.426  -1.403  -1.431  0.00  0.00    -0.078 A 
ATOM      5  C3  OXE d   1       2.092  -0.183  -1.355  0.00  0.00     0.003 A 
ATOM      6  C4  OXE d   1       2.933   0.100  -0.272  0.00  0.00    -0.002 A 
ATOM      7  C5  OXE d   1       3.029  -0.789   0.803  0.00  0.00    -0.002 A 
ATOM      8  C6  OXE d   1       2.275  -1.958   0.791  0.00  0.00     0.003 A 
ENDROOT
TORSDOF 0
ENDMDL
