MODEL 1
REMARK minimizedAffinity 14.6673203
REMARK minimizedRMSD -1
REMARK  0 active torsions:
REMARK  status: ('A' for Active; 'I' for Inactive)
ROOT
ATOM      1  C2' OXE d   1       3.501   2.127  -1.366  0.00  0.00     0.078 C 
ATOM      2  C1' OXE d   1       4.210   1.972   1.345  0.00  0.00     0.078 C 
ATOM      3  C1  OXE d   1       3.586   0.754   0.711  0.00  0.00    -0.078 A 
ATOM      4  C2  OXE d   1       3.200   0.854  -0.604  0.00  0.00    -0.078 A 
ATOM      5  C3  OXE d   1       2.670  -0.257  -1.254  0.00  0.00     0.003 A 
ATOM      6  C4  OXE d   1       2.386  -1.427  -0.539  0.00  0.00    -0.002 A 
ATOM      7  C5  OXE d   1       2.735  -1.537   0.811  0.00  0.00    -0.002 A 
ATOM      8  C6  OXE d   1       3.374  -0.472   1.439  0.00  0.00     0.003 A 
ENDROOT
TORSDOF 0
ENDMDL
