MODEL 1
REMARK minimizedAffinity 8.57711029
REMARK minimizedRMSD -1
REMARK  0 active torsions:
REMARK  status: ('A' for Active; 'I' for Inactive)
ROOT
ATOM      1  C2' OXE d   1       5.998   2.498  -1.666  0.00  0.00     0.078 C 
ATOM      2  C1' OXE d   1       5.293   2.525   1.051  0.00  0.00     0.078 C 
ATOM      3  C1  OXE d   1       4.485   1.653   0.123  0.00  0.00    -0.078 A 
ATOM      4  C2  OXE d   1       4.807   1.682  -1.212  0.00  0.00    -0.078 A 
ATOM      5  C3  OXE d   1       4.129   0.855  -2.103  0.00  0.00     0.003 A 
ATOM      6  C4  OXE d   1       3.022   0.111  -1.677  0.00  0.00    -0.002 A 
ATOM      7  C5  OXE d   1       2.652   0.098  -0.328  0.00  0.00    -0.002 A 
ATOM      8  C6  OXE d   1       3.397   0.829   0.590  0.00  0.00     0.003 A 
ENDROOT
TORSDOF 0
ENDMDL
