MODEL 1
REMARK minimizedAffinity 10.2042971
REMARK minimizedRMSD -1
REMARK  0 active torsions:
REMARK  status: ('A' for Active; 'I' for Inactive)
ROOT
ATOM      1  C2' OXE d   1       4.365   3.638   5.460  0.00  0.00     0.078 C 
ATOM      2  C1' OXE d   1       3.732   3.092   2.780  0.00  0.00     0.078 C 
ATOM      3  C1  OXE d   1       2.880   4.098   3.513  0.00  0.00    -0.078 A 
ATOM      4  C2  OXE d   1       3.168   4.325   4.837  0.00  0.00    -0.078 A 
ATOM      5  C3  OXE d   1       2.448   5.283   5.545  0.00  0.00     0.003 A 
ATOM      6  C4  OXE d   1       1.336   5.906   4.965  0.00  0.00    -0.002 A 
ATOM      7  C5  OXE d   1       1.002   5.660   3.629  0.00  0.00    -0.002 A 
ATOM      8  C6  OXE d   1       1.788   4.793   2.878  0.00  0.00     0.003 A 
ENDROOT
TORSDOF 0
ENDMDL
