MODEL 1
REMARK minimizedAffinity 13.1527357
REMARK minimizedRMSD -1
REMARK  0 active torsions:
REMARK  status: ('A' for Active; 'I' for Inactive)
ROOT
ATOM      1  C2' OXE d   1       0.092   4.790   5.985  0.00  0.00     0.078 C 
ATOM      2  C1' OXE d   1       1.178   2.249   5.493  0.00  0.00     0.078 C 
ATOM      3  C1  OXE d   1       1.777   3.423   4.761  0.00  0.00    -0.078 A 
ATOM      4  C2  OXE d   1       1.209   4.657   4.972  0.00  0.00    -0.078 A 
ATOM      5  C3  OXE d   1       1.759   5.782   4.364  0.00  0.00     0.003 A 
ATOM      6  C4  OXE d   1       2.786   5.648   3.422  0.00  0.00    -0.002 A 
ATOM      7  C5  OXE d   1       3.352   4.396   3.162  0.00  0.00    -0.002 A 
ATOM      8  C6  OXE d   1       2.889   3.282   3.853  0.00  0.00     0.003 A 
ENDROOT
TORSDOF 0
ENDMDL
