MODEL 1
REMARK minimizedAffinity 4.33922482
REMARK minimizedRMSD -1
REMARK  0 active torsions:
REMARK  status: ('A' for Active; 'I' for Inactive)
ROOT
ATOM      1  C2' OXE d   1      -2.886  -0.283  -2.494  0.00  0.00     0.078 C 
ATOM      2  C1' OXE d   1      -1.049   1.085  -0.872  0.00  0.00     0.078 C 
ATOM      3  C1  OXE d   1      -2.492   1.063  -0.435  0.00  0.00    -0.078 A 
ATOM      4  C2  OXE d   1      -3.392   0.430  -1.259  0.00  0.00    -0.078 A 
ATOM      5  C3  OXE d   1      -4.727   0.333  -0.876  0.00  0.00     0.003 A 
ATOM      6  C4  OXE d   1      -5.188   1.004   0.263  0.00  0.00    -0.002 A 
ATOM      7  C5  OXE d   1      -4.295   1.687   1.095  0.00  0.00    -0.002 A 
ATOM      8  C6  OXE d   1      -2.940   1.690   0.784  0.00  0.00     0.003 A 
ENDROOT
TORSDOF 0
ENDMDL
