MODEL 1
REMARK minimizedAffinity 10.0681028
REMARK minimizedRMSD -1
REMARK  0 active torsions:
REMARK  status: ('A' for Active; 'I' for Inactive)
ROOT
ATOM      1  C2' OXE d   1      -4.116   1.586   0.761  0.00  0.00     0.078 C 
ATOM      2  C1' OXE d   1      -6.000   0.063  -0.657  0.00  0.00     0.078 C 
ATOM      3  C1  OXE d   1      -4.570   0.039  -1.138  0.00  0.00    -0.078 A 
ATOM      4  C2  OXE d   1      -3.664   0.824  -0.466  0.00  0.00    -0.078 A 
ATOM      5  C3  OXE d   1      -2.322   0.797  -0.833  0.00  0.00     0.003 A 
ATOM      6  C4  OXE d   1      -1.914   0.097  -1.975  0.00  0.00    -0.002 A 
ATOM      7  C5  OXE d   1      -2.828  -0.677  -2.698  0.00  0.00    -0.002 A 
ATOM      8  C6  OXE d   1      -4.149  -0.751  -2.268  0.00  0.00     0.003 A 
ENDROOT
TORSDOF 0
ENDMDL
