MODEL 1
REMARK minimizedAffinity -4.58502674
REMARK minimizedRMSD -1
REMARK  1 active torsions:
REMARK  status: ('A' for Active; 'I' for Inactive)
REMARK    1  A    between atoms: C1_2  and  C2_3 
ROOT
ATOM      1  C2  UNL d   1       1.091   0.551   0.132  0.00  0.00    -0.076 A 
ATOM      2  C3  UNL d   1      -0.082   1.323   0.064  0.00  0.00     0.004 A 
ATOM      3  C4  UNL d   1      -0.044   2.704   0.251  0.00  0.00    -0.003 A 
ATOM      4  C5  UNL d   1       1.167   3.335   0.510  0.00  0.00     0.000 A 
ATOM      5  C6  UNL d   1       2.343   2.587   0.563  0.00  0.00     0.000 A 
ATOM      6  C7  UNL d   1       2.325   1.197   0.360  0.00  0.00    -0.073 A 
ATOM      7  C8  UNL d   1       3.622   0.439   0.436  0.00  0.00     0.078 C 
ENDROOT
BRANCH   1   8
ATOM      8  C1  UNL d   1       0.984  -0.946  -0.053  0.00  0.00     0.053 C 
ATOM      9  C   UNL d   1      -0.415  -1.470   0.232  0.00  0.00     0.018 C 
ENDBRANCH   1   8
TORSDOF 1
ENDMDL
