MODEL 1
REMARK minimizedAffinity -4.68230343
REMARK minimizedRMSD -1
REMARK  1 active torsions:
REMARK  status: ('A' for Active; 'I' for Inactive)
REMARK    1  A    between atoms: C1_2  and  C2_3 
ROOT
ATOM      1  C2  UNL d   1       0.053   0.419   0.040  0.00  0.00    -0.076 A 
ATOM      2  C3  UNL d   1      -1.294   0.789   0.203  0.00  0.00     0.004 A 
ATOM      3  C4  UNL d   1      -1.677   2.129   0.177  0.00  0.00    -0.003 A 
ATOM      4  C5  UNL d   1      -0.721   3.120  -0.011  0.00  0.00     0.000 A 
ATOM      5  C6  UNL d   1       0.617   2.770  -0.191  0.00  0.00     0.000 A 
ATOM      6  C7  UNL d   1       1.018   1.423  -0.185  0.00  0.00    -0.073 A 
ATOM      7  C8  UNL d   1       2.475   1.103  -0.378  0.00  0.00     0.078 C 
ENDROOT
BRANCH   1   8
ATOM      8  C1  UNL d   1       0.413  -1.048   0.104  0.00  0.00     0.053 C 
ATOM      9  C   UNL d   1      -0.462  -1.903  -0.801  0.00  0.00     0.018 C 
ENDBRANCH   1   8
TORSDOF 1
ENDMDL
