MODEL 1
REMARK minimizedAffinity -5.29849768
REMARK minimizedRMSD -1
REMARK  1 active torsions:
REMARK  status: ('A' for Active; 'I' for Inactive)
REMARK    1  A    between atoms: C1_2  and  C2_3 
ROOT
ATOM      1  C2  UNL d   1      -0.049   0.027   0.164  0.00  0.00    -0.076 A 
ATOM      2  C3  UNL d   1       1.116   0.624  -0.348  0.00  0.00     0.004 A 
ATOM      3  C4  UNL d   1       1.215   2.009  -0.476  0.00  0.00    -0.003 A 
ATOM      4  C5  UNL d   1       0.151   2.818  -0.093  0.00  0.00     0.000 A 
ATOM      5  C6  UNL d   1      -1.005   2.244   0.433  0.00  0.00     0.000 A 
ATOM      6  C7  UNL d   1      -1.116   0.851   0.584  0.00  0.00    -0.073 A 
ATOM      7  C8  UNL d   1      -2.388   0.285   1.151  0.00  0.00     0.078 C 
ENDROOT
BRANCH   1   8
ATOM      8  C1  UNL d   1      -0.110  -1.481   0.254  0.00  0.00     0.053 C 
ATOM      9  C   UNL d   1      -0.098  -2.148  -1.113  0.00  0.00     0.018 C 
ENDBRANCH   1   8
TORSDOF 1
ENDMDL
