MODEL 1
REMARK minimizedAffinity -4.09023666
REMARK minimizedRMSD -1
REMARK  1 active torsions:
REMARK  status: ('A' for Active; 'I' for Inactive)
REMARK    1  A    between atoms: C1_2  and  C2_3 
ROOT
ATOM      1  C2  UNL d   1      -0.041   1.273   0.382  0.00  0.00    -0.076 A 
ATOM      2  C3  UNL d   1       1.320   0.947   0.507  0.00  0.00     0.004 A 
ATOM      3  C4  UNL d   1       1.729  -0.375   0.675  0.00  0.00    -0.003 A 
ATOM      4  C5  UNL d   1       0.782  -1.393   0.720  0.00  0.00     0.000 A 
ATOM      5  C6  UNL d   1      -0.572  -1.089   0.581  0.00  0.00     0.000 A 
ATOM      6  C7  UNL d   1      -0.999   0.236   0.394  0.00  0.00    -0.073 A 
ATOM      7  C8  UNL d   1      -2.472   0.507   0.256  0.00  0.00     0.078 C 
ENDROOT
BRANCH   1   8
ATOM      8  C1  UNL d   1      -0.427   2.727   0.229  0.00  0.00     0.053 C 
ATOM      9  C   UNL d   1       0.329   3.415  -0.897  0.00  0.00     0.018 C 
ENDBRANCH   1   8
TORSDOF 1
ENDMDL
