MODEL 1
REMARK minimizedAffinity -3.07994628
REMARK minimizedRMSD -1
REMARK  1 active torsions:
REMARK  status: ('A' for Active; 'I' for Inactive)
REMARK    1  A    between atoms: C1_2  and  C2_3 
ROOT
ATOM      1  C2  UNL d   1       0.030  -0.250   0.221  0.00  0.00    -0.076 A 
ATOM      2  C3  UNL d   1      -1.346  -0.083   0.451  0.00  0.00     0.004 A 
ATOM      3  C4  UNL d   1      -1.892   1.185   0.649  0.00  0.00    -0.003 A 
ATOM      4  C5  UNL d   1      -1.069   2.305   0.619  0.00  0.00     0.000 A 
ATOM      5  C6  UNL d   1       0.296   2.159   0.374  0.00  0.00     0.000 A 
ATOM      6  C7  UNL d   1       0.859   0.890   0.156  0.00  0.00    -0.073 A 
ATOM      7  C8  UNL d   1       2.338   0.791  -0.098  0.00  0.00     0.078 C 
ENDROOT
BRANCH   1   8
ATOM      8  C1  UNL d   1       0.569  -1.651   0.040  0.00  0.00     0.053 C 
ATOM      9  C   UNL d   1      -0.342  -2.520  -0.815  0.00  0.00     0.018 C 
ENDBRANCH   1   8
TORSDOF 1
ENDMDL
