MODEL 1
REMARK minimizedAffinity -3.66459203
REMARK minimizedRMSD -1
REMARK  1 active torsions:
REMARK  status: ('A' for Active; 'I' for Inactive)
REMARK    1  A    between atoms: C1_2  and  C2_3 
ROOT
ATOM      1  C2  UNL d   1       0.020  -0.066   0.175  0.00  0.00    -0.076 A 
ATOM      2  C3  UNL d   1      -1.347   0.083   0.466  0.00  0.00     0.004 A 
ATOM      3  C4  UNL d   1      -1.912   1.347   0.628  0.00  0.00    -0.003 A 
ATOM      4  C5  UNL d   1      -1.119   2.482   0.502  0.00  0.00     0.000 A 
ATOM      5  C6  UNL d   1       0.236   2.353   0.197  0.00  0.00     0.000 A 
ATOM      6  C7  UNL d   1       0.818   1.087   0.014  0.00  0.00    -0.073 A 
ATOM      7  C8  UNL d   1       2.285   1.006  -0.308  0.00  0.00     0.078 C 
ENDROOT
BRANCH   1   8
ATOM      8  C1  UNL d   1       0.583  -1.463   0.037  0.00  0.00     0.053 C 
ATOM      9  C   UNL d   1      -0.465  -2.472  -0.406  0.00  0.00     0.018 C 
ENDBRANCH   1   8
TORSDOF 1
ENDMDL
