MODEL 1
REMARK minimizedAffinity -2.73358989
REMARK minimizedRMSD -1
REMARK  1 active torsions:
REMARK  status: ('A' for Active; 'I' for Inactive)
REMARK    1  A    between atoms: C1_2  and  C2_3 
ROOT
ATOM      1  C2  UNL d   1      -0.040   0.151  -0.368  0.00  0.00    -0.076 A 
ATOM      2  C3  UNL d   1       0.959   0.912  -1.000  0.00  0.00     0.004 A 
ATOM      3  C4  UNL d   1       0.968   2.303  -0.908  0.00  0.00    -0.003 A 
ATOM      4  C5  UNL d   1      -0.022   2.956  -0.182  0.00  0.00     0.000 A 
ATOM      5  C6  UNL d   1      -1.011   2.216   0.467  0.00  0.00     0.000 A 
ATOM      6  C7  UNL d   1      -1.025   0.812   0.397  0.00  0.00    -0.073 A 
ATOM      7  C8  UNL d   1      -2.118   0.065   1.111  0.00  0.00     0.078 C 
ENDROOT
BRANCH   1   8
ATOM      8  C1  UNL d   1      -0.014  -1.352  -0.525  0.00  0.00     0.053 C 
ATOM      9  C   UNL d   1      -0.358  -1.796  -1.939  0.00  0.00     0.018 C 
ENDBRANCH   1   8
TORSDOF 1
ENDMDL
