MODEL 1
REMARK minimizedAffinity -5.40338993
REMARK minimizedRMSD -1
REMARK  1 active torsions:
REMARK  status: ('A' for Active; 'I' for Inactive)
REMARK    1  A    between atoms: C1_2  and  C2_3 
ROOT
ATOM      1  C2  UNL d   1       0.448   0.342  -0.032  0.00  0.00    -0.076 A 
ATOM      2  C3  UNL d   1      -0.881   0.786   0.085  0.00  0.00     0.004 A 
ATOM      3  C4  UNL d   1      -1.197   2.139  -0.020  0.00  0.00    -0.003 A 
ATOM      4  C5  UNL d   1      -0.189   3.071  -0.244  0.00  0.00     0.000 A 
ATOM      5  C6  UNL d   1       1.132   2.647  -0.380  0.00  0.00     0.000 A 
ATOM      6  C7  UNL d   1       1.466   1.285  -0.293  0.00  0.00    -0.073 A 
ATOM      7  C8  UNL d   1       2.908   0.884  -0.441  0.00  0.00     0.078 C 
ENDROOT
BRANCH   1   8
ATOM      8  C1  UNL d   1       0.734  -1.135   0.118  0.00  0.00     0.053 C 
ATOM      9  C   UNL d   1      -0.158  -1.994  -0.765  0.00  0.00     0.018 C 
ENDBRANCH   1   8
TORSDOF 1
ENDMDL
