MODEL 1
REMARK minimizedAffinity -4.93362713
REMARK minimizedRMSD -1
REMARK  1 active torsions:
REMARK  status: ('A' for Active; 'I' for Inactive)
REMARK    1  A    between atoms: C1_2  and  C2_3 
ROOT
ATOM      1  C2  UNL d   1       0.182   0.459   0.259  0.00  0.00    -0.076 A 
ATOM      2  C3  UNL d   1      -1.149   0.909   0.221  0.00  0.00     0.004 A 
ATOM      3  C4  UNL d   1      -1.445   2.261   0.059  0.00  0.00    -0.003 A 
ATOM      4  C5  UNL d   1      -0.414   3.186  -0.068  0.00  0.00     0.000 A 
ATOM      5  C6  UNL d   1       0.912   2.755  -0.050  0.00  0.00     0.000 A 
ATOM      6  C7  UNL d   1       1.227   1.394   0.096  0.00  0.00    -0.073 A 
ATOM      7  C8  UNL d   1       2.675   0.986   0.115  0.00  0.00     0.078 C 
ENDROOT
BRANCH   1   8
ATOM      8  C1  UNL d   1       0.443  -1.016   0.464  0.00  0.00     0.053 C 
ATOM      9  C   UNL d   1      -0.348  -1.887  -0.500  0.00  0.00     0.018 C 
ENDBRANCH   1   8
TORSDOF 1
ENDMDL
