MODEL 1
REMARK minimizedAffinity -3.13348699
REMARK minimizedRMSD -1
REMARK  1 active torsions:
REMARK  status: ('A' for Active; 'I' for Inactive)
REMARK    1  A    between atoms: C1_2  and  C2_3 
ROOT
ATOM      1  C2  UNL d   1      -0.815  -2.426  -0.604  0.00  0.00    -0.076 A 
ATOM      2  C3  UNL d   1      -2.005  -2.801   0.043  0.00  0.00     0.004 A 
ATOM      3  C4  UNL d   1      -2.924  -3.645  -0.578  0.00  0.00    -0.003 A 
ATOM      4  C5  UNL d   1      -2.667  -4.128  -1.857  0.00  0.00     0.000 A 
ATOM      5  C6  UNL d   1      -1.483  -3.780  -2.507  0.00  0.00     0.000 A 
ATOM      6  C7  UNL d   1      -0.539  -2.944  -1.888  0.00  0.00    -0.073 A 
ATOM      7  C8  UNL d   1       0.718  -2.596  -2.637  0.00  0.00     0.078 C 
ENDROOT
BRANCH   1   8
ATOM      8  C1  UNL d   1       0.132  -1.486   0.108  0.00  0.00     0.053 C 
ATOM      9  C   UNL d   1      -0.371  -0.051   0.120  0.00  0.00     0.018 C 
ENDBRANCH   1   8
TORSDOF 1
ENDMDL
