MODEL 1
REMARK minimizedAffinity -3.3500495
REMARK minimizedRMSD -1
REMARK  1 active torsions:
REMARK  status: ('A' for Active; 'I' for Inactive)
REMARK    1  A    between atoms: C1_2  and  C2_3 
ROOT
ATOM      1  C2  UNL d   1      -0.207  -0.157   0.130  0.00  0.00    -0.076 A 
ATOM      2  C3  UNL d   1      -1.515   0.322  -0.057  0.00  0.00     0.004 A 
ATOM      3  C4  UNL d   1      -1.774   1.690  -0.126  0.00  0.00    -0.003 A 
ATOM      4  C5  UNL d   1      -0.730   2.600  -0.009  0.00  0.00     0.000 A 
ATOM      5  C6  UNL d   1       0.576   2.142   0.160  0.00  0.00     0.000 A 
ATOM      6  C7  UNL d   1       0.857   0.766   0.215  0.00  0.00    -0.073 A 
ATOM      7  C8  UNL d   1       2.284   0.328   0.404  0.00  0.00     0.078 C 
ENDROOT
BRANCH   1   8
ATOM      8  C1  UNL d   1       0.011  -1.651   0.224  0.00  0.00     0.053 C 
ATOM      9  C   UNL d   1      -0.085  -2.340  -1.128  0.00  0.00     0.018 C 
ENDBRANCH   1   8
TORSDOF 1
ENDMDL
