MODEL 1
REMARK minimizedAffinity -2.62830544
REMARK minimizedRMSD -1
REMARK  1 active torsions:
REMARK  status: ('A' for Active; 'I' for Inactive)
REMARK    1  A    between atoms: C1_2  and  C2_3 
ROOT
ATOM      1  C2  UNL d   1      -0.290   2.276   1.268  0.00  0.00    -0.076 A 
ATOM      2  C3  UNL d   1       0.549   3.258   0.714  0.00  0.00     0.004 A 
ATOM      3  C4  UNL d   1       1.258   3.017  -0.461  0.00  0.00    -0.003 A 
ATOM      4  C5  UNL d   1       1.138   1.789  -1.103  0.00  0.00     0.000 A 
ATOM      5  C6  UNL d   1       0.297   0.809  -0.577  0.00  0.00     0.000 A 
ATOM      6  C7  UNL d   1      -0.437   1.042   0.598  0.00  0.00    -0.073 A 
ATOM      7  C8  UNL d   1      -1.325  -0.052   1.124  0.00  0.00     0.078 C 
ENDROOT
BRANCH   1   8
ATOM      8  C1  UNL d   1      -1.013   2.585   2.560  0.00  0.00     0.053 C 
ATOM      9  C   UNL d   1      -0.188   3.454   3.496  0.00  0.00     0.018 C 
ENDBRANCH   1   8
TORSDOF 1
ENDMDL
