MODEL 1
REMARK minimizedAffinity 8.93188953
REMARK minimizedRMSD -1
REMARK  1 active torsions:
REMARK  status: ('A' for Active; 'I' for Inactive)
REMARK    1  A    between atoms: C1_2  and  C2_3 
ROOT
ATOM      1  C2  UNL d   1       0.424  -0.238   0.304  0.00  0.00    -0.076 A 
ATOM      2  C3  UNL d   1       0.478   1.027   0.916  0.00  0.00     0.004 A 
ATOM      3  C4  UNL d   1      -0.688   1.699   1.278  0.00  0.00    -0.003 A 
ATOM      4  C5  UNL d   1      -1.928   1.117   1.035  0.00  0.00     0.000 A 
ATOM      5  C6  UNL d   1      -1.999  -0.144   0.444  0.00  0.00     0.000 A 
ATOM      6  C7  UNL d   1      -0.833  -0.842   0.088  0.00  0.00    -0.073 A 
ATOM      7  C8  UNL d   1      -0.969  -2.197  -0.551  0.00  0.00     0.078 C 
ENDROOT
BRANCH   1   8
ATOM      8  C1  UNL d   1       1.721  -0.907  -0.091  0.00  0.00     0.053 C 
ATOM      9  C   UNL d   1       2.940  -0.065   0.255  0.00  0.00     0.018 C 
ENDBRANCH   1   8
TORSDOF 1
ENDMDL
