MODEL 1
REMARK minimizedAffinity 2.21699238
REMARK minimizedRMSD -1
REMARK  0 active torsions:
REMARK  status: ('A' for Active; 'I' for Inactive)
ROOT
ATOM      1  C   UNL d   1       1.154  -0.747   2.263  0.00  0.00     0.023 A 
ATOM      2  C1  UNL d   1       1.503  -0.938   3.600  0.00  0.00     0.003 A 
ATOM      3  C2  UNL d   1       1.796  -2.219   4.071  0.00  0.00     0.048 A 
ATOM      4  C3  UNL d   1       1.740  -3.306   3.199  0.00  0.00     0.023 A 
ATOM      5  C4  UNL d   1       1.392  -3.120   1.860  0.00  0.00     0.048 A 
ATOM      6  C5  UNL d   1       1.098  -1.837   1.394  0.00  0.00     0.003 A 
ATOM      7  I   UNL d   1       2.177  -5.214   3.897  0.00  0.00    -0.146 I 
ENDROOT
TORSDOF 0
ENDMDL
