MODEL 1
REMARK minimizedAffinity 5.45193958
REMARK minimizedRMSD -1
REMARK  0 active torsions:
REMARK  status: ('A' for Active; 'I' for Inactive)
ROOT
ATOM      1  C   UNL d   1       1.148  -4.188  -2.364  0.00  0.00     0.023 A 
ATOM      2  C1  UNL d   1       0.966  -4.844  -1.147  0.00  0.00     0.003 A 
ATOM      3  C2  UNL d   1       1.133  -4.151   0.054  0.00  0.00     0.048 A 
ATOM      4  C3  UNL d   1       1.481  -2.801   0.030  0.00  0.00     0.023 A 
ATOM      5  C4  UNL d   1       1.663  -2.140  -1.186  0.00  0.00     0.048 A 
ATOM      6  C5  UNL d   1       1.496  -2.837  -2.383  0.00  0.00     0.003 A 
ATOM      7  I   UNL d   1       1.730  -1.767   1.816  0.00  0.00    -0.146 I 
ENDROOT
TORSDOF 0
ENDMDL
