MODEL 1
REMARK minimizedAffinity -0.73591727
REMARK minimizedRMSD -1
REMARK  0 active torsions:
REMARK  status: ('A' for Active; 'I' for Inactive)
ROOT
ATOM      1  C   UNL d   1      -4.704   1.343   1.648  0.00  0.00     0.023 A 
ATOM      2  C1  UNL d   1      -3.546   1.813   1.027  0.00  0.00     0.003 A 
ATOM      3  C2  UNL d   1      -3.476   1.878  -0.366  0.00  0.00     0.048 A 
ATOM      4  C3  UNL d   1      -4.568   1.473  -1.133  0.00  0.00     0.023 A 
ATOM      5  C4  UNL d   1      -5.729   1.003  -0.516  0.00  0.00     0.048 A 
ATOM      6  C5  UNL d   1      -5.794   0.938   0.877  0.00  0.00     0.003 A 
ATOM      7  I   UNL d   1      -4.467   1.570  -3.206  0.00  0.00    -0.146 I 
ENDROOT
TORSDOF 0
ENDMDL
