MODEL 1
REMARK minimizedAffinity 7.47607374
REMARK minimizedRMSD -1
REMARK  0 active torsions:
REMARK  status: ('A' for Active; 'I' for Inactive)
ROOT
ATOM      1  C   UNL d   1      -6.000   4.443   1.661  0.00  0.00     0.023 A 
ATOM      2  C1  UNL d   1      -5.252   3.748   2.611  0.00  0.00     0.003 A 
ATOM      3  C2  UNL d   1      -4.075   3.096   2.235  0.00  0.00     0.048 A 
ATOM      4  C3  UNL d   1      -3.653   3.144   0.907  0.00  0.00     0.023 A 
ATOM      5  C4  UNL d   1      -4.398   3.839  -0.047  0.00  0.00     0.048 A 
ATOM      6  C5  UNL d   1      -5.574   4.489   0.334  0.00  0.00     0.003 A 
ATOM      7  I   UNL d   1      -1.902   2.175   0.345  0.00  0.00    -0.146 I 
ENDROOT
TORSDOF 0
ENDMDL
