MODEL 1
REMARK minimizedAffinity 8.48954582
REMARK minimizedRMSD -1
REMARK  0 active torsions:
REMARK  status: ('A' for Active; 'I' for Inactive)
ROOT
ATOM      1  C   UNL d   1      -4.995  -5.999  -5.663  0.00  0.00     0.023 A 
ATOM      2  C1  UNL d   1      -3.953  -5.609  -4.821  0.00  0.00     0.003 A 
ATOM      3  C2  UNL d   1      -3.913  -4.308  -4.315  0.00  0.00     0.048 A 
ATOM      4  C3  UNL d   1      -4.918  -3.403  -4.654  0.00  0.00     0.023 A 
ATOM      5  C4  UNL d   1      -5.962  -3.789  -5.495  0.00  0.00     0.048 A 
ATOM      6  C5  UNL d   1      -5.998  -5.091  -5.999  0.00  0.00     0.003 A 
ATOM      7  I   UNL d   1      -4.859  -1.466  -3.903  0.00  0.00    -0.146 I 
ENDROOT
TORSDOF 0
ENDMDL
