MODEL 1
REMARK minimizedAffinity 12.9437475
REMARK minimizedRMSD -1
REMARK  0 active torsions:
REMARK  status: ('A' for Active; 'I' for Inactive)
ROOT
ATOM      1  C   UNL d   1       1.007  -1.487   3.240  0.00  0.00     0.023 A 
ATOM      2  C1  UNL d   1       0.799  -1.635   1.869  0.00  0.00     0.003 A 
ATOM      3  C2  UNL d   1       0.993  -2.877   1.262  0.00  0.00     0.048 A 
ATOM      4  C3  UNL d   1       1.396  -3.968   2.032  0.00  0.00     0.023 A 
ATOM      5  C4  UNL d   1       1.605  -3.824   3.405  0.00  0.00     0.048 A 
ATOM      6  C5  UNL d   1       1.410  -2.580   4.007  0.00  0.00     0.003 A 
ATOM      7  I   UNL d   1       1.686  -5.818   1.131  0.00  0.00    -0.146 I 
ENDROOT
TORSDOF 0
ENDMDL
