MODEL 1
REMARK minimizedAffinity 5.90084267
REMARK minimizedRMSD -1
REMARK  0 active torsions:
REMARK  status: ('A' for Active; 'I' for Inactive)
ROOT
ATOM      1  C   UNL d   1       4.375   1.005  -4.854  0.00  0.00     0.023 A 
ATOM      2  C1  UNL d   1       3.686   2.135  -4.412  0.00  0.00     0.003 A 
ATOM      3  C2  UNL d   1       4.152   3.410  -4.739  0.00  0.00     0.048 A 
ATOM      4  C3  UNL d   1       5.306   3.549  -5.509  0.00  0.00     0.023 A 
ATOM      5  C4  UNL d   1       5.998   2.422  -5.954  0.00  0.00     0.048 A 
ATOM      6  C5  UNL d   1       5.530   1.149  -5.624  0.00  0.00     0.003 A 
ATOM      7  I   UNL d   1       6.000   5.447  -5.996  0.00  0.00    -0.146 I 
ENDROOT
TORSDOF 0
ENDMDL
