MODEL 1
REMARK minimizedAffinity 2.01989746
REMARK minimizedRMSD -1
REMARK  1 active torsions:
REMARK  status: ('A' for Active; 'I' for Inactive)
REMARK    1  A    between atoms: C1_2  and  C2_3 
ROOT
ATOM      1  C2  UNL d   1      -1.360  -0.590   1.381  0.00  0.00    -0.081 A 
ATOM      2  C3  UNL d   1       0.033  -0.468   1.464  0.00  0.00     0.006 A 
ATOM      3  C4  UNL d   1       0.704  -0.795   2.644  0.00  0.00     0.002 A 
ATOM      4  C5  UNL d   1      -0.005  -1.256   3.759  0.00  0.00    -0.080 A 
ATOM      5  C6  UNL d   1       0.706  -1.639   5.023  0.00  0.00     0.076 C 
ATOM      6  C7  UNL d   1      -1.398  -1.361   3.683  0.00  0.00     0.002 A 
ATOM      7  C8  UNL d   1      -2.069  -1.033   2.502  0.00  0.00     0.006 A 
ENDROOT
BRANCH   1   8
ATOM      8  C1  UNL d   1      -2.079  -0.300   0.089  0.00  0.00     0.054 C 
ATOM      9  C   UNL d   1      -1.710  -1.309  -0.989  0.00  0.00     0.018 C 
ENDBRANCH   1   8
TORSDOF 1
ENDMDL
