MODEL 1
REMARK minimizedAffinity 1.81178355
REMARK minimizedRMSD -1
REMARK  1 active torsions:
REMARK  status: ('A' for Active; 'I' for Inactive)
REMARK    1  A    between atoms: C1_2  and  C2_3 
ROOT
ATOM      1  C2  UNL d   1       1.467  -2.096   3.970  0.00  0.00    -0.081 A 
ATOM      2  C3  UNL d   1       0.318  -2.891   3.868  0.00  0.00     0.006 A 
ATOM      3  C4  UNL d   1      -0.809  -2.423   3.188  0.00  0.00     0.002 A 
ATOM      4  C5  UNL d   1      -0.803  -1.157   2.591  0.00  0.00    -0.080 A 
ATOM      5  C6  UNL d   1      -1.996  -0.656   1.832  0.00  0.00     0.076 C 
ATOM      6  C7  UNL d   1       0.338  -0.357   2.708  0.00  0.00     0.002 A 
ATOM      7  C8  UNL d   1       1.464  -0.823   3.388  0.00  0.00     0.006 A 
ENDROOT
BRANCH   1   8
ATOM      8  C1  UNL d   1       2.706  -2.623   4.647  0.00  0.00     0.054 C 
ATOM      9  C   UNL d   1       3.039  -1.818   5.895  0.00  0.00     0.018 C 
ENDBRANCH   1   8
TORSDOF 1
ENDMDL
