MODEL 1
REMARK minimizedAffinity 2.25358272
REMARK minimizedRMSD -1
REMARK  1 active torsions:
REMARK  status: ('A' for Active; 'I' for Inactive)
REMARK    1  A    between atoms: C1_2  and  C2_3 
ROOT
ATOM      1  C2  UNL d   1      -0.573  -0.774   2.772  0.00  0.00    -0.081 A 
ATOM      2  C3  UNL d   1      -0.754  -1.690   3.815  0.00  0.00     0.006 A 
ATOM      3  C4  UNL d   1       0.347  -2.214   4.498  0.00  0.00     0.002 A 
ATOM      4  C5  UNL d   1       1.646  -1.824   4.154  0.00  0.00    -0.080 A 
ATOM      5  C6  UNL d   1       2.834  -2.355   4.899  0.00  0.00     0.076 C 
ATOM      6  C7  UNL d   1       1.828  -0.922   3.101  0.00  0.00     0.002 A 
ATOM      7  C8  UNL d   1       0.728  -0.399   2.418  0.00  0.00     0.006 A 
ENDROOT
BRANCH   1   8
ATOM      8  C1  UNL d   1      -1.760  -0.158   2.078  0.00  0.00     0.054 C 
ATOM      9  C   UNL d   1      -1.583   1.343   1.905  0.00  0.00     0.018 C 
ENDBRANCH   1   8
TORSDOF 1
ENDMDL
