MODEL 1
REMARK minimizedAffinity 8.35962105
REMARK minimizedRMSD -1
REMARK  1 active torsions:
REMARK  status: ('A' for Active; 'I' for Inactive)
REMARK    1  A    between atoms: C1_2  and  C2_3 
ROOT
ATOM      1  C2  UNL d   1       2.827  -1.267   3.983  0.00  0.00    -0.081 A 
ATOM      2  C3  UNL d   1       1.788  -0.554   4.596  0.00  0.00     0.006 A 
ATOM      3  C4  UNL d   1       0.545  -0.436   3.969  0.00  0.00     0.002 A 
ATOM      4  C5  UNL d   1       0.318  -1.034   2.725  0.00  0.00    -0.080 A 
ATOM      5  C6  UNL d   1      -1.021  -0.940   2.056  0.00  0.00     0.076 C 
ATOM      6  C7  UNL d   1       1.360  -1.731   2.105  0.00  0.00     0.002 A 
ATOM      7  C8  UNL d   1       2.604  -1.849   2.731  0.00  0.00     0.006 A 
ENDROOT
BRANCH   1   8
ATOM      8  C1  UNL d   1       4.148  -1.451   4.686  0.00  0.00     0.054 C 
ATOM      9  C   UNL d   1       4.188  -0.684   6.000  0.00  0.00     0.018 C 
ENDBRANCH   1   8
TORSDOF 1
ENDMDL
