MODEL 1
REMARK minimizedAffinity 9.7196312
REMARK minimizedRMSD -1
REMARK  1 active torsions:
REMARK  status: ('A' for Active; 'I' for Inactive)
REMARK    1  A    between atoms: C1_2  and  C2_3 
ROOT
ATOM      1  C2  UNL d   1      -0.580  -0.585   2.678  0.00  0.00    -0.081 A 
ATOM      2  C3  UNL d   1      -1.588  -1.447   2.231  0.00  0.00     0.006 A 
ATOM      3  C4  UNL d   1      -2.628  -0.966   1.431  0.00  0.00     0.002 A 
ATOM      4  C5  UNL d   1      -2.673   0.382   1.060  0.00  0.00    -0.080 A 
ATOM      5  C6  UNL d   1      -3.767   0.904   0.177  0.00  0.00     0.076 C 
ATOM      6  C7  UNL d   1      -1.675   1.247   1.521  0.00  0.00     0.002 A 
ATOM      7  C8  UNL d   1      -0.635   0.767   2.321  0.00  0.00     0.006 A 
ENDROOT
BRANCH   1   8
ATOM      8  C1  UNL d   1       0.577  -1.113   3.487  0.00  0.00     0.054 C 
ATOM      9  C   UNL d   1       1.875  -1.062   2.694  0.00  0.00     0.018 C 
ENDBRANCH   1   8
TORSDOF 1
ENDMDL
