MODEL 1
REMARK minimizedAffinity 7.60230303
REMARK minimizedRMSD -1
REMARK  1 active torsions:
REMARK  status: ('A' for Active; 'I' for Inactive)
REMARK    1  A    between atoms: C1_2  and  C2_3 
ROOT
ATOM      1  C2  UNL d   1       1.300  -0.195   2.613  0.00  0.00    -0.081 A 
ATOM      2  C3  UNL d   1       2.511   0.119   1.982  0.00  0.00     0.006 A 
ATOM      3  C4  UNL d   1       2.669   1.339   1.320  0.00  0.00     0.002 A 
ATOM      4  C5  UNL d   1       1.623   2.268   1.284  0.00  0.00    -0.080 A 
ATOM      5  C6  UNL d   1       1.790   3.593   0.603  0.00  0.00     0.076 C 
ATOM      6  C7  UNL d   1       0.408   1.947   1.899  0.00  0.00     0.002 A 
ATOM      7  C8  UNL d   1       0.249   0.728   2.561  0.00  0.00     0.006 A 
ENDROOT
BRANCH   1   8
ATOM      8  C1  UNL d   1       1.148  -1.481   3.383  0.00  0.00     0.054 C 
ATOM      9  C   UNL d   1       2.103  -1.534   4.567  0.00  0.00     0.018 C 
ENDBRANCH   1   8
TORSDOF 1
ENDMDL
