MODEL 1
REMARK minimizedAffinity -0.266923904
REMARK minimizedRMSD -1
REMARK  0 active torsions:
REMARK  status: ('A' for Active; 'I' for Inactive)
ROOT
ATOM      1  C   UNL d   1       1.491  -5.972  -5.998  0.00  0.00     0.078 C 
ATOM      2  C1  UNL d   1       0.222  -5.974  -5.199  0.00  0.00    -0.077 A 
ATOM      3  C2  UNL d   1       0.250  -5.977  -3.799  0.00  0.00    -0.001 A 
ATOM      4  C3  UNL d   1      -0.939  -5.989  -3.069  0.00  0.00     0.003 A 
ATOM      5  C4  UNL d   1      -2.166  -6.000  -3.729  0.00  0.00    -0.005 A 
ATOM      6  C5  UNL d   1      -2.204  -6.000  -5.122  0.00  0.00     0.003 A 
ATOM      7  C6  UNL d   1      -1.016  -5.988  -5.854  0.00  0.00    -0.001 A 
ENDROOT
TORSDOF 0
ENDMDL
