MODEL 1
REMARK minimizedAffinity -1.26150942
REMARK minimizedRMSD -1
REMARK  0 active torsions:
REMARK  status: ('A' for Active; 'I' for Inactive)
ROOT
ATOM      1  C   UNL d   1      -2.007  -5.972  -2.613  0.00  0.00     0.078 C 
ATOM      2  C1  UNL d   1      -0.929  -5.988  -3.655  0.00  0.00    -0.077 A 
ATOM      3  C2  UNL d   1       0.424  -5.987  -3.294  0.00  0.00    -0.001 A 
ATOM      4  C3  UNL d   1       1.416  -5.993  -4.275  0.00  0.00     0.003 A 
ATOM      5  C4  UNL d   1       1.067  -5.998  -5.624  0.00  0.00    -0.005 A 
ATOM      6  C5  UNL d   1      -0.277  -5.996  -5.993  0.00  0.00     0.003 A 
ATOM      7  C6  UNL d   1      -1.271  -5.991  -5.013  0.00  0.00    -0.001 A 
ENDROOT
TORSDOF 0
ENDMDL
