MODEL 1
REMARK minimizedAffinity 1.94149709
REMARK minimizedRMSD -1
REMARK  0 active torsions:
REMARK  status: ('A' for Active; 'I' for Inactive)
ROOT
ATOM      1  C   UNL d   1       0.401  -2.998   1.389  0.00  0.00     0.078 C 
ATOM      2  C1  UNL d   1       0.893  -1.674   0.886  0.00  0.00    -0.077 A 
ATOM      3  C2  UNL d   1       0.116  -0.899   0.016  0.00  0.00    -0.001 A 
ATOM      4  C3  UNL d   1       0.590   0.327  -0.452  0.00  0.00     0.003 A 
ATOM      5  C4  UNL d   1       1.844   0.789  -0.057  0.00  0.00    -0.005 A 
ATOM      6  C5  UNL d   1       2.625   0.024   0.807  0.00  0.00     0.003 A 
ATOM      7  C6  UNL d   1       2.153  -1.202   1.276  0.00  0.00    -0.001 A 
ENDROOT
TORSDOF 0
ENDMDL
