MODEL 1
REMARK minimizedAffinity 0.34480238
REMARK minimizedRMSD -1
REMARK  0 active torsions:
REMARK  status: ('A' for Active; 'I' for Inactive)
ROOT
ATOM      1  C   UNL d   1      -1.432  -5.857  -2.565  0.00  0.00     0.078 C 
ATOM      2  C1  UNL d   1      -0.398  -5.895  -3.650  0.00  0.00    -0.077 A 
ATOM      3  C2  UNL d   1      -0.768  -5.885  -5.000  0.00  0.00    -0.001 A 
ATOM      4  C3  UNL d   1       0.205  -5.930  -6.000  0.00  0.00     0.003 A 
ATOM      5  C4  UNL d   1       1.555  -5.986  -5.660  0.00  0.00    -0.005 A 
ATOM      6  C5  UNL d   1       1.933  -5.999  -4.319  0.00  0.00     0.003 A 
ATOM      7  C6  UNL d   1       0.962  -5.954  -3.318  0.00  0.00    -0.001 A 
ENDROOT
TORSDOF 0
ENDMDL
