MODEL 1
REMARK minimizedAffinity -2.73310924
REMARK minimizedRMSD -1
REMARK  0 active torsions:
REMARK  status: ('A' for Active; 'I' for Inactive)
ROOT
ATOM      1  C   UNL d   1      -2.692  -5.999  -2.557  0.00  0.00     0.078 C 
ATOM      2  C1  UNL d   1      -1.551  -6.000  -3.531  0.00  0.00    -0.077 A 
ATOM      3  C2  UNL d   1      -0.224  -5.988  -3.086  0.00  0.00    -0.001 A 
ATOM      4  C3  UNL d   1       0.828  -5.979  -4.004  0.00  0.00     0.003 A 
ATOM      5  C4  UNL d   1       0.563  -5.981  -5.372  0.00  0.00    -0.005 A 
ATOM      6  C5  UNL d   1      -0.755  -5.990  -5.824  0.00  0.00     0.003 A 
ATOM      7  C6  UNL d   1      -1.808  -5.999  -4.908  0.00  0.00    -0.001 A 
ENDROOT
TORSDOF 0
ENDMDL
