MODEL 1
REMARK minimizedAffinity 1.72528267
REMARK minimizedRMSD -1
REMARK  0 active torsions:
REMARK  status: ('A' for Active; 'I' for Inactive)
ROOT
ATOM      1  C   UNL d   1       1.965   3.703   0.033  0.00  0.00     0.078 C 
ATOM      2  C1  UNL d   1       3.375   3.393  -0.372  0.00  0.00    -0.077 A 
ATOM      3  C2  UNL d   1       4.394   4.341  -0.217  0.00  0.00    -0.001 A 
ATOM      4  C3  UNL d   1       5.701   4.043  -0.608  0.00  0.00     0.003 A 
ATOM      5  C4  UNL d   1       6.000   2.797  -1.157  0.00  0.00    -0.005 A 
ATOM      6  C5  UNL d   1       4.992   1.849  -1.317  0.00  0.00     0.003 A 
ATOM      7  C6  UNL d   1       3.685   2.145  -0.927  0.00  0.00    -0.001 A 
ENDROOT
TORSDOF 0
ENDMDL
