MODEL 1
REMARK minimizedAffinity 0.561817467
REMARK minimizedRMSD -1
REMARK  0 active torsions:
REMARK  status: ('A' for Active; 'I' for Inactive)
ROOT
ATOM      1  C   UNL d   1      -2.069  -5.889  -5.059  0.00  0.00     0.078 C 
ATOM      2  C1  UNL d   1      -0.579  -5.847  -4.895  0.00  0.00    -0.077 A 
ATOM      3  C2  UNL d   1       0.263  -5.670  -6.000  0.00  0.00    -0.001 A 
ATOM      4  C3  UNL d   1       1.649  -5.643  -5.834  0.00  0.00     0.003 A 
ATOM      5  C4  UNL d   1       2.204  -5.793  -4.565  0.00  0.00    -0.005 A 
ATOM      6  C5  UNL d   1       1.374  -5.972  -3.460  0.00  0.00     0.003 A 
ATOM      7  C6  UNL d   1      -0.011  -5.999  -3.624  0.00  0.00    -0.001 A 
ENDROOT
TORSDOF 0
ENDMDL
