MODEL 1
REMARK minimizedAffinity -2.4717505
REMARK minimizedRMSD -1
REMARK  0 active torsions:
REMARK  status: ('A' for Active; 'I' for Inactive)
ROOT
ATOM      1  C   UNL d   1      -2.588  -5.995  -2.918  0.00  0.00     0.078 C 
ATOM      2  C1  UNL d   1      -1.383  -5.895  -3.804  0.00  0.00    -0.077 A 
ATOM      3  C2  UNL d   1      -1.517  -5.710  -5.185  0.00  0.00    -0.001 A 
ATOM      4  C3  UNL d   1      -0.386  -5.628  -6.000  0.00  0.00     0.003 A 
ATOM      5  C4  UNL d   1       0.887  -5.732  -5.442  0.00  0.00    -0.005 A 
ATOM      6  C5  UNL d   1       1.030  -5.918  -4.069  0.00  0.00     0.003 A 
ATOM      7  C6  UNL d   1      -0.099  -6.000  -3.253  0.00  0.00    -0.001 A 
ENDROOT
TORSDOF 0
ENDMDL
