MODEL 1
REMARK minimizedAffinity 1.9240787
REMARK minimizedRMSD -1
REMARK  0 active torsions:
REMARK  status: ('A' for Active; 'I' for Inactive)
ROOT
ATOM      1  C   UNL d   1       1.215  -2.215   4.546  0.00  0.00     0.078 C 
ATOM      2  C1  UNL d   1       1.609  -1.423   3.336  0.00  0.00    -0.077 A 
ATOM      3  C2  UNL d   1       0.825  -1.441   2.176  0.00  0.00    -0.001 A 
ATOM      4  C3  UNL d   1       1.209  -0.706   1.053  0.00  0.00     0.003 A 
ATOM      5  C4  UNL d   1       2.379   0.051   1.078  0.00  0.00    -0.005 A 
ATOM      6  C5  UNL d   1       3.167   0.073   2.227  0.00  0.00     0.003 A 
ATOM      7  C6  UNL d   1       2.784  -0.661   3.351  0.00  0.00    -0.001 A 
ENDROOT
TORSDOF 0
ENDMDL
