MODEL 1
REMARK minimizedAffinity -3.26428771
REMARK minimizedRMSD -1
REMARK  0 active torsions:
REMARK  status: ('A' for Active; 'I' for Inactive)
ROOT
ATOM      1  C   UNL d   1       1.406  -5.999  -4.955  0.00  0.00     0.078 C 
ATOM      2  C1  UNL d   1      -0.013  -5.992  -4.469  0.00  0.00    -0.077 A 
ATOM      3  C2  UNL d   1      -0.306  -5.993  -3.099  0.00  0.00    -0.001 A 
ATOM      4  C3  UNL d   1      -1.631  -5.995  -2.661  0.00  0.00     0.003 A 
ATOM      5  C4  UNL d   1      -2.673  -5.998  -3.585  0.00  0.00    -0.005 A 
ATOM      6  C5  UNL d   1      -2.392  -5.999  -4.950  0.00  0.00     0.003 A 
ATOM      7  C6  UNL d   1      -1.067  -5.997  -5.390  0.00  0.00    -0.001 A 
ENDROOT
TORSDOF 0
ENDMDL
