MODEL 1
REMARK minimizedAffinity 0.336907148
REMARK minimizedRMSD -1
REMARK  0 active torsions:
REMARK  status: ('A' for Active; 'I' for Inactive)
ROOT
ATOM      1  C   UNL d   1      -2.737  -4.368   2.302  0.00  0.00     0.078 C 
ATOM      2  C1  UNL d   1      -3.750  -4.941   1.357  0.00  0.00    -0.077 A 
ATOM      3  C2  UNL d   1      -3.523  -4.948  -0.025  0.00  0.00    -0.001 A 
ATOM      4  C3  UNL d   1      -4.479  -5.476  -0.894  0.00  0.00     0.003 A 
ATOM      5  C4  UNL d   1      -5.669  -6.000  -0.392  0.00  0.00    -0.005 A 
ATOM      6  C5  UNL d   1      -5.904  -5.995   0.982  0.00  0.00     0.003 A 
ATOM      7  C6  UNL d   1      -4.949  -5.467   1.852  0.00  0.00    -0.001 A 
ENDROOT
TORSDOF 0
ENDMDL
