MODEL 1
REMARK minimizedAffinity -2.53275728
REMARK minimizedRMSD -1
REMARK  0 active torsions:
REMARK  status: ('A' for Active; 'I' for Inactive)
ROOT
ATOM      1  C   UNL d   1       0.045  -5.904  -5.975  0.00  0.00     0.078 C 
ATOM      2  C1  UNL d   1      -0.853  -5.944  -4.775  0.00  0.00    -0.077 A 
ATOM      3  C2  UNL d   1      -2.246  -5.941  -4.915  0.00  0.00    -0.001 A 
ATOM      4  C3  UNL d   1      -3.070  -5.968  -3.789  0.00  0.00     0.003 A 
ATOM      5  C4  UNL d   1      -2.509  -5.998  -2.513  0.00  0.00    -0.005 A 
ATOM      6  C5  UNL d   1      -1.124  -6.000  -2.363  0.00  0.00     0.003 A 
ATOM      7  C6  UNL d   1      -0.299  -5.972  -3.489  0.00  0.00    -0.001 A 
ENDROOT
TORSDOF 0
ENDMDL
