MODEL 1
REMARK minimizedAffinity -1.49108779
REMARK minimizedRMSD -1
REMARK  0 active torsions:
REMARK  status: ('A' for Active; 'I' for Inactive)
ROOT
ATOM      1  C   UNL d   1      -3.304  -5.986  -2.225  0.00  0.00     0.078 C 
ATOM      2  C1  UNL d   1      -2.104  -5.984  -3.124  0.00  0.00    -0.077 A 
ATOM      3  C2  UNL d   1      -2.245  -5.990  -4.517  0.00  0.00    -0.001 A 
ATOM      4  C3  UNL d   1      -1.119  -5.997  -5.341  0.00  0.00     0.003 A 
ATOM      5  C4  UNL d   1       0.157  -5.999  -4.782  0.00  0.00    -0.005 A 
ATOM      6  C5  UNL d   1       0.308  -5.995  -3.397  0.00  0.00     0.003 A 
ATOM      7  C6  UNL d   1      -0.817  -5.988  -2.571  0.00  0.00    -0.001 A 
ENDROOT
TORSDOF 0
ENDMDL
