MODEL 1
REMARK minimizedAffinity -2.18695903
REMARK minimizedRMSD -1
REMARK  0 active torsions:
REMARK  status: ('A' for Active; 'I' for Inactive)
ROOT
ATOM      1  C   UNL d   1       1.445  -5.769  -5.922  0.00  0.00     0.078 C 
ATOM      2  C1  UNL d   1       0.229  -5.856  -5.050  0.00  0.00    -0.077 A 
ATOM      3  C2  UNL d   1      -1.056  -5.896  -5.605  0.00  0.00    -0.001 A 
ATOM      4  C3  UNL d   1      -2.179  -5.967  -4.780  0.00  0.00     0.003 A 
ATOM      5  C4  UNL d   1      -2.030  -5.997  -3.395  0.00  0.00    -0.005 A 
ATOM      6  C5  UNL d   1      -0.755  -5.956  -2.833  0.00  0.00     0.003 A 
ATOM      7  C6  UNL d   1       0.370  -5.885  -3.656  0.00  0.00    -0.001 A 
ENDROOT
TORSDOF 0
ENDMDL
