MODEL 1
REMARK minimizedAffinity -1.13238859
REMARK minimizedRMSD -1
REMARK  0 active torsions:
REMARK  status: ('A' for Active; 'I' for Inactive)
ROOT
ATOM      1  C   UNL d   1      -5.347  -0.770   1.260  0.00  0.00     0.078 C 
ATOM      2  C1  UNL d   1      -5.030  -0.014   0.004  0.00  0.00    -0.077 A 
ATOM      3  C2  UNL d   1      -4.077   1.012   0.001  0.00  0.00    -0.001 A 
ATOM      4  C3  UNL d   1      -3.799   1.713  -1.173  0.00  0.00     0.003 A 
ATOM      5  C4  UNL d   1      -4.469   1.396  -2.353  0.00  0.00    -0.005 A 
ATOM      6  C5  UNL d   1      -5.420   0.378  -2.359  0.00  0.00     0.003 A 
ATOM      7  C6  UNL d   1      -5.700  -0.324  -1.186  0.00  0.00    -0.001 A 
ENDROOT
TORSDOF 0
ENDMDL
