MODEL 1
REMARK minimizedAffinity -4.80319834
REMARK minimizedRMSD -1
REMARK  2 active torsions:
REMARK  status: ('A' for Active; 'I' for Inactive)
REMARK    1  A    between atoms: C2'_3  and  C1'_4 
REMARK    2  A    between atoms: C1'_4  and  C1_5 
ROOT
ATOM      1  C1  I4B d   1      -0.240   0.138   0.076  0.00  0.00    -0.075 A 
ATOM      2  C2  I4B d   1      -0.131  -1.223   0.218  0.00  0.00     0.003 A 
ATOM      3  C3  I4B d   1       1.043  -1.892  -0.207  0.00  0.00     0.002 A 
ATOM      4  C4  I4B d   1       2.054  -1.173  -0.810  0.00  0.00    -0.004 A 
ATOM      5  C5  I4B d   1       1.952   0.209  -0.933  0.00  0.00     0.002 A 
ATOM      6  C6  I4B d   1       0.803   0.871  -0.475  0.00  0.00     0.003 A 
ENDROOT
BRANCH   1   7
ATOM      7  C1' I4B d   1      -1.506   0.808   0.506  0.00  0.00     0.060 C 
BRANCH   7   8
ATOM      8  C2' I4B d   1      -1.636   0.643   2.006  0.00  0.00    -0.013 C 
ATOM      9  C4' I4B d   1      -1.499   1.966   2.714  0.00  0.00     0.013 C 
ATOM     10  C3' I4B d   1      -2.967   0.012   2.289  0.00  0.00     0.013 C 
ENDBRANCH   7   8
ENDBRANCH   1   7
TORSDOF 2
ENDMDL
