MODEL 1
REMARK minimizedAffinity -4.97163486
REMARK minimizedRMSD -1
REMARK  2 active torsions:
REMARK  status: ('A' for Active; 'I' for Inactive)
REMARK    1  A    between atoms: C2'_3  and  C1'_4 
REMARK    2  A    between atoms: C1'_4  and  C1_5 
ROOT
ATOM      1  C1  I4B d   1       1.466   0.405  -1.139  0.00  0.00    -0.075 A 
ATOM      2  C2  I4B d   1       1.184   1.518  -1.891  0.00  0.00     0.003 A 
ATOM      3  C3  I4B d   1       1.988   1.847  -3.009  0.00  0.00     0.002 A 
ATOM      4  C4  I4B d   1       3.089   1.069  -3.306  0.00  0.00    -0.004 A 
ATOM      5  C5  I4B d   1       3.360  -0.072  -2.557  0.00  0.00     0.002 A 
ATOM      6  C6  I4B d   1       2.537  -0.414  -1.474  0.00  0.00     0.003 A 
ENDROOT
BRANCH   1   7
ATOM      7  C1' I4B d   1       0.615   0.106   0.054  0.00  0.00     0.060 C 
BRANCH   7   8
ATOM      8  C2' I4B d   1      -0.701  -0.459  -0.441  0.00  0.00    -0.013 C 
ATOM      9  C4' I4B d   1      -0.876  -1.891  -0.011  0.00  0.00     0.013 C 
ATOM     10  C3' I4B d   1      -1.805   0.406   0.091  0.00  0.00     0.013 C 
ENDBRANCH   7   8
ENDBRANCH   1   7
TORSDOF 2
ENDMDL
