MODEL 1
REMARK minimizedAffinity -5.23490381
REMARK minimizedRMSD -1
REMARK  2 active torsions:
REMARK  status: ('A' for Active; 'I' for Inactive)
REMARK    1  A    between atoms: C2'_3  and  C1'_4 
REMARK    2  A    between atoms: C1'_4  and  C1_5 
ROOT
ATOM      1  C1  I4B d   1       1.341  -0.000  -0.438  0.00  0.00    -0.075 A 
ATOM      2  C2  I4B d   1       1.800  -1.126  -1.075  0.00  0.00     0.003 A 
ATOM      3  C3  I4B d   1       2.281  -1.046  -2.405  0.00  0.00     0.002 A 
ATOM      4  C4  I4B d   1       2.237   0.162  -3.072  0.00  0.00    -0.004 A 
ATOM      5  C5  I4B d   1       1.793   1.306  -2.416  0.00  0.00     0.002 A 
ATOM      6  C6  I4B d   1       1.353   1.228  -1.087  0.00  0.00     0.003 A 
ENDROOT
BRANCH   1   7
ATOM      7  C1' I4B d   1       0.809  -0.127   0.955  0.00  0.00     0.060 C 
BRANCH   7   8
ATOM      8  C2' I4B d   1      -0.508   0.618   1.021  0.00  0.00    -0.013 C 
ATOM      9  C4' I4B d   1      -1.610  -0.162   0.353  0.00  0.00     0.013 C 
ATOM     10  C3' I4B d   1      -0.824   0.873   2.465  0.00  0.00     0.013 C 
ENDBRANCH   7   8
ENDBRANCH   1   7
TORSDOF 2
ENDMDL
