MODEL 1
REMARK minimizedAffinity -2.63950968
REMARK minimizedRMSD -1
REMARK  2 active torsions:
REMARK  status: ('A' for Active; 'I' for Inactive)
REMARK    1  A    between atoms: C2'_3  and  C1'_4 
REMARK    2  A    between atoms: C1'_4  and  C1_5 
ROOT
ATOM      1  C1  I4B d   1      -1.927   1.127   1.887  0.00  0.00    -0.075 A 
ATOM      2  C2  I4B d   1      -1.699   0.355   3.000  0.00  0.00     0.003 A 
ATOM      3  C3  I4B d   1      -1.830   0.915   4.294  0.00  0.00     0.002 A 
ATOM      4  C4  I4B d   1      -2.139   2.253   4.428  0.00  0.00    -0.004 A 
ATOM      5  C5  I4B d   1      -2.393   3.027   3.300  0.00  0.00     0.002 A 
ATOM      6  C6  I4B d   1      -2.298   2.458   2.021  0.00  0.00     0.003 A 
ENDROOT
BRANCH   1   7
ATOM      7  C1' I4B d   1      -1.747   0.513   0.535  0.00  0.00     0.060 C 
BRANCH   7   8
ATOM      8  C2' I4B d   1      -0.317   0.755   0.099  0.00  0.00    -0.013 C 
ATOM      9  C4' I4B d   1       0.376  -0.538  -0.242  0.00  0.00     0.013 C 
ATOM     10  C3' I4B d   1      -0.343   1.682  -1.080  0.00  0.00     0.013 C 
ENDBRANCH   7   8
ENDBRANCH   1   7
TORSDOF 2
ENDMDL
