MODEL 1
REMARK minimizedAffinity -5.49969769
REMARK minimizedRMSD -1
REMARK  2 active torsions:
REMARK  status: ('A' for Active; 'I' for Inactive)
REMARK    1  A    between atoms: C2'_3  and  C1'_4 
REMARK    2  A    between atoms: C1'_4  and  C1_5 
ROOT
ATOM      1  C1  I4B d   1      -0.335   0.175  -0.063  0.00  0.00    -0.075 A 
ATOM      2  C2  I4B d   1      -0.362  -1.197  -0.087  0.00  0.00     0.003 A 
ATOM      3  C3  I4B d   1       0.772  -1.925  -0.523  0.00  0.00     0.002 A 
ATOM      4  C4  I4B d   1       1.886  -1.245  -0.971  0.00  0.00    -0.004 A 
ATOM      5  C5  I4B d   1       1.920   0.146  -0.924  0.00  0.00     0.002 A 
ATOM      6  C6  I4B d   1       0.808   0.860  -0.456  0.00  0.00     0.003 A 
ENDROOT
BRANCH   1   7
ATOM      7  C1' I4B d   1      -1.561   0.913   0.372  0.00  0.00     0.060 C 
BRANCH   7   8
ATOM      8  C2' I4B d   1      -1.805   0.593   1.832  0.00  0.00    -0.013 C 
ATOM      9  C4' I4B d   1      -1.363   1.726   2.720  0.00  0.00     0.013 C 
ATOM     10  C3' I4B d   1      -3.267   0.308   2.006  0.00  0.00     0.013 C 
ENDBRANCH   7   8
ENDBRANCH   1   7
TORSDOF 2
ENDMDL
