MODEL 1
REMARK minimizedAffinity -5.22340775
REMARK minimizedRMSD -1
REMARK  2 active torsions:
REMARK  status: ('A' for Active; 'I' for Inactive)
REMARK    1  A    between atoms: C2'_3  and  C1'_4 
REMARK    2  A    between atoms: C1'_4  and  C1_5 
ROOT
ATOM      1  C1  I4B d   1      -0.575   0.567   0.050  0.00  0.00    -0.075 A 
ATOM      2  C2  I4B d   1       0.066   1.406  -0.827  0.00  0.00     0.003 A 
ATOM      3  C3  I4B d   1       1.284   1.011  -1.430  0.00  0.00     0.002 A 
ATOM      4  C4  I4B d   1       1.848  -0.202  -1.092  0.00  0.00    -0.004 A 
ATOM      5  C5  I4B d   1       1.186  -1.061  -0.220  0.00  0.00     0.002 A 
ATOM      6  C6  I4B d   1      -0.040  -0.680   0.345  0.00  0.00     0.003 A 
ENDROOT
BRANCH   1   7
ATOM      7  C1' I4B d   1      -1.844   1.029   0.693  0.00  0.00     0.060 C 
BRANCH   7   8
ATOM      8  C2' I4B d   1      -1.807   0.613   2.150  0.00  0.00    -0.013 C 
ATOM      9  C4' I4B d   1      -1.489   1.783   3.043  0.00  0.00     0.013 C 
ATOM     10  C3' I4B d   1      -3.138   0.015   2.494  0.00  0.00     0.013 C 
ENDBRANCH   7   8
ENDBRANCH   1   7
TORSDOF 2
ENDMDL
