MODEL 1
REMARK minimizedAffinity -5.32773542
REMARK minimizedRMSD -1
REMARK  2 active torsions:
REMARK  status: ('A' for Active; 'I' for Inactive)
REMARK    1  A    between atoms: C2'_3  and  C1'_4 
REMARK    2  A    between atoms: C1'_4  and  C1_5 
ROOT
ATOM      1  C1  I4B d   1       1.051  -0.068  -0.591  0.00  0.00    -0.075 A 
ATOM      2  C2  I4B d   1       2.173  -0.825  -0.824  0.00  0.00     0.003 A 
ATOM      3  C3  I4B d   1       3.083  -0.455  -1.844  0.00  0.00     0.002 A 
ATOM      4  C4  I4B d   1       2.809   0.642  -2.634  0.00  0.00    -0.004 A 
ATOM      5  C5  I4B d   1       1.684   1.422  -2.381  0.00  0.00     0.002 A 
ATOM      6  C6  I4B d   1       0.805   1.072  -1.346  0.00  0.00     0.003 A 
ENDROOT
BRANCH   1   7
ATOM      7  C1' I4B d   1       0.094  -0.506   0.472  0.00  0.00     0.060 C 
BRANCH   7   8
ATOM      8  C2' I4B d   1      -0.920   0.601   0.671  0.00  0.00    -0.013 C 
ATOM      9  C4' I4B d   1      -2.191   0.320  -0.087  0.00  0.00     0.013 C 
ATOM     10  C3' I4B d   1      -1.184   0.727   2.142  0.00  0.00     0.013 C 
ENDBRANCH   7   8
ENDBRANCH   1   7
TORSDOF 2
ENDMDL
