MODEL 1
REMARK minimizedAffinity -3.63819885
REMARK minimizedRMSD -1
REMARK  2 active torsions:
REMARK  status: ('A' for Active; 'I' for Inactive)
REMARK    1  A    between atoms: C2'_3  and  C1'_4 
REMARK    2  A    between atoms: C1'_4  and  C1_5 
ROOT
ATOM      1  C1  I4B d   1      -0.470  -0.314   0.170  0.00  0.00    -0.075 A 
ATOM      2  C2  I4B d   1       0.493   0.151  -0.690  0.00  0.00     0.003 A 
ATOM      3  C3  I4B d   1       1.627  -0.643  -0.988  0.00  0.00     0.002 A 
ATOM      4  C4  I4B d   1       1.782  -1.865  -0.367  0.00  0.00    -0.004 A 
ATOM      5  C5  I4B d   1       0.793  -2.345   0.487  0.00  0.00     0.002 A 
ATOM      6  C6  I4B d   1      -0.346  -1.570   0.748  0.00  0.00     0.003 A 
ENDROOT
BRANCH   1   7
ATOM      7  C1' I4B d   1      -1.639   0.565   0.487  0.00  0.00     0.060 C 
BRANCH   7   8
ATOM      8  C2' I4B d   1      -1.955   0.407   1.960  0.00  0.00    -0.013 C 
ATOM      9  C4' I4B d   1      -1.737   1.698   2.706  0.00  0.00     0.013 C 
ATOM     10  C3' I4B d   1      -3.376  -0.055   2.082  0.00  0.00     0.013 C 
ENDBRANCH   7   8
ENDBRANCH   1   7
TORSDOF 2
ENDMDL
