MODEL 1
REMARK minimizedAffinity -5.61807203
REMARK minimizedRMSD -1
REMARK  2 active torsions:
REMARK  status: ('A' for Active; 'I' for Inactive)
REMARK    1  A    between atoms: C2'_3  and  C1'_4 
REMARK    2  A    between atoms: C1'_4  and  C1_5 
ROOT
ATOM      1  C1  I4B d   1       1.265   0.161  -0.284  0.00  0.00    -0.075 A 
ATOM      2  C2  I4B d   1       2.247  -0.700  -0.706  0.00  0.00     0.003 A 
ATOM      3  C3  I4B d   1       2.966  -0.433  -1.896  0.00  0.00     0.002 A 
ATOM      4  C4  I4B d   1       2.639   0.673  -2.654  0.00  0.00    -0.004 A 
ATOM      5  C5  I4B d   1       1.659   1.557  -2.213  0.00  0.00     0.002 A 
ATOM      6  C6  I4B d   1       0.976   1.307  -1.014  0.00  0.00     0.003 A 
ENDROOT
BRANCH   1   7
ATOM      7  C1' I4B d   1       0.503  -0.169   0.960  0.00  0.00     0.060 C 
BRANCH   7   8
ATOM      8  C2' I4B d   1      -0.640   0.818   1.083  0.00  0.00    -0.013 C 
ATOM      9  C4' I4B d   1      -1.798   0.423   0.205  0.00  0.00     0.013 C 
ATOM     10  C3' I4B d   1      -1.049   0.876   2.524  0.00  0.00     0.013 C 
ENDBRANCH   7   8
ENDBRANCH   1   7
TORSDOF 2
ENDMDL
