MODEL 1
REMARK minimizedAffinity -3.46995211
REMARK minimizedRMSD -1
REMARK  2 active torsions:
REMARK  status: ('A' for Active; 'I' for Inactive)
REMARK    1  A    between atoms: C2'_3  and  C1'_4 
REMARK    2  A    between atoms: C1'_4  and  C1_5 
ROOT
ATOM      1  C1  I4B d   1      -0.172  -0.052  -0.144  0.00  0.00    -0.075 A 
ATOM      2  C2  I4B d   1       0.371  -1.260   0.216  0.00  0.00     0.003 A 
ATOM      3  C3  I4B d   1       1.626  -1.660  -0.304  0.00  0.00     0.002 A 
ATOM      4  C4  I4B d   1       2.275  -0.851  -1.213  0.00  0.00    -0.004 A 
ATOM      5  C5  I4B d   1       1.733   0.384  -1.560  0.00  0.00     0.002 A 
ATOM      6  C6  I4B d   1       0.508   0.792  -1.012  0.00  0.00     0.003 A 
ENDROOT
BRANCH   1   7
ATOM      7  C1' I4B d   1      -1.514   0.326   0.398  0.00  0.00     0.060 C 
BRANCH   7   8
ATOM      8  C2' I4B d   1      -1.381   0.497   1.898  0.00  0.00    -0.013 C 
ATOM      9  C4' I4B d   1      -1.135   1.938   2.261  0.00  0.00     0.013 C 
ATOM     10  C3' I4B d   1      -2.636  -0.016   2.536  0.00  0.00     0.013 C 
ENDBRANCH   7   8
ENDBRANCH   1   7
TORSDOF 2
ENDMDL
