MODEL 1
REMARK minimizedAffinity -6.77331591
REMARK minimizedRMSD -1
REMARK  2 active torsions:
REMARK  status: ('A' for Active; 'I' for Inactive)
REMARK    1  A    between atoms: C2'_3  and  C1'_4 
REMARK    2  A    between atoms: C1'_4  and  C1_5 
ROOT
ATOM      1  C1  I4B d   1       0.843  -0.124  -0.511  0.00  0.00    -0.075 A 
ATOM      2  C2  I4B d   1       1.801  -1.106  -0.572  0.00  0.00     0.003 A 
ATOM      3  C3  I4B d   1       2.992  -0.894  -1.307  0.00  0.00     0.002 A 
ATOM      4  C4  I4B d   1       3.161   0.285  -2.003  0.00  0.00    -0.004 A 
ATOM      5  C5  I4B d   1       2.199   1.288  -1.922  0.00  0.00     0.002 A 
ATOM      6  C6  I4B d   1       1.038   1.087  -1.162  0.00  0.00     0.003 A 
ENDROOT
BRANCH   1   7
ATOM      7  C1' I4B d   1      -0.418  -0.394   0.247  0.00  0.00     0.060 C 
BRANCH   7   8
ATOM      8  C2' I4B d   1      -1.134   0.927   0.446  0.00  0.00    -0.013 C 
ATOM      9  C4' I4B d   1      -2.021   1.248  -0.728  0.00  0.00     0.013 C 
ATOM     10  C3' I4B d   1      -1.928   0.837   1.715  0.00  0.00     0.013 C 
ENDBRANCH   7   8
ENDBRANCH   1   7
TORSDOF 2
ENDMDL
