MODEL 1
REMARK minimizedAffinity -5.7409997
REMARK minimizedRMSD -1
REMARK  2 active torsions:
REMARK  status: ('A' for Active; 'I' for Inactive)
REMARK    1  A    between atoms: C2'_3  and  C1'_4 
REMARK    2  A    between atoms: C1'_4  and  C1_5 
ROOT
ATOM      1  C1  I4B d   1      -0.227   0.521  -0.456  0.00  0.00    -0.075 A 
ATOM      2  C2  I4B d   1       0.503   1.459  -1.143  0.00  0.00     0.003 A 
ATOM      3  C3  I4B d   1       1.735   1.104  -1.742  0.00  0.00     0.002 A 
ATOM      4  C4  I4B d   1       2.222  -0.178  -1.589  0.00  0.00    -0.004 A 
ATOM      5  C5  I4B d   1       1.469  -1.134  -0.912  0.00  0.00     0.002 A 
ATOM      6  C6  I4B d   1       0.231  -0.786  -0.353  0.00  0.00     0.003 A 
ENDROOT
BRANCH   1   7
ATOM      7  C1' I4B d   1      -1.509   0.938   0.192  0.00  0.00     0.060 C 
BRANCH   7   8
ATOM      8  C2' I4B d   1      -1.377   0.699   1.683  0.00  0.00    -0.013 C 
ATOM      9  C4' I4B d   1      -1.491   1.988   2.453  0.00  0.00     0.013 C 
ATOM     10  C3' I4B d   1      -2.443  -0.272   2.092  0.00  0.00     0.013 C 
ENDBRANCH   7   8
ENDBRANCH   1   7
TORSDOF 2
ENDMDL
