MODEL 1
REMARK minimizedAffinity -5.59795284
REMARK minimizedRMSD -1
REMARK  2 active torsions:
REMARK  status: ('A' for Active; 'I' for Inactive)
REMARK    1  A    between atoms: C2'_3  and  C1'_4 
REMARK    2  A    between atoms: C1'_4  and  C1_5 
ROOT
ATOM      1  C1  I4B d   1      -0.174  -0.131   0.124  0.00  0.00    -0.075 A 
ATOM      2  C2  I4B d   1      -0.174  -1.490   0.313  0.00  0.00     0.003 A 
ATOM      3  C3  I4B d   1       0.967  -2.257  -0.027  0.00  0.00     0.002 A 
ATOM      4  C4  I4B d   1       2.060  -1.634  -0.596  0.00  0.00    -0.004 A 
ATOM      5  C5  I4B d   1       2.066  -0.253  -0.765  0.00  0.00     0.002 A 
ATOM      6  C6  I4B d   1       0.947   0.506  -0.392  0.00  0.00     0.003 A 
ENDROOT
BRANCH   1   7
ATOM      7  C1' I4B d   1      -1.408   0.644   0.463  0.00  0.00     0.060 C 
BRANCH   7   8
ATOM      8  C2' I4B d   1      -1.715   0.414   1.929  0.00  0.00    -0.013 C 
ATOM      9  C4' I4B d   1      -1.469   1.660   2.739  0.00  0.00     0.013 C 
ATOM     10  C3' I4B d   1      -3.143  -0.030   2.039  0.00  0.00     0.013 C 
ENDBRANCH   7   8
ENDBRANCH   1   7
TORSDOF 2
ENDMDL
