MODEL 1
REMARK minimizedAffinity -5.56532574
REMARK minimizedRMSD -1
REMARK  2 active torsions:
REMARK  status: ('A' for Active; 'I' for Inactive)
REMARK    1  A    between atoms: C2'_3  and  C1'_4 
REMARK    2  A    between atoms: C1'_4  and  C1_5 
ROOT
ATOM      1  C1  I4B d   1      -0.229  -0.113   0.175  0.00  0.00    -0.075 A 
ATOM      2  C2  I4B d   1       0.268   0.971  -0.504  0.00  0.00     0.003 A 
ATOM      3  C3  I4B d   1       1.475   0.860  -1.238  0.00  0.00     0.002 A 
ATOM      4  C4  I4B d   1       2.172  -0.331  -1.223  0.00  0.00    -0.004 A 
ATOM      5  C5  I4B d   1       1.654  -1.435  -0.553  0.00  0.00     0.002 A 
ATOM      6  C6  I4B d   1       0.439  -1.329   0.141  0.00  0.00     0.003 A 
ENDROOT
BRANCH   1   7
ATOM      7  C1' I4B d   1      -1.488   0.049   0.966  0.00  0.00     0.060 C 
BRANCH   7   8
ATOM      8  C2' I4B d   1      -1.117   0.601   2.328  0.00  0.00    -0.013 C 
ATOM      9  C4' I4B d   1      -1.752   1.946   2.563  0.00  0.00     0.013 C 
ATOM     10  C3' I4B d   1      -1.551  -0.392   3.364  0.00  0.00     0.013 C 
ENDBRANCH   7   8
ENDBRANCH   1   7
TORSDOF 2
ENDMDL
