MODEL 1
REMARK minimizedAffinity -3.50916958
REMARK minimizedRMSD -1
REMARK  2 active torsions:
REMARK  status: ('A' for Active; 'I' for Inactive)
REMARK    1  A    between atoms: C2'_3  and  C1'_4 
REMARK    2  A    between atoms: C1'_4  and  C1_5 
ROOT
ATOM      1  C1  I4B d   1       1.567   1.039  -1.869  0.00  0.00    -0.075 A 
ATOM      2  C2  I4B d   1       0.532   0.850  -0.988  0.00  0.00     0.003 A 
ATOM      3  C3  I4B d   1       0.359  -0.402  -0.349  0.00  0.00     0.002 A 
ATOM      4  C4  I4B d   1       1.209  -1.445  -0.657  0.00  0.00    -0.004 A 
ATOM      5  C5  I4B d   1       2.272  -1.244  -1.532  0.00  0.00     0.002 A 
ATOM      6  C6  I4B d   1       2.460   0.009  -2.133  0.00  0.00     0.003 A 
ENDROOT
BRANCH   1   7
ATOM      7  C1' I4B d   1       1.701   2.364  -2.551  0.00  0.00     0.060 C 
BRANCH   7   8
ATOM      8  C2' I4B d   1       1.095   3.417  -1.646  0.00  0.00    -0.013 C 
ATOM      9  C4' I4B d   1       1.858   4.713  -1.731  0.00  0.00     0.013 C 
ATOM     10  C3' I4B d   1      -0.337   3.606  -2.048  0.00  0.00     0.013 C 
ENDBRANCH   7   8
ENDBRANCH   1   7
TORSDOF 2
ENDMDL
