MODEL 1
REMARK minimizedAffinity -4.96642876
REMARK minimizedRMSD -1
REMARK  2 active torsions:
REMARK  status: ('A' for Active; 'I' for Inactive)
REMARK    1  A    between atoms: C2'_3  and  C1'_4 
REMARK    2  A    between atoms: C1'_4  and  C1_5 
ROOT
ATOM      1  C1  I4B d   1       1.258   0.126  -0.922  0.00  0.00    -0.075 A 
ATOM      2  C2  I4B d   1       2.538  -0.361  -1.021  0.00  0.00     0.003 A 
ATOM      3  C3  I4B d   1       3.423   0.154  -1.999  0.00  0.00     0.002 A 
ATOM      4  C4  I4B d   1       2.974   1.113  -2.883  0.00  0.00    -0.004 A 
ATOM      5  C5  I4B d   1       1.684   1.622  -2.767  0.00  0.00     0.002 A 
ATOM      6  C6  I4B d   1       0.824   1.135  -1.772  0.00  0.00     0.003 A 
ENDROOT
BRANCH   1   7
ATOM      7  C1' I4B d   1       0.340  -0.464   0.101  0.00  0.00     0.060 C 
BRANCH   7   8
ATOM      8  C2' I4B d   1      -0.870   0.441   0.220  0.00  0.00    -0.013 C 
ATOM      9  C4' I4B d   1      -2.060  -0.143  -0.495  0.00  0.00     0.013 C 
ATOM     10  C3' I4B d   1      -1.158   0.639   1.678  0.00  0.00     0.013 C 
ENDBRANCH   7   8
ENDBRANCH   1   7
TORSDOF 2
ENDMDL
