MODEL 1
REMARK minimizedAffinity -1.83623636
REMARK minimizedRMSD -1
REMARK  1 active torsions:
REMARK  status: ('A' for Active; 'I' for Inactive)
REMARK    1  A    between atoms: C3_4  and  O_7 
ROOT
ATOM      1  C   UNL d   1       1.234   0.692  -1.782  0.00  0.00    -0.033 A 
ATOM      2  C1  UNL d   1       1.905   0.998  -0.597  0.00  0.00     0.039 A 
ATOM      3  C2  UNL d   1       2.017   2.325  -0.177  0.00  0.00    -0.080 A 
ATOM      4  C3  UNL d   1       1.452   3.335  -0.950  0.00  0.00     0.150 A 
ATOM      5  C4  UNL d   1       0.778   3.038  -2.130  0.00  0.00    -0.007 A 
ATOM      6  C5  UNL d   1       0.669   1.713  -2.548  0.00  0.00     0.039 A 
ENDROOT
BRANCH   4   7
ATOM      7  O   UNL d   1       1.539   4.646  -0.584  0.00  0.00    -0.526 OA
ATOM      8  H5  UNL d   1       2.057   4.702   0.236  0.00  0.00     0.418 HD
ENDBRANCH   4   7
TORSDOF 1
ENDMDL
