MODEL 1
REMARK minimizedAffinity -2.89180303
REMARK minimizedRMSD -1
REMARK  1 active torsions:
REMARK  status: ('A' for Active; 'I' for Inactive)
REMARK    1  A    between atoms: C3_4  and  O_7 
ROOT
ATOM      1  C   UNL d   1       1.330   3.708   0.320  0.00  0.00    -0.033 A 
ATOM      2  C1  UNL d   1       1.131   3.778  -1.060  0.00  0.00     0.039 A 
ATOM      3  C2  UNL d   1       1.168   2.615  -1.832  0.00  0.00    -0.080 A 
ATOM      4  C3  UNL d   1       1.405   1.391  -1.212  0.00  0.00     0.150 A 
ATOM      5  C4  UNL d   1       1.600   1.314   0.163  0.00  0.00    -0.007 A 
ATOM      6  C5  UNL d   1       1.564   2.476   0.932  0.00  0.00     0.039 A 
ENDROOT
BRANCH   4   7
ATOM      7  O   UNL d   1       1.455   0.229  -1.925  0.00  0.00    -0.526 OA
ATOM      8  H5  UNL d   1       1.331   0.440  -2.865  0.00  0.00     0.418 HD
ENDBRANCH   4   7
TORSDOF 1
ENDMDL
