MODEL 1
REMARK minimizedAffinity 1.03506756
REMARK minimizedRMSD -1
REMARK  1 active torsions:
REMARK  status: ('A' for Active; 'I' for Inactive)
REMARK    1  A    between atoms: C3_4  and  O_7 
ROOT
ATOM      1  C   UNL d   1      -1.349  -0.512   5.485  0.00  0.00    -0.033 A 
ATOM      2  C1  UNL d   1      -1.885   0.719   5.867  0.00  0.00     0.039 A 
ATOM      3  C2  UNL d   1      -2.514   1.532   4.921  0.00  0.00    -0.080 A 
ATOM      4  C3  UNL d   1      -2.601   1.101   3.600  0.00  0.00     0.150 A 
ATOM      5  C4  UNL d   1      -2.072  -0.126   3.214  0.00  0.00    -0.007 A 
ATOM      6  C5  UNL d   1      -1.444  -0.935   4.159  0.00  0.00     0.039 A 
ENDROOT
BRANCH   4   7
ATOM      7  O   UNL d   1      -3.201   1.862   2.641  0.00  0.00    -0.526 OA
ATOM      8  H5  UNL d   1      -3.494   2.695   3.047  0.00  0.00     0.418 HD
ENDBRANCH   4   7
TORSDOF 1
ENDMDL
