MODEL 1
REMARK minimizedAffinity 0.711503327
REMARK minimizedRMSD -1
REMARK  1 active torsions:
REMARK  status: ('A' for Active; 'I' for Inactive)
REMARK    1  A    between atoms: C3_4  and  O_7 
ROOT
ATOM      1  C   UNL d   1      -3.585  -4.743   4.431  0.00  0.00    -0.033 A 
ATOM      2  C1  UNL d   1      -3.381  -3.950   5.562  0.00  0.00     0.039 A 
ATOM      3  C2  UNL d   1      -2.471  -2.892   5.521  0.00  0.00    -0.080 A 
ATOM      4  C3  UNL d   1      -1.773  -2.637   4.344  0.00  0.00     0.150 A 
ATOM      5  C4  UNL d   1      -1.973  -3.421   3.212  0.00  0.00    -0.007 A 
ATOM      6  C5  UNL d   1      -2.882  -4.478   3.256  0.00  0.00     0.039 A 
ENDROOT
BRANCH   4   7
ATOM      7  O   UNL d   1      -0.871  -1.619   4.256  0.00  0.00    -0.526 OA
ATOM      8  H5  UNL d   1      -0.816  -1.181   5.122  0.00  0.00     0.418 HD
ENDBRANCH   4   7
TORSDOF 1
ENDMDL
