MODEL 1
REMARK minimizedAffinity -3.15857244
REMARK minimizedRMSD -1
REMARK  1 active torsions:
REMARK  status: ('A' for Active; 'I' for Inactive)
REMARK    1  A    between atoms: C3_4  and  O_7 
ROOT
ATOM      1  C   UNL d   1       1.227   2.291  -1.815  0.00  0.00    -0.033 A 
ATOM      2  C1  UNL d   1       1.370   3.650  -1.528  0.00  0.00     0.039 A 
ATOM      3  C2  UNL d   1       1.486   4.077  -0.204  0.00  0.00    -0.080 A 
ATOM      4  C3  UNL d   1       1.458   3.138   0.822  0.00  0.00     0.150 A 
ATOM      5  C4  UNL d   1       1.319   1.782   0.544  0.00  0.00    -0.007 A 
ATOM      6  C5  UNL d   1       1.202   1.357  -0.779  0.00  0.00     0.039 A 
ENDROOT
BRANCH   4   7
ATOM      7  O   UNL d   1       1.562   3.507   2.130  0.00  0.00    -0.526 OA
ATOM      8  H5  UNL d   1       1.624   4.476   2.172  0.00  0.00     0.418 HD
ENDBRANCH   4   7
TORSDOF 1
ENDMDL
