MODEL 1
REMARK minimizedAffinity -0.692475438
REMARK minimizedRMSD -1
REMARK  1 active torsions:
REMARK  status: ('A' for Active; 'I' for Inactive)
REMARK    1  A    between atoms: C3_4  and  O_7 
ROOT
ATOM      1  C   UNL d   1       1.595  -0.061  -2.133  0.00  0.00    -0.033 A 
ATOM      2  C1  UNL d   1       1.638   1.323  -1.954  0.00  0.00     0.039 A 
ATOM      3  C2  UNL d   1       1.410   1.874  -0.692  0.00  0.00    -0.080 A 
ATOM      4  C3  UNL d   1       1.142   1.030   0.383  0.00  0.00     0.150 A 
ATOM      5  C4  UNL d   1       1.102  -0.350   0.214  0.00  0.00    -0.007 A 
ATOM      6  C5  UNL d   1       1.328  -0.897  -1.048  0.00  0.00     0.039 A 
ENDROOT
BRANCH   4   7
ATOM      7  O   UNL d   1       0.908   1.522   1.633  0.00  0.00    -0.526 OA
ATOM      8  H5  UNL d   1       0.940   2.492   1.594  0.00  0.00     0.418 HD
ENDBRANCH   4   7
TORSDOF 1
ENDMDL
