MODEL 1
REMARK minimizedAffinity -3.39544344
REMARK minimizedRMSD -1
REMARK  1 active torsions:
REMARK  status: ('A' for Active; 'I' for Inactive)
REMARK    1  A    between atoms: C3_4  and  O_7 
ROOT
ATOM      1  C   UNL d   1       1.196   3.165  -0.455  0.00  0.00    -0.033 A 
ATOM      2  C1  UNL d   1       0.977   2.405   0.695  0.00  0.00     0.039 A 
ATOM      3  C2  UNL d   1       1.048   1.012   0.638  0.00  0.00    -0.080 A 
ATOM      4  C3  UNL d   1       1.339   0.391  -0.573  0.00  0.00     0.150 A 
ATOM      5  C4  UNL d   1       1.562   1.142  -1.723  0.00  0.00    -0.007 A 
ATOM      6  C5  UNL d   1       1.490   2.533  -1.664  0.00  0.00     0.039 A 
ENDROOT
BRANCH   4   7
ATOM      7  O   UNL d   1       1.415  -0.966  -0.679  0.00  0.00    -0.526 OA
ATOM      8  H5  UNL d   1       1.210  -1.354   0.188  0.00  0.00     0.418 HD
ENDBRANCH   4   7
TORSDOF 1
ENDMDL
