MODEL 1
REMARK minimizedAffinity -4.70951319
REMARK minimizedRMSD -1
REMARK  1 active torsions:
REMARK  status: ('A' for Active; 'I' for Inactive)
REMARK    1  A    between atoms: C3_4  and  O_7 
ROOT
ATOM      1  C   UNL d   1       1.097   0.593  -0.143  0.00  0.00    -0.033 A 
ATOM      2  C1  UNL d   1       1.247   0.936  -1.488  0.00  0.00     0.039 A 
ATOM      3  C2  UNL d   1       1.476   2.265  -1.851  0.00  0.00    -0.080 A 
ATOM      4  C3  UNL d   1       1.555   3.239  -0.860  0.00  0.00     0.150 A 
ATOM      5  C4  UNL d   1       1.411   2.905   0.482  0.00  0.00    -0.007 A 
ATOM      6  C5  UNL d   1       1.181   1.578   0.842  0.00  0.00     0.039 A 
ENDROOT
BRANCH   4   7
ATOM      7  O   UNL d   1       1.773   4.550  -1.165  0.00  0.00    -0.526 OA
ATOM      8  H5  UNL d   1       1.824   4.636  -2.132  0.00  0.00     0.418 HD
ENDBRANCH   4   7
TORSDOF 1
ENDMDL
