MODEL 1
REMARK minimizedAffinity -0.0292201396
REMARK minimizedRMSD -1
REMARK  1 active torsions:
REMARK  status: ('A' for Active; 'I' for Inactive)
REMARK    1  A    between atoms: C3_4  and  O_7 
ROOT
ATOM      1  C   UNL d   1       1.178  -1.104  -0.451  0.00  0.00    -0.033 A 
ATOM      2  C1  UNL d   1       2.047  -0.283   0.270  0.00  0.00     0.039 A 
ATOM      3  C2  UNL d   1       2.237   1.045  -0.116  0.00  0.00    -0.080 A 
ATOM      4  C3  UNL d   1       1.552   1.539  -1.223  0.00  0.00     0.150 A 
ATOM      5  C4  UNL d   1       0.681   0.728  -1.943  0.00  0.00    -0.007 A 
ATOM      6  C5  UNL d   1       0.494  -0.598  -1.556  0.00  0.00     0.039 A 
ENDROOT
BRANCH   4   7
ATOM      7  O   UNL d   1       1.709   2.827  -1.641  0.00  0.00    -0.526 OA
ATOM      8  H5  UNL d   1       2.362   3.260  -1.066  0.00  0.00     0.418 HD
ENDBRANCH   4   7
TORSDOF 1
ENDMDL
