MODEL 1
REMARK minimizedAffinity -3.43777847
REMARK minimizedRMSD -1
REMARK  1 active torsions:
REMARK  status: ('A' for Active; 'I' for Inactive)
REMARK    1  A    between atoms: C3_4  and  O_7 
ROOT
ATOM      1  C   UNL d   1      -0.904   1.772   4.376  0.00  0.00    -0.033 A 
ATOM      2  C1  UNL d   1      -1.318   1.941   3.054  0.00  0.00     0.039 A 
ATOM      3  C2  UNL d   1      -2.679   2.023   2.752  0.00  0.00    -0.080 A 
ATOM      4  C3  UNL d   1      -3.613   1.937   3.780  0.00  0.00     0.150 A 
ATOM      5  C4  UNL d   1      -3.207   1.772   5.100  0.00  0.00    -0.007 A 
ATOM      6  C5  UNL d   1      -1.848   1.689   5.400  0.00  0.00     0.039 A 
ENDROOT
BRANCH   4   7
ATOM      7  O   UNL d   1      -4.952   2.007   3.534  0.00  0.00    -0.526 OA
ATOM      8  H5  UNL d   1      -5.085   2.092   2.575  0.00  0.00     0.418 HD
ENDBRANCH   4   7
TORSDOF 1
ENDMDL
