MODEL 1
REMARK minimizedAffinity -4.93141699
REMARK minimizedRMSD -1
REMARK  1 active torsions:
REMARK  status: ('A' for Active; 'I' for Inactive)
REMARK    1  A    between atoms: C3_4  and  O_7 
ROOT
ATOM      1  C   UNL d   1       0.762   0.660  -0.382  0.00  0.00    -0.033 A 
ATOM      2  C1  UNL d   1       1.060   1.039  -1.693  0.00  0.00     0.039 A 
ATOM      3  C2  UNL d   1       1.402   2.362  -1.979  0.00  0.00    -0.080 A 
ATOM      4  C3  UNL d   1       1.444   3.295  -0.947  0.00  0.00     0.150 A 
ATOM      5  C4  UNL d   1       1.153   2.924   0.362  0.00  0.00    -0.007 A 
ATOM      6  C5  UNL d   1       0.810   1.603   0.646  0.00  0.00     0.039 A 
ENDROOT
BRANCH   4   7
ATOM      7  O   UNL d   1       1.768   4.599  -1.178  0.00  0.00    -0.526 OA
ATOM      8  H5  UNL d   1       1.916   4.715  -2.131  0.00  0.00     0.418 HD
ENDBRANCH   4   7
TORSDOF 1
ENDMDL
