MODEL 1
REMARK minimizedAffinity -0.64947921
REMARK minimizedRMSD -1
REMARK  1 active torsions:
REMARK  status: ('A' for Active; 'I' for Inactive)
REMARK    1  A    between atoms: C3_4  and  O_7 
ROOT
ATOM      1  C   UNL d   1      -4.354   2.529   3.975  0.00  0.00    -0.033 A 
ATOM      2  C1  UNL d   1      -5.605   1.964   4.232  0.00  0.00     0.039 A 
ATOM      3  C2  UNL d   1      -5.883   0.661   3.815  0.00  0.00    -0.080 A 
ATOM      4  C3  UNL d   1      -4.904  -0.066   3.145  0.00  0.00     0.150 A 
ATOM      5  C4  UNL d   1      -3.654   0.489   2.889  0.00  0.00    -0.007 A 
ATOM      6  C5  UNL d   1      -3.378   1.791   3.305  0.00  0.00     0.039 A 
ENDROOT
BRANCH   4   7
ATOM      7  O   UNL d   1      -5.131  -1.340   2.714  0.00  0.00    -0.526 OA
ATOM      8  H5  UNL d   1      -6.046  -1.581   2.935  0.00  0.00     0.418 HD
ENDBRANCH   4   7
TORSDOF 1
ENDMDL
