MODEL 1
REMARK minimizedAffinity -3.21212101
REMARK minimizedRMSD -1
REMARK  1 active torsions:
REMARK  status: ('A' for Active; 'I' for Inactive)
REMARK    1  A    between atoms: C3_4  and  O_7 
ROOT
ATOM      1  C   UNL d   1       1.078   0.986   0.161  0.00  0.00    -0.033 A 
ATOM      2  C1  UNL d   1       1.177   1.976   1.141  0.00  0.00     0.039 A 
ATOM      3  C2  UNL d   1       1.352   3.311   0.772  0.00  0.00    -0.080 A 
ATOM      4  C3  UNL d   1       1.426   3.643  -0.579  0.00  0.00     0.150 A 
ATOM      5  C4  UNL d   1       1.324   2.662  -1.560  0.00  0.00    -0.007 A 
ATOM      6  C5  UNL d   1       1.150   1.329  -1.189  0.00  0.00     0.039 A 
ENDROOT
BRANCH   4   7
ATOM      7  O   UNL d   1       1.601   4.931  -0.987  0.00  0.00    -0.526 OA
ATOM      8  H5  UNL d   1       1.683   5.495  -0.200  0.00  0.00     0.418 HD
ENDBRANCH   4   7
TORSDOF 1
ENDMDL
