MODEL 1
REMARK minimizedAffinity -1.18310177
REMARK minimizedRMSD -1
REMARK  1 active torsions:
REMARK  status: ('A' for Active; 'I' for Inactive)
REMARK    1  A    between atoms: C3_4  and  O_7 
ROOT
ATOM      1  C   UNL d   1       0.730   0.378  -0.791  0.00  0.00    -0.033 A 
ATOM      2  C1  UNL d   1       1.130   1.144   0.306  0.00  0.00     0.039 A 
ATOM      3  C2  UNL d   1       1.484   2.483   0.133  0.00  0.00    -0.080 A 
ATOM      4  C3  UNL d   1       1.433   3.044  -1.140  0.00  0.00     0.150 A 
ATOM      5  C4  UNL d   1       1.032   2.289  -2.237  0.00  0.00    -0.007 A 
ATOM      6  C5  UNL d   1       0.679   0.951  -2.062  0.00  0.00     0.039 A 
ENDROOT
BRANCH   4   7
ATOM      7  O   UNL d   1       1.774   4.346  -1.359  0.00  0.00    -0.526 OA
ATOM      8  H5  UNL d   1       2.058   4.736  -0.515  0.00  0.00     0.418 HD
ENDBRANCH   4   7
TORSDOF 1
ENDMDL
