MODEL 1
REMARK minimizedAffinity 12.8290215
REMARK minimizedRMSD -1
REMARK  3 active torsions:
REMARK  status: ('A' for Active; 'I' for Inactive)
REMARK    1  A    between atoms: C3'_2  and  C2'_3 
REMARK    2  A    between atoms: C2'_3  and  C1'_4 
REMARK    3  A    between atoms: C1'_4  and  C1_5 
ROOT
ATOM      1  C1  N4B d   1       3.048  -0.358   2.253  0.00  0.00    -0.075 A 
ATOM      2  C2  N4B d   1       2.104  -0.254   3.298  0.00  0.00     0.002 A 
ATOM      3  C3  N4B d   1       1.598   0.974   3.646  0.00  0.00     0.002 A 
ATOM      4  C4  N4B d   1       2.032   2.109   2.978  0.00  0.00    -0.004 A 
ATOM      5  C5  N4B d   1       2.924   1.997   1.952  0.00  0.00     0.002 A 
ATOM      6  C6  N4B d   1       3.439   0.769   1.589  0.00  0.00     0.002 A 
ENDROOT
BRANCH   1   7
ATOM      7  C1' N4B d   1       3.694  -1.668   1.894  0.00  0.00     0.057 C 
BRANCH   7   8
ATOM      8  C2' N4B d   1       5.197  -1.457   1.731  0.00  0.00     0.009 C 
BRANCH   8   9
ATOM      9  C3' N4B d   1       5.999  -2.603   2.323  0.00  0.00     0.004 C 
ATOM     10  C4' N4B d   1       5.990  -2.604   3.823  0.00  0.00     0.003 C 
ENDBRANCH   8   9
ENDBRANCH   7   8
ENDBRANCH   1   7
TORSDOF 3
ENDMDL
