MODEL 1
REMARK minimizedAffinity 11.7476234
REMARK minimizedRMSD -1
REMARK  3 active torsions:
REMARK  status: ('A' for Active; 'I' for Inactive)
REMARK    1  A    between atoms: C3'_2  and  C2'_3 
REMARK    2  A    between atoms: C2'_3  and  C1'_4 
REMARK    3  A    between atoms: C1'_4  and  C1_5 
ROOT
ATOM      1  C1  N4B d   1      -4.298  -3.167  -3.965  0.00  0.00    -0.075 A 
ATOM      2  C2  N4B d   1      -5.616  -3.672  -4.000  0.00  0.00     0.002 A 
ATOM      3  C3  N4B d   1      -5.999  -4.524  -5.007  0.00  0.00     0.002 A 
ATOM      4  C4  N4B d   1      -5.090  -4.867  -5.997  0.00  0.00    -0.004 A 
ATOM      5  C5  N4B d   1      -3.812  -4.395  -5.942  0.00  0.00     0.002 A 
ATOM      6  C6  N4B d   1      -3.412  -3.542  -4.934  0.00  0.00     0.002 A 
ENDROOT
BRANCH   1   7
ATOM      7  C1' N4B d   1      -3.858  -2.166  -2.933  0.00  0.00     0.057 C 
BRANCH   7   8
ATOM      8  C2' N4B d   1      -3.060  -1.059  -3.616  0.00  0.00     0.009 C 
BRANCH   8   9
ATOM      9  C3' N4B d   1      -2.699   0.059  -2.653  0.00  0.00     0.004 C 
ATOM     10  C4' N4B d   1      -3.244   1.390  -3.077  0.00  0.00     0.003 C 
ENDBRANCH   8   9
ENDBRANCH   7   8
ENDBRANCH   1   7
TORSDOF 3
ENDMDL
