MODEL 1
REMARK minimizedAffinity -2.8105278
REMARK minimizedRMSD -1
REMARK  0 active torsions:
REMARK  status: ('A' for Active; 'I' for Inactive)
ROOT
ATOM      1  C   UNL d   1       0.559   1.346  -0.449  0.00  0.00     0.020 A 
ATOM      2  C1  UNL d   1      -0.713   1.039  -0.931  0.00  0.00     0.020 A 
ATOM      3  C2  UNL d   1      -1.038  -0.281  -1.253  0.00  0.00     0.034 A 
ATOM      4  C3  UNL d   1      -0.089  -1.298  -1.094  0.00  0.00     0.017 A 
ATOM      5  C4  UNL d   1       1.187  -0.988  -0.610  0.00  0.00     0.017 A 
ATOM      6  C5  UNL d   1       1.507   0.335  -0.289  0.00  0.00     0.034 A 
ATOM      7 Cl   UNL d   1       2.410  -2.189  -0.387  0.00  0.00    -0.070 Cl
ATOM      8 Cl1  UNL d   1      -0.560  -2.907  -1.511  0.00  0.00    -0.070 Cl
ENDROOT
TORSDOF 0
ENDMDL
