MODEL 1
REMARK minimizedAffinity 8.58451176
REMARK minimizedRMSD -1
REMARK  0 active torsions:
REMARK  status: ('A' for Active; 'I' for Inactive)
ROOT
ATOM      1  C   UNL d   1       0.234  -0.549   0.321  0.00  0.00     0.020 A 
ATOM      2  C1  UNL d   1       0.727   0.752   0.422  0.00  0.00     0.020 A 
ATOM      3  C2  UNL d   1       1.940   1.087  -0.183  0.00  0.00     0.034 A 
ATOM      4  C3  UNL d   1       2.664   0.121  -0.892  0.00  0.00     0.017 A 
ATOM      5  C4  UNL d   1       2.168  -1.183  -0.993  0.00  0.00     0.017 A 
ATOM      6  C5  UNL d   1       0.953  -1.514  -0.385  0.00  0.00     0.034 A 
ATOM      7 Cl   UNL d   1       3.004  -2.429  -1.851  0.00  0.00    -0.070 Cl
ATOM      8 Cl1  UNL d   1       4.156   0.606  -1.616  0.00  0.00    -0.070 Cl
ENDROOT
TORSDOF 0
ENDMDL
