MODEL 1
REMARK minimizedAffinity 0.604670227
REMARK minimizedRMSD -1
REMARK  0 active torsions:
REMARK  status: ('A' for Active; 'I' for Inactive)
ROOT
ATOM      1  C   UNL d   1       1.284  -2.588  -0.783  0.00  0.00     0.020 A 
ATOM      2  C1  UNL d   1      -0.017  -2.126  -0.587  0.00  0.00     0.020 A 
ATOM      3  C2  UNL d   1      -0.261  -0.756  -0.471  0.00  0.00     0.034 A 
ATOM      4  C3  UNL d   1       0.797   0.157  -0.552  0.00  0.00     0.017 A 
ATOM      5  C4  UNL d   1       2.102  -0.308  -0.748  0.00  0.00     0.017 A 
ATOM      6  C5  UNL d   1       2.341  -1.681  -0.863  0.00  0.00     0.034 A 
ATOM      7 Cl   UNL d   1       3.459   0.758  -0.858  0.00  0.00    -0.070 Cl
ATOM      8 Cl1  UNL d   1       0.422   1.837  -0.401  0.00  0.00    -0.070 Cl
ENDROOT
TORSDOF 0
ENDMDL
