MODEL 1
REMARK minimizedAffinity 1.46058989
REMARK minimizedRMSD -1
REMARK  0 active torsions:
REMARK  status: ('A' for Active; 'I' for Inactive)
ROOT
ATOM      1  C   UNL d   1       5.223   0.550  -2.553  0.00  0.00     0.020 A 
ATOM      2  C1  UNL d   1       4.770   0.724  -1.246  0.00  0.00     0.020 A 
ATOM      3  C2  UNL d   1       3.899  -0.208  -0.678  0.00  0.00     0.034 A 
ATOM      4  C3  UNL d   1       3.479  -1.319  -1.418  0.00  0.00     0.017 A 
ATOM      5  C4  UNL d   1       3.934  -1.494  -2.730  0.00  0.00     0.017 A 
ATOM      6  C5  UNL d   1       4.806  -0.557  -3.293  0.00  0.00     0.034 A 
ATOM      7 Cl   UNL d   1       3.459  -2.839  -3.705  0.00  0.00    -0.070 Cl
ATOM      8 Cl1  UNL d   1       2.401  -2.433  -0.653  0.00  0.00    -0.070 Cl
ENDROOT
TORSDOF 0
ENDMDL
