MODEL 1
REMARK minimizedAffinity 2.31956816
REMARK minimizedRMSD -1
REMARK  0 active torsions:
REMARK  status: ('A' for Active; 'I' for Inactive)
ROOT
ATOM      1  C   UNL d   1       4.758   0.594  -1.673  0.00  0.00     0.020 A 
ATOM      2  C1  UNL d   1       3.683   1.317  -1.159  0.00  0.00     0.020 A 
ATOM      3  C2  UNL d   1       2.417   0.731  -1.087  0.00  0.00     0.034 A 
ATOM      4  C3  UNL d   1       2.224  -0.583  -1.530  0.00  0.00     0.017 A 
ATOM      5  C4  UNL d   1       3.304  -1.308  -2.045  0.00  0.00     0.017 A 
ATOM      6  C5  UNL d   1       4.569  -0.717  -2.115  0.00  0.00     0.034 A 
ATOM      7 Cl   UNL d   1       3.144  -2.934  -2.610  0.00  0.00    -0.070 Cl
ATOM      8 Cl1  UNL d   1       0.632  -1.245  -1.411  0.00  0.00    -0.070 Cl
ENDROOT
TORSDOF 0
ENDMDL
