MODEL 1
REMARK minimizedAffinity -0.903529763
REMARK minimizedRMSD -1
REMARK  0 active torsions:
REMARK  status: ('A' for Active; 'I' for Inactive)
ROOT
ATOM      1  C   UNL d   1       4.805  -2.144  -3.206  0.00  0.00     0.020 A 
ATOM      2  C1  UNL d   1       3.694  -2.820  -2.706  0.00  0.00     0.020 A 
ATOM      3  C2  UNL d   1       2.838  -2.185  -1.803  0.00  0.00     0.034 A 
ATOM      4  C3  UNL d   1       3.092  -0.870  -1.399  0.00  0.00     0.017 A 
ATOM      5  C4  UNL d   1       4.208  -0.191  -1.902  0.00  0.00     0.017 A 
ATOM      6  C5  UNL d   1       5.062  -0.832  -2.805  0.00  0.00     0.034 A 
ATOM      7 Cl   UNL d   1       4.588   1.433  -1.449  0.00  0.00    -0.070 Cl
ATOM      8 Cl1  UNL d   1       1.992  -0.146  -0.280  0.00  0.00    -0.070 Cl
ENDROOT
TORSDOF 0
ENDMDL
