MODEL 1
REMARK minimizedAffinity 1.85486734
REMARK minimizedRMSD -1
REMARK  0 active torsions:
REMARK  status: ('A' for Active; 'I' for Inactive)
ROOT
ATOM      1  C   UNL d   1       0.020  -1.391  -0.844  0.00  0.00     0.020 A 
ATOM      2  C1  UNL d   1       0.517  -0.147  -0.458  0.00  0.00     0.020 A 
ATOM      3  C2  UNL d   1       1.847   0.186  -0.724  0.00  0.00     0.034 A 
ATOM      4  C3  UNL d   1       2.684  -0.726  -1.377  0.00  0.00     0.017 A 
ATOM      5  C4  UNL d   1       2.184  -1.974  -1.764  0.00  0.00     0.017 A 
ATOM      6  C5  UNL d   1       0.852  -2.303  -1.496  0.00  0.00     0.034 A 
ATOM      7 Cl   UNL d   1       3.157  -3.151  -2.574  0.00  0.00    -0.070 Cl
ATOM      8 Cl1  UNL d   1       4.318  -0.247  -1.673  0.00  0.00    -0.070 Cl
ENDROOT
TORSDOF 0
ENDMDL
