MODEL 1
REMARK minimizedAffinity 1.71394491
REMARK minimizedRMSD -1
REMARK  0 active torsions:
REMARK  status: ('A' for Active; 'I' for Inactive)
ROOT
ATOM      1  C   UNL d   1      -2.641   2.689   3.541  0.00  0.00     0.020 A 
ATOM      2  C1  UNL d   1      -3.559   2.861   2.506  0.00  0.00     0.020 A 
ATOM      3  C2  UNL d   1      -3.378   3.886   1.575  0.00  0.00     0.034 A 
ATOM      4  C3  UNL d   1      -2.276   4.743   1.677  0.00  0.00     0.017 A 
ATOM      5  C4  UNL d   1      -1.355   4.569   2.717  0.00  0.00     0.017 A 
ATOM      6  C5  UNL d   1      -1.541   3.541   3.646  0.00  0.00     0.034 A 
ATOM      7 Cl   UNL d   1       0.029   5.587   2.908  0.00  0.00    -0.070 Cl
ATOM      8 Cl1  UNL d   1      -2.115   5.989   0.491  0.00  0.00    -0.070 Cl
ENDROOT
TORSDOF 0
ENDMDL
