MODEL 1
REMARK minimizedAffinity 3.85148287
REMARK minimizedRMSD -1
REMARK  0 active torsions:
REMARK  status: ('A' for Active; 'I' for Inactive)
ROOT
ATOM      1  C   UNL d   1       0.066  -0.007  -0.142  0.00  0.00     0.020 A 
ATOM      2  C1  UNL d   1      -0.444  -1.216  -0.613  0.00  0.00     0.020 A 
ATOM      3  C2  UNL d   1       0.377  -2.088  -1.330  0.00  0.00     0.034 A 
ATOM      4  C3  UNL d   1       1.713  -1.753  -1.578  0.00  0.00     0.017 A 
ATOM      5  C4  UNL d   1       2.224  -0.539  -1.105  0.00  0.00     0.017 A 
ATOM      6  C5  UNL d   1       1.397   0.331  -0.388  0.00  0.00     0.034 A 
ATOM      7 Cl   UNL d   1       3.862  -0.056  -1.372  0.00  0.00    -0.070 Cl
ATOM      8 Cl1  UNL d   1       2.672  -2.879  -2.471  0.00  0.00    -0.070 Cl
ENDROOT
TORSDOF 0
ENDMDL
