MODEL 1
REMARK minimizedAffinity -0.545355737
REMARK minimizedRMSD -1
REMARK  0 active torsions:
REMARK  status: ('A' for Active; 'I' for Inactive)
ROOT
ATOM      1  C   UNL d   1       0.035   0.436   1.458  0.00  0.00     0.020 A 
ATOM      2  C1  UNL d   1      -1.227   0.375   0.869  0.00  0.00     0.020 A 
ATOM      3  C2  UNL d   1      -1.376  -0.176  -0.406  0.00  0.00     0.034 A 
ATOM      4  C3  UNL d   1      -0.261  -0.667  -1.095  0.00  0.00     0.017 A 
ATOM      5  C4  UNL d   1       1.005  -0.606  -0.502  0.00  0.00     0.017 A 
ATOM      6  C5  UNL d   1       1.148  -0.053   0.774  0.00  0.00     0.034 A 
ATOM      7 Cl   UNL d   1       2.427  -1.192  -1.290  0.00  0.00    -0.070 Cl
ATOM      8 Cl1  UNL d   1      -0.519  -1.335  -2.668  0.00  0.00    -0.070 Cl
ENDROOT
TORSDOF 0
ENDMDL
