MODEL 1
REMARK minimizedAffinity -1.981668
REMARK minimizedRMSD -1
REMARK  0 active torsions:
REMARK  status: ('A' for Active; 'I' for Inactive)
ROOT
ATOM      1  C   UNL d   1      -0.860   1.913   0.215  0.00  0.00     0.020 A 
ATOM      2  C1  UNL d   1       0.220   1.697   1.070  0.00  0.00     0.020 A 
ATOM      3  C2  UNL d   1       0.948   0.508   0.989  0.00  0.00     0.034 A 
ATOM      4  C3  UNL d   1       0.596  -0.470   0.051  0.00  0.00     0.017 A 
ATOM      5  C4  UNL d   1      -0.488  -0.252  -0.807  0.00  0.00     0.017 A 
ATOM      6  C5  UNL d   1      -1.213   0.940  -0.722  0.00  0.00     0.034 A 
ATOM      7 Cl   UNL d   1      -0.981  -1.412  -1.989  0.00  0.00    -0.070 Cl
ATOM      8 Cl1  UNL d   1       1.541  -1.916   0.006  0.00  0.00    -0.070 Cl
ENDROOT
TORSDOF 0
ENDMDL
