MODEL 1
REMARK minimizedAffinity 7.20740891
REMARK minimizedRMSD -1
REMARK  0 active torsions:
REMARK  status: ('A' for Active; 'I' for Inactive)
ROOT
ATOM      1  C   UNL d   1      -4.944   3.256   2.571  0.00  0.00     0.078 C 
ATOM      2  C1  UNL d   1      -4.955   4.191   3.744  0.00  0.00    -0.077 A 
ATOM      3  C2  UNL d   1      -3.943   5.142   3.917  0.00  0.00    -0.001 A 
ATOM      4  C3  UNL d   1      -3.961   6.000   5.018  0.00  0.00     0.003 A 
ATOM      5  C4  UNL d   1      -4.988   5.913   5.956  0.00  0.00    -0.005 A 
ATOM      6  C5  UNL d   1      -5.999   4.967   5.793  0.00  0.00     0.003 A 
ATOM      7  C6  UNL d   1      -5.982   4.109   4.692  0.00  0.00    -0.001 A 
ENDROOT
TORSDOF 0
ENDMDL
