MODEL 1
REMARK minimizedAffinity 7.93861437
REMARK minimizedRMSD -1
REMARK  0 active torsions:
REMARK  status: ('A' for Active; 'I' for Inactive)
ROOT
ATOM      1  C   UNL d   1       5.962  -1.035   1.455  0.00  0.00     0.078 C 
ATOM      2  C1  UNL d   1       4.739  -0.518   0.759  0.00  0.00    -0.077 A 
ATOM      3  C2  UNL d   1       4.702   0.780   0.234  0.00  0.00    -0.001 A 
ATOM      4  C3  UNL d   1       3.553   1.252  -0.403  0.00  0.00     0.003 A 
ATOM      5  C4  UNL d   1       2.432   0.433  -0.520  0.00  0.00    -0.005 A 
ATOM      6  C5  UNL d   1       2.458  -0.859   0.001  0.00  0.00     0.003 A 
ATOM      7  C6  UNL d   1       3.607  -1.333   0.638  0.00  0.00    -0.001 A 
ENDROOT
TORSDOF 0
ENDMDL
