MODEL 1
REMARK minimizedAffinity 7.06235886
REMARK minimizedRMSD -1
REMARK  0 active torsions:
REMARK  status: ('A' for Active; 'I' for Inactive)
ROOT
ATOM      1  C   UNL d   1      -5.041   4.146   2.019  0.00  0.00     0.078 C 
ATOM      2  C1  UNL d   1      -4.910   4.729   3.394  0.00  0.00    -0.077 A 
ATOM      3  C2  UNL d   1      -3.779   5.471   3.759  0.00  0.00    -0.001 A 
ATOM      4  C3  UNL d   1      -3.666   5.999   5.046  0.00  0.00     0.003 A 
ATOM      5  C4  UNL d   1      -4.680   5.790   5.979  0.00  0.00    -0.005 A 
ATOM      6  C5  UNL d   1      -5.807   5.052   5.626  0.00  0.00     0.003 A 
ATOM      7  C6  UNL d   1      -5.922   4.523   4.340  0.00  0.00    -0.001 A 
ENDROOT
TORSDOF 0
ENDMDL
