MODEL 1
REMARK minimizedAffinity 3.56974912
REMARK minimizedRMSD -1
REMARK  0 active torsions:
REMARK  status: ('A' for Active; 'I' for Inactive)
ROOT
ATOM      1  C   UNL d   1       6.000  -0.802   2.131  0.00  0.00     0.078 C 
ATOM      2  C1  UNL d   1       4.773  -0.408   1.364  0.00  0.00    -0.077 A 
ATOM      3  C2  UNL d   1       4.679   0.847   0.749  0.00  0.00    -0.001 A 
ATOM      4  C3  UNL d   1       3.527   1.204   0.047  0.00  0.00     0.003 A 
ATOM      5  C4  UNL d   1       2.460   0.313  -0.047  0.00  0.00    -0.005 A 
ATOM      6  C5  UNL d   1       2.543  -0.937   0.564  0.00  0.00     0.003 A 
ATOM      7  C6  UNL d   1       3.695  -1.296   1.267  0.00  0.00    -0.001 A 
ENDROOT
TORSDOF 0
ENDMDL
