MODEL 1
REMARK minimizedAffinity 5.66907787
REMARK minimizedRMSD -1
REMARK  0 active torsions:
REMARK  status: ('A' for Active; 'I' for Inactive)
ROOT
ATOM      1  C   UNL d   1      -5.925   4.722   1.327  0.00  0.00     0.078 C 
ATOM      2  C1  UNL d   1      -5.941   4.653   2.825  0.00  0.00    -0.077 A 
ATOM      3  C2  UNL d   1      -5.944   3.421   3.491  0.00  0.00    -0.001 A 
ATOM      4  C3  UNL d   1      -5.969   3.372   4.885  0.00  0.00     0.003 A 
ATOM      5  C4  UNL d   1      -5.992   4.552   5.627  0.00  0.00    -0.005 A 
ATOM      6  C5  UNL d   1      -5.991   5.783   4.973  0.00  0.00     0.003 A 
ATOM      7  C6  UNL d   1      -5.967   5.834   3.579  0.00  0.00    -0.001 A 
ENDROOT
TORSDOF 0
ENDMDL
