MODEL 1
REMARK minimizedAffinity 6.46185255
REMARK minimizedRMSD -1
REMARK  0 active torsions:
REMARK  status: ('A' for Active; 'I' for Inactive)
ROOT
ATOM      1  C   UNL d   1      -4.145   2.961   0.744  0.00  0.00     0.078 C 
ATOM      2  C1  UNL d   1      -4.443   3.789   1.959  0.00  0.00    -0.077 A 
ATOM      3  C2  UNL d   1      -5.734   3.835   2.500  0.00  0.00    -0.001 A 
ATOM      4  C3  UNL d   1      -6.000   4.617   3.625  0.00  0.00     0.003 A 
ATOM      5  C4  UNL d   1      -4.980   5.360   4.218  0.00  0.00    -0.005 A 
ATOM      6  C5  UNL d   1      -3.693   5.321   3.685  0.00  0.00     0.003 A 
ATOM      7  C6  UNL d   1      -3.426   4.540   2.560  0.00  0.00    -0.001 A 
ENDROOT
TORSDOF 0
ENDMDL
