MODEL 1
REMARK minimizedAffinity 8.22297001
REMARK minimizedRMSD -1
REMARK  0 active torsions:
REMARK  status: ('A' for Active; 'I' for Inactive)
ROOT
ATOM      1  C   UNL d   1      -4.854   3.414   2.326  0.00  0.00     0.078 C 
ATOM      2  C1  UNL d   1      -4.847   4.206   3.600  0.00  0.00    -0.077 A 
ATOM      3  C2  UNL d   1      -3.699   4.891   4.017  0.00  0.00    -0.001 A 
ATOM      4  C3  UNL d   1      -3.704   5.616   5.210  0.00  0.00     0.003 A 
ATOM      5  C4  UNL d   1      -4.854   5.661   5.996  0.00  0.00    -0.005 A 
ATOM      6  C5  UNL d   1      -6.000   4.981   5.591  0.00  0.00     0.003 A 
ATOM      7  C6  UNL d   1      -5.997   4.255   4.398  0.00  0.00    -0.001 A 
ENDROOT
TORSDOF 0
ENDMDL
