MODEL 1
REMARK minimizedAffinity -1.80743921
REMARK minimizedRMSD -1
REMARK  0 active torsions:
REMARK  status: ('A' for Active; 'I' for Inactive)
ROOT
ATOM      1  C   UNL d   1       3.680   1.953  -1.461  0.00  0.00     0.078 C 
ATOM      2  C1  UNL d   1       3.290   0.717  -0.707  0.00  0.00    -0.077 A 
ATOM      3  C2  UNL d   1       3.905   0.390   0.508  0.00  0.00    -0.001 A 
ATOM      4  C3  UNL d   1       3.539  -0.769   1.195  0.00  0.00     0.003 A 
ATOM      5  C4  UNL d   1       2.558  -1.610   0.675  0.00  0.00    -0.005 A 
ATOM      6  C5  UNL d   1       1.942  -1.294  -0.534  0.00  0.00     0.003 A 
ATOM      7  C6  UNL d   1       2.306  -0.135  -1.223  0.00  0.00    -0.001 A 
ENDROOT
TORSDOF 0
ENDMDL
