MODEL 1
REMARK minimizedAffinity 7.57566547
REMARK minimizedRMSD -1
REMARK  0 active torsions:
REMARK  status: ('A' for Active; 'I' for Inactive)
ROOT
ATOM      1  C   UNL d   1      -5.930   4.299   2.404  0.00  0.00     0.078 C 
ATOM      2  C1  UNL d   1      -5.267   4.850   3.631  0.00  0.00    -0.077 A 
ATOM      3  C2  UNL d   1      -3.916   5.216   3.618  0.00  0.00    -0.001 A 
ATOM      4  C3  UNL d   1      -3.309   5.718   4.770  0.00  0.00     0.003 A 
ATOM      5  C4  UNL d   1      -4.046   5.858   5.944  0.00  0.00    -0.005 A 
ATOM      6  C5  UNL d   1      -5.391   5.495   5.968  0.00  0.00     0.003 A 
ATOM      7  C6  UNL d   1      -5.999   4.992   4.817  0.00  0.00    -0.001 A 
ENDROOT
TORSDOF 0
ENDMDL
