MODEL 1
REMARK minimizedAffinity 0.480157256
REMARK minimizedRMSD -1
REMARK  0 active torsions:
REMARK  status: ('A' for Active; 'I' for Inactive)
ROOT
ATOM      1  C   UNL d   1      -5.614   3.243   1.729  0.00  0.00     0.078 C 
ATOM      2  C1  UNL d   1      -5.751   3.953   3.043  0.00  0.00    -0.077 A 
ATOM      3  C2  UNL d   1      -5.740   5.352   3.111  0.00  0.00    -0.001 A 
ATOM      4  C3  UNL d   1      -5.858   6.000   4.342  0.00  0.00     0.003 A 
ATOM      5  C4  UNL d   1      -5.988   5.257   5.514  0.00  0.00    -0.005 A 
ATOM      6  C5  UNL d   1      -5.999   3.865   5.456  0.00  0.00     0.003 A 
ATOM      7  C6  UNL d   1      -5.880   3.215   4.226  0.00  0.00    -0.001 A 
ENDROOT
TORSDOF 0
ENDMDL
