MODEL 1
REMARK minimizedAffinity -1.35771835
REMARK minimizedRMSD -1
REMARK  0 active torsions:
REMARK  status: ('A' for Active; 'I' for Inactive)
ROOT
ATOM      1  C   UNL d   1       1.130   1.605   4.119  0.00  0.00     0.078 C 
ATOM      2  C1  UNL d   1       2.361   2.413   4.401  0.00  0.00    -0.077 A 
ATOM      3  C2  UNL d   1       3.109   2.974   3.359  0.00  0.00    -0.001 A 
ATOM      4  C3  UNL d   1       4.259   3.716   3.635  0.00  0.00     0.003 A 
ATOM      5  C4  UNL d   1       4.671   3.902   4.953  0.00  0.00    -0.005 A 
ATOM      6  C5  UNL d   1       3.934   3.346   5.996  0.00  0.00     0.003 A 
ATOM      7  C6  UNL d   1       2.785   2.603   5.722  0.00  0.00    -0.001 A 
ENDROOT
TORSDOF 0
ENDMDL
