MODEL 1
REMARK minimizedAffinity 10.4072638
REMARK minimizedRMSD -1
REMARK  0 active torsions:
REMARK  status: ('A' for Active; 'I' for Inactive)
ROOT
ATOM      1  C   UNL d   1      -4.495   0.357  -0.499  0.00  0.00     0.078 C 
ATOM      2  C1  UNL d   1      -4.880   1.634  -1.185  0.00  0.00    -0.077 A 
ATOM      3  C2  UNL d   1      -4.517   2.877  -0.652  0.00  0.00    -0.001 A 
ATOM      4  C3  UNL d   1      -4.890   4.057  -1.296  0.00  0.00     0.003 A 
ATOM      5  C4  UNL d   1      -5.629   4.007  -2.476  0.00  0.00    -0.005 A 
ATOM      6  C5  UNL d   1      -5.997   2.775  -3.013  0.00  0.00     0.003 A 
ATOM      7  C6  UNL d   1      -5.624   1.593  -2.371  0.00  0.00    -0.001 A 
ENDROOT
TORSDOF 0
ENDMDL
