MODEL 1
REMARK minimizedAffinity -4.25255108
REMARK minimizedRMSD -1
REMARK  0 active torsions:
REMARK  status: ('A' for Active; 'I' for Inactive)
ROOT
ATOM      1  O1  BZF d   1      -0.120   1.275   0.416  0.00  0.00    -0.204 OA
ATOM      2  C2  BZF d   1      -1.088   0.402  -0.042  0.00  0.00     0.174 A 
ATOM      3  C3  BZF d   1      -0.561  -0.817  -0.277  0.00  0.00    -0.012 A 
ATOM      4  C3A BZF d   1       0.804  -0.724   0.143  0.00  0.00    -0.107 A 
ATOM      5  C4  BZF d   1       1.839  -1.614   0.175  0.00  0.00     0.055 A 
ATOM      6  C5  BZF d   1       3.066  -1.186   0.574  0.00  0.00    -0.016 A 
ATOM      7  C6  BZF d   1       3.293   0.123   0.944  0.00  0.00     0.022 A 
ATOM      8  C7  BZF d   1       2.296   1.041   0.934  0.00  0.00     0.029 A 
ATOM      9  C7A BZF d   1       1.048   0.604   0.562  0.00  0.00     0.058 A 
ENDROOT
TORSDOF 0
ENDMDL
