MODEL 1
REMARK minimizedAffinity -4.34990978
REMARK minimizedRMSD -1
REMARK  0 active torsions:
REMARK  status: ('A' for Active; 'I' for Inactive)
ROOT
ATOM      1  O1  BZF d   1       0.003  -1.514   1.157  0.00  0.00    -0.204 OA
ATOM      2  C2  BZF d   1      -1.208  -1.168   0.591  0.00  0.00     0.174 A 
ATOM      3  C3  BZF d   1      -1.141   0.055   0.028  0.00  0.00    -0.012 A 
ATOM      4  C3A BZF d   1       0.223   0.463   0.175  0.00  0.00    -0.107 A 
ATOM      5  C4  BZF d   1       0.915   1.580  -0.198  0.00  0.00     0.055 A 
ATOM      6  C5  BZF d   1       2.219   1.699   0.162  0.00  0.00    -0.016 A 
ATOM      7  C6  BZF d   1       2.862   0.726   0.899  0.00  0.00     0.022 A 
ATOM      8  C7  BZF d   1       2.218  -0.402   1.288  0.00  0.00     0.029 A 
ATOM      9  C7A BZF d   1       0.909  -0.541   0.897  0.00  0.00     0.058 A 
ENDROOT
TORSDOF 0
ENDMDL
