MODEL 1
REMARK minimizedAffinity -5.63826561
REMARK minimizedRMSD -1
REMARK  0 active torsions:
REMARK  status: ('A' for Active; 'I' for Inactive)
ROOT
ATOM      1  O1  BZF d   1       2.933   0.562   0.557  0.00  0.00    -0.204 OA
ATOM      2  C2  BZF d   1       3.264  -0.755   0.810  0.00  0.00     0.174 A 
ATOM      3  C3  BZF d   1       2.170  -1.541   0.760  0.00  0.00    -0.012 A 
ATOM      4  C3A BZF d   1       1.102  -0.675   0.366  0.00  0.00    -0.107 A 
ATOM      5  C4  BZF d   1      -0.229  -0.872   0.129  0.00  0.00     0.055 A 
ATOM      6  C5  BZF d   1      -1.012   0.197  -0.169  0.00  0.00    -0.016 A 
ATOM      7  C6  BZF d   1      -0.501   1.476  -0.234  0.00  0.00     0.022 A 
ATOM      8  C7  BZF d   1       0.814   1.721  -0.012  0.00  0.00     0.029 A 
ATOM      9  C7A BZF d   1       1.615   0.638   0.257  0.00  0.00     0.058 A 
ENDROOT
TORSDOF 0
ENDMDL
