MODEL 1
REMARK minimizedAffinity -5.8806715
REMARK minimizedRMSD -1
REMARK  0 active torsions:
REMARK  status: ('A' for Active; 'I' for Inactive)
ROOT
ATOM      1  O1  BZF d   1      -0.625  -0.860   0.385  0.00  0.00    -0.204 OA
ATOM      2  C2  BZF d   1      -0.643   0.352  -0.279  0.00  0.00     0.174 A 
ATOM      3  C3  BZF d   1       0.540   0.987  -0.149  0.00  0.00    -0.012 A 
ATOM      4  C3A BZF d   1       1.379   0.076   0.568  0.00  0.00    -0.107 A 
ATOM      5  C4  BZF d   1       2.676   0.129   0.990  0.00  0.00     0.055 A 
ATOM      6  C5  BZF d   1       3.173  -0.897   1.730  0.00  0.00    -0.016 A 
ATOM      7  C6  BZF d   1       2.399  -1.987   2.071  0.00  0.00     0.022 A 
ATOM      8  C7  BZF d   1       1.107  -2.086   1.672  0.00  0.00     0.029 A 
ATOM      9  C7A BZF d   1       0.613  -1.067   0.896  0.00  0.00     0.058 A 
ENDROOT
TORSDOF 0
ENDMDL
