MODEL 1
REMARK minimizedAffinity -3.21382332
REMARK minimizedRMSD -1
REMARK  0 active torsions:
REMARK  status: ('A' for Active; 'I' for Inactive)
ROOT
ATOM      1  O1  BZF d   1      -1.965  -1.949  -0.735  0.00  0.00    -0.204 OA
ATOM      2  C2  BZF d   1      -1.583  -1.045   0.237  0.00  0.00     0.174 A 
ATOM      3  C3  BZF d   1      -1.925   0.211  -0.116  0.00  0.00    -0.012 A 
ATOM      4  C3A BZF d   1      -2.643   0.073  -1.346  0.00  0.00    -0.107 A 
ATOM      5  C4  BZF d   1      -3.252   0.965  -2.182  0.00  0.00     0.055 A 
ATOM      6  C5  BZF d   1      -3.802   0.515  -3.340  0.00  0.00    -0.016 A 
ATOM      7  C6  BZF d   1      -3.757  -0.817  -3.696  0.00  0.00     0.022 A 
ATOM      8  C7  BZF d   1      -3.168  -1.740  -2.896  0.00  0.00     0.029 A 
ATOM      9  C7A BZF d   1      -2.641  -1.293  -1.710  0.00  0.00     0.058 A 
ENDROOT
TORSDOF 0
ENDMDL
