MODEL 1
REMARK minimizedAffinity -5.60342169
REMARK minimizedRMSD -1
REMARK  0 active torsions:
REMARK  status: ('A' for Active; 'I' for Inactive)
ROOT
ATOM      1  O1  BZF d   1      -0.316  -1.410   0.585  0.00  0.00    -0.204 OA
ATOM      2  C2  BZF d   1      -0.943  -0.331  -0.008  0.00  0.00     0.174 A 
ATOM      3  C3  BZF d   1      -0.092   0.709  -0.126  0.00  0.00    -0.012 A 
ATOM      4  C3A BZF d   1       1.168   0.220   0.342  0.00  0.00    -0.107 A 
ATOM      5  C4  BZF d   1       2.408   0.780   0.457  0.00  0.00     0.055 A 
ATOM      6  C5  BZF d   1       3.410   0.057   1.023  0.00  0.00    -0.016 A 
ATOM      7  C6  BZF d   1       3.206  -1.226   1.487  0.00  0.00     0.022 A 
ATOM      8  C7  BZF d   1       1.994  -1.826   1.391  0.00  0.00     0.029 A 
ATOM      9  C7A BZF d   1       0.988  -1.109   0.790  0.00  0.00     0.058 A 
ENDROOT
TORSDOF 0
ENDMDL
