MODEL 1
REMARK minimizedAffinity -3.29470158
REMARK minimizedRMSD -1
REMARK  0 active torsions:
REMARK  status: ('A' for Active; 'I' for Inactive)
ROOT
ATOM      1  O1  BZF d   1      -0.146  -1.747   1.296  0.00  0.00    -0.204 OA
ATOM      2  C2  BZF d   1      -1.422  -1.332   0.968  0.00  0.00     0.174 A 
ATOM      3  C3  BZF d   1      -1.418  -0.044   0.570  0.00  0.00    -0.012 A 
ATOM      4  C3A BZF d   1      -0.041   0.345   0.567  0.00  0.00    -0.107 A 
ATOM      5  C4  BZF d   1       0.606   1.505   0.248  0.00  0.00     0.055 A 
ATOM      6  C5  BZF d   1       1.951   1.580   0.423  0.00  0.00    -0.016 A 
ATOM      7  C6  BZF d   1       2.679   0.518   0.918  0.00  0.00     0.022 A 
ATOM      8  C7  BZF d   1       2.082  -0.655   1.244  0.00  0.00     0.029 A 
ATOM      9  C7A BZF d   1       0.727  -0.744   1.037  0.00  0.00     0.058 A 
ENDROOT
TORSDOF 0
ENDMDL
