MODEL 1
REMARK minimizedAffinity -3.72309971
REMARK minimizedRMSD -1
REMARK  0 active torsions:
REMARK  status: ('A' for Active; 'I' for Inactive)
ROOT
ATOM      1  O1  BZF d   1      -0.360  -0.458   0.926  0.00  0.00    -0.204 OA
ATOM      2  C2  BZF d   1      -0.898   0.568   0.174  0.00  0.00     0.174 A 
ATOM      3  C3  BZF d   1       0.073   1.252  -0.465  0.00  0.00    -0.012 A 
ATOM      4  C3A BZF d   1       1.286   0.557  -0.162  0.00  0.00    -0.107 A 
ATOM      5  C4  BZF d   1       2.591   0.745  -0.519  0.00  0.00     0.055 A 
ATOM      6  C5  BZF d   1       3.543  -0.069   0.008  0.00  0.00    -0.016 A 
ATOM      7  C6  BZF d   1       3.228  -1.075   0.897  0.00  0.00     0.022 A 
ATOM      8  C7  BZF d   1       1.947  -1.304   1.277  0.00  0.00     0.029 A 
ATOM      9  C7A BZF d   1       0.979  -0.504   0.721  0.00  0.00     0.058 A 
ENDROOT
TORSDOF 0
ENDMDL
