MODEL 1
REMARK minimizedAffinity -5.2648201
REMARK minimizedRMSD -1
REMARK  0 active torsions:
REMARK  status: ('A' for Active; 'I' for Inactive)
ROOT
ATOM      1  O1  BZF d   1      -0.357  -0.951   0.471  0.00  0.00    -0.204 OA
ATOM      2  C2  BZF d   1      -0.717   0.323   0.073  0.00  0.00     0.174 A 
ATOM      3  C3  BZF d   1       0.312   1.181   0.228  0.00  0.00    -0.012 A 
ATOM      4  C3A BZF d   1       1.410   0.376   0.667  0.00  0.00    -0.107 A 
ATOM      5  C4  BZF d   1       2.712   0.651   0.976  0.00  0.00     0.055 A 
ATOM      6  C5  BZF d   1       3.505  -0.348   1.444  0.00  0.00    -0.016 A 
ATOM      7  C6  BZF d   1       3.030  -1.631   1.620  0.00  0.00     0.022 A 
ATOM      8  C7  BZF d   1       1.747  -1.953   1.323  0.00  0.00     0.029 A 
ATOM      9  C7A BZF d   1       0.952  -0.953   0.819  0.00  0.00     0.058 A 
ENDROOT
TORSDOF 0
ENDMDL
