MODEL 1
REMARK minimizedAffinity -3.81848717
REMARK minimizedRMSD -1
REMARK  0 active torsions:
REMARK  status: ('A' for Active; 'I' for Inactive)
ROOT
ATOM      1  O1  BZF d   1      -0.986  -0.918   0.747  0.00  0.00    -0.204 OA
ATOM      2  C2  BZF d   1      -0.672  -2.127   1.339  0.00  0.00     0.174 A 
ATOM      3  C3  BZF d   1       0.664  -2.274   1.447  0.00  0.00    -0.012 A 
ATOM      4  C3A BZF d   1       1.218  -1.043   0.972  0.00  0.00    -0.107 A 
ATOM      5  C4  BZF d   1       2.494  -0.575   0.846  0.00  0.00     0.055 A 
ATOM      6  C5  BZF d   1       2.698   0.642   0.278  0.00  0.00    -0.016 A 
ATOM      7  C6  BZF d   1       1.651   1.415  -0.180  0.00  0.00     0.022 A 
ATOM      8  C7  BZF d   1       0.367   0.995  -0.072  0.00  0.00     0.029 A 
ATOM      9  C7A BZF d   1       0.155  -0.221   0.532  0.00  0.00     0.058 A 
ENDROOT
TORSDOF 0
ENDMDL
