MODEL 1
REMARK minimizedAffinity -1.66597402
REMARK minimizedRMSD -1
REMARK  0 active torsions:
REMARK  status: ('A' for Active; 'I' for Inactive)
ROOT
ATOM      1  O1  BZF d   1       0.326  -1.610  -0.497  0.00  0.00    -0.204 OA
ATOM      2  C2  BZF d   1      -0.813  -0.852  -0.301  0.00  0.00     0.174 A 
ATOM      3  C3  BZF d   1      -0.569   0.167   0.547  0.00  0.00    -0.012 A 
ATOM      4  C3A BZF d   1       0.831   0.094   0.832  0.00  0.00    -0.107 A 
ATOM      5  C4  BZF d   1       1.674   0.845   1.600  0.00  0.00     0.055 A 
ATOM      6  C5  BZF d   1       2.972   0.464   1.724  0.00  0.00    -0.016 A 
ATOM      7  C6  BZF d   1       3.459  -0.665   1.099  0.00  0.00     0.022 A 
ATOM      8  C7  BZF d   1       2.663  -1.440   0.322  0.00  0.00     0.029 A 
ATOM      9  C7A BZF d   1       1.358  -1.038   0.169  0.00  0.00     0.058 A 
ENDROOT
TORSDOF 0
ENDMDL
