MODEL 1
REMARK minimizedAffinity -4.94992065
REMARK minimizedRMSD -1
REMARK  0 active torsions:
REMARK  status: ('A' for Active; 'I' for Inactive)
ROOT
ATOM      1  O1  BZF d   1       2.727   0.727   0.792  0.00  0.00    -0.204 OA
ATOM      2  C2  BZF d   1       3.241  -0.555   0.804  0.00  0.00     0.174 A 
ATOM      3  C3  BZF d   1       2.258  -1.466   0.658  0.00  0.00    -0.012 A 
ATOM      4  C3A BZF d   1       1.065  -0.703   0.456  0.00  0.00    -0.107 A 
ATOM      5  C4  BZF d   1      -0.240  -1.041   0.236  0.00  0.00     0.055 A 
ATOM      6  C5  BZF d   1      -1.173  -0.056   0.154  0.00  0.00    -0.016 A 
ATOM      7  C6  BZF d   1      -0.837   1.275   0.292  0.00  0.00     0.022 A 
ATOM      8  C7  BZF d   1       0.444   1.659   0.506  0.00  0.00     0.029 A 
ATOM      9  C7A BZF d   1       1.394   0.668   0.557  0.00  0.00     0.058 A 
ENDROOT
TORSDOF 0
ENDMDL
