MODEL 1
REMARK minimizedAffinity -3.93977332
REMARK minimizedRMSD -1
REMARK  0 active torsions:
REMARK  status: ('A' for Active; 'I' for Inactive)
ROOT
ATOM      1  O1  BZF d   1      -0.195  -0.686   0.481  0.00  0.00    -0.204 OA
ATOM      2  C2  BZF d   1       1.090  -0.316   0.136  0.00  0.00     0.174 A 
ATOM      3  C3  BZF d   1       1.100   0.335  -1.045  0.00  0.00    -0.012 A 
ATOM      4  C3A BZF d   1      -0.276   0.455  -1.420  0.00  0.00    -0.107 A 
ATOM      5  C4  BZF d   1      -0.912   1.019  -2.488  0.00  0.00     0.055 A 
ATOM      6  C5  BZF d   1      -2.262   0.900  -2.592  0.00  0.00    -0.016 A 
ATOM      7  C6  BZF d   1      -3.005   0.219  -1.650  0.00  0.00     0.022 A 
ATOM      8  C7  BZF d   1      -2.419  -0.353  -0.570  0.00  0.00     0.029 A 
ATOM      9  C7A BZF d   1      -1.059  -0.206  -0.445  0.00  0.00     0.058 A 
ENDROOT
TORSDOF 0
ENDMDL
