MODEL 1
REMARK minimizedAffinity 11.2008171
REMARK minimizedRMSD -1
REMARK  0 active torsions:
REMARK  status: ('A' for Active; 'I' for Inactive)
ROOT
ATOM      1  C   UNL d   1       5.126  -2.196  -5.009  0.00  0.00     0.023 A 
ATOM      2  C1  UNL d   1       5.611  -0.949  -4.614  0.00  0.00     0.003 A 
ATOM      3  C2  UNL d   1       4.880   0.207  -4.897  0.00  0.00     0.048 A 
ATOM      4  C3  UNL d   1       3.665   0.108  -5.574  0.00  0.00     0.023 A 
ATOM      5  C4  UNL d   1       3.176  -1.138  -5.969  0.00  0.00     0.048 A 
ATOM      6  C5  UNL d   1       3.910  -2.290  -5.685  0.00  0.00     0.003 A 
ATOM      7  I   UNL d   1       2.576   1.827  -5.996  0.00  0.00    -0.146 I 
ENDROOT
TORSDOF 0
ENDMDL
