MODEL 1
REMARK minimizedAffinity 3.44566655
REMARK minimizedRMSD -1
REMARK  0 active torsions:
REMARK  status: ('A' for Active; 'I' for Inactive)
ROOT
ATOM      1  C   UNL d   1      -1.196  -2.597   0.773  0.00  0.00     0.023 A 
ATOM      2  C1  UNL d   1      -2.280  -1.986   0.143  0.00  0.00     0.003 A 
ATOM      3  C2  UNL d   1      -2.567  -2.274  -1.193  0.00  0.00     0.048 A 
ATOM      4  C3  UNL d   1      -1.766  -3.176  -1.893  0.00  0.00     0.023 A 
ATOM      5  C4  UNL d   1      -0.681  -3.791  -1.266  0.00  0.00     0.048 A 
ATOM      6  C5  UNL d   1      -0.398  -3.499   0.069  0.00  0.00     0.003 A 
ATOM      7  I   UNL d   1      -2.192  -3.608  -3.881  0.00  0.00    -0.146 I 
ENDROOT
TORSDOF 0
ENDMDL
