MODEL 1
REMARK minimizedAffinity 2.94289708
REMARK minimizedRMSD -1
REMARK  0 active torsions:
REMARK  status: ('A' for Active; 'I' for Inactive)
ROOT
ATOM      1  C   UNL d   1       2.013   5.997  -5.977  0.00  0.00     0.023 A 
ATOM      2  C1  UNL d   1       1.050   4.988  -5.983  0.00  0.00     0.003 A 
ATOM      3  C2  UNL d   1       1.441   3.648  -5.986  0.00  0.00     0.048 A 
ATOM      4  C3  UNL d   1       2.797   3.323  -5.983  0.00  0.00     0.023 A 
ATOM      5  C4  UNL d   1       3.764   4.329  -5.977  0.00  0.00     0.048 A 
ATOM      6  C5  UNL d   1       3.369   5.668  -5.974  0.00  0.00     0.003 A 
ATOM      7  I   UNL d   1       3.381   1.328  -5.988  0.00  0.00    -0.146 I 
ENDROOT
TORSDOF 0
ENDMDL
