MODEL 1
REMARK minimizedAffinity 7.83594131
REMARK minimizedRMSD -1
REMARK  0 active torsions:
REMARK  status: ('A' for Active; 'I' for Inactive)
ROOT
ATOM      1  C   UNL d   1       1.206   2.140  -3.640  0.00  0.00     0.023 A 
ATOM      2  C1  UNL d   1       1.600   2.021  -4.973  0.00  0.00     0.003 A 
ATOM      3  C2  UNL d   1       2.114   3.128  -5.652  0.00  0.00     0.048 A 
ATOM      4  C3  UNL d   1       2.232   4.351  -4.991  0.00  0.00     0.023 A 
ATOM      5  C4  UNL d   1       1.840   4.474  -3.658  0.00  0.00     0.048 A 
ATOM      6  C5  UNL d   1       1.325   3.365  -2.983  0.00  0.00     0.003 A 
ATOM      7  I   UNL d   1       2.996   5.999  -5.999  0.00  0.00    -0.146 I 
ENDROOT
TORSDOF 0
ENDMDL
