MODEL 1
REMARK minimizedAffinity 8.72855949
REMARK minimizedRMSD -1
REMARK  0 active torsions:
REMARK  status: ('A' for Active; 'I' for Inactive)
ROOT
ATOM      1  C   UNL d   1      -1.494  -2.076   1.097  0.00  0.00     0.023 A 
ATOM      2  C1  UNL d   1      -0.514  -2.712   0.334  0.00  0.00     0.003 A 
ATOM      3  C2  UNL d   1      -0.718  -2.922  -1.031  0.00  0.00     0.048 A 
ATOM      4  C3  UNL d   1      -1.903  -2.492  -1.628  0.00  0.00     0.023 A 
ATOM      5  C4  UNL d   1      -2.885  -1.855  -0.868  0.00  0.00     0.048 A 
ATOM      6  C5  UNL d   1      -2.678  -1.647   0.497  0.00  0.00     0.003 A 
ATOM      7  I   UNL d   1      -2.209  -2.804  -3.660  0.00  0.00    -0.146 I 
ENDROOT
TORSDOF 0
ENDMDL
