MODEL 1
REMARK minimizedAffinity 4.85217333
REMARK minimizedRMSD -1
REMARK  0 active torsions:
REMARK  status: ('A' for Active; 'I' for Inactive)
ROOT
ATOM      1  C   UNL d   1      -3.991  -2.909  -1.329  0.00  0.00     0.023 A 
ATOM      2  C1  UNL d   1      -4.585  -3.796  -2.227  0.00  0.00     0.003 A 
ATOM      3  C2  UNL d   1      -4.146  -3.850  -3.551  0.00  0.00     0.048 A 
ATOM      4  C3  UNL d   1      -3.112  -3.015  -3.971  0.00  0.00     0.023 A 
ATOM      5  C4  UNL d   1      -2.514  -2.126  -3.077  0.00  0.00     0.048 A 
ATOM      6  C5  UNL d   1      -2.957  -2.075  -1.754  0.00  0.00     0.003 A 
ATOM      7  I   UNL d   1      -2.457  -3.093  -5.942  0.00  0.00    -0.146 I 
ENDROOT
TORSDOF 0
ENDMDL
