MODEL 1
REMARK minimizedAffinity 6.29660034
REMARK minimizedRMSD -1
REMARK  0 active torsions:
REMARK  status: ('A' for Active; 'I' for Inactive)
ROOT
ATOM      1  C   UNL d   1      -3.380  -3.785  -5.990  0.00  0.00     0.023 A 
ATOM      2  C1  UNL d   1      -2.238  -2.984  -6.000  0.00  0.00     0.003 A 
ATOM      3  C2  UNL d   1      -1.692  -2.530  -4.798  0.00  0.00     0.048 A 
ATOM      4  C3  UNL d   1      -2.293  -2.882  -3.589  0.00  0.00     0.023 A 
ATOM      5  C4  UNL d   1      -3.435  -3.684  -3.575  0.00  0.00     0.048 A 
ATOM      6  C5  UNL d   1      -3.978  -4.135  -4.779  0.00  0.00     0.003 A 
ATOM      7  I   UNL d   1      -1.482  -2.207  -1.798  0.00  0.00    -0.146 I 
ENDROOT
TORSDOF 0
ENDMDL
