MODEL 1
REMARK minimizedAffinity 8.64627457
REMARK minimizedRMSD -1
REMARK  0 active torsions:
REMARK  status: ('A' for Active; 'I' for Inactive)
ROOT
ATOM      1  C   UNL d   1       4.245  -2.265  -4.344  0.00  0.00     0.023 A 
ATOM      2  C1  UNL d   1       3.148  -2.247  -5.205  0.00  0.00     0.003 A 
ATOM      3  C2  UNL d   1       2.652  -1.031  -5.680  0.00  0.00     0.048 A 
ATOM      4  C3  UNL d   1       3.259   0.162  -5.292  0.00  0.00     0.023 A 
ATOM      5  C4  UNL d   1       4.358   0.149  -4.432  0.00  0.00     0.048 A 
ATOM      6  C5  UNL d   1       4.849  -1.069  -3.958  0.00  0.00     0.003 A 
ATOM      7  I   UNL d   1       2.524   1.973  -5.999  0.00  0.00    -0.146 I 
ENDROOT
TORSDOF 0
ENDMDL
