MODEL 1
REMARK minimizedAffinity 6.96782064
REMARK minimizedRMSD -1
REMARK  0 active torsions:
REMARK  status: ('A' for Active; 'I' for Inactive)
ROOT
ATOM      1  C   UNL d   1       1.669   5.008  -5.998  0.00  0.00     0.023 A 
ATOM      2  C1  UNL d   1       3.063   5.055  -5.999  0.00  0.00     0.003 A 
ATOM      3  C2  UNL d   1       3.803   3.871  -5.970  0.00  0.00     0.048 A 
ATOM      4  C3  UNL d   1       3.142   2.643  -5.941  0.00  0.00     0.023 A 
ATOM      5  C4  UNL d   1       1.747   2.591  -5.941  0.00  0.00     0.048 A 
ATOM      6  C5  UNL d   1       1.012   3.778  -5.969  0.00  0.00     0.003 A 
ATOM      7  I   UNL d   1       4.241   0.879  -5.898  0.00  0.00    -0.146 I 
ENDROOT
TORSDOF 0
ENDMDL
