MODEL 1
REMARK minimizedAffinity 7.28534555
REMARK minimizedRMSD -1
REMARK  0 active torsions:
REMARK  status: ('A' for Active; 'I' for Inactive)
ROOT
ATOM      1  C   UNL d   1       2.170   5.331  -5.999  0.00  0.00     0.023 A 
ATOM      2  C1  UNL d   1       1.523   4.182  -5.545  0.00  0.00     0.003 A 
ATOM      3  C2  UNL d   1       1.775   3.698  -4.260  0.00  0.00     0.048 A 
ATOM      4  C3  UNL d   1       2.675   4.369  -3.433  0.00  0.00     0.023 A 
ATOM      5  C4  UNL d   1       3.324   5.520  -3.882  0.00  0.00     0.048 A 
ATOM      6  C5  UNL d   1       3.070   6.000  -5.168  0.00  0.00     0.003 A 
ATOM      7  I   UNL d   1       3.051   3.651  -1.519  0.00  0.00    -0.146 I 
ENDROOT
TORSDOF 0
ENDMDL
