MODEL 1
REMARK minimizedAffinity 1.568295
REMARK minimizedRMSD -1
REMARK  0 active torsions:
REMARK  status: ('A' for Active; 'I' for Inactive)
ROOT
ATOM      1  C   UNL d   1       4.006   4.051  -5.798  0.00  0.00     0.023 A 
ATOM      2  C1  UNL d   1       3.850   5.438  -5.785  0.00  0.00     0.003 A 
ATOM      3  C2  UNL d   1       2.572   5.998  -5.843  0.00  0.00     0.048 A 
ATOM      4  C3  UNL d   1       1.455   5.166  -5.912  0.00  0.00     0.023 A 
ATOM      5  C4  UNL d   1       1.607   3.778  -5.923  0.00  0.00     0.048 A 
ATOM      6  C5  UNL d   1       2.886   3.223  -5.867  0.00  0.00     0.003 A 
ATOM      7  I   UNL d   1      -0.448   5.997  -5.997  0.00  0.00    -0.146 I 
ENDROOT
TORSDOF 0
ENDMDL
