MODEL 1
REMARK minimizedAffinity 11.686142
REMARK minimizedRMSD -1
REMARK  0 active torsions:
REMARK  status: ('A' for Active; 'I' for Inactive)
ROOT
ATOM      1  C   UNL d   1      -1.664   3.123   2.708  0.00  0.00     0.023 A 
ATOM      2  C1  UNL d   1      -1.504   4.277   1.941  0.00  0.00     0.003 A 
ATOM      3  C2  UNL d   1      -0.254   4.594   1.405  0.00  0.00     0.048 A 
ATOM      4  C3  UNL d   1       0.832   3.751   1.639  0.00  0.00     0.023 A 
ATOM      5  C4  UNL d   1       0.676   2.594   2.405  0.00  0.00     0.048 A 
ATOM      6  C5  UNL d   1      -0.576   2.283   2.940  0.00  0.00     0.003 A 
ATOM      7  I   UNL d   1       2.693   4.219   0.843  0.00  0.00    -0.146 I 
ENDROOT
TORSDOF 0
ENDMDL
