MODEL 1
REMARK minimizedAffinity 6.67679119
REMARK minimizedRMSD -1
REMARK  0 active torsions:
REMARK  status: ('A' for Active; 'I' for Inactive)
ROOT
ATOM      1  C   UNL d   1       4.204   2.942  -5.967  0.00  0.00     0.023 A 
ATOM      2  C1  UNL d   1       4.414   4.321  -5.955  0.00  0.00     0.003 A 
ATOM      3  C2  UNL d   1       3.325   5.195  -5.964  0.00  0.00     0.048 A 
ATOM      4  C3  UNL d   1       2.028   4.683  -5.985  0.00  0.00     0.023 A 
ATOM      5  C4  UNL d   1       1.813   3.304  -5.997  0.00  0.00     0.048 A 
ATOM      6  C5  UNL d   1       2.905   2.434  -5.988  0.00  0.00     0.003 A 
ATOM      7  I   UNL d   1       0.406   5.982  -6.000  0.00  0.00    -0.146 I 
ENDROOT
TORSDOF 0
ENDMDL
