MODEL 1
REMARK minimizedAffinity 3.66651559
REMARK minimizedRMSD -1
REMARK  0 active torsions:
REMARK  status: ('A' for Active; 'I' for Inactive)
ROOT
ATOM      1  C   UNL d   1       3.802   0.581   0.843  0.00  0.00     0.023 A 
ATOM      2  C1  UNL d   1       3.512   1.479  -0.185  0.00  0.00     0.003 A 
ATOM      3  C2  UNL d   1       2.590   2.507   0.024  0.00  0.00     0.048 A 
ATOM      4  C3  UNL d   1       1.962   2.631   1.263  0.00  0.00     0.023 A 
ATOM      5  C4  UNL d   1       2.249   1.735   2.294  0.00  0.00     0.048 A 
ATOM      6  C5  UNL d   1       3.171   0.709   2.080  0.00  0.00     0.003 A 
ATOM      7  I   UNL d   1       0.589   4.159   1.576  0.00  0.00    -0.146 I 
ENDROOT
TORSDOF 0
ENDMDL
