MODEL 1
REMARK minimizedAffinity 3.866575
REMARK minimizedRMSD -1
REMARK  0 active torsions:
REMARK  status: ('A' for Active; 'I' for Inactive)
ROOT
ATOM      1  C   UNL d   1       1.934   3.877   0.369  0.00  0.00     0.023 A 
ATOM      2  C1  UNL d   1       1.507   3.721  -0.951  0.00  0.00     0.003 A 
ATOM      3  C2  UNL d   1       0.326   4.329  -1.381  0.00  0.00     0.048 A 
ATOM      4  C3  UNL d   1      -0.423   5.093  -0.487  0.00  0.00     0.023 A 
ATOM      5  C4  UNL d   1      -0.000   5.252   0.834  0.00  0.00     0.048 A 
ATOM      6  C5  UNL d   1       1.181   4.641   1.260  0.00  0.00     0.003 A 
ATOM      7  I   UNL d   1      -2.181   5.999  -1.125  0.00  0.00    -0.146 I 
ENDROOT
TORSDOF 0
ENDMDL
