MODEL 1
REMARK minimizedAffinity 7.5354085
REMARK minimizedRMSD -1
REMARK  3 active torsions:
REMARK  status: ('A' for Active; 'I' for Inactive)
REMARK    1  A    between atoms: C3'_2  and  C2'_3 
REMARK    2  A    between atoms: C2'_3  and  C1'_4 
REMARK    3  A    between atoms: C1'_4  and  C1_5 
ROOT
ATOM      1  C1  N4B d   1       0.033   2.684   1.279  0.00  0.00    -0.075 A 
ATOM      2  C2  N4B d   1      -0.571   1.814   0.344  0.00  0.00     0.002 A 
ATOM      3  C3  N4B d   1      -0.876   2.266  -0.917  0.00  0.00     0.002 A 
ATOM      4  C4  N4B d   1      -0.605   3.583  -1.258  0.00  0.00    -0.004 A 
ATOM      5  C5  N4B d   1       0.001   4.409  -0.357  0.00  0.00     0.002 A 
ATOM      6  C6  N4B d   1       0.317   3.968   0.912  0.00  0.00     0.002 A 
ENDROOT
BRANCH   1   7
ATOM      7  C1' N4B d   1       0.306   2.260   2.696  0.00  0.00     0.057 C 
BRANCH   7   8
ATOM      8  C2' N4B d   1      -0.378   0.922   2.959  0.00  0.00     0.009 C 
BRANCH   8   9
ATOM      9  C3' N4B d   1       0.616  -0.227   2.992  0.00  0.00     0.004 C 
ATOM     10  C4' N4B d   1       0.329  -1.211   4.087  0.00  0.00     0.003 C 
ENDBRANCH   8   9
ENDBRANCH   7   8
ENDBRANCH   1   7
TORSDOF 3
ENDMDL
