MODEL 1
REMARK minimizedAffinity 12.0336876
REMARK minimizedRMSD -1
REMARK  3 active torsions:
REMARK  status: ('A' for Active; 'I' for Inactive)
REMARK    1  A    between atoms: C3'_2  and  C2'_3 
REMARK    2  A    between atoms: C2'_3  and  C1'_4 
REMARK    3  A    between atoms: C1'_4  and  C1_5 
ROOT
ATOM      1  C1  N4B d   1      -0.766   1.071  -0.548  0.00  0.00    -0.075 A 
ATOM      2  C2  N4B d   1      -2.111   0.676  -0.720  0.00  0.00     0.002 A 
ATOM      3  C3  N4B d   1      -2.409  -0.438  -1.466  0.00  0.00     0.002 A 
ATOM      4  C4  N4B d   1      -1.386  -1.159  -2.062  0.00  0.00    -0.004 A 
ATOM      5  C5  N4B d   1      -0.088  -0.786  -1.869  0.00  0.00     0.002 A 
ATOM      6  C6  N4B d   1       0.227   0.329  -1.119  0.00  0.00     0.002 A 
ENDROOT
BRANCH   1   7
ATOM      7  C1' N4B d   1      -0.396   2.330   0.188  0.00  0.00     0.057 C 
BRANCH   7   8
ATOM      8  C2' N4B d   1      -0.427   3.505  -0.785  0.00  0.00     0.009 C 
BRANCH   8   9
ATOM      9  C3' N4B d   1       0.308   4.716  -0.236  0.00  0.00     0.004 C 
ATOM     10  C4' N4B d   1      -0.130   6.000  -0.876  0.00  0.00     0.003 C 
ENDBRANCH   8   9
ENDBRANCH   7   8
ENDBRANCH   1   7
TORSDOF 3
ENDMDL
