MODEL 1
REMARK minimizedAffinity 10.2104368
REMARK minimizedRMSD -1
REMARK  3 active torsions:
REMARK  status: ('A' for Active; 'I' for Inactive)
REMARK    1  A    between atoms: C3'_2  and  C2'_3 
REMARK    2  A    between atoms: C2'_3  and  C1'_4 
REMARK    3  A    between atoms: C1'_4  and  C1_5 
ROOT
ATOM      1  C1  N4B d   1      -1.379   0.384  -1.320  0.00  0.00    -0.075 A 
ATOM      2  C2  N4B d   1      -1.331  -0.920  -1.859  0.00  0.00     0.002 A 
ATOM      3  C3  N4B d   1      -2.486  -1.654  -1.983  0.00  0.00     0.002 A 
ATOM      4  C4  N4B d   1      -3.691  -1.113  -1.560  0.00  0.00    -0.004 A 
ATOM      5  C5  N4B d   1      -3.732   0.157  -1.065  0.00  0.00     0.002 A 
ATOM      6  C6  N4B d   1      -2.580   0.907  -0.938  0.00  0.00     0.002 A 
ENDROOT
BRANCH   1   7
ATOM      7  C1' N4B d   1      -0.132   1.192  -1.085  0.00  0.00     0.057 C 
BRANCH   7   8
ATOM      8  C2' N4B d   1      -0.450   2.338  -0.129  0.00  0.00     0.009 C 
BRANCH   8   9
ATOM      9  C3' N4B d   1       0.310   2.213   1.181  0.00  0.00     0.004 C 
ATOM     10  C4' N4B d   1      -0.596   2.054   2.365  0.00  0.00     0.003 C 
ENDBRANCH   8   9
ENDBRANCH   7   8
ENDBRANCH   1   7
TORSDOF 3
ENDMDL
