MODEL 1
REMARK minimizedAffinity 1.0382328
REMARK minimizedRMSD -1
REMARK  3 active torsions:
REMARK  status: ('A' for Active; 'I' for Inactive)
REMARK    1  A    between atoms: C3'_2  and  C2'_3 
REMARK    2  A    between atoms: C2'_3  and  C1'_4 
REMARK    3  A    between atoms: C1'_4  and  C1_5 
ROOT
ATOM      1  C1  N4B d   1      -1.017   2.203  -0.677  0.00  0.00    -0.075 A 
ATOM      2  C2  N4B d   1      -0.834   3.243  -1.614  0.00  0.00     0.002 A 
ATOM      3  C3  N4B d   1      -0.573   4.520  -1.181  0.00  0.00     0.002 A 
ATOM      4  C4  N4B d   1      -0.509   4.783   0.179  0.00  0.00    -0.004 A 
ATOM      5  C5  N4B d   1      -0.662   3.768   1.078  0.00  0.00     0.002 A 
ATOM      6  C6  N4B d   1      -0.921   2.479   0.656  0.00  0.00     0.002 A 
ENDROOT
BRANCH   1   7
ATOM      7  C1' N4B d   1      -1.390   0.809  -1.100  0.00  0.00     0.057 C 
BRANCH   7   8
ATOM      8  C2' N4B d   1      -2.813   0.816  -1.650  0.00  0.00     0.009 C 
BRANCH   8   9
ATOM      9  C3' N4B d   1      -3.646  -0.321  -1.085  0.00  0.00     0.004 C 
ATOM     10  C4' N4B d   1      -5.121  -0.081  -1.213  0.00  0.00     0.003 C 
ENDBRANCH   8   9
ENDBRANCH   7   8
ENDBRANCH   1   7
TORSDOF 3
ENDMDL
