MODEL 1
REMARK minimizedAffinity 4.88943481
REMARK minimizedRMSD -1
REMARK  3 active torsions:
REMARK  status: ('A' for Active; 'I' for Inactive)
REMARK    1  A    between atoms: C3'_2  and  C2'_3 
REMARK    2  A    between atoms: C2'_3  and  C1'_4 
REMARK    3  A    between atoms: C1'_4  and  C1_5 
ROOT
ATOM      1  C1  N4B d   1       0.322   1.579   2.042  0.00  0.00    -0.075 A 
ATOM      2  C2  N4B d   1      -0.450   1.049   3.099  0.00  0.00     0.002 A 
ATOM      3  C3  N4B d   1      -0.044  -0.095   3.740  0.00  0.00     0.002 A 
ATOM      4  C4  N4B d   1       1.116  -0.735   3.330  0.00  0.00    -0.004 A 
ATOM      5  C5  N4B d   1       1.870  -0.203   2.325  0.00  0.00     0.002 A 
ATOM      6  C6  N4B d   1       1.475   0.949   1.675  0.00  0.00     0.002 A 
ENDROOT
BRANCH   1   7
ATOM      7  C1' N4B d   1      -0.127   2.780   1.255  0.00  0.00     0.057 C 
BRANCH   7   8
ATOM      8  C2' N4B d   1      -1.137   2.339   0.200  0.00  0.00     0.009 C 
BRANCH   8   9
ATOM      9  C3' N4B d   1      -0.725   2.769  -1.197  0.00  0.00     0.004 C 
ATOM     10  C4' N4B d   1      -0.482   1.608  -2.114  0.00  0.00     0.003 C 
ENDBRANCH   8   9
ENDBRANCH   7   8
ENDBRANCH   1   7
TORSDOF 3
ENDMDL
