MODEL 1
REMARK minimizedAffinity -4.64591599
REMARK minimizedRMSD -1
REMARK  0 active torsions:
REMARK  status: ('A' for Active; 'I' for Inactive)
ROOT
ATOM      1  C   UNL d   1      -1.331   0.679   0.000  0.00  0.00     0.078 C 
ATOM      2  C1  UNL d   1      -0.084  -0.152   0.071  0.00  0.00    -0.077 A 
ATOM      3  C2  UNL d   1       0.180  -1.138  -0.888  0.00  0.00    -0.001 A 
ATOM      4  C3  UNL d   1       1.339  -1.911  -0.804  0.00  0.00     0.003 A 
ATOM      5  C4  UNL d   1       2.243  -1.706   0.237  0.00  0.00    -0.005 A 
ATOM      6  C5  UNL d   1       1.987  -0.729   1.196  0.00  0.00     0.003 A 
ATOM      7  C6  UNL d   1       0.828   0.045   1.115  0.00  0.00    -0.001 A 
ENDROOT
TORSDOF 0
ENDMDL
