MODEL 1
REMARK minimizedAffinity -4.22238159
REMARK minimizedRMSD -1
REMARK  0 active torsions:
REMARK  status: ('A' for Active; 'I' for Inactive)
ROOT
ATOM      1  C   UNL d   1       2.846  -1.737   1.283  0.00  0.00     0.078 C 
ATOM      2  C1  UNL d   1       1.703  -1.030   0.617  0.00  0.00    -0.077 A 
ATOM      3  C2  UNL d   1       1.449   0.324   0.866  0.00  0.00    -0.001 A 
ATOM      4  C3  UNL d   1       0.376   0.966   0.246  0.00  0.00     0.003 A 
ATOM      5  C4  UNL d   1      -0.453   0.262  -0.626  0.00  0.00    -0.005 A 
ATOM      6  C5  UNL d   1      -0.209  -1.087  -0.878  0.00  0.00     0.003 A 
ATOM      7  C6  UNL d   1       0.864  -1.731  -0.259  0.00  0.00    -0.001 A 
ENDROOT
TORSDOF 0
ENDMDL
