MODEL 1
REMARK minimizedAffinity -5.78433466
REMARK minimizedRMSD -1
REMARK  0 active torsions:
REMARK  status: ('A' for Active; 'I' for Inactive)
ROOT
ATOM      1  C   UNL d   1      -0.515   0.880  -0.299  0.00  0.00     0.078 C 
ATOM      2  C1  UNL d   1       0.796   0.251   0.068  0.00  0.00    -0.077 A 
ATOM      3  C2  UNL d   1       1.796   0.992   0.709  0.00  0.00    -0.001 A 
ATOM      4  C3  UNL d   1       3.016   0.397   1.036  0.00  0.00     0.003 A 
ATOM      5  C4  UNL d   1       3.247  -0.942   0.724  0.00  0.00    -0.005 A 
ATOM      6  C5  UNL d   1       2.258  -1.686   0.084  0.00  0.00     0.003 A 
ATOM      7  C6  UNL d   1       1.038  -1.092  -0.244  0.00  0.00    -0.001 A 
ENDROOT
TORSDOF 0
ENDMDL
