MODEL 1
REMARK minimizedAffinity 1.23738325
REMARK minimizedRMSD -1
REMARK  0 active torsions:
REMARK  status: ('A' for Active; 'I' for Inactive)
ROOT
ATOM      1  C   UNL d   1       2.916  -0.704   0.753  0.00  0.00     0.078 C 
ATOM      2  C1  UNL d   1       1.741   0.166   0.418  0.00  0.00    -0.077 A 
ATOM      3  C2  UNL d   1       0.498  -0.393   0.098  0.00  0.00    -0.001 A 
ATOM      4  C3  UNL d   1      -0.585   0.429  -0.220  0.00  0.00     0.003 A 
ATOM      5  C4  UNL d   1      -0.434   1.814  -0.223  0.00  0.00    -0.005 A 
ATOM      6  C5  UNL d   1       0.800   2.379   0.092  0.00  0.00     0.003 A 
ATOM      7  C6  UNL d   1       1.883   1.559   0.411  0.00  0.00    -0.001 A 
ENDROOT
TORSDOF 0
ENDMDL
