MODEL 1
REMARK minimizedAffinity -2.99040365
REMARK minimizedRMSD -1
REMARK  0 active torsions:
REMARK  status: ('A' for Active; 'I' for Inactive)
ROOT
ATOM      1  C   UNL d   1      -3.043   2.150   1.851  0.00  0.00     0.078 C 
ATOM      2  C1  UNL d   1      -2.187   1.267   0.994  0.00  0.00    -0.077 A 
ATOM      3  C2  UNL d   1      -2.758   0.408   0.047  0.00  0.00    -0.001 A 
ATOM      4  C3  UNL d   1      -1.949  -0.416  -0.737  0.00  0.00     0.003 A 
ATOM      5  C4  UNL d   1      -0.565  -0.391  -0.581  0.00  0.00    -0.005 A 
ATOM      6  C5  UNL d   1       0.013   0.458   0.361  0.00  0.00     0.003 A 
ATOM      7  C6  UNL d   1      -0.794   1.283   1.146  0.00  0.00    -0.001 A 
ENDROOT
TORSDOF 0
ENDMDL
