MODEL 1
REMARK minimizedAffinity -4.88699341
REMARK minimizedRMSD -1
REMARK  0 active torsions:
REMARK  status: ('A' for Active; 'I' for Inactive)
ROOT
ATOM      1  C   UNL d   1      -0.786   1.167   0.101  0.00  0.00     0.078 C 
ATOM      2  C1  UNL d   1       0.122  -0.025   0.051  0.00  0.00    -0.077 A 
ATOM      3  C2  UNL d   1       1.420   0.034   0.574  0.00  0.00    -0.001 A 
ATOM      4  C3  UNL d   1       2.258  -1.080   0.512  0.00  0.00     0.003 A 
ATOM      5  C4  UNL d   1       1.808  -2.262  -0.073  0.00  0.00    -0.005 A 
ATOM      6  C5  UNL d   1       0.519  -2.331  -0.597  0.00  0.00     0.003 A 
ATOM      7  C6  UNL d   1      -0.320  -1.217  -0.536  0.00  0.00    -0.001 A 
ENDROOT
TORSDOF 0
ENDMDL
