MODEL 1
REMARK minimizedAffinity -3.51215124
REMARK minimizedRMSD -1
REMARK  0 active torsions:
REMARK  status: ('A' for Active; 'I' for Inactive)
ROOT
ATOM      1  C   UNL d   1       3.881   1.314  -0.365  0.00  0.00     0.078 C 
ATOM      2  C1  UNL d   1       2.499   0.741  -0.464  0.00  0.00    -0.077 A 
ATOM      3  C2  UNL d   1       1.371   1.572  -0.450  0.00  0.00    -0.001 A 
ATOM      4  C3  UNL d   1       0.090   1.024  -0.533  0.00  0.00     0.003 A 
ATOM      5  C4  UNL d   1      -0.075  -0.356  -0.631  0.00  0.00    -0.005 A 
ATOM      6  C5  UNL d   1       1.041  -1.191  -0.644  0.00  0.00     0.003 A 
ATOM      7  C6  UNL d   1       2.322  -0.645  -0.560  0.00  0.00    -0.001 A 
ENDROOT
TORSDOF 0
ENDMDL
