MODEL 1
REMARK minimizedAffinity -4.11133766
REMARK minimizedRMSD -1
REMARK  0 active torsions:
REMARK  status: ('A' for Active; 'I' for Inactive)
ROOT
ATOM      1  C   UNL d   1       1.787   2.499  -0.330  0.00  0.00     0.078 C 
ATOM      2  C1  UNL d   1       1.808   1.002  -0.407  0.00  0.00    -0.077 A 
ATOM      3  C2  UNL d   1       0.619   0.267  -0.499  0.00  0.00    -0.001 A 
ATOM      4  C3  UNL d   1       0.654  -1.127  -0.561  0.00  0.00     0.003 A 
ATOM      5  C4  UNL d   1       1.874  -1.799  -0.529  0.00  0.00    -0.005 A 
ATOM      6  C5  UNL d   1       3.062  -1.077  -0.435  0.00  0.00     0.003 A 
ATOM      7  C6  UNL d   1       3.030   0.317  -0.374  0.00  0.00    -0.001 A 
ENDROOT
TORSDOF 0
ENDMDL
