MODEL 1
REMARK minimizedAffinity -4.82731056
REMARK minimizedRMSD -1
REMARK  0 active torsions:
REMARK  status: ('A' for Active; 'I' for Inactive)
ROOT
ATOM      1  C   UNL d   1       4.376   1.225  -0.573  0.00  0.00     0.078 C 
ATOM      2  C1  UNL d   1       3.220   0.344  -0.204  0.00  0.00    -0.077 A 
ATOM      3  C2  UNL d   1       3.419  -0.996   0.151  0.00  0.00    -0.001 A 
ATOM      4  C3  UNL d   1       2.333  -1.807   0.482  0.00  0.00     0.003 A 
ATOM      5  C4  UNL d   1       1.040  -1.289   0.461  0.00  0.00    -0.005 A 
ATOM      6  C5  UNL d   1       0.832   0.043   0.107  0.00  0.00     0.003 A 
ATOM      7  C6  UNL d   1       1.917   0.856  -0.225  0.00  0.00    -0.001 A 
ENDROOT
TORSDOF 0
ENDMDL
