MODEL 1
REMARK minimizedAffinity -5.59277487
REMARK minimizedRMSD -1
REMARK  0 active torsions:
REMARK  status: ('A' for Active; 'I' for Inactive)
ROOT
ATOM      1  C   UNL d   1       3.758   1.477  -0.887  0.00  0.00     0.078 C 
ATOM      2  C1  UNL d   1       2.540   0.614  -0.743  0.00  0.00    -0.077 A 
ATOM      3  C2  UNL d   1       1.275   1.179  -0.542  0.00  0.00    -0.001 A 
ATOM      4  C3  UNL d   1       0.152   0.363  -0.400  0.00  0.00     0.003 A 
ATOM      5  C4  UNL d   1       0.282  -1.023  -0.457  0.00  0.00    -0.005 A 
ATOM      6  C5  UNL d   1       1.537  -1.595  -0.655  0.00  0.00     0.003 A 
ATOM      7  C6  UNL d   1       2.662  -0.781  -0.797  0.00  0.00    -0.001 A 
ENDROOT
TORSDOF 0
ENDMDL
