MODEL 1
REMARK minimizedAffinity 0.236154974
REMARK minimizedRMSD -1
REMARK  1 active torsions:
REMARK  status: ('A' for Active; 'I' for Inactive)
REMARK    1  A    between atoms: C1_2  and  C2_3 
ROOT
ATOM      1  C2  UNL d   1       4.244   4.300   5.245  0.00  0.00    -0.077 A 
ATOM      2  C3  UNL d   1       3.244   3.670   6.000  0.00  0.00     0.002 A 
ATOM      3  C4  UNL d   1       3.015   2.299   5.864  0.00  0.00     0.002 A 
ATOM      4  C5  UNL d   1       3.784   1.547   4.979  0.00  0.00    -0.004 A 
ATOM      5  C6  UNL d   1       4.780   2.164   4.223  0.00  0.00     0.002 A 
ATOM      6  C7  UNL d   1       5.010   3.534   4.356  0.00  0.00     0.002 A 
ENDROOT
BRANCH   1   7
ATOM      7  C1  UNL d   1       4.526   5.768   5.426  0.00  0.00     0.055 C 
ATOM      8  C   UNL d   1       5.917   5.999   6.000  0.00  0.00     0.019 C 
ENDBRANCH   1   7
TORSDOF 1
ENDMDL
