MODEL 1
REMARK minimizedAffinity 0.742830336
REMARK minimizedRMSD -1
REMARK  1 active torsions:
REMARK  status: ('A' for Active; 'I' for Inactive)
REMARK    1  A    between atoms: C1_2  and  C2_3 
ROOT
ATOM      1  C2  UNL d   1       4.059   3.579   4.099  0.00  0.00    -0.077 A 
ATOM      2  C3  UNL d   1       4.783   3.590   5.299  0.00  0.00     0.002 A 
ATOM      3  C4  UNL d   1       5.222   4.796   5.849  0.00  0.00     0.002 A 
ATOM      4  C5  UNL d   1       4.937   6.000   5.208  0.00  0.00    -0.004 A 
ATOM      5  C6  UNL d   1       4.218   6.000   4.013  0.00  0.00     0.002 A 
ATOM      6  C7  UNL d   1       3.781   4.795   3.461  0.00  0.00     0.002 A 
ENDROOT
BRANCH   1   7
ATOM      7  C1  UNL d   1       3.543   2.283   3.530  0.00  0.00     0.055 C 
ATOM      8  C   UNL d   1       2.576   1.604   4.488  0.00  0.00     0.019 C 
ENDBRANCH   1   7
TORSDOF 1
ENDMDL
