MODEL 1
REMARK minimizedAffinity -4.0760603
REMARK minimizedRMSD -1
REMARK  1 active torsions:
REMARK  status: ('A' for Active; 'I' for Inactive)
REMARK    1  A    between atoms: C1_2  and  C2_3 
ROOT
ATOM      1  C2  UNL d   1       4.438   3.635   5.074  0.00  0.00    -0.077 A 
ATOM      2  C3  UNL d   1       3.394   3.578   4.140  0.00  0.00     0.002 A 
ATOM      3  C4  UNL d   1       2.510   2.497   4.134  0.00  0.00     0.002 A 
ATOM      4  C5  UNL d   1       2.658   1.468   5.061  0.00  0.00    -0.004 A 
ATOM      5  C6  UNL d   1       3.694   1.515   5.993  0.00  0.00     0.002 A 
ATOM      6  C7  UNL d   1       4.580   2.593   6.000  0.00  0.00     0.002 A 
ENDROOT
BRANCH   1   7
ATOM      7  C1  UNL d   1       5.363   4.823   5.114  0.00  0.00     0.055 C 
ATOM      8  C   UNL d   1       4.731   5.991   5.857  0.00  0.00     0.019 C 
ENDBRANCH   1   7
TORSDOF 1
ENDMDL
