MODEL 1
REMARK minimizedAffinity -4.28214169
REMARK minimizedRMSD -1
REMARK  1 active torsions:
REMARK  status: ('A' for Active; 'I' for Inactive)
REMARK    1  A    between atoms: C1_2  and  C2_3 
ROOT
ATOM      1  C2  UNL d   1       4.108   3.788   4.480  0.00  0.00    -0.077 A 
ATOM      2  C3  UNL d   1       5.081   3.134   5.247  0.00  0.00     0.002 A 
ATOM      3  C4  UNL d   1       6.000   3.869   6.000  0.00  0.00     0.002 A 
ATOM      4  C5  UNL d   1       5.951   5.261   5.995  0.00  0.00    -0.004 A 
ATOM      5  C6  UNL d   1       4.988   5.922   5.233  0.00  0.00     0.002 A 
ATOM      6  C7  UNL d   1       4.070   5.189   4.479  0.00  0.00     0.002 A 
ENDROOT
BRANCH   1   7
ATOM      7  C1  UNL d   1       3.086   2.997   3.707  0.00  0.00     0.055 C 
ATOM      8  C   UNL d   1       2.731   1.702   4.424  0.00  0.00     0.019 C 
ENDBRANCH   1   7
TORSDOF 1
ENDMDL
