MODEL 1
REMARK minimizedAffinity 2.31627941
REMARK minimizedRMSD -1
REMARK  1 active torsions:
REMARK  status: ('A' for Active; 'I' for Inactive)
REMARK    1  A    between atoms: C1_2  and  C2_3 
ROOT
ATOM      1  C2  UNL d   1       3.866   2.987   5.226  0.00  0.00    -0.077 A 
ATOM      2  C3  UNL d   1       4.389   4.101   5.897  0.00  0.00     0.002 A 
ATOM      3  C4  UNL d   1       4.852   5.206   5.180  0.00  0.00     0.002 A 
ATOM      4  C5  UNL d   1       4.792   5.209   3.788  0.00  0.00    -0.004 A 
ATOM      5  C6  UNL d   1       4.276   4.105   3.110  0.00  0.00     0.002 A 
ATOM      6  C7  UNL d   1       3.815   3.000   3.826  0.00  0.00     0.002 A 
ENDROOT
BRANCH   1   7
ATOM      7  C1  UNL d   1       3.322   1.815   6.000  0.00  0.00     0.055 C 
ATOM      8  C   UNL d   1       2.576   0.850   5.090  0.00  0.00     0.019 C 
ENDBRANCH   1   7
TORSDOF 1
ENDMDL
