MODEL 1
REMARK minimizedAffinity -5.20911407
REMARK minimizedRMSD -1
REMARK  0 active torsions:
REMARK  status: ('A' for Active; 'I' for Inactive)
ROOT
ATOM      1  C   UNL d   1       3.002  -1.368  -0.309  0.00  0.00     0.077 C 
ATOM      2  C1  UNL d   1       2.009  -1.112   0.785  0.00  0.00    -0.074 A 
ATOM      3  C2  UNL d   1       2.317  -1.404   2.118  0.00  0.00    -0.005 A 
ATOM      4  C3  UNL d   1       1.387  -1.151   3.126  0.00  0.00     0.006 A 
ATOM      5  C4  UNL d   1       0.142  -0.604   2.813  0.00  0.00    -0.005 A 
ATOM      6  C5  UNL d   1      -0.183  -0.304   1.486  0.00  0.00    -0.074 A 
ATOM      7  C6  UNL d   1      -1.513   0.294   1.133  0.00  0.00     0.077 C 
ATOM      8  C7  UNL d   1       0.759  -0.555   0.479  0.00  0.00    -0.001 A 
ENDROOT
TORSDOF 0
ENDMDL
