MODEL 1
REMARK minimizedAffinity -5.18190575
REMARK minimizedRMSD -1
REMARK  0 active torsions:
REMARK  status: ('A' for Active; 'I' for Inactive)
ROOT
ATOM      1  C   UNL d   1      -0.902   0.264  -1.145  0.00  0.00     0.077 C 
ATOM      2  C1  UNL d   1       0.202  -0.428  -0.403  0.00  0.00    -0.074 A 
ATOM      3  C2  UNL d   1       1.260  -1.033  -1.089  0.00  0.00    -0.005 A 
ATOM      4  C3  UNL d   1       2.286  -1.665  -0.385  0.00  0.00     0.006 A 
ATOM      5  C4  UNL d   1       2.263  -1.698   1.010  0.00  0.00    -0.005 A 
ATOM      6  C5  UNL d   1       1.214  -1.098   1.713  0.00  0.00    -0.074 A 
ATOM      7  C6  UNL d   1       1.180  -1.116   3.212  0.00  0.00     0.077 C 
ATOM      8  C7  UNL d   1       0.191  -0.459   0.999  0.00  0.00    -0.001 A 
ENDROOT
TORSDOF 0
ENDMDL
