MODEL 1
REMARK minimizedAffinity -5.33531809
REMARK minimizedRMSD -1
REMARK  0 active torsions:
REMARK  status: ('A' for Active; 'I' for Inactive)
ROOT
ATOM      1  C   UNL d   1       2.741  -1.893   1.146  0.00  0.00     0.077 C 
ATOM      2  C1  UNL d   1       1.390  -1.243   1.162  0.00  0.00    -0.074 A 
ATOM      3  C2  UNL d   1       0.585  -1.286   2.305  0.00  0.00    -0.005 A 
ATOM      4  C3  UNL d   1      -0.666  -0.668   2.307  0.00  0.00     0.006 A 
ATOM      5  C4  UNL d   1      -1.124  -0.003   1.169  0.00  0.00    -0.005 A 
ATOM      6  C5  UNL d   1      -0.332   0.051   0.018  0.00  0.00    -0.074 A 
ATOM      7  C6  UNL d   1      -0.805   0.770  -1.211  0.00  0.00     0.077 C 
ATOM      8  C7  UNL d   1       0.926  -0.566   0.025  0.00  0.00    -0.001 A 
ENDROOT
TORSDOF 0
ENDMDL
