MODEL 1
REMARK minimizedAffinity -4.03410339
REMARK minimizedRMSD -1
REMARK  0 active torsions:
REMARK  status: ('A' for Active; 'I' for Inactive)
ROOT
ATOM      1  C   UNL d   1       1.864  -1.051   3.069  0.00  0.00     0.077 C 
ATOM      2  C1  UNL d   1       0.780  -0.750   2.077  0.00  0.00    -0.074 A 
ATOM      3  C2  UNL d   1      -0.513  -0.429   2.501  0.00  0.00    -0.005 A 
ATOM      4  C3  UNL d   1      -1.508  -0.142   1.566  0.00  0.00     0.006 A 
ATOM      5  C4  UNL d   1      -1.221  -0.174   0.201  0.00  0.00    -0.005 A 
ATOM      6  C5  UNL d   1       0.067  -0.492  -0.241  0.00  0.00    -0.074 A 
ATOM      7  C6  UNL d   1       0.395  -0.521  -1.704  0.00  0.00     0.077 C 
ATOM      8  C7  UNL d   1       1.063  -0.772   0.704  0.00  0.00    -0.001 A 
ENDROOT
TORSDOF 0
ENDMDL
