MODEL 1
REMARK minimizedAffinity -4.74792719
REMARK minimizedRMSD -1
REMARK  0 active torsions:
REMARK  status: ('A' for Active; 'I' for Inactive)
ROOT
ATOM      1  C   UNL d   1       2.122  -1.251  -1.796  0.00  0.00     0.077 C 
ATOM      2  C1  UNL d   1       1.179  -0.886  -0.688  0.00  0.00    -0.074 A 
ATOM      3  C2  UNL d   1      -0.092  -0.374  -0.966  0.00  0.00    -0.005 A 
ATOM      4  C3  UNL d   1      -0.962  -0.048   0.075  0.00  0.00     0.006 A 
ATOM      5  C4  UNL d   1      -0.569  -0.230   1.402  0.00  0.00    -0.005 A 
ATOM      6  C5  UNL d   1       0.698  -0.742   1.699  0.00  0.00    -0.074 A 
ATOM      7  C6  UNL d   1       1.132  -0.954   3.119  0.00  0.00     0.077 C 
ATOM      8  C7  UNL d   1       1.563  -1.074   0.647  0.00  0.00    -0.001 A 
ENDROOT
TORSDOF 0
ENDMDL
