MODEL 1
REMARK minimizedAffinity -4.25455904
REMARK minimizedRMSD -1
REMARK  0 active torsions:
REMARK  status: ('A' for Active; 'I' for Inactive)
ROOT
ATOM      1  C   UNL d   1       1.521  -0.811   3.616  0.00  0.00     0.077 C 
ATOM      2  C1  UNL d   1       1.692  -0.888   2.128  0.00  0.00    -0.074 A 
ATOM      3  C2  UNL d   1       2.711  -1.661   1.561  0.00  0.00    -0.005 A 
ATOM      4  C3  UNL d   1       2.852  -1.731   0.175  0.00  0.00     0.006 A 
ATOM      5  C4  UNL d   1       1.977  -1.031  -0.656  0.00  0.00    -0.005 A 
ATOM      6  C5  UNL d   1       0.952  -0.254  -0.107  0.00  0.00    -0.074 A 
ATOM      7  C6  UNL d   1      -0.003   0.497  -0.987  0.00  0.00     0.077 C 
ATOM      8  C7  UNL d   1       0.813  -0.194   1.286  0.00  0.00    -0.001 A 
ENDROOT
TORSDOF 0
ENDMDL
