MODEL 1
REMARK minimizedAffinity -6.03141594
REMARK minimizedRMSD -1
REMARK  0 active torsions:
REMARK  status: ('A' for Active; 'I' for Inactive)
ROOT
ATOM      1  C   UNL d   1      -0.068   0.820  -0.580  0.00  0.00     0.077 C 
ATOM      2  C1  UNL d   1       0.686   0.042   0.457  0.00  0.00    -0.074 A 
ATOM      3  C2  UNL d   1       0.704   0.455   1.793  0.00  0.00    -0.005 A 
ATOM      4  C3  UNL d   1       1.402  -0.284   2.748  0.00  0.00     0.006 A 
ATOM      5  C4  UNL d   1       2.088  -1.441   2.378  0.00  0.00    -0.005 A 
ATOM      6  C5  UNL d   1       2.082  -1.869   1.047  0.00  0.00    -0.074 A 
ATOM      7  C6  UNL d   1       2.806  -3.116   0.634  0.00  0.00     0.077 C 
ATOM      8  C7  UNL d   1       1.372  -1.126   0.094  0.00  0.00    -0.001 A 
ENDROOT
TORSDOF 0
ENDMDL
