MODEL 1
REMARK minimizedAffinity -5.24440575
REMARK minimizedRMSD -1
REMARK  0 active torsions:
REMARK  status: ('A' for Active; 'I' for Inactive)
ROOT
ATOM      1  C   UNL d   1       2.836  -2.552   1.057  0.00  0.00     0.077 C 
ATOM      2  C1  UNL d   1       1.685  -1.634   1.340  0.00  0.00    -0.074 A 
ATOM      3  C2  UNL d   1       1.190  -1.480   2.639  0.00  0.00    -0.005 A 
ATOM      4  C3  UNL d   1       0.125  -0.615   2.888  0.00  0.00     0.006 A 
ATOM      5  C4  UNL d   1      -0.456   0.104   1.843  0.00  0.00    -0.005 A 
ATOM      6  C5  UNL d   1       0.026  -0.036   0.537  0.00  0.00    -0.074 A 
ATOM      7  C6  UNL d   1      -0.580   0.737  -0.596  0.00  0.00     0.077 C 
ATOM      8  C7  UNL d   1       1.101  -0.902   0.296  0.00  0.00    -0.001 A 
ENDROOT
TORSDOF 0
ENDMDL
