MODEL 1
REMARK minimizedAffinity 1.32226765
REMARK minimizedRMSD -1
REMARK  0 active torsions:
REMARK  status: ('A' for Active; 'I' for Inactive)
ROOT
ATOM      1  C1  DEN d   1      -4.511  -5.696  -2.277  0.00  0.00     0.130 A 
ATOM      2  C2  DEN d   1      -4.560  -4.511  -1.425  0.00  0.00    -0.031 A 
ATOM      3  C3  DEN d   1      -4.814  -3.339  -2.286  0.00  0.00     0.027 A 
ATOM      4  C4  DEN d   1      -5.140  -3.245  -4.843  0.00  0.00     0.027 A 
ATOM      5  C5  DEN d   1      -5.172  -3.993  -5.999  0.00  0.00    -0.003 A 
ATOM      6  C6  DEN d   1      -4.954  -5.345  -5.999  0.00  0.00     0.001 A 
ATOM      7  C7  DEN d   1      -4.739  -5.999  -4.815  0.00  0.00     0.017 A 
ATOM      8  C8  DEN d   1      -4.698  -5.250  -3.646  0.00  0.00    -0.094 A 
ATOM      9  C9  DEN d   1      -4.932  -3.886  -3.665  0.00  0.00    -0.072 A 
ENDROOT
TORSDOF 0
ENDMDL
