MODEL 1
REMARK minimizedAffinity -2.18455124
REMARK minimizedRMSD -1
REMARK  0 active torsions:
REMARK  status: ('A' for Active; 'I' for Inactive)
ROOT
ATOM      1  C1  DEN d   1      -5.999  -3.696  -5.151  0.00  0.00     0.130 A 
ATOM      2  C2  DEN d   1      -5.924  -4.884  -5.996  0.00  0.00    -0.031 A 
ATOM      3  C3  DEN d   1      -5.405  -5.997  -5.176  0.00  0.00     0.027 A 
ATOM      4  C4  DEN d   1      -4.718  -5.997  -2.690  0.00  0.00     0.027 A 
ATOM      5  C5  DEN d   1      -4.594  -5.220  -1.560  0.00  0.00    -0.003 A 
ATOM      6  C6  DEN d   1      -4.896  -3.883  -1.556  0.00  0.00     0.001 A 
ATOM      7  C7  DEN d   1      -5.379  -3.293  -2.694  0.00  0.00     0.017 A 
ATOM      8  C8  DEN d   1      -5.499  -4.069  -3.839  0.00  0.00    -0.094 A 
ATOM      9  C9  DEN d   1      -5.201  -5.421  -3.820  0.00  0.00    -0.072 A 
ENDROOT
TORSDOF 0
ENDMDL
