MODEL 1
REMARK minimizedAffinity 2.96535373
REMARK minimizedRMSD -1
REMARK  0 active torsions:
REMARK  status: ('A' for Active; 'I' for Inactive)
ROOT
ATOM      1  C1  DEN d   1      -5.501  -5.999  -4.748  0.00  0.00     0.130 A 
ATOM      2  C2  DEN d   1      -4.913  -5.530  -6.000  0.00  0.00    -0.031 A 
ATOM      3  C3  DEN d   1      -4.560  -4.106  -5.833  0.00  0.00     0.027 A 
ATOM      4  C4  DEN d   1      -4.860  -2.592  -3.767  0.00  0.00     0.027 A 
ATOM      5  C5  DEN d   1      -5.324  -2.539  -2.471  0.00  0.00    -0.003 A 
ATOM      6  C6  DEN d   1      -5.907  -3.618  -1.860  0.00  0.00     0.001 A 
ATOM      7  C7  DEN d   1      -5.999  -4.810  -2.530  0.00  0.00     0.017 A 
ATOM      8  C8  DEN d   1      -5.539  -4.868  -3.839  0.00  0.00    -0.094 A 
ATOM      9  C9  DEN d   1      -4.943  -3.770  -4.435  0.00  0.00    -0.072 A 
ENDROOT
TORSDOF 0
ENDMDL
