MODEL 1
REMARK minimizedAffinity -1.77662063
REMARK minimizedRMSD -1
REMARK  0 active torsions:
REMARK  status: ('A' for Active; 'I' for Inactive)
ROOT
ATOM      1  C1  DEN d   1      -5.722  -3.803  -2.250  0.00  0.00     0.130 A 
ATOM      2  C2  DEN d   1      -5.074  -4.795  -1.397  0.00  0.00    -0.031 A 
ATOM      3  C3  DEN d   1      -4.489  -5.834  -2.268  0.00  0.00     0.027 A 
ATOM      4  C4  DEN d   1      -4.520  -6.000  -4.842  0.00  0.00     0.027 A 
ATOM      5  C5  DEN d   1      -4.960  -5.398  -6.000  0.00  0.00    -0.003 A 
ATOM      6  C6  DEN d   1      -5.708  -4.250  -5.988  0.00  0.00     0.001 A 
ATOM      7  C7  DEN d   1      -6.000  -3.643  -4.795  0.00  0.00     0.017 A 
ATOM      8  C8  DEN d   1      -5.566  -4.248  -3.623  0.00  0.00    -0.094 A 
ATOM      9  C9  DEN d   1      -4.801  -5.401  -3.656  0.00  0.00    -0.072 A 
ENDROOT
TORSDOF 0
ENDMDL
