MODEL 1
REMARK minimizedAffinity 1.38054228
REMARK minimizedRMSD -1
REMARK  0 active torsions:
REMARK  status: ('A' for Active; 'I' for Inactive)
ROOT
ATOM      1  C1  DEN d   1      -5.998  -3.802  -2.336  0.00  0.00     0.130 A 
ATOM      2  C2  DEN d   1      -5.726  -4.936  -1.457  0.00  0.00    -0.031 A 
ATOM      3  C3  DEN d   1      -5.096  -6.000  -2.265  0.00  0.00     0.027 A 
ATOM      4  C4  DEN d   1      -4.514  -5.999  -4.778  0.00  0.00     0.027 A 
ATOM      5  C5  DEN d   1      -4.565  -5.265  -5.942  0.00  0.00    -0.003 A 
ATOM      6  C6  DEN d   1      -5.124  -4.015  -5.993  0.00  0.00     0.001 A 
ATOM      7  C7  DEN d   1      -5.614  -3.443  -4.848  0.00  0.00     0.017 A 
ATOM      8  C8  DEN d   1      -5.572  -4.181  -3.672  0.00  0.00    -0.094 A 
ATOM      9  C9  DEN d   1      -4.991  -5.437  -3.638  0.00  0.00    -0.072 A 
ENDROOT
TORSDOF 0
ENDMDL
