MODEL 1
REMARK minimizedAffinity -1.38144422
REMARK minimizedRMSD -1
REMARK  0 active torsions:
REMARK  status: ('A' for Active; 'I' for Inactive)
ROOT
ATOM      1  C1  DEN d   1      -5.909  -3.649  -2.156  0.00  0.00     0.130 A 
ATOM      2  C2  DEN d   1      -5.817  -4.883  -1.380  0.00  0.00    -0.031 A 
ATOM      3  C3  DEN d   1      -5.583  -5.997  -2.322  0.00  0.00     0.027 A 
ATOM      4  C4  DEN d   1      -5.352  -5.930  -4.890  0.00  0.00     0.027 A 
ATOM      5  C5  DEN d   1      -5.371  -5.111  -5.997  0.00  0.00    -0.003 A 
ATOM      6  C6  DEN d   1      -5.602  -3.764  -5.906  0.00  0.00     0.001 A 
ATOM      7  C7  DEN d   1      -5.779  -3.188  -4.676  0.00  0.00     0.017 A 
ATOM      8  C8  DEN d   1      -5.769  -4.008  -3.555  0.00  0.00    -0.094 A 
ATOM      9  C9  DEN d   1      -5.522  -5.365  -3.667  0.00  0.00    -0.072 A 
ENDROOT
TORSDOF 0
ENDMDL
