MODEL 1
REMARK minimizedAffinity -0.537919164
REMARK minimizedRMSD -1
REMARK  0 active torsions:
REMARK  status: ('A' for Active; 'I' for Inactive)
ROOT
ATOM      1  C1  DEN d   1      -5.512  -3.342  -5.022  0.00  0.00     0.130 A 
ATOM      2  C2  DEN d   1      -4.788  -4.196  -5.960  0.00  0.00    -0.031 A 
ATOM      3  C3  DEN d   1      -4.316  -5.386  -5.223  0.00  0.00     0.027 A 
ATOM      4  C4  DEN d   1      -4.639  -5.987  -2.736  0.00  0.00     0.027 A 
ATOM      5  C5  DEN d   1      -5.176  -5.566  -1.539  0.00  0.00    -0.003 A 
ATOM      6  C6  DEN d   1      -5.828  -4.368  -1.413  0.00  0.00     0.001 A 
ATOM      7  C7  DEN d   1      -5.999  -3.569  -2.513  0.00  0.00     0.017 A 
ATOM      8  C8  DEN d   1      -5.453  -3.984  -3.721  0.00  0.00    -0.094 A 
ATOM      9  C9  DEN d   1      -4.809  -5.204  -3.831  0.00  0.00    -0.072 A 
ENDROOT
TORSDOF 0
ENDMDL
