MODEL 1
REMARK minimizedAffinity -3.35762691
REMARK minimizedRMSD -1
REMARK  0 active torsions:
REMARK  status: ('A' for Active; 'I' for Inactive)
ROOT
ATOM      1  C1  DEN d   1      -5.269  -3.795  -5.325  0.00  0.00     0.130 A 
ATOM      2  C2  DEN d   1      -4.612  -4.912  -5.999  0.00  0.00    -0.031 A 
ATOM      3  C3  DEN d   1      -4.376  -5.973  -5.001  0.00  0.00     0.027 A 
ATOM      4  C4  DEN d   1      -4.966  -6.000  -2.490  0.00  0.00     0.027 A 
ATOM      5  C5  DEN d   1      -5.522  -5.273  -1.460  0.00  0.00    -0.003 A 
ATOM      6  C6  DEN d   1      -5.997  -4.001  -1.637  0.00  0.00     0.001 A 
ATOM      7  C7  DEN d   1      -5.967  -3.433  -2.883  0.00  0.00     0.017 A 
ATOM      8  C8  DEN d   1      -5.402  -4.156  -3.925  0.00  0.00    -0.094 A 
ATOM      9  C9  DEN d   1      -4.938  -5.445  -3.728  0.00  0.00    -0.072 A 
ENDROOT
TORSDOF 0
ENDMDL
