MODEL 1
REMARK minimizedAffinity -1.57627463
REMARK minimizedRMSD -1
REMARK  0 active torsions:
REMARK  status: ('A' for Active; 'I' for Inactive)
ROOT
ATOM      1  C4' PXY d   1       5.796   0.084   4.040  0.00  0.00     0.077 C 
ATOM      2  C1' PXY d   1       4.049  -5.067   5.999  0.00  0.00     0.077 C 
ATOM      3  C1  PXY d   1       4.501  -3.718   5.474  0.00  0.00    -0.082 A 
ATOM      4  C2  PXY d   1       5.595  -3.158   5.965  0.00  0.00     0.003 A 
ATOM      5  C3  PXY d   1       6.000  -1.925   5.525  0.00  0.00     0.003 A 
ATOM      6  C4  PXY d   1       5.308  -1.281   4.534  0.00  0.00    -0.082 A 
ATOM      7  C5  PXY d   1       4.197  -1.851   4.020  0.00  0.00     0.003 A 
ATOM      8  C6  PXY d   1       3.779  -3.085   4.510  0.00  0.00     0.003 A 
ENDROOT
TORSDOF 0
ENDMDL
