MODEL 1
REMARK minimizedAffinity -1.53048944
REMARK minimizedRMSD -1
REMARK  0 active torsions:
REMARK  status: ('A' for Active; 'I' for Inactive)
ROOT
ATOM      1  C4' PXY d   1       5.014  -0.389   4.528  0.00  0.00     0.077 C 
ATOM      2  C1' PXY d   1       4.881  -5.992   5.943  0.00  0.00     0.077 C 
ATOM      3  C1  PXY d   1       4.923  -4.520   5.583  0.00  0.00    -0.082 A 
ATOM      4  C2  PXY d   1       3.951  -3.997   4.854  0.00  0.00     0.003 A 
ATOM      5  C3  PXY d   1       3.989  -2.675   4.492  0.00  0.00     0.003 A 
ATOM      6  C4  PXY d   1       5.008  -1.868   4.924  0.00  0.00    -0.082 A 
ATOM      7  C5  PXY d   1       5.998  -2.392   5.676  0.00  0.00     0.003 A 
ATOM      8  C6  PXY d   1       5.962  -3.745   5.999  0.00  0.00     0.003 A 
ENDROOT
TORSDOF 0
ENDMDL
