MODEL 1
REMARK minimizedAffinity -2.78334475
REMARK minimizedRMSD -1
REMARK  0 active torsions:
REMARK  status: ('A' for Active; 'I' for Inactive)
ROOT
ATOM      1  C4' PXY d   1       5.636  -2.625   4.821  0.00  0.00     0.077 C 
ATOM      2  C1' PXY d   1       5.534   3.154   4.896  0.00  0.00     0.077 C 
ATOM      3  C1  PXY d   1       5.562   1.638   4.889  0.00  0.00    -0.082 A 
ATOM      4  C2  PXY d   1       5.940   0.996   3.796  0.00  0.00     0.003 A 
ATOM      5  C3  PXY d   1       5.940  -0.375   3.762  0.00  0.00     0.003 A 
ATOM      6  C4  PXY d   1       5.601  -1.095   4.876  0.00  0.00    -0.082 A 
ATOM      7  C5  PXY d   1       5.225  -0.447   5.999  0.00  0.00     0.003 A 
ATOM      8  C6  PXY d   1       5.192   0.944   6.000  0.00  0.00     0.003 A 
ENDROOT
TORSDOF 0
ENDMDL
