MODEL 1
REMARK minimizedAffinity 2.03145552
REMARK minimizedRMSD -1
REMARK  0 active torsions:
REMARK  status: ('A' for Active; 'I' for Inactive)
ROOT
ATOM      1  C4' PXY d   1       6.000   4.806   5.554  0.00  0.00     0.077 C 
ATOM      2  C1' PXY d   1       5.510  -0.666   3.757  0.00  0.00     0.077 C 
ATOM      3  C1  PXY d   1       5.635   0.765   4.240  0.00  0.00    -0.082 A 
ATOM      4  C2  PXY d   1       5.506   1.760   3.378  0.00  0.00     0.003 A 
ATOM      5  C3  PXY d   1       5.648   3.060   3.792  0.00  0.00     0.003 A 
ATOM      6  C4  PXY d   1       5.872   3.345   5.112  0.00  0.00    -0.082 A 
ATOM      7  C5  PXY d   1       5.994   2.336   6.000  0.00  0.00     0.003 A 
ATOM      8  C6  PXY d   1       5.888   1.022   5.552  0.00  0.00     0.003 A 
ENDROOT
TORSDOF 0
ENDMDL
