MODEL 1
REMARK minimizedAffinity 6.39123154
REMARK minimizedRMSD -1
REMARK  0 active torsions:
REMARK  status: ('A' for Active; 'I' for Inactive)
ROOT
ATOM      1  C4' PXY d   1       5.696  -4.450   4.759  0.00  0.00     0.077 C 
ATOM      2  C1' PXY d   1       5.102   1.294   5.004  0.00  0.00     0.077 C 
ATOM      3  C1  PXY d   1       5.267  -0.212   4.948  0.00  0.00    -0.082 A 
ATOM      4  C2  PXY d   1       4.847  -0.877   3.885  0.00  0.00     0.003 A 
ATOM      5  C3  PXY d   1       4.959  -2.243   3.832  0.00  0.00     0.003 A 
ATOM      6  C4  PXY d   1       5.558  -2.928   4.855  0.00  0.00    -0.082 A 
ATOM      7  C5  PXY d   1       5.999  -2.255   5.939  0.00  0.00     0.003 A 
ATOM      8  C6  PXY d   1       5.838  -0.874   5.991  0.00  0.00     0.003 A 
ENDROOT
TORSDOF 0
ENDMDL
