MODEL 1
REMARK minimizedAffinity -1.7257123
REMARK minimizedRMSD -1
REMARK  0 active torsions:
REMARK  status: ('A' for Active; 'I' for Inactive)
ROOT
ATOM      1  C4' PXY d   1       5.835  -2.982   4.862  0.00  0.00     0.077 C 
ATOM      2  C1' PXY d   1       5.586   2.793   4.896  0.00  0.00     0.077 C 
ATOM      3  C1  PXY d   1       5.649   1.279   4.874  0.00  0.00    -0.082 A 
ATOM      4  C2  PXY d   1       5.417   0.598   5.985  0.00  0.00     0.003 A 
ATOM      5  C3  PXY d   1       5.502  -0.770   5.991  0.00  0.00     0.003 A 
ATOM      6  C4  PXY d   1       5.773  -1.452   4.835  0.00  0.00    -0.082 A 
ATOM      7  C5  PXY d   1       5.999  -0.766   3.695  0.00  0.00     0.003 A 
ATOM      8  C6  PXY d   1       5.950   0.625   3.719  0.00  0.00     0.003 A 
ENDROOT
TORSDOF 0
ENDMDL
