MODEL 1
REMARK minimizedAffinity -2.99870872
REMARK minimizedRMSD -1
REMARK  0 active torsions:
REMARK  status: ('A' for Active; 'I' for Inactive)
ROOT
ATOM      1  C4' PXY d   1       5.963  -2.901   4.856  0.00  0.00     0.077 C 
ATOM      2  C1' PXY d   1       5.540   2.864   4.901  0.00  0.00     0.077 C 
ATOM      3  C1  PXY d   1       5.648   1.352   4.877  0.00  0.00    -0.082 A 
ATOM      4  C2  PXY d   1       5.495   0.667   5.998  0.00  0.00     0.003 A 
ATOM      5  C3  PXY d   1       5.621  -0.698   6.000  0.00  0.00     0.003 A 
ATOM      6  C4  PXY d   1       5.853  -1.374   4.832  0.00  0.00    -0.082 A 
ATOM      7  C5  PXY d   1       6.000  -0.683   3.681  0.00  0.00     0.003 A 
ATOM      8  C6  PXY d   1       5.909   0.706   3.708  0.00  0.00     0.003 A 
ENDROOT
TORSDOF 0
ENDMDL
