MODEL 1
REMARK minimizedAffinity -1.63047636
REMARK minimizedRMSD -1
REMARK  0 active torsions:
REMARK  status: ('A' for Active; 'I' for Inactive)
ROOT
ATOM      1  C4' PXY d   1       5.999   2.227   4.923  0.00  0.00     0.077 C 
ATOM      2  C1' PXY d   1       5.937  -3.550   4.758  0.00  0.00     0.077 C 
ATOM      3  C1  PXY d   1       5.959  -2.035   4.789  0.00  0.00    -0.082 A 
ATOM      4  C2  PXY d   1       5.999  -1.405   5.952  0.00  0.00     0.003 A 
ATOM      5  C3  PXY d   1       5.987  -0.035   6.000  0.00  0.00     0.003 A 
ATOM      6  C4  PXY d   1       5.986   0.698   4.843  0.00  0.00    -0.082 A 
ATOM      7  C5  PXY d   1       5.955   0.063   3.653  0.00  0.00     0.003 A 
ATOM      8  C6  PXY d   1       5.927  -1.328   3.627  0.00  0.00     0.003 A 
ENDROOT
TORSDOF 0
ENDMDL
