MODEL 1
REMARK minimizedAffinity 4.2964983
REMARK minimizedRMSD -1
REMARK  0 active torsions:
REMARK  status: ('A' for Active; 'I' for Inactive)
ROOT
ATOM      1  C4' PXY d   1       0.661   3.764   0.347  0.00  0.00     0.077 C 
ATOM      2  C1' PXY d   1      -0.348  -1.911  -0.083  0.00  0.00     0.077 C 
ATOM      3  C1  PXY d   1      -0.094  -0.422   0.037  0.00  0.00    -0.082 A 
ATOM      4  C2  PXY d   1       0.601   0.201  -0.901  0.00  0.00     0.003 A 
ATOM      5  C3  PXY d   1       0.868   1.542  -0.791  0.00  0.00     0.003 A 
ATOM      6  C4  PXY d   1       0.372   2.263   0.262  0.00  0.00    -0.082 A 
ATOM      7  C5  PXY d   1      -0.347   1.637   1.217  0.00  0.00     0.003 A 
ATOM      8  C6  PXY d   1      -0.572   0.267   1.109  0.00  0.00     0.003 A 
ENDROOT
TORSDOF 0
ENDMDL
