MODEL 1
REMARK minimizedAffinity -1.81142485
REMARK minimizedRMSD -1
REMARK  0 active torsions:
REMARK  status: ('A' for Active; 'I' for Inactive)
ROOT
ATOM      1  C4' PXY d   1       5.627  -1.698   4.855  0.00  0.00     0.077 C 
ATOM      2  C1' PXY d   1       5.619   4.081   4.971  0.00  0.00     0.077 C 
ATOM      3  C1  PXY d   1       5.620   2.566   4.928  0.00  0.00    -0.082 A 
ATOM      4  C2  PXY d   1       5.257   1.881   6.000  0.00  0.00     0.003 A 
ATOM      5  C3  PXY d   1       5.283   0.510   5.988  0.00  0.00     0.003 A 
ATOM      6  C4  PXY d   1       5.632  -0.167   4.850  0.00  0.00    -0.082 A 
ATOM      7  C5  PXY d   1       5.993   0.525   3.749  0.00  0.00     0.003 A 
ATOM      8  C6  PXY d   1       6.000   1.916   3.794  0.00  0.00     0.003 A 
ENDROOT
TORSDOF 0
ENDMDL
