MODEL 1
REMARK minimizedAffinity -1.79162288
REMARK minimizedRMSD -1
REMARK  0 active torsions:
REMARK  status: ('A' for Active; 'I' for Inactive)
ROOT
ATOM      1  C4' PXY d   1       5.162   3.321   4.090  0.00  0.00     0.077 C 
ATOM      2  C1' PXY d   1       5.636  -2.259   5.524  0.00  0.00     0.077 C 
ATOM      3  C1  PXY d   1       5.513  -0.792   5.161  0.00  0.00    -0.082 A 
ATOM      4  C2  PXY d   1       4.937  -0.447   4.021  0.00  0.00     0.003 A 
ATOM      5  C3  PXY d   1       4.845   0.873   3.661  0.00  0.00     0.003 A 
ATOM      6  C4  PXY d   1       5.300   1.853   4.502  0.00  0.00    -0.082 A 
ATOM      7  C5  PXY d   1       5.880   1.509   5.672  0.00  0.00     0.003 A 
ATOM      8  C6  PXY d   1       6.000   0.162   5.999  0.00  0.00     0.003 A 
ENDROOT
TORSDOF 0
ENDMDL
