MODEL 1
REMARK minimizedAffinity -2.62949371
REMARK minimizedRMSD -1
REMARK  0 active torsions:
REMARK  status: ('A' for Active; 'I' for Inactive)
ROOT
ATOM      1  C4' PXY d   1       5.977   4.543   4.916  0.00  0.00     0.077 C 
ATOM      2  C1' PXY d   1       5.306  -1.198   4.852  0.00  0.00     0.077 C 
ATOM      3  C1  PXY d   1       5.484   0.308   4.856  0.00  0.00    -0.082 A 
ATOM      4  C2  PXY d   1       5.865   0.919   5.966  0.00  0.00     0.003 A 
ATOM      5  C3  PXY d   1       6.000   2.283   5.996  0.00  0.00     0.003 A 
ATOM      6  C4  PXY d   1       5.794   3.024   4.863  0.00  0.00    -0.082 A 
ATOM      7  C5  PXY d   1       5.416   2.407   3.724  0.00  0.00     0.003 A 
ATOM      8  C6  PXY d   1       5.244   1.026   3.725  0.00  0.00     0.003 A 
ENDROOT
TORSDOF 0
ENDMDL
