MODEL 1
REMARK minimizedAffinity -3.03708959
REMARK minimizedRMSD -1
REMARK  0 active torsions:
REMARK  status: ('A' for Active; 'I' for Inactive)
ROOT
ATOM      1  C4' PXY d   1       5.999   0.178   4.422  0.00  0.00     0.077 C 
ATOM      2  C1' PXY d   1       5.980   5.937   3.917  0.00  0.00     0.077 C 
ATOM      3  C1  PXY d   1       5.990   4.428   4.061  0.00  0.00    -0.082 A 
ATOM      4  C2  PXY d   1       5.998   3.667   2.979  0.00  0.00     0.003 A 
ATOM      5  C3  PXY d   1       5.975   2.301   3.091  0.00  0.00     0.003 A 
ATOM      6  C4  PXY d   1       5.998   1.706   4.324  0.00  0.00    -0.082 A 
ATOM      7  C5  PXY d   1       6.000   2.475   5.433  0.00  0.00     0.003 A 
ATOM      8  C6  PXY d   1       5.982   3.861   5.298  0.00  0.00     0.003 A 
ENDROOT
TORSDOF 0
ENDMDL
