MODEL 1
REMARK minimizedAffinity 3.3773911
REMARK minimizedRMSD -1
REMARK  0 active torsions:
REMARK  status: ('A' for Active; 'I' for Inactive)
ROOT
ATOM      1  C4' PXY d   1       5.999  -3.023   5.266  0.00  0.00     0.077 C 
ATOM      2  C1' PXY d   1       4.416   2.490   4.547  0.00  0.00     0.077 C 
ATOM      3  C1  PXY d   1       4.841   1.048   4.743  0.00  0.00    -0.082 A 
ATOM      4  C2  PXY d   1       4.471   0.132   3.863  0.00  0.00     0.003 A 
ATOM      5  C3  PXY d   1       4.820  -1.182   4.041  0.00  0.00     0.003 A 
ATOM      6  C4  PXY d   1       5.601  -1.553   5.104  0.00  0.00    -0.082 A 
ATOM      7  C5  PXY d   1       5.991  -0.622   6.000  0.00  0.00     0.003 A 
ATOM      8  C6  PXY d   1       5.591   0.699   5.823  0.00  0.00     0.003 A 
ENDROOT
TORSDOF 0
ENDMDL
