MODEL 1
REMARK minimizedAffinity -2.77037811
REMARK minimizedRMSD -1
REMARK  0 active torsions:
REMARK  status: ('A' for Active; 'I' for Inactive)
ROOT
ATOM      1  C4' PXY d   1       5.773   4.444   4.868  0.00  0.00     0.077 C 
ATOM      2  C1' PXY d   1       5.372  -1.322   4.983  0.00  0.00     0.077 C 
ATOM      3  C1  PXY d   1       5.478   0.190   4.940  0.00  0.00    -0.082 A 
ATOM      4  C2  PXY d   1       5.924   0.845   6.000  0.00  0.00     0.003 A 
ATOM      5  C3  PXY d   1       5.996   2.214   5.989  0.00  0.00     0.003 A 
ATOM      6  C4  PXY d   1       5.658   2.917   4.864  0.00  0.00    -0.082 A 
ATOM      7  C5  PXY d   1       5.212   2.255   3.775  0.00  0.00     0.003 A 
ATOM      8  C6  PXY d   1       5.108   0.868   3.820  0.00  0.00     0.003 A 
ENDROOT
TORSDOF 0
ENDMDL
