MODEL 1
REMARK minimizedAffinity 3.81206512
REMARK minimizedRMSD -1
REMARK  0 active torsions:
REMARK  status: ('A' for Active; 'I' for Inactive)
ROOT
ATOM      1  C4' PXY d   1      -0.298  -1.475   0.197  0.00  0.00     0.077 C 
ATOM      2  C1' PXY d   1       0.977   4.156   0.500  0.00  0.00     0.077 C 
ATOM      3  C1  PXY d   1       0.642   2.678   0.433  0.00  0.00    -0.082 A 
ATOM      4  C2  PXY d   1       0.997   1.974  -0.629  0.00  0.00     0.003 A 
ATOM      5  C3  PXY d   1       0.674   0.645  -0.720  0.00  0.00     0.003 A 
ATOM      6  C4  PXY d   1       0.027   0.017   0.311  0.00  0.00    -0.082 A 
ATOM      7  C5  PXY d   1      -0.329   0.726   1.403  0.00  0.00     0.003 A 
ATOM      8  C6  PXY d   1      -0.028   2.084   1.458  0.00  0.00     0.003 A 
ENDROOT
TORSDOF 0
ENDMDL
