MODEL 1
REMARK minimizedAffinity -2.85666561
REMARK minimizedRMSD -1
REMARK  0 active torsions:
REMARK  status: ('A' for Active; 'I' for Inactive)
ROOT
ATOM      1  C4' PXY d   1       5.250  -2.249   4.124  0.00  0.00     0.077 C 
ATOM      2  C1' PXY d   1       5.827   3.397   5.225  0.00  0.00     0.077 C 
ATOM      3  C1  PXY d   1       5.684   1.913   4.946  0.00  0.00    -0.082 A 
ATOM      4  C2  PXY d   1       5.245   1.510   3.765  0.00  0.00     0.003 A 
ATOM      5  C3  PXY d   1       5.080   0.173   3.506  0.00  0.00     0.003 A 
ATOM      6  C4  PXY d   1       5.419  -0.762   4.447  0.00  0.00    -0.082 A 
ATOM      7  C5  PXY d   1       5.878  -0.358   5.651  0.00  0.00     0.003 A 
ATOM      8  C6  PXY d   1       5.999   1.005   5.908  0.00  0.00     0.003 A 
ENDROOT
TORSDOF 0
ENDMDL
