MODEL 1
REMARK minimizedAffinity 10.118412
REMARK minimizedRMSD -1
REMARK  0 active torsions:
REMARK  status: ('A' for Active; 'I' for Inactive)
ROOT
ATOM      1  C4' PXY d   1       1.419  -3.336  -1.398  0.00  0.00     0.077 C 
ATOM      2  C1' PXY d   1      -1.410  -0.220   2.565  0.00  0.00     0.077 C 
ATOM      3  C1  PXY d   1      -0.674  -1.030   1.516  0.00  0.00    -0.082 A 
ATOM      4  C2  PXY d   1      -0.303  -2.270   1.789  0.00  0.00     0.003 A 
ATOM      5  C3  PXY d   1       0.393  -3.005   0.864  0.00  0.00     0.003 A 
ATOM      6  C4  PXY d   1       0.665  -2.485  -0.373  0.00  0.00    -0.082 A 
ATOM      7  C5  PXY d   1       0.280  -1.223  -0.663  0.00  0.00     0.003 A 
ATOM      8  C6  PXY d   1      -0.388  -0.479   0.305  0.00  0.00     0.003 A 
ENDROOT
TORSDOF 0
ENDMDL
