MODEL 1
REMARK minimizedAffinity -3.35192823
REMARK minimizedRMSD -1
REMARK  0 active torsions:
REMARK  status: ('A' for Active; 'I' for Inactive)
ROOT
ATOM      1  C4' PXY d   1       5.828   3.745   4.895  0.00  0.00     0.077 C 
ATOM      2  C1' PXY d   1       5.065  -1.985   4.894  0.00  0.00     0.077 C 
ATOM      3  C1  PXY d   1       5.273  -0.483   4.884  0.00  0.00    -0.082 A 
ATOM      4  C2  PXY d   1       5.096   0.209   5.998  0.00  0.00     0.003 A 
ATOM      5  C3  PXY d   1       5.249   1.572   5.999  0.00  0.00     0.003 A 
ATOM      6  C4  PXY d   1       5.638   2.226   4.861  0.00  0.00    -0.082 A 
ATOM      7  C5  PXY d   1       5.830   1.526   3.723  0.00  0.00     0.003 A 
ATOM      8  C6  PXY d   1       5.630   0.148   3.733  0.00  0.00     0.003 A 
ENDROOT
TORSDOF 0
ENDMDL
