MODEL 1
REMARK minimizedAffinity 3.2321496
REMARK minimizedRMSD -1
REMARK  0 active torsions:
REMARK  status: ('A' for Active; 'I' for Inactive)
ROOT
ATOM      1  C4' PXY d   1       1.330   0.953  -3.490  0.00  0.00     0.077 C 
ATOM      2  C1' PXY d   1      -0.053  -2.979   0.515  0.00  0.00     0.077 C 
ATOM      3  C1  PXY d   1       0.298  -1.942  -0.533  0.00  0.00    -0.082 A 
ATOM      4  C2  PXY d   1       1.161  -2.244  -1.489  0.00  0.00     0.003 A 
ATOM      5  C3  PXY d   1       1.515  -1.308  -2.426  0.00  0.00     0.003 A 
ATOM      6  C4  PXY d   1       0.938  -0.066  -2.416  0.00  0.00    -0.082 A 
ATOM      7  C5  PXY d   1       0.049   0.247  -1.450  0.00  0.00     0.003 A 
ATOM      8  C6  PXY d   1      -0.265  -0.704  -0.484  0.00  0.00     0.003 A 
ENDROOT
TORSDOF 0
ENDMDL
