MODEL 1
REMARK minimizedAffinity 6.05712271
REMARK minimizedRMSD -1
REMARK  0 active torsions:
REMARK  status: ('A' for Active; 'I' for Inactive)
ROOT
ATOM      1  C1  DEN d   1       1.002  -1.583   1.160  0.00  0.00     0.130 A 
ATOM      2  C2  DEN d   1       1.798  -2.752   0.796  0.00  0.00    -0.031 A 
ATOM      3  C3  DEN d   1       1.615  -3.774   1.846  0.00  0.00     0.027 A 
ATOM      4  C4  DEN d   1       0.180  -3.662   3.986  0.00  0.00     0.027 A 
ATOM      5  C5  DEN d   1      -0.665  -2.870   4.731  0.00  0.00    -0.003 A 
ATOM      6  C6  DEN d   1      -0.985  -1.592   4.358  0.00  0.00     0.001 A 
ATOM      7  C7  DEN d   1      -0.491  -1.083   3.185  0.00  0.00     0.017 A 
ATOM      8  C8  DEN d   1       0.368  -1.873   2.433  0.00  0.00    -0.094 A 
ATOM      9  C9  DEN d   1       0.669  -3.168   2.821  0.00  0.00    -0.072 A 
ENDROOT
TORSDOF 0
ENDMDL
