MODEL 1
REMARK minimizedAffinity 13.5689659
REMARK minimizedRMSD -1
REMARK  0 active torsions:
REMARK  status: ('A' for Active; 'I' for Inactive)
ROOT
ATOM      1  C1  DEN d   1      -2.779  -2.305   1.757  0.00  0.00     0.130 A 
ATOM      2  C2  DEN d   1      -3.828  -2.634   2.719  0.00  0.00    -0.031 A 
ATOM      3  C3  DEN d   1      -3.338  -2.283   4.067  0.00  0.00     0.027 A 
ATOM      4  C4  DEN d   1      -1.071  -1.262   4.754  0.00  0.00     0.027 A 
ATOM      5  C5  DEN d   1       0.148  -0.820   4.290  0.00  0.00    -0.003 A 
ATOM      6  C6  DEN d   1       0.487  -0.872   2.964  0.00  0.00     0.001 A 
ATOM      7  C7  DEN d   1      -0.421  -1.337   2.049  0.00  0.00     0.017 A 
ATOM      8  C8  DEN d   1      -1.649  -1.792   2.511  0.00  0.00    -0.094 A 
ATOM      9  C9  DEN d   1      -1.978  -1.719   3.854  0.00  0.00    -0.072 A 
ENDROOT
TORSDOF 0
ENDMDL
