MODEL 1
REMARK minimizedAffinity 4.3033247
REMARK minimizedRMSD -1
REMARK  0 active torsions:
REMARK  status: ('A' for Active; 'I' for Inactive)
ROOT
ATOM      1  C1  DEN d   1      -3.283  -2.684   3.055  0.00  0.00     0.130 A 
ATOM      2  C2  DEN d   1      -3.573  -3.157   1.704  0.00  0.00    -0.031 A 
ATOM      3  C3  DEN d   1      -2.464  -2.736   0.825  0.00  0.00     0.027 A 
ATOM      4  C4  DEN d   1      -0.334  -1.409   1.422  0.00  0.00     0.027 A 
ATOM      5  C5  DEN d   1       0.348  -0.779   2.440  0.00  0.00    -0.003 A 
ATOM      6  C6  DEN d   1      -0.145  -0.712   3.716  0.00  0.00     0.001 A 
ATOM      7  C7  DEN d   1      -1.333  -1.323   4.018  0.00  0.00     0.017 A 
ATOM      8  C8  DEN d   1      -2.030  -1.953   2.996  0.00  0.00    -0.094 A 
ATOM      9  C9  DEN d   1      -1.509  -2.021   1.715  0.00  0.00    -0.072 A 
ENDROOT
TORSDOF 0
ENDMDL
