MODEL 1
REMARK minimizedAffinity 19.7946358
REMARK minimizedRMSD -1
REMARK  0 active torsions:
REMARK  status: ('A' for Active; 'I' for Inactive)
ROOT
ATOM      1  C1  DEN d   1       0.439  -4.762   3.837  0.00  0.00     0.130 A 
ATOM      2  C2  DEN d   1       1.105  -5.999   3.438  0.00  0.00    -0.031 A 
ATOM      3  C3  DEN d   1       1.485  -5.876   2.017  0.00  0.00     0.027 A 
ATOM      4  C4  DEN d   1       1.113  -3.897   0.404  0.00  0.00     0.027 A 
ATOM      5  C5  DEN d   1       0.581  -2.632   0.284  0.00  0.00    -0.003 A 
ATOM      6  C6  DEN d   1      -0.060  -2.007   1.320  0.00  0.00     0.001 A 
ATOM      7  C7  DEN d   1      -0.146  -2.628   2.538  0.00  0.00     0.017 A 
ATOM      8  C8  DEN d   1       0.381  -3.907   2.666  0.00  0.00    -0.094 A 
ATOM      9  C9  DEN d   1       1.036  -4.517   1.609  0.00  0.00    -0.072 A 
ENDROOT
TORSDOF 0
ENDMDL
