MODEL 1
REMARK minimizedAffinity 20.4965782
REMARK minimizedRMSD -1
REMARK  0 active torsions:
REMARK  status: ('A' for Active; 'I' for Inactive)
ROOT
ATOM      1  C1  DEN d   1       0.182   1.488  -0.470  0.00  0.00     0.130 A 
ATOM      2  C2  DEN d   1       0.444   2.875  -0.842  0.00  0.00    -0.031 A 
ATOM      3  C3  DEN d   1       1.770   3.248  -0.311  0.00  0.00     0.027 A 
ATOM      4  C4  DEN d   1       3.437   1.817   1.041  0.00  0.00     0.027 A 
ATOM      5  C5  DEN d   1       3.651   0.581   1.610  0.00  0.00    -0.003 A 
ATOM      6  C6  DEN d   1       2.718  -0.420   1.556  0.00  0.00     0.001 A 
ATOM      7  C7  DEN d   1       1.544  -0.217   0.879  0.00  0.00     0.017 A 
ATOM      8  C8  DEN d   1       1.318   1.028   0.309  0.00  0.00    -0.094 A 
ATOM      9  C9  DEN d   1       2.279   2.023   0.364  0.00  0.00    -0.072 A 
ENDROOT
TORSDOF 0
ENDMDL
