MODEL 1
REMARK minimizedAffinity 18.2661743
REMARK minimizedRMSD -1
REMARK  0 active torsions:
REMARK  status: ('A' for Active; 'I' for Inactive)
ROOT
ATOM      1  C1  DEN d   1       1.278  -4.272   1.344  0.00  0.00     0.130 A 
ATOM      2  C2  DEN d   1       0.501  -5.285   2.054  0.00  0.00    -0.031 A 
ATOM      3  C3  DEN d   1      -0.621  -4.607   2.734  0.00  0.00     0.027 A 
ATOM      4  C4  DEN d   1      -1.231  -2.101   2.751  0.00  0.00     0.027 A 
ATOM      5  C5  DEN d   1      -0.861  -0.852   2.302  0.00  0.00    -0.003 A 
ATOM      6  C6  DEN d   1       0.258  -0.653   1.537  0.00  0.00     0.001 A 
ATOM      7  C7  DEN d   1       1.022  -1.726   1.159  0.00  0.00     0.017 A 
ATOM      8  C8  DEN d   1       0.659  -2.987   1.614  0.00  0.00    -0.094 A 
ATOM      9  C9  DEN d   1      -0.482  -3.169   2.377  0.00  0.00    -0.072 A 
ENDROOT
TORSDOF 0
ENDMDL
