MODEL 1
REMARK minimizedAffinity 14.627677
REMARK minimizedRMSD -1
REMARK  0 active torsions:
REMARK  status: ('A' for Active; 'I' for Inactive)
ROOT
ATOM      1  C1  DEN d   1      -2.767  -2.026   3.267  0.00  0.00     0.130 A 
ATOM      2  C2  DEN d   1      -3.361  -2.738   2.139  0.00  0.00    -0.031 A 
ATOM      3  C3  DEN d   1      -2.400  -2.700   1.018  0.00  0.00     0.027 A 
ATOM      4  C4  DEN d   1      -0.060  -1.620   0.923  0.00  0.00     0.027 A 
ATOM      5  C5  DEN d   1       0.871  -0.893   1.632  0.00  0.00    -0.003 A 
ATOM      6  C6  DEN d   1       0.642  -0.467   2.914  0.00  0.00     0.001 A 
ATOM      7  C7  DEN d   1      -0.528  -0.804   3.542  0.00  0.00     0.017 A 
ATOM      8  C8  DEN d   1      -1.474  -1.530   2.831  0.00  0.00    -0.094 A 
ATOM      9  C9  DEN d   1      -1.219  -1.962   1.541  0.00  0.00    -0.072 A 
ENDROOT
TORSDOF 0
ENDMDL
