MODEL 1
REMARK minimizedAffinity 19.8208847
REMARK minimizedRMSD -1
REMARK  0 active torsions:
REMARK  status: ('A' for Active; 'I' for Inactive)
ROOT
ATOM      1  C1  DEN d   1       2.164   0.513   2.902  0.00  0.00     0.130 A 
ATOM      2  C2  DEN d   1       3.288   0.175   2.033  0.00  0.00    -0.031 A 
ATOM      3  C3  DEN d   1       2.900  -0.995   1.220  0.00  0.00     0.027 A 
ATOM      4  C4  DEN d   1       0.678  -2.305   1.218  0.00  0.00     0.027 A 
ATOM      5  C5  DEN d   1      -0.570  -2.399   1.793  0.00  0.00    -0.003 A 
ATOM      6  C6  DEN d   1      -0.979  -1.557   2.793  0.00  0.00     0.001 A 
ATOM      7  C7  DEN d   1      -0.148  -0.554   3.218  0.00  0.00     0.017 A 
ATOM      8  C8  DEN d   1       1.115  -0.458   2.649  0.00  0.00    -0.094 A 
ATOM      9  C9  DEN d   1       1.505  -1.312   1.630  0.00  0.00    -0.072 A 
ENDROOT
TORSDOF 0
ENDMDL
