MODEL 1
REMARK minimizedAffinity 18.4916077
REMARK minimizedRMSD -1
REMARK  0 active torsions:
REMARK  status: ('A' for Active; 'I' for Inactive)
ROOT
ATOM      1  C1  DEN d   1       3.976   1.519   0.392  0.00  0.00     0.130 A 
ATOM      2  C2  DEN d   1       3.232   0.657   1.306  0.00  0.00    -0.031 A 
ATOM      3  C3  DEN d   1       3.238  -0.711   0.751  0.00  0.00     0.027 A 
ATOM      4  C4  DEN d   1       4.327  -1.576  -1.421  0.00  0.00     0.027 A 
ATOM      5  C5  DEN d   1       5.057  -1.215  -2.532  0.00  0.00    -0.003 A 
ATOM      6  C6  DEN d   1       5.445   0.079  -2.761  0.00  0.00     0.001 A 
ATOM      7  C7  DEN d   1       5.144   1.051  -1.844  0.00  0.00     0.017 A 
ATOM      8  C8  DEN d   1       4.402   0.695  -0.725  0.00  0.00    -0.094 A 
ATOM      9  C9  DEN d   1       4.029  -0.620  -0.505  0.00  0.00    -0.072 A 
ENDROOT
TORSDOF 0
ENDMDL
