MODEL 1
REMARK minimizedAffinity 16.5211182
REMARK minimizedRMSD -1
REMARK  0 active torsions:
REMARK  status: ('A' for Active; 'I' for Inactive)
ROOT
ATOM      1  C1  DEN d   1       1.824  -5.148   1.356  0.00  0.00     0.130 A 
ATOM      2  C2  DEN d   1       1.493  -6.000   2.495  0.00  0.00    -0.031 A 
ATOM      3  C3  DEN d   1       0.589  -5.243   3.384  0.00  0.00     0.027 A 
ATOM      4  C4  DEN d   1      -0.329  -2.848   3.107  0.00  0.00     0.027 A 
ATOM      5  C5  DEN d   1      -0.318  -1.728   2.306  0.00  0.00    -0.003 A 
ATOM      6  C6  DEN d   1       0.428  -1.657   1.160  0.00  0.00     0.001 A 
ATOM      7  C7  DEN d   1       1.160  -2.743   0.758  0.00  0.00     0.017 A 
ATOM      8  C8  DEN d   1       1.160  -3.874   1.564  0.00  0.00    -0.094 A 
ATOM      9  C9  DEN d   1       0.389  -3.930   2.713  0.00  0.00    -0.072 A 
ENDROOT
TORSDOF 0
ENDMDL
