MODEL 1
REMARK minimizedAffinity 13.7920017
REMARK minimizedRMSD -1
REMARK  0 active torsions:
REMARK  status: ('A' for Active; 'I' for Inactive)
ROOT
ATOM      1  C1  DEN d   1       2.978  -1.346   0.292  0.00  0.00     0.130 A 
ATOM      2  C2  DEN d   1       2.940  -2.664  -0.335  0.00  0.00    -0.031 A 
ATOM      3  C3  DEN d   1       1.717  -3.353   0.123  0.00  0.00     0.027 A 
ATOM      4  C4  DEN d   1      -0.115  -2.510   1.731  0.00  0.00     0.027 A 
ATOM      5  C5  DEN d   1      -0.513  -1.458   2.527  0.00  0.00    -0.003 A 
ATOM      6  C6  DEN d   1       0.235  -0.319   2.658  0.00  0.00     0.001 A 
ATOM      7  C7  DEN d   1       1.400  -0.185   1.949  0.00  0.00     0.017 A 
ATOM      8  C8  DEN d   1       1.811  -1.244   1.151  0.00  0.00    -0.094 A 
ATOM      9  C9  DEN d   1       1.035  -2.383   1.021  0.00  0.00    -0.072 A 
ENDROOT
TORSDOF 0
ENDMDL
