MODEL 1
REMARK minimizedAffinity 13.7734785
REMARK minimizedRMSD -1
REMARK  0 active torsions:
REMARK  status: ('A' for Active; 'I' for Inactive)
ROOT
ATOM      1  C1  DEN d   1      -2.614   3.772  -5.360  0.00  0.00     0.130 A 
ATOM      2  C2  DEN d   1      -1.979   4.921  -6.000  0.00  0.00    -0.031 A 
ATOM      3  C3  DEN d   1      -1.870   6.000  -4.997  0.00  0.00     0.027 A 
ATOM      4  C4  DEN d   1      -2.614   6.000  -2.527  0.00  0.00     0.027 A 
ATOM      5  C5  DEN d   1      -3.213   5.255  -1.535  0.00  0.00    -0.003 A 
ATOM      6  C6  DEN d   1      -3.680   3.987  -1.756  0.00  0.00     0.001 A 
ATOM      7  C7  DEN d   1      -3.516   3.407  -2.986  0.00  0.00     0.017 A 
ATOM      8  C8  DEN d   1      -2.921   4.155  -3.994  0.00  0.00    -0.094 A 
ATOM      9  C9  DEN d   1      -2.443   5.431  -3.747  0.00  0.00    -0.072 A 
ENDROOT
TORSDOF 0
ENDMDL
