MODEL 1
REMARK minimizedAffinity 15.8507071
REMARK minimizedRMSD -1
REMARK  0 active torsions:
REMARK  status: ('A' for Active; 'I' for Inactive)
ROOT
ATOM      1  C1  DEN d   1       4.102   0.525  -3.187  0.00  0.00     0.130 A 
ATOM      2  C2  DEN d   1       4.671  -0.486  -2.299  0.00  0.00    -0.031 A 
ATOM      3  C3  DEN d   1       3.934  -0.438  -1.021  0.00  0.00     0.027 A 
ATOM      4  C4  DEN d   1       1.973   1.091  -0.335  0.00  0.00     0.027 A 
ATOM      5  C5  DEN d   1       1.150   2.115  -0.749  0.00  0.00    -0.003 A 
ATOM      6  C6  DEN d   1       1.275   2.700  -1.981  0.00  0.00     0.001 A 
ATOM      7  C7  DEN d   1       2.216   2.233  -2.861  0.00  0.00     0.017 A 
ATOM      8  C8  DEN d   1       3.053   1.205  -2.449  0.00  0.00    -0.094 A 
ATOM      9  C9  DEN d   1       2.903   0.619  -1.203  0.00  0.00    -0.072 A 
ENDROOT
TORSDOF 0
ENDMDL
