MODEL 1
REMARK minimizedAffinity 17.1687393
REMARK minimizedRMSD -1
REMARK  0 active torsions:
REMARK  status: ('A' for Active; 'I' for Inactive)
ROOT
ATOM      1  C1  DEN d   1      -1.569   6.000  -4.981  0.00  0.00     0.130 A 
ATOM      2  C2  DEN d   1      -1.448   4.958  -5.997  0.00  0.00    -0.031 A 
ATOM      3  C3  DEN d   1      -2.093   3.736  -5.476  0.00  0.00     0.027 A 
ATOM      4  C4  DEN d   1      -3.264   3.359  -3.209  0.00  0.00     0.027 A 
ATOM      5  C5  DEN d   1      -3.606   3.946  -2.011  0.00  0.00    -0.003 A 
ATOM      6  C6  DEN d   1      -3.267   5.237  -1.708  0.00  0.00     0.001 A 
ATOM      7  C7  DEN d   1      -2.602   6.000  -2.632  0.00  0.00     0.017 A 
ATOM      8  C8  DEN d   1      -2.247   5.412  -3.839  0.00  0.00    -0.094 A 
ATOM      9  C9  DEN d   1      -2.610   4.109  -4.132  0.00  0.00    -0.072 A 
ENDROOT
TORSDOF 0
ENDMDL
