MODEL 1
REMARK minimizedAffinity 13.9268627
REMARK minimizedRMSD -1
REMARK  0 active torsions:
REMARK  status: ('A' for Active; 'I' for Inactive)
ROOT
ATOM      1  C1  DEN d   1      -3.362   3.761  -2.380  0.00  0.00     0.130 A 
ATOM      2  C2  DEN d   1      -3.201   4.913  -1.498  0.00  0.00    -0.031 A 
ATOM      3  C3  DEN d   1      -2.557   5.994  -2.272  0.00  0.00     0.027 A 
ATOM      4  C4  DEN d   1      -1.801   5.995  -4.738  0.00  0.00     0.027 A 
ATOM      5  C5  DEN d   1      -1.719   5.240  -5.887  0.00  0.00    -0.003 A 
ATOM      6  C6  DEN d   1      -2.143   3.939  -5.938  0.00  0.00     0.001 A 
ATOM      7  C7  DEN d   1      -2.712   3.367  -4.831  0.00  0.00     0.017 A 
ATOM      8  C8  DEN d   1      -2.792   4.119  -3.666  0.00  0.00    -0.094 A 
ATOM      9  C9  DEN d   1      -2.369   5.437  -3.639  0.00  0.00    -0.072 A 
ENDROOT
TORSDOF 0
ENDMDL
