MODEL 1
REMARK minimizedAffinity 0.66653949
REMARK minimizedRMSD -1
REMARK  0 active torsions:
REMARK  status: ('A' for Active; 'I' for Inactive)
ROOT
ATOM      1  C1  DEN d   1      -3.725  -6.000  -0.888  0.00  0.00     0.130 A 
ATOM      2  C2  DEN d   1      -4.898  -5.899  -1.753  0.00  0.00    -0.031 A 
ATOM      3  C3  DEN d   1      -5.998  -5.311  -0.963  0.00  0.00     0.027 A 
ATOM      4  C4  DEN d   1      -6.000  -4.547   1.500  0.00  0.00     0.027 A 
ATOM      5  C5  DEN d   1      -5.240  -4.445   2.644  0.00  0.00    -0.003 A 
ATOM      6  C6  DEN d   1      -3.942  -4.882   2.701  0.00  0.00     0.001 A 
ATOM      7  C7  DEN d   1      -3.352  -5.400   1.578  0.00  0.00     0.017 A 
ATOM      8  C8  DEN d   1      -4.114  -5.513   0.423  0.00  0.00    -0.094 A 
ATOM      9  C9  DEN d   1      -5.420  -5.054   0.383  0.00  0.00    -0.072 A 
ENDROOT
TORSDOF 0
ENDMDL
