MODEL 1
REMARK minimizedAffinity -0.471454084
REMARK minimizedRMSD -1
REMARK  0 active torsions:
REMARK  status: ('A' for Active; 'I' for Inactive)
ROOT
ATOM      1  C   UNL d   1       1.978  -1.643  -0.086  0.00  0.00     0.077 C 
ATOM      2  C1  UNL d   1       2.246  -0.168  -0.046  0.00  0.00    -0.074 A 
ATOM      3  C2  UNL d   1       1.208   0.745   0.164  0.00  0.00    -0.005 A 
ATOM      4  C3  UNL d   1       1.473   2.114   0.207  0.00  0.00     0.006 A 
ATOM      5  C4  UNL d   1       2.777   2.582   0.042  0.00  0.00    -0.005 A 
ATOM      6  C5  UNL d   1       3.828   1.684  -0.168  0.00  0.00    -0.074 A 
ATOM      7  C6  UNL d   1       5.237   2.169  -0.338  0.00  0.00     0.077 C 
ATOM      8  C7  UNL d   1       3.554   0.309  -0.204  0.00  0.00    -0.001 A 
ENDROOT
TORSDOF 0
ENDMDL
