MODEL 1
REMARK minimizedAffinity -0.63996309
REMARK minimizedRMSD -1
REMARK  0 active torsions:
REMARK  status: ('A' for Active; 'I' for Inactive)
ROOT
ATOM      1  C   UNL d   1       3.386   2.372   0.200  0.00  0.00     0.077 C 
ATOM      2  C1  UNL d   1       3.337   0.878   0.074  0.00  0.00    -0.074 A 
ATOM      3  C2  UNL d   1       2.905   0.080   1.137  0.00  0.00    -0.005 A 
ATOM      4  C3  UNL d   1       2.856  -1.307   1.001  0.00  0.00     0.006 A 
ATOM      5  C4  UNL d   1       3.239  -1.910  -0.198  0.00  0.00    -0.005 A 
ATOM      6  C5  UNL d   1       3.673  -1.128  -1.273  0.00  0.00    -0.074 A 
ATOM      7  C6  UNL d   1       4.079  -1.759  -2.571  0.00  0.00     0.077 C 
ATOM      8  C7  UNL d   1       3.713   0.266  -1.131  0.00  0.00    -0.001 A 
ENDROOT
TORSDOF 0
ENDMDL
