MODEL 1
REMARK minimizedAffinity 7.5394702
REMARK minimizedRMSD -1
REMARK  0 active torsions:
REMARK  status: ('A' for Active; 'I' for Inactive)
ROOT
ATOM      1  C   UNL d   1      -0.235   1.133   1.359  0.00  0.00     0.077 C 
ATOM      2  C1  UNL d   1       1.126   0.682   0.917  0.00  0.00    -0.074 A 
ATOM      3  C2  UNL d   1       2.209   1.567   0.908  0.00  0.00    -0.005 A 
ATOM      4  C3  UNL d   1       3.470   1.131   0.503  0.00  0.00     0.006 A 
ATOM      5  C4  UNL d   1       3.662  -0.192   0.104  0.00  0.00    -0.005 A 
ATOM      6  C5  UNL d   1       2.591  -1.092   0.108  0.00  0.00    -0.074 A 
ATOM      7  C6  UNL d   1       2.782  -2.520  -0.309  0.00  0.00     0.077 C 
ATOM      8  C7  UNL d   1       1.328  -0.648   0.522  0.00  0.00    -0.001 A 
ENDROOT
TORSDOF 0
ENDMDL
