MODEL 1
REMARK minimizedAffinity 6.23631573
REMARK minimizedRMSD -1
REMARK  0 active torsions:
REMARK  status: ('A' for Active; 'I' for Inactive)
ROOT
ATOM      1  C   UNL d   1       2.401  -2.439   0.026  0.00  0.00     0.077 C 
ATOM      2  C1  UNL d   1       2.585  -0.951   0.071  0.00  0.00    -0.074 A 
ATOM      3  C2  UNL d   1       3.848  -0.389   0.283  0.00  0.00    -0.005 A 
ATOM      4  C3  UNL d   1       4.005   0.997   0.313  0.00  0.00     0.006 A 
ATOM      5  C4  UNL d   1       2.902   1.833   0.132  0.00  0.00    -0.005 A 
ATOM      6  C5  UNL d   1       1.632   1.289  -0.082  0.00  0.00    -0.074 A 
ATOM      7  C6  UNL d   1       0.438   2.173  -0.288  0.00  0.00     0.077 C 
ATOM      8  C7  UNL d   1       1.483  -0.104  -0.118  0.00  0.00    -0.001 A 
ENDROOT
TORSDOF 0
ENDMDL
