MODEL 1
REMARK minimizedAffinity -0.72103548
REMARK minimizedRMSD -1
REMARK  0 active torsions:
REMARK  status: ('A' for Active; 'I' for Inactive)
ROOT
ATOM      1  C   UNL d   1       5.093   1.431  -2.246  0.00  0.00     0.077 C 
ATOM      2  C1  UNL d   1       4.081   0.998  -1.228  0.00  0.00    -0.074 A 
ATOM      3  C2  UNL d   1       3.518   1.918  -0.337  0.00  0.00    -0.005 A 
ATOM      4  C3  UNL d   1       2.571   1.502   0.598  0.00  0.00     0.006 A 
ATOM      5  C4  UNL d   1       2.178   0.164   0.653  0.00  0.00    -0.005 A 
ATOM      6  C5  UNL d   1       2.729  -0.770  -0.230  0.00  0.00    -0.074 A 
ATOM      7  C6  UNL d   1       2.310  -2.210  -0.191  0.00  0.00     0.077 C 
ATOM      8  C7  UNL d   1       3.675  -0.343  -1.172  0.00  0.00    -0.001 A 
ENDROOT
TORSDOF 0
ENDMDL
