MODEL 1
REMARK minimizedAffinity -0.653059721
REMARK minimizedRMSD -1
REMARK  0 active torsions:
REMARK  status: ('A' for Active; 'I' for Inactive)
ROOT
ATOM      1  C   UNL d   1       0.714   2.252   0.015  0.00  0.00     0.077 C 
ATOM      2  C1  UNL d   1       1.528   0.996  -0.078  0.00  0.00    -0.074 A 
ATOM      3  C2  UNL d   1       2.762   0.890   0.571  0.00  0.00    -0.005 A 
ATOM      4  C3  UNL d   1       3.504  -0.288   0.483  0.00  0.00     0.006 A 
ATOM      5  C4  UNL d   1       3.019  -1.370  -0.253  0.00  0.00    -0.005 A 
ATOM      6  C5  UNL d   1       1.787  -1.283  -0.908  0.00  0.00    -0.074 A 
ATOM      7  C6  UNL d   1       1.247  -2.440  -1.695  0.00  0.00     0.077 C 
ATOM      8  C7  UNL d   1       1.044  -0.098  -0.809  0.00  0.00    -0.001 A 
ENDROOT
TORSDOF 0
ENDMDL
