MODEL 1
REMARK minimizedAffinity 1.45688069
REMARK minimizedRMSD -1
REMARK  0 active torsions:
REMARK  status: ('A' for Active; 'I' for Inactive)
ROOT
ATOM      1  C   UNL d   1       1.672  -3.124  -0.376  0.00  0.00     0.077 C 
ATOM      2  C1  UNL d   1       2.229  -1.764  -0.076  0.00  0.00    -0.074 A 
ATOM      3  C2  UNL d   1       3.542  -1.610   0.380  0.00  0.00    -0.005 A 
ATOM      4  C3  UNL d   1       4.050  -0.338   0.646  0.00  0.00     0.006 A 
ATOM      5  C4  UNL d   1       3.250   0.791   0.459  0.00  0.00    -0.005 A 
ATOM      6  C5  UNL d   1       1.935   0.656   0.003  0.00  0.00    -0.074 A 
ATOM      7  C6  UNL d   1       1.066   1.859  -0.212  0.00  0.00     0.077 C 
ATOM      8  C7  UNL d   1       1.435  -0.625  -0.269  0.00  0.00    -0.001 A 
ENDROOT
TORSDOF 0
ENDMDL
