MODEL 1
REMARK minimizedAffinity -4.92665625
REMARK minimizedRMSD -1
REMARK  1 active torsions:
REMARK  status: ('A' for Active; 'I' for Inactive)
REMARK    1  A    between atoms: C1_2  and  C2_3 
ROOT
ATOM      1  C2  UNL d   1      -0.431   0.423   1.447  0.00  0.00    -0.081 A 
ATOM      2  C3  UNL d   1       0.225   0.256   0.222  0.00  0.00     0.006 A 
ATOM      3  C4  UNL d   1       0.196   1.268  -0.741  0.00  0.00     0.002 A 
ATOM      4  C5  UNL d   1      -0.482   2.466  -0.492  0.00  0.00    -0.080 A 
ATOM      5  C6  UNL d   1      -0.496   3.572  -1.505  0.00  0.00     0.076 C 
ATOM      6  C7  UNL d   1      -1.152   2.626   0.726  0.00  0.00     0.002 A 
ATOM      7  C8  UNL d   1      -1.124   1.614   1.689  0.00  0.00     0.006 A 
ENDROOT
BRANCH   1   8
ATOM      8  C1  UNL d   1      -0.347  -0.640   2.513  0.00  0.00     0.054 C 
ATOM      9  C   UNL d   1       1.089  -0.851   2.971  0.00  0.00     0.018 C 
ENDBRANCH   1   8
TORSDOF 1
ENDMDL
