MODEL 1
REMARK minimizedAffinity -5.37074709
REMARK minimizedRMSD -1
REMARK  1 active torsions:
REMARK  status: ('A' for Active; 'I' for Inactive)
REMARK    1  A    between atoms: C1_2  and  C2_3 
ROOT
ATOM      1  C2  UNL d   1       0.751  -1.752  -0.363  0.00  0.00    -0.081 A 
ATOM      2  C3  UNL d   1       0.119  -1.960   0.869  0.00  0.00     0.006 A 
ATOM      3  C4  UNL d   1      -0.586  -0.924   1.487  0.00  0.00     0.002 A 
ATOM      4  C5  UNL d   1      -0.677   0.333   0.880  0.00  0.00    -0.080 A 
ATOM      5  C6  UNL d   1      -1.456   1.445   1.518  0.00  0.00     0.076 C 
ATOM      6  C7  UNL d   1      -0.030   0.546  -0.342  0.00  0.00     0.002 A 
ATOM      7  C8  UNL d   1       0.675  -0.489  -0.960  0.00  0.00     0.006 A 
ENDROOT
BRANCH   1   8
ATOM      8  C1  UNL d   1       1.457  -2.886  -1.062  0.00  0.00     0.054 C 
ATOM      9  C   UNL d   1       0.745  -3.270  -2.351  0.00  0.00     0.018 C 
ENDBRANCH   1   8
TORSDOF 1
ENDMDL
