MODEL 1
REMARK minimizedAffinity 0.620490193
REMARK minimizedRMSD -1
REMARK  1 active torsions:
REMARK  status: ('A' for Active; 'I' for Inactive)
REMARK    1  A    between atoms: C1_2  and  C2_3 
ROOT
ATOM      1  C2  UNL d   1       0.025  -0.369   1.416  0.00  0.00    -0.081 A 
ATOM      2  C3  UNL d   1       0.802  -0.407   0.252  0.00  0.00     0.006 A 
ATOM      3  C4  UNL d   1       0.677   0.591  -0.717  0.00  0.00     0.002 A 
ATOM      4  C5  UNL d   1      -0.222   1.647  -0.536  0.00  0.00    -0.080 A 
ATOM      5  C6  UNL d   1      -0.345   2.741  -1.554  0.00  0.00     0.076 C 
ATOM      6  C7  UNL d   1      -1.012   1.677   0.619  0.00  0.00     0.002 A 
ATOM      7  C8  UNL d   1      -0.887   0.679   1.588  0.00  0.00     0.006 A 
ENDROOT
BRANCH   1   8
ATOM      8  C1  UNL d   1       0.204  -1.408   2.492  0.00  0.00     0.054 C 
ATOM      9  C   UNL d   1      -1.135  -1.974   2.944  0.00  0.00     0.018 C 
ENDBRANCH   1   8
TORSDOF 1
ENDMDL
