MODEL 1
REMARK minimizedAffinity -4.61457014
REMARK minimizedRMSD -1
REMARK  1 active torsions:
REMARK  status: ('A' for Active; 'I' for Inactive)
REMARK    1  A    between atoms: C1_2  and  C2_3 
ROOT
ATOM      1  C2  UNL d   1      -0.076  -0.800  -0.551  0.00  0.00    -0.081 A 
ATOM      2  C3  UNL d   1      -0.185  -0.798   0.845  0.00  0.00     0.006 A 
ATOM      3  C4  UNL d   1      -0.892   0.213   1.499  0.00  0.00     0.002 A 
ATOM      4  C5  UNL d   1      -1.510   1.234   0.768  0.00  0.00    -0.080 A 
ATOM      5  C6  UNL d   1      -2.298   2.309   1.456  0.00  0.00     0.076 C 
ATOM      6  C7  UNL d   1      -1.387   1.242  -0.625  0.00  0.00     0.002 A 
ATOM      7  C8  UNL d   1      -0.679   0.232  -1.280  0.00  0.00     0.006 A 
ENDROOT
BRANCH   1   8
ATOM      8  C1  UNL d   1       0.631  -1.924  -1.264  0.00  0.00     0.054 C 
ATOM      9  C   UNL d   1      -0.299  -2.635  -2.237  0.00  0.00     0.018 C 
ENDBRANCH   1   8
TORSDOF 1
ENDMDL
