MODEL 1
REMARK minimizedAffinity -3.72681904
REMARK minimizedRMSD -1
REMARK  1 active torsions:
REMARK  status: ('A' for Active; 'I' for Inactive)
REMARK    1  A    between atoms: C1_2  and  C2_3 
ROOT
ATOM      1  C2  UNL d   1       0.205  -0.799  -0.861  0.00  0.00    -0.081 A 
ATOM      2  C3  UNL d   1      -0.568  -1.366   0.159  0.00  0.00     0.006 A 
ATOM      3  C4  UNL d   1      -1.115  -0.563   1.163  0.00  0.00     0.002 A 
ATOM      4  C5  UNL d   1      -0.905   0.820   1.159  0.00  0.00    -0.080 A 
ATOM      5  C6  UNL d   1      -1.511   1.697   2.214  0.00  0.00     0.076 C 
ATOM      6  C7  UNL d   1      -0.118   1.384   0.150  0.00  0.00     0.002 A 
ATOM      7  C8  UNL d   1       0.430   0.582  -0.854  0.00  0.00     0.006 A 
ENDROOT
BRANCH   1   8
ATOM      8  C1  UNL d   1       0.742  -1.653  -1.981  0.00  0.00     0.054 C 
ATOM      9  C   UNL d   1       1.131  -3.038  -1.483  0.00  0.00     0.018 C 
ENDBRANCH   1   8
TORSDOF 1
ENDMDL
