MODEL 1
REMARK minimizedAffinity -2.7615664
REMARK minimizedRMSD -1
REMARK  1 active torsions:
REMARK  status: ('A' for Active; 'I' for Inactive)
REMARK    1  A    between atoms: C1_2  and  C2_3 
ROOT
ATOM      1  C2  UNL d   1       0.591  -1.150  -0.342  0.00  0.00    -0.081 A 
ATOM      2  C3  UNL d   1       0.067  -0.126  -1.140  0.00  0.00     0.006 A 
ATOM      3  C4  UNL d   1      -0.576   0.969  -0.556  0.00  0.00     0.002 A 
ATOM      4  C5  UNL d   1      -0.698   1.061   0.834  0.00  0.00    -0.080 A 
ATOM      5  C6  UNL d   1      -1.359   2.245   1.475  0.00  0.00     0.076 C 
ATOM      6  C7  UNL d   1      -0.190   0.030   1.631  0.00  0.00     0.002 A 
ATOM      7  C8  UNL d   1       0.452  -1.065   1.048  0.00  0.00     0.006 A 
ENDROOT
BRANCH   1   8
ATOM      8  C1  UNL d   1       1.341  -2.299  -0.965  0.00  0.00     0.054 C 
ATOM      9  C   UNL d   1       0.544  -2.932  -2.097  0.00  0.00     0.018 C 
ENDBRANCH   1   8
TORSDOF 1
ENDMDL
