MODEL 1
REMARK minimizedAffinity -5.16200638
REMARK minimizedRMSD -1
REMARK  1 active torsions:
REMARK  status: ('A' for Active; 'I' for Inactive)
REMARK    1  A    between atoms: C1_2  and  C2_3 
ROOT
ATOM      1  C2  UNL d   1       0.881  -0.345   0.321  0.00  0.00    -0.081 A 
ATOM      2  C3  UNL d   1       0.022  -0.665   1.379  0.00  0.00     0.006 A 
ATOM      3  C4  UNL d   1      -0.964   0.235   1.788  0.00  0.00     0.002 A 
ATOM      4  C5  UNL d   1      -1.113   1.467   1.141  0.00  0.00    -0.080 A 
ATOM      5  C6  UNL d   1      -2.187   2.430   1.551  0.00  0.00     0.076 C 
ATOM      6  C7  UNL d   1      -0.244   1.794   0.095  0.00  0.00     0.002 A 
ATOM      7  C8  UNL d   1       0.743   0.894  -0.314  0.00  0.00     0.006 A 
ENDROOT
BRANCH   1   8
ATOM      8  C1  UNL d   1       1.904  -1.341  -0.165  0.00  0.00     0.054 C 
ATOM      9  C   UNL d   1       1.341  -2.214  -1.277  0.00  0.00     0.018 C 
ENDBRANCH   1   8
TORSDOF 1
ENDMDL
