MODEL 1
REMARK minimizedAffinity -1.99692965
REMARK minimizedRMSD -1
REMARK  1 active torsions:
REMARK  status: ('A' for Active; 'I' for Inactive)
REMARK    1  A    between atoms: C1_2  and  C2_3 
ROOT
ATOM      1  C2  UNL d   1       0.577  -1.306  -0.382  0.00  0.00    -0.081 A 
ATOM      2  C3  UNL d   1      -0.320  -1.676   0.628  0.00  0.00     0.006 A 
ATOM      3  C4  UNL d   1      -0.865  -0.711   1.479  0.00  0.00     0.002 A 
ATOM      4  C5  UNL d   1      -0.529   0.638   1.330  0.00  0.00    -0.080 A 
ATOM      5  C6  UNL d   1      -1.130   1.687   2.217  0.00  0.00     0.076 C 
ATOM      6  C7  UNL d   1       0.382   1.005   0.333  0.00  0.00     0.002 A 
ATOM      7  C8  UNL d   1       0.927   0.041  -0.518  0.00  0.00     0.006 A 
ENDROOT
BRANCH   1   8
ATOM      8  C1  UNL d   1       1.117  -2.335  -1.342  0.00  0.00     0.054 C 
ATOM      9  C   UNL d   1       1.069  -3.733  -0.740  0.00  0.00     0.018 C 
ENDBRANCH   1   8
TORSDOF 1
ENDMDL
