MODEL 1
REMARK minimizedAffinity -5.90575218
REMARK minimizedRMSD -1
REMARK  1 active torsions:
REMARK  status: ('A' for Active; 'I' for Inactive)
REMARK    1  A    between atoms: C1_2  and  C2_3 
ROOT
ATOM      1  C2  UNL d   1      -0.948   1.562   0.124  0.00  0.00    -0.081 A 
ATOM      2  C3  UNL d   1      -0.819   0.521   1.051  0.00  0.00     0.006 A 
ATOM      3  C4  UNL d   1      -0.114  -0.638   0.721  0.00  0.00     0.002 A 
ATOM      4  C5  UNL d   1       0.481  -0.773  -0.538  0.00  0.00    -0.080 A 
ATOM      5  C6  UNL d   1       1.267  -2.000  -0.894  0.00  0.00     0.076 C 
ATOM      6  C7  UNL d   1       0.338   0.260  -1.471  0.00  0.00     0.002 A 
ATOM      7  C8  UNL d   1      -0.367   1.419  -1.142  0.00  0.00     0.006 A 
ENDROOT
BRANCH   1   8
ATOM      8  C1  UNL d   1      -1.652   2.841   0.499  0.00  0.00     0.054 C 
ATOM      9  C   UNL d   1      -0.751   3.747   1.325  0.00  0.00     0.018 C 
ENDBRANCH   1   8
TORSDOF 1
ENDMDL
