MODEL 1
REMARK minimizedAffinity -3.95782423
REMARK minimizedRMSD -1
REMARK  1 active torsions:
REMARK  status: ('A' for Active; 'I' for Inactive)
REMARK    1  A    between atoms: C1_2  and  C2_3 
ROOT
ATOM      1  C2  UNL d   1       0.193  -1.557  -0.725  0.00  0.00    -0.081 A 
ATOM      2  C3  UNL d   1      -1.163  -1.256  -0.544  0.00  0.00     0.006 A 
ATOM      3  C4  UNL d   1      -1.569  -0.415   0.495  0.00  0.00     0.002 A 
ATOM      4  C5  UNL d   1      -0.627   0.145   1.365  0.00  0.00    -0.080 A 
ATOM      5  C6  UNL d   1      -1.047   1.073   2.466  0.00  0.00     0.076 C 
ATOM      6  C7  UNL d   1       0.726  -0.170   1.195  0.00  0.00     0.002 A 
ATOM      7  C8  UNL d   1       1.132  -1.011   0.157  0.00  0.00     0.006 A 
ENDROOT
BRANCH   1   8
ATOM      8  C1  UNL d   1       0.640  -2.411  -1.883  0.00  0.00     0.054 C 
ATOM      9  C   UNL d   1      -0.534  -2.799  -2.770  0.00  0.00     0.018 C 
ENDBRANCH   1   8
TORSDOF 1
ENDMDL
