MODEL 1
REMARK minimizedAffinity -4.81379223
REMARK minimizedRMSD -1
REMARK  1 active torsions:
REMARK  status: ('A' for Active; 'I' for Inactive)
REMARK    1  A    between atoms: C1_2  and  C2_3 
ROOT
ATOM      1  C2  UNL d   1       1.088   1.404   0.792  0.00  0.00    -0.077 A 
ATOM      2  C3  UNL d   1       0.129   1.858   1.708  0.00  0.00     0.002 A 
ATOM      3  C4  UNL d   1      -1.089   1.189   1.844  0.00  0.00     0.002 A 
ATOM      4  C5  UNL d   1      -1.357   0.061   1.071  0.00  0.00    -0.004 A 
ATOM      5  C6  UNL d   1      -0.410  -0.396   0.156  0.00  0.00     0.002 A 
ATOM      6  C7  UNL d   1       0.807   0.271   0.017  0.00  0.00     0.002 A 
ENDROOT
BRANCH   1   7
ATOM      7  C1  UNL d   1       2.422   2.095   0.679  0.00  0.00     0.055 C 
ATOM      8  C   UNL d   1       3.460   1.192   0.028  0.00  0.00     0.019 C 
ENDBRANCH   1   7
TORSDOF 1
ENDMDL
