MODEL 1
REMARK minimizedAffinity -4.52949381
REMARK minimizedRMSD -1
REMARK  1 active torsions:
REMARK  status: ('A' for Active; 'I' for Inactive)
REMARK    1  A    between atoms: C1_2  and  C2_3 
ROOT
ATOM      1  C2  UNL d   1       0.886   0.325   0.120  0.00  0.00    -0.077 A 
ATOM      2  C3  UNL d   1       2.211   0.298  -0.338  0.00  0.00     0.002 A 
ATOM      3  C4  UNL d   1       3.130   1.253   0.101  0.00  0.00     0.002 A 
ATOM      4  C5  UNL d   1       2.735   2.240   1.003  0.00  0.00    -0.004 A 
ATOM      5  C6  UNL d   1       1.419   2.276   1.462  0.00  0.00     0.002 A 
ATOM      6  C7  UNL d   1       0.499   1.323   1.024  0.00  0.00     0.002 A 
ENDROOT
BRANCH   1   7
ATOM      7  C1  UNL d   1      -0.094  -0.734  -0.313  0.00  0.00     0.055 C 
ATOM      8  C   UNL d   1      -0.797  -1.361   0.882  0.00  0.00     0.019 C 
ENDBRANCH   1   7
TORSDOF 1
ENDMDL
