MODEL 1
REMARK minimizedAffinity -3.62700629
REMARK minimizedRMSD -1
REMARK  1 active torsions:
REMARK  status: ('A' for Active; 'I' for Inactive)
REMARK    1  A    between atoms: C1_2  and  C2_3 
ROOT
ATOM      1  C2  UNL d   1       0.245   1.091   0.014  0.00  0.00    -0.077 A 
ATOM      2  C3  UNL d   1      -0.195   0.499   1.206  0.00  0.00     0.002 A 
ATOM      3  C4  UNL d   1      -1.048  -0.605   1.174  0.00  0.00     0.002 A 
ATOM      4  C5  UNL d   1      -1.465  -1.130  -0.048  0.00  0.00    -0.004 A 
ATOM      5  C6  UNL d   1      -1.034  -0.548  -1.239  0.00  0.00     0.002 A 
ATOM      6  C7  UNL d   1      -0.182   0.557  -1.208  0.00  0.00     0.002 A 
ENDROOT
BRANCH   1   7
ATOM      7  C1  UNL d   1       1.205   2.252   0.047  0.00  0.00     0.055 C 
ATOM      8  C   UNL d   1       1.871   2.382   1.409  0.00  0.00     0.019 C 
ENDBRANCH   1   7
TORSDOF 1
ENDMDL
