MODEL 1
REMARK minimizedAffinity -4.26380348
REMARK minimizedRMSD -1
REMARK  1 active torsions:
REMARK  status: ('A' for Active; 'I' for Inactive)
REMARK    1  A    between atoms: C1_2  and  C2_3 
ROOT
ATOM      1  C2  UNL d   1       0.281   1.006   0.851  0.00  0.00    -0.077 A 
ATOM      2  C3  UNL d   1      -0.829   0.304   1.342  0.00  0.00     0.002 A 
ATOM      3  C4  UNL d   1      -1.141  -0.962   0.843  0.00  0.00     0.002 A 
ATOM      4  C5  UNL d   1      -0.347  -1.539  -0.146  0.00  0.00    -0.004 A 
ATOM      5  C6  UNL d   1       0.758  -0.848  -0.642  0.00  0.00     0.002 A 
ATOM      6  C7  UNL d   1       1.071   0.418  -0.145  0.00  0.00     0.002 A 
ENDROOT
BRANCH   1   7
ATOM      7  C1  UNL d   1       0.648   2.350   1.422  0.00  0.00     0.055 C 
ATOM      8  C   UNL d   1       2.133   2.428   1.745  0.00  0.00     0.019 C 
ENDBRANCH   1   7
TORSDOF 1
ENDMDL
