MODEL 1
REMARK minimizedAffinity -4.7780695
REMARK minimizedRMSD -1
REMARK  1 active torsions:
REMARK  status: ('A' for Active; 'I' for Inactive)
REMARK    1  A    between atoms: C1_2  and  C2_3 
ROOT
ATOM      1  C2  UNL d   1       1.031   1.681   0.596  0.00  0.00    -0.077 A 
ATOM      2  C3  UNL d   1       1.120   0.510  -0.169  0.00  0.00     0.002 A 
ATOM      3  C4  UNL d   1       2.361   0.046  -0.608  0.00  0.00     0.002 A 
ATOM      4  C5  UNL d   1       3.523   0.744  -0.284  0.00  0.00    -0.004 A 
ATOM      5  C6  UNL d   1       3.444   1.911   0.475  0.00  0.00     0.002 A 
ATOM      6  C7  UNL d   1       2.204   2.377   0.914  0.00  0.00     0.002 A 
ENDROOT
BRANCH   1   7
ATOM      7  C1  UNL d   1      -0.302   2.157   1.112  0.00  0.00     0.055 C 
ATOM      8  C   UNL d   1      -1.205   0.986   1.474  0.00  0.00     0.019 C 
ENDBRANCH   1   7
TORSDOF 1
ENDMDL
