MODEL 1
REMARK minimizedAffinity -5.62588167
REMARK minimizedRMSD -1
REMARK  1 active torsions:
REMARK  status: ('A' for Active; 'I' for Inactive)
REMARK    1  A    between atoms: C1_2  and  C2_3 
ROOT
ATOM      1  C2  UNL d   1       0.734   0.404   0.301  0.00  0.00    -0.077 A 
ATOM      2  C3  UNL d   1       1.966   0.890  -0.160  0.00  0.00     0.002 A 
ATOM      3  C4  UNL d   1       2.545   2.017   0.428  0.00  0.00     0.002 A 
ATOM      4  C5  UNL d   1       1.902   2.663   1.482  0.00  0.00    -0.004 A 
ATOM      5  C6  UNL d   1       0.676   2.187   1.946  0.00  0.00     0.002 A 
ATOM      6  C7  UNL d   1       0.095   1.063   1.359  0.00  0.00     0.002 A 
ENDROOT
BRANCH   1   7
ATOM      7  C1  UNL d   1       0.132  -0.840  -0.300  0.00  0.00     0.055 C 
ATOM      8  C   UNL d   1       1.208  -1.771  -0.839  0.00  0.00     0.019 C 
ENDBRANCH   1   7
TORSDOF 1
ENDMDL
