MODEL 1
REMARK minimizedAffinity -5.75361538
REMARK minimizedRMSD -1
REMARK  1 active torsions:
REMARK  status: ('A' for Active; 'I' for Inactive)
REMARK    1  A    between atoms: C1_2  and  C2_3 
ROOT
ATOM      1  C2  UNL d   1       0.798   0.189   0.126  0.00  0.00    -0.077 A 
ATOM      2  C3  UNL d   1       1.999   0.816  -0.235  0.00  0.00     0.002 A 
ATOM      3  C4  UNL d   1       2.433   1.956   0.444  0.00  0.00     0.002 A 
ATOM      4  C5  UNL d   1       1.675   2.475   1.491  0.00  0.00    -0.004 A 
ATOM      5  C6  UNL d   1       0.478   1.860   1.857  0.00  0.00     0.002 A 
ATOM      6  C7  UNL d   1       0.042   0.721   1.178  0.00  0.00     0.002 A 
ENDROOT
BRANCH   1   7
ATOM      7  C1  UNL d   1       0.354  -1.069  -0.573  0.00  0.00     0.055 C 
ATOM      8  C   UNL d   1      -1.164  -1.162  -0.634  0.00  0.00     0.019 C 
ENDBRANCH   1   7
TORSDOF 1
ENDMDL
