MODEL 1
REMARK minimizedAffinity -6.30958843
REMARK minimizedRMSD -1
REMARK  1 active torsions:
REMARK  status: ('A' for Active; 'I' for Inactive)
REMARK    1  A    between atoms: C1_2  and  C2_3 
ROOT
ATOM      1  C2  UNL d   1       1.252   1.436   0.742  0.00  0.00    -0.077 A 
ATOM      2  C3  UNL d   1       0.070   0.684   0.792  0.00  0.00     0.002 A 
ATOM      3  C4  UNL d   1       0.018  -0.589   0.222  0.00  0.00     0.002 A 
ATOM      4  C5  UNL d   1       1.145  -1.124  -0.397  0.00  0.00    -0.004 A 
ATOM      5  C6  UNL d   1       2.326  -0.384  -0.453  0.00  0.00     0.002 A 
ATOM      6  C7  UNL d   1       2.379   0.890   0.114  0.00  0.00     0.002 A 
ENDROOT
BRANCH   1   7
ATOM      7  C1  UNL d   1       1.325   2.789   1.399  0.00  0.00     0.055 C 
ATOM      8  C   UNL d   1       2.763   3.173   1.718  0.00  0.00     0.019 C 
ENDBRANCH   1   7
TORSDOF 1
ENDMDL
