MODEL 1
REMARK minimizedAffinity -5.77682686
REMARK minimizedRMSD -1
REMARK  1 active torsions:
REMARK  status: ('A' for Active; 'I' for Inactive)
REMARK    1  A    between atoms: C1_2  and  C2_3 
ROOT
ATOM      1  C2  UNL d   1       1.433   0.031   0.015  0.00  0.00    -0.077 A 
ATOM      2  C3  UNL d   1       0.598   1.156  -0.045  0.00  0.00     0.002 A 
ATOM      3  C4  UNL d   1       1.141   2.441  -0.016  0.00  0.00     0.002 A 
ATOM      4  C5  UNL d   1       2.521   2.614   0.068  0.00  0.00    -0.004 A 
ATOM      5  C6  UNL d   1       3.360   1.502   0.130  0.00  0.00     0.002 A 
ATOM      6  C7  UNL d   1       2.818   0.217   0.103  0.00  0.00     0.002 A 
ENDROOT
BRANCH   1   7
ATOM      7  C1  UNL d   1       0.852  -1.356  -0.065  0.00  0.00     0.055 C 
ATOM      8  C   UNL d   1      -0.556  -1.334  -0.642  0.00  0.00     0.019 C 
ENDBRANCH   1   7
TORSDOF 1
ENDMDL
