MODEL 1
REMARK minimizedAffinity -1.56508338
REMARK minimizedRMSD -1
REMARK  1 active torsions:
REMARK  status: ('A' for Active; 'I' for Inactive)
REMARK    1  A    between atoms: C1_2  and  C2_3 
ROOT
ATOM      1  C2  UNL d   1       0.100   0.097   0.200  0.00  0.00    -0.077 A 
ATOM      2  C3  UNL d   1      -1.281   0.235  -0.001  0.00  0.00     0.002 A 
ATOM      3  C4  UNL d   1      -2.067   0.906   0.938  0.00  0.00     0.002 A 
ATOM      4  C5  UNL d   1      -1.481   1.446   2.081  0.00  0.00    -0.004 A 
ATOM      5  C6  UNL d   1      -0.109   1.312   2.290  0.00  0.00     0.002 A 
ATOM      6  C7  UNL d   1       0.678   0.641   1.354  0.00  0.00     0.002 A 
ENDROOT
BRANCH   1   7
ATOM      7  C1  UNL d   1       0.957  -0.583  -0.836  0.00  0.00     0.055 C 
ATOM      8  C   UNL d   1       2.394  -0.084  -0.779  0.00  0.00     0.019 C 
ENDBRANCH   1   7
TORSDOF 1
ENDMDL
