MODEL 1
REMARK minimizedAffinity 5.25511932
REMARK minimizedRMSD -1
REMARK  1 active torsions:
REMARK  status: ('A' for Active; 'I' for Inactive)
REMARK    1  A    between atoms: C1_2  and  C2_3 
ROOT
ATOM      1  C2  UNL d   1       3.583   1.250  -1.315  0.00  0.00    -0.077 A 
ATOM      2  C3  UNL d   1       2.984   0.979  -0.076  0.00  0.00     0.002 A 
ATOM      3  C4  UNL d   1       1.993   0.001   0.030  0.00  0.00     0.002 A 
ATOM      4  C5  UNL d   1       1.596  -0.716  -1.097  0.00  0.00    -0.004 A 
ATOM      5  C6  UNL d   1       2.184  -0.452  -2.333  0.00  0.00     0.002 A 
ATOM      6  C7  UNL d   1       3.173   0.526  -2.442  0.00  0.00     0.002 A 
ENDROOT
BRANCH   1   7
ATOM      7  C1  UNL d   1       4.686   2.270  -1.422  0.00  0.00     0.055 C 
ATOM      8  C   UNL d   1       4.670   2.963  -2.776  0.00  0.00     0.019 C 
ENDBRANCH   1   7
TORSDOF 1
ENDMDL
