MODEL 1
REMARK minimizedAffinity 6.48322773
REMARK minimizedRMSD -1
REMARK  0 active torsions:
REMARK  status: ('A' for Active; 'I' for Inactive)
ROOT
ATOM      1  C   UNL d   1       3.637   0.175   0.745  0.00  0.00     0.078 C 
ATOM      2  C1  UNL d   1       2.463   0.821   1.419  0.00  0.00    -0.077 A 
ATOM      3  C2  UNL d   1       1.845   0.221   2.523  0.00  0.00    -0.001 A 
ATOM      4  C3  UNL d   1       0.748   0.830   3.134  0.00  0.00     0.003 A 
ATOM      5  C4  UNL d   1       0.258   2.040   2.648  0.00  0.00    -0.005 A 
ATOM      6  C5  UNL d   1       0.866   2.644   1.549  0.00  0.00     0.003 A 
ATOM      7  C6  UNL d   1       1.963   2.037   0.936  0.00  0.00    -0.001 A 
ENDROOT
TORSDOF 0
ENDMDL
