MODEL 1
REMARK minimizedAffinity 9.02140045
REMARK minimizedRMSD -1
REMARK  0 active torsions:
REMARK  status: ('A' for Active; 'I' for Inactive)
ROOT
ATOM      1  C   UNL d   1       2.603   1.506  -0.370  0.00  0.00     0.078 C 
ATOM      2  C1  UNL d   1       2.562   1.160   1.089  0.00  0.00    -0.077 A 
ATOM      3  C2  UNL d   1       3.638   0.510   1.706  0.00  0.00    -0.001 A 
ATOM      4  C3  UNL d   1       3.583   0.185   3.062  0.00  0.00     0.003 A 
ATOM      5  C4  UNL d   1       2.453   0.504   3.813  0.00  0.00    -0.005 A 
ATOM      6  C5  UNL d   1       1.376   1.149   3.207  0.00  0.00     0.003 A 
ATOM      7  C6  UNL d   1       1.430   1.475   1.851  0.00  0.00    -0.001 A 
ENDROOT
TORSDOF 0
ENDMDL
