MODEL 1
REMARK minimizedAffinity 9.2403841
REMARK minimizedRMSD -1
REMARK  0 active torsions:
REMARK  status: ('A' for Active; 'I' for Inactive)
ROOT
ATOM      1  C   UNL d   1      -5.999  -5.996  -2.995  0.00  0.00     0.078 C 
ATOM      2  C1  UNL d   1      -4.884  -4.995  -2.935  0.00  0.00    -0.077 A 
ATOM      3  C2  UNL d   1      -5.095  -3.658  -3.293  0.00  0.00    -0.001 A 
ATOM      4  C3  UNL d   1      -4.045  -2.739  -3.241  0.00  0.00     0.003 A 
ATOM      5  C4  UNL d   1      -2.777  -3.148  -2.833  0.00  0.00    -0.005 A 
ATOM      6  C5  UNL d   1      -2.557  -4.477  -2.478  0.00  0.00     0.003 A 
ATOM      7  C6  UNL d   1      -3.605  -5.397  -2.529  0.00  0.00    -0.001 A 
ENDROOT
TORSDOF 0
ENDMDL
