MODEL 1
REMARK minimizedAffinity 6.47085905
REMARK minimizedRMSD -1
REMARK  0 active torsions:
REMARK  status: ('A' for Active; 'I' for Inactive)
ROOT
ATOM      1  C   UNL d   1      -0.261  -4.445  -3.977  0.00  0.00     0.078 C 
ATOM      2  C1  UNL d   1      -1.606  -4.423  -3.314  0.00  0.00    -0.077 A 
ATOM      3  C2  UNL d   1      -2.340  -3.235  -3.210  0.00  0.00    -0.001 A 
ATOM      4  C3  UNL d   1      -3.586  -3.228  -2.582  0.00  0.00     0.003 A 
ATOM      5  C4  UNL d   1      -4.109  -4.405  -2.051  0.00  0.00    -0.005 A 
ATOM      6  C5  UNL d   1      -3.385  -5.592  -2.147  0.00  0.00     0.003 A 
ATOM      7  C6  UNL d   1      -2.139  -5.601  -2.775  0.00  0.00    -0.001 A 
ENDROOT
TORSDOF 0
ENDMDL
