MODEL 1
REMARK minimizedAffinity 3.71829438
REMARK minimizedRMSD -1
REMARK  0 active torsions:
REMARK  status: ('A' for Active; 'I' for Inactive)
ROOT
ATOM      1  C   UNL d   1      -4.607   0.374   2.664  0.00  0.00     0.078 C 
ATOM      2  C1  UNL d   1      -4.951   1.247   3.834  0.00  0.00    -0.077 A 
ATOM      3  C2  UNL d   1      -5.679   0.745   4.920  0.00  0.00    -0.001 A 
ATOM      4  C3  UNL d   1      -6.000   1.572   5.997  0.00  0.00     0.003 A 
ATOM      5  C4  UNL d   1      -5.599   2.907   5.999  0.00  0.00    -0.005 A 
ATOM      6  C5  UNL d   1      -4.876   3.416   4.922  0.00  0.00     0.003 A 
ATOM      7  C6  UNL d   1      -4.554   2.590   3.843  0.00  0.00    -0.001 A 
ENDROOT
TORSDOF 0
ENDMDL
