MODEL 1
REMARK minimizedAffinity 9.25964737
REMARK minimizedRMSD -1
REMARK  0 active torsions:
REMARK  status: ('A' for Active; 'I' for Inactive)
ROOT
ATOM      1  C   UNL d   1      -5.999  -0.652   5.981  0.00  0.00     0.078 C 
ATOM      2  C1  UNL d   1      -5.364   0.539   5.328  0.00  0.00    -0.077 A 
ATOM      3  C2  UNL d   1      -5.270   1.765   5.999  0.00  0.00    -0.001 A 
ATOM      4  C3  UNL d   1      -4.685   2.868   5.376  0.00  0.00     0.003 A 
ATOM      5  C4  UNL d   1      -4.191   2.758   4.077  0.00  0.00    -0.005 A 
ATOM      6  C5  UNL d   1      -4.282   1.543   3.401  0.00  0.00     0.003 A 
ATOM      7  C6  UNL d   1      -4.867   0.439   4.023  0.00  0.00    -0.001 A 
ENDROOT
TORSDOF 0
ENDMDL
