MODEL 1
REMARK minimizedAffinity 3.70230031
REMARK minimizedRMSD -1
REMARK  0 active torsions:
REMARK  status: ('A' for Active; 'I' for Inactive)
ROOT
ATOM      1  C   UNL d   1       6.000  -0.714   0.422  0.00  0.00     0.078 C 
ATOM      2  C1  UNL d   1       4.800   0.184   0.474  0.00  0.00    -0.077 A 
ATOM      3  C2  UNL d   1       3.737  -0.083   1.346  0.00  0.00    -0.001 A 
ATOM      4  C3  UNL d   1       2.622   0.755   1.377  0.00  0.00     0.003 A 
ATOM      5  C4  UNL d   1       2.558   1.866   0.538  0.00  0.00    -0.005 A 
ATOM      6  C5  UNL d   1       3.610   2.139  -0.334  0.00  0.00     0.003 A 
ATOM      7  C6  UNL d   1       4.726   1.301  -0.367  0.00  0.00    -0.001 A 
ENDROOT
TORSDOF 0
ENDMDL
