MODEL 1
REMARK minimizedAffinity 9.60669422
REMARK minimizedRMSD -1
REMARK  0 active torsions:
REMARK  status: ('A' for Active; 'I' for Inactive)
ROOT
ATOM      1  C   UNL d   1       1.885   2.139   1.273  0.00  0.00     0.078 C 
ATOM      2  C1  UNL d   1       3.096   1.523   0.637  0.00  0.00    -0.077 A 
ATOM      3  C2  UNL d   1       3.821   2.207  -0.346  0.00  0.00    -0.001 A 
ATOM      4  C3  UNL d   1       4.940   1.618  -0.935  0.00  0.00     0.003 A 
ATOM      5  C4  UNL d   1       5.344   0.342  -0.549  0.00  0.00    -0.005 A 
ATOM      6  C5  UNL d   1       4.628  -0.348   0.427  0.00  0.00     0.003 A 
ATOM      7  C6  UNL d   1       3.508   0.240   1.017  0.00  0.00    -0.001 A 
ENDROOT
TORSDOF 0
ENDMDL
