MODEL 1
REMARK minimizedAffinity 5.81988144
REMARK minimizedRMSD -1
REMARK  0 active torsions:
REMARK  status: ('A' for Active; 'I' for Inactive)
ROOT
ATOM      1  C   UNL d   1      -4.951  -0.029   2.659  0.00  0.00     0.078 C 
ATOM      2  C1  UNL d   1      -5.118   0.938   3.793  0.00  0.00    -0.077 A 
ATOM      3  C2  UNL d   1      -4.547   2.215   3.742  0.00  0.00    -0.001 A 
ATOM      4  C3  UNL d   1      -4.702   3.102   4.809  0.00  0.00     0.003 A 
ATOM      5  C4  UNL d   1      -5.428   2.720   5.935  0.00  0.00    -0.005 A 
ATOM      6  C5  UNL d   1      -5.999   1.450   5.996  0.00  0.00     0.003 A 
ATOM      7  C6  UNL d   1      -5.844   0.563   4.931  0.00  0.00    -0.001 A 
ENDROOT
TORSDOF 0
ENDMDL
