MODEL 1
REMARK minimizedAffinity 7.88858318
REMARK minimizedRMSD -1
REMARK  0 active torsions:
REMARK  status: ('A' for Active; 'I' for Inactive)
ROOT
ATOM      1  C   UNL d   1       3.471   2.626  -1.574  0.00  0.00     0.078 C 
ATOM      2  C1  UNL d   1       2.952   1.666  -0.546  0.00  0.00    -0.077 A 
ATOM      3  C2  UNL d   1       1.765   1.925   0.149  0.00  0.00    -0.001 A 
ATOM      4  C3  UNL d   1       1.299   1.027   1.110  0.00  0.00     0.003 A 
ATOM      5  C4  UNL d   1       2.014  -0.137   1.386  0.00  0.00    -0.005 A 
ATOM      6  C5  UNL d   1       3.198  -0.402   0.701  0.00  0.00     0.003 A 
ATOM      7  C6  UNL d   1       3.666   0.495  -0.261  0.00  0.00    -0.001 A 
ENDROOT
TORSDOF 0
ENDMDL
