MODEL 1
REMARK minimizedAffinity 18.2788963
REMARK minimizedRMSD -1
REMARK  0 active torsions:
REMARK  status: ('A' for Active; 'I' for Inactive)
ROOT
ATOM      1  C   UNL d   1      -2.651  -2.664  -2.460  0.00  0.00     0.078 C 
ATOM      2  C1  UNL d   1      -3.700  -3.733  -2.533  0.00  0.00    -0.077 A 
ATOM      3  C2  UNL d   1      -4.940  -3.486  -3.133  0.00  0.00    -0.001 A 
ATOM      4  C3  UNL d   1      -5.911  -4.488  -3.186  0.00  0.00     0.003 A 
ATOM      5  C4  UNL d   1      -5.651  -5.743  -2.639  0.00  0.00    -0.005 A 
ATOM      6  C5  UNL d   1      -4.420  -5.998  -2.038  0.00  0.00     0.003 A 
ATOM      7  C6  UNL d   1      -3.448  -4.997  -1.985  0.00  0.00    -0.001 A 
ENDROOT
TORSDOF 0
ENDMDL
