MODEL 1
REMARK minimizedAffinity 9.04844379
REMARK minimizedRMSD -1
REMARK  0 active torsions:
REMARK  status: ('A' for Active; 'I' for Inactive)
ROOT
ATOM      1  C   UNL d   1       4.712  -0.709   0.024  0.00  0.00     0.078 C 
ATOM      2  C1  UNL d   1       3.764  -0.424   1.150  0.00  0.00    -0.077 A 
ATOM      3  C2  UNL d   1       4.064  -0.812   2.462  0.00  0.00    -0.001 A 
ATOM      4  C3  UNL d   1       3.168  -0.549   3.499  0.00  0.00     0.003 A 
ATOM      5  C4  UNL d   1       1.964   0.102   3.235  0.00  0.00    -0.005 A 
ATOM      6  C5  UNL d   1       1.655   0.489   1.933  0.00  0.00     0.003 A 
ATOM      7  C6  UNL d   1       2.551   0.227   0.894  0.00  0.00    -0.001 A 
ENDROOT
TORSDOF 0
ENDMDL
