MODEL 1
REMARK minimizedAffinity 10.1984138
REMARK minimizedRMSD -1
REMARK  0 active torsions:
REMARK  status: ('A' for Active; 'I' for Inactive)
ROOT
ATOM      1  C   UNL d   1      -4.221   2.009   3.758  0.00  0.00     0.078 C 
ATOM      2  C1  UNL d   1      -4.848   3.371   3.784  0.00  0.00    -0.077 A 
ATOM      3  C2  UNL d   1      -5.428   3.921   2.634  0.00  0.00    -0.001 A 
ATOM      4  C3  UNL d   1      -5.999   5.193   2.671  0.00  0.00     0.003 A 
ATOM      5  C4  UNL d   1      -5.995   5.928   3.855  0.00  0.00    -0.005 A 
ATOM      6  C5  UNL d   1      -5.418   5.391   5.004  0.00  0.00     0.003 A 
ATOM      7  C6  UNL d   1      -4.846   4.118   4.969  0.00  0.00    -0.001 A 
ENDROOT
TORSDOF 0
ENDMDL
