MODEL 1
REMARK minimizedAffinity 11.3165426
REMARK minimizedRMSD -1
REMARK  0 active torsions:
REMARK  status: ('A' for Active; 'I' for Inactive)
ROOT
ATOM      1  C   UNL d   1      -4.522   0.023   2.679  0.00  0.00     0.078 C 
ATOM      2  C1  UNL d   1      -4.895   0.965   3.784  0.00  0.00    -0.077 A 
ATOM      3  C2  UNL d   1      -4.492   2.305   3.757  0.00  0.00    -0.001 A 
ATOM      4  C3  UNL d   1      -4.838   3.168   4.797  0.00  0.00     0.003 A 
ATOM      5  C4  UNL d   1      -5.589   2.700   5.874  0.00  0.00    -0.005 A 
ATOM      6  C5  UNL d   1      -5.993   1.367   5.911  0.00  0.00     0.003 A 
ATOM      7  C6  UNL d   1      -5.648   0.502   4.871  0.00  0.00    -0.001 A 
ENDROOT
TORSDOF 0
ENDMDL
