MODEL 1
REMARK minimizedAffinity 10.6603937
REMARK minimizedRMSD -1
REMARK  0 active torsions:
REMARK  status: ('A' for Active; 'I' for Inactive)
ROOT
ATOM      1  C   UNL d   1       0.194  -5.053  -3.931  0.00  0.00     0.078 C 
ATOM      2  C1  UNL d   1      -1.118  -4.751  -3.271  0.00  0.00    -0.077 A 
ATOM      3  C2  UNL d   1      -1.592  -3.437  -3.177  0.00  0.00    -0.001 A 
ATOM      4  C3  UNL d   1      -2.811  -3.170  -2.551  0.00  0.00     0.003 A 
ATOM      5  C4  UNL d   1      -3.565  -4.211  -2.014  0.00  0.00    -0.005 A 
ATOM      6  C5  UNL d   1      -3.100  -5.522  -2.101  0.00  0.00     0.003 A 
ATOM      7  C6  UNL d   1      -1.882  -5.791  -2.726  0.00  0.00    -0.001 A 
ENDROOT
TORSDOF 0
ENDMDL
