MODEL 1
REMARK minimizedAffinity 17.8300228
REMARK minimizedRMSD -1
REMARK  0 active torsions:
REMARK  status: ('A' for Active; 'I' for Inactive)
ROOT
ATOM      1  C   UNL d   1      -5.616  -2.637  -3.991  0.00  0.00     0.078 C 
ATOM      2  C1  UNL d   1      -5.152  -3.794  -3.158  0.00  0.00    -0.077 A 
ATOM      3  C2  UNL d   1      -3.878  -3.799  -2.575  0.00  0.00    -0.001 A 
ATOM      4  C3  UNL d   1      -3.456  -4.887  -1.811  0.00  0.00     0.003 A 
ATOM      5  C4  UNL d   1      -4.300  -5.980  -1.622  0.00  0.00    -0.005 A 
ATOM      6  C5  UNL d   1      -5.568  -5.985  -2.199  0.00  0.00     0.003 A 
ATOM      7  C6  UNL d   1      -5.992  -4.897  -2.964  0.00  0.00    -0.001 A 
ENDROOT
TORSDOF 0
ENDMDL
