MODEL 1
REMARK minimizedAffinity -5.63343287
REMARK minimizedRMSD -1
REMARK  1 active torsions:
REMARK  status: ('A' for Active; 'I' for Inactive)
REMARK    1  A    between atoms: C3_4  and  O_7 
ROOT
ATOM      1  C   UNL d   1      -2.638  -2.265   0.718  0.00  0.00    -0.033 A 
ATOM      2  C1  UNL d   1      -1.430  -2.574   1.346  0.00  0.00     0.039 A 
ATOM      3  C2  UNL d   1      -0.318  -1.748   1.169  0.00  0.00    -0.080 A 
ATOM      4  C3  UNL d   1      -0.427  -0.618   0.364  0.00  0.00     0.150 A 
ATOM      5  C4  UNL d   1      -1.629  -0.302  -0.262  0.00  0.00    -0.007 A 
ATOM      6  C5  UNL d   1      -2.738  -1.128  -0.085  0.00  0.00     0.039 A 
ENDROOT
BRANCH   4   7
ATOM      7  O   UNL d   1       0.632   0.216   0.158  0.00  0.00    -0.526 OA
ATOM      8  H5  UNL d   1       1.402  -0.143   0.629  0.00  0.00     0.418 HD
ENDBRANCH   4   7
TORSDOF 1
ENDMDL
