MODEL 1
REMARK minimizedAffinity -5.44445324
REMARK minimizedRMSD -1
REMARK  1 active torsions:
REMARK  status: ('A' for Active; 'I' for Inactive)
REMARK    1  A    between atoms: C3_4  and  O_7 
ROOT
ATOM      1  C   UNL d   1      -3.011  -1.200   0.114  0.00  0.00    -0.033 A 
ATOM      2  C1  UNL d   1      -2.180  -1.738   1.098  0.00  0.00     0.039 A 
ATOM      3  C2  UNL d   1      -0.851  -1.323   1.196  0.00  0.00    -0.080 A 
ATOM      4  C3  UNL d   1      -0.365  -0.370   0.305  0.00  0.00     0.150 A 
ATOM      5  C4  UNL d   1      -1.188   0.174  -0.675  0.00  0.00    -0.007 A 
ATOM      6  C5  UNL d   1      -2.515  -0.243  -0.772  0.00  0.00     0.039 A 
ENDROOT
BRANCH   4   7
ATOM      7  O   UNL d   1       0.926   0.063   0.359  0.00  0.00    -0.526 OA
ATOM      8  H5  UNL d   1       1.384  -0.421   1.067  0.00  0.00     0.418 HD
ENDBRANCH   4   7
TORSDOF 1
ENDMDL
