MODEL 1
REMARK minimizedAffinity -4.20764017
REMARK minimizedRMSD -1
REMARK  1 active torsions:
REMARK  status: ('A' for Active; 'I' for Inactive)
REMARK    1  A    between atoms: C3_4  and  O_7 
ROOT
ATOM      1  C   UNL d   1       2.618   2.910   1.175  0.00  0.00    -0.033 A 
ATOM      2  C1  UNL d   1       1.254   3.177   1.310  0.00  0.00     0.039 A 
ATOM      3  C2  UNL d   1       0.313   2.213   0.944  0.00  0.00    -0.080 A 
ATOM      4  C3  UNL d   1       0.748   0.987   0.447  0.00  0.00     0.150 A 
ATOM      5  C4  UNL d   1       2.105   0.713   0.314  0.00  0.00    -0.007 A 
ATOM      6  C5  UNL d   1       3.043   1.678   0.679  0.00  0.00     0.039 A 
ENDROOT
BRANCH   4   7
ATOM      7  O   UNL d   1      -0.133   0.017   0.073  0.00  0.00    -0.526 OA
ATOM      8  H5  UNL d   1      -1.036   0.357   0.193  0.00  0.00     0.418 HD
ENDBRANCH   4   7
TORSDOF 1
ENDMDL
