MODEL 1
REMARK minimizedAffinity -4.34153366
REMARK minimizedRMSD -1
REMARK  1 active torsions:
REMARK  status: ('A' for Active; 'I' for Inactive)
REMARK    1  A    between atoms: C3_4  and  O_7 
ROOT
ATOM      1  C   UNL d   1      -2.742  -1.942   0.034  0.00  0.00    -0.033 A 
ATOM      2  C1  UNL d   1      -2.475  -0.822  -0.756  0.00  0.00     0.039 A 
ATOM      3  C2  UNL d   1      -1.294  -0.101  -0.573  0.00  0.00    -0.080 A 
ATOM      4  C3  UNL d   1      -0.388  -0.510   0.402  0.00  0.00     0.150 A 
ATOM      5  C4  UNL d   1      -0.645  -1.627   1.190  0.00  0.00    -0.007 A 
ATOM      6  C5  UNL d   1      -1.826  -2.345   1.006  0.00  0.00     0.039 A 
ENDROOT
BRANCH   4   7
ATOM      7  O   UNL d   1       0.776   0.164   0.621  0.00  0.00    -0.526 OA
ATOM      8  H5  UNL d   1       0.806   0.930   0.023  0.00  0.00     0.418 HD
ENDBRANCH   4   7
TORSDOF 1
ENDMDL
