MODEL 1
REMARK minimizedAffinity -3.53798819
REMARK minimizedRMSD -1
REMARK  1 active torsions:
REMARK  status: ('A' for Active; 'I' for Inactive)
REMARK    1  A    between atoms: C3_4  and  O_7 
ROOT
ATOM      1  C   UNL d   1       0.118   0.455   0.392  0.00  0.00    -0.033 A 
ATOM      2  C1  UNL d   1       0.260   0.298  -0.988  0.00  0.00     0.039 A 
ATOM      3  C2  UNL d   1      -0.745  -0.329  -1.728  0.00  0.00    -0.080 A 
ATOM      4  C3  UNL d   1      -1.884  -0.793  -1.077  0.00  0.00     0.150 A 
ATOM      5  C4  UNL d   1      -2.033  -0.637   0.297  0.00  0.00    -0.007 A 
ATOM      6  C5  UNL d   1      -1.029  -0.011   1.034  0.00  0.00     0.039 A 
ENDROOT
BRANCH   4   7
ATOM      7  O   UNL d   1      -2.889  -1.416  -1.755  0.00  0.00    -0.526 OA
ATOM      8  H5  UNL d   1      -2.636  -1.479  -2.691  0.00  0.00     0.418 HD
ENDBRANCH   4   7
TORSDOF 1
ENDMDL
