MODEL 1
REMARK minimizedAffinity -4.59733582
REMARK minimizedRMSD -1
REMARK  1 active torsions:
REMARK  status: ('A' for Active; 'I' for Inactive)
REMARK    1  A    between atoms: C3_4  and  O_7 
ROOT
ATOM      1  C   UNL d   1       0.441  -0.147  -0.551  0.00  0.00    -0.033 A 
ATOM      2  C1  UNL d   1      -0.084  -0.431   0.712  0.00  0.00     0.039 A 
ATOM      3  C2  UNL d   1      -1.466  -0.495   0.897  0.00  0.00    -0.080 A 
ATOM      4  C3  UNL d   1      -2.312  -0.276  -0.187  0.00  0.00     0.150 A 
ATOM      5  C4  UNL d   1      -1.796   0.003  -1.449  0.00  0.00    -0.007 A 
ATOM      6  C5  UNL d   1      -0.415   0.068  -1.631  0.00  0.00     0.039 A 
ENDROOT
BRANCH   4   7
ATOM      7  O   UNL d   1      -3.668  -0.324  -0.054  0.00  0.00    -0.526 OA
ATOM      8  H5  UNL d   1      -3.879  -0.498   0.878  0.00  0.00     0.418 HD
ENDBRANCH   4   7
TORSDOF 1
ENDMDL
