MODEL 1
REMARK minimizedAffinity -0.48750928
REMARK minimizedRMSD -1
REMARK  1 active torsions:
REMARK  status: ('A' for Active; 'I' for Inactive)
REMARK    1  A    between atoms: C3_4  and  O_7 
ROOT
ATOM      1  C   UNL d   1      -3.343   1.003   4.149  0.00  0.00    -0.033 A 
ATOM      2  C1  UNL d   1      -2.597   0.009   3.512  0.00  0.00     0.039 A 
ATOM      3  C2  UNL d   1      -2.428  -1.237   4.120  0.00  0.00    -0.080 A 
ATOM      4  C3  UNL d   1      -3.010  -1.476   5.362  0.00  0.00     0.150 A 
ATOM      5  C4  UNL d   1      -3.758  -0.491   6.000  0.00  0.00    -0.007 A 
ATOM      6  C5  UNL d   1      -3.925   0.752   5.392  0.00  0.00     0.039 A 
ENDROOT
BRANCH   4   7
ATOM      7  O   UNL d   1      -2.869  -2.674   5.997  0.00  0.00    -0.526 OA
ATOM      8  H5  UNL d   1      -2.303  -3.246   5.451  0.00  0.00     0.418 HD
ENDBRANCH   4   7
TORSDOF 1
ENDMDL
