MODEL 1
REMARK minimizedAffinity -2.32691646
REMARK minimizedRMSD -1
REMARK  1 active torsions:
REMARK  status: ('A' for Active; 'I' for Inactive)
REMARK    1  A    between atoms: C3_4  and  O_7 
ROOT
ATOM      1  C   UNL d   1       3.138   3.364   1.596  0.00  0.00    -0.033 A 
ATOM      2  C1  UNL d   1       2.240   3.760   0.602  0.00  0.00     0.039 A 
ATOM      3  C2  UNL d   1       1.589   2.800  -0.175  0.00  0.00    -0.080 A 
ATOM      4  C3  UNL d   1       1.843   1.450   0.051  0.00  0.00     0.150 A 
ATOM      5  C4  UNL d   1       2.733   1.049   1.042  0.00  0.00    -0.007 A 
ATOM      6  C5  UNL d   1       3.383   2.008   1.816  0.00  0.00     0.039 A 
ENDROOT
BRANCH   4   7
ATOM      7  O   UNL d   1       1.235   0.477  -0.686  0.00  0.00    -0.526 OA
ATOM      8  H5  UNL d   1       0.669   0.904  -1.351  0.00  0.00     0.418 HD
ENDBRANCH   4   7
TORSDOF 1
ENDMDL
