MODEL 1
REMARK minimizedAffinity -4.84558487
REMARK minimizedRMSD -1
REMARK  1 active torsions:
REMARK  status: ('A' for Active; 'I' for Inactive)
REMARK    1  A    between atoms: C3_4  and  O_7 
ROOT
ATOM      1  C   UNL d   1      -1.225   0.021  -1.242  0.00  0.00    -0.033 A 
ATOM      2  C1  UNL d   1      -2.241  -0.889  -0.946  0.00  0.00     0.039 A 
ATOM      3  C2  UNL d   1      -2.035  -1.880   0.015  0.00  0.00    -0.080 A 
ATOM      4  C3  UNL d   1      -0.810  -1.950   0.673  0.00  0.00     0.150 A 
ATOM      5  C4  UNL d   1       0.206  -1.044   0.386  0.00  0.00    -0.007 A 
ATOM      6  C5  UNL d   1      -0.002  -0.055  -0.575  0.00  0.00     0.039 A 
ENDROOT
BRANCH   4   7
ATOM      7  O   UNL d   1      -0.561  -2.902   1.616  0.00  0.00    -0.526 OA
ATOM      8  H5  UNL d   1      -1.342  -3.475   1.689  0.00  0.00     0.418 HD
ENDBRANCH   4   7
TORSDOF 1
ENDMDL
