MODEL 1
REMARK minimizedAffinity -4.70620108
REMARK minimizedRMSD -1
REMARK  1 active torsions:
REMARK  status: ('A' for Active; 'I' for Inactive)
REMARK    1  A    between atoms: C3_4  and  O_7 
ROOT
ATOM      1  C   UNL d   1      -2.777  -2.856   0.865  0.00  0.00    -0.033 A 
ATOM      2  C1  UNL d   1      -1.704  -2.877   1.757  0.00  0.00     0.039 A 
ATOM      3  C2  UNL d   1      -0.705  -1.906   1.674  0.00  0.00    -0.080 A 
ATOM      4  C3  UNL d   1      -0.791  -0.920   0.695  0.00  0.00     0.150 A 
ATOM      5  C4  UNL d   1      -1.860  -0.890  -0.195  0.00  0.00    -0.007 A 
ATOM      6  C5  UNL d   1      -2.856  -1.862  -0.111  0.00  0.00     0.039 A 
ENDROOT
BRANCH   4   7
ATOM      7  O   UNL d   1       0.162   0.047   0.571  0.00  0.00    -0.526 OA
ATOM      8  H5  UNL d   1       0.854  -0.116   1.234  0.00  0.00     0.418 HD
ENDBRANCH   4   7
TORSDOF 1
ENDMDL
