MODEL 1
REMARK minimizedAffinity -5.60932875
REMARK minimizedRMSD -1
REMARK  1 active torsions:
REMARK  status: ('A' for Active; 'I' for Inactive)
REMARK    1  A    between atoms: C3_4  and  O_7 
ROOT
ATOM      1  C   UNL d   1      -0.235  -1.286   1.048  0.00  0.00    -0.033 A 
ATOM      2  C1  UNL d   1      -1.233  -2.210   1.361  0.00  0.00     0.039 A 
ATOM      3  C2  UNL d   1      -2.506  -2.083   0.800  0.00  0.00    -0.080 A 
ATOM      4  C3  UNL d   1      -2.766  -1.029  -0.072  0.00  0.00     0.150 A 
ATOM      5  C4  UNL d   1      -1.774  -0.107  -0.391  0.00  0.00    -0.007 A 
ATOM      6  C5  UNL d   1      -0.505  -0.235   0.171  0.00  0.00     0.039 A 
ENDROOT
BRANCH   4   7
ATOM      7  O   UNL d   1      -3.993  -0.861  -0.640  0.00  0.00    -0.526 OA
ATOM      8  H5  UNL d   1      -4.585  -1.555  -0.305  0.00  0.00     0.418 HD
ENDBRANCH   4   7
TORSDOF 1
ENDMDL
