MODEL 1
REMARK minimizedAffinity -0.393136203
REMARK minimizedRMSD -1
REMARK  1 active torsions:
REMARK  status: ('A' for Active; 'I' for Inactive)
REMARK    1  A    between atoms: C3_4  and  O_7 
ROOT
ATOM      1  C   UNL d   1       2.258   1.868   1.785  0.00  0.00    -0.033 A 
ATOM      2  C1  UNL d   1       2.602   3.179   2.121  0.00  0.00     0.039 A 
ATOM      3  C2  UNL d   1       3.099   4.044   1.144  0.00  0.00    -0.080 A 
ATOM      4  C3  UNL d   1       3.246   3.588  -0.163  0.00  0.00     0.150 A 
ATOM      5  C4  UNL d   1       2.902   2.284  -0.505  0.00  0.00    -0.007 A 
ATOM      6  C5  UNL d   1       2.406   1.421   0.472  0.00  0.00     0.039 A 
ENDROOT
BRANCH   4   7
ATOM      7  O   UNL d   1       3.732   4.394  -1.149  0.00  0.00    -0.526 OA
ATOM      8  H5  UNL d   1       3.955   5.256  -0.760  0.00  0.00     0.418 HD
ENDBRANCH   4   7
TORSDOF 1
ENDMDL
