MODEL 1
REMARK minimizedAffinity -4.4325552
REMARK minimizedRMSD -1
REMARK  1 active torsions:
REMARK  status: ('A' for Active; 'I' for Inactive)
REMARK    1  A    between atoms: C3_4  and  O_7 
ROOT
ATOM      1  C   UNL d   1       0.477  -0.075  -0.672  0.00  0.00    -0.033 A 
ATOM      2  C1  UNL d   1      -0.415  -0.006  -1.744  0.00  0.00     0.039 A 
ATOM      3  C2  UNL d   1      -1.785  -0.156  -1.524  0.00  0.00    -0.080 A 
ATOM      4  C3  UNL d   1      -2.250  -0.373  -0.230  0.00  0.00     0.150 A 
ATOM      5  C4  UNL d   1      -1.367  -0.439   0.843  0.00  0.00    -0.007 A 
ATOM      6  C5  UNL d   1       0.001  -0.290   0.622  0.00  0.00     0.039 A 
ENDROOT
BRANCH   4   7
ATOM      7  O   UNL d   1      -3.579  -0.530   0.033  0.00  0.00    -0.526 OA
ATOM      8  H5  UNL d   1      -4.066  -0.490  -0.807  0.00  0.00     0.418 HD
ENDBRANCH   4   7
TORSDOF 1
ENDMDL
