MODEL 1
REMARK minimizedAffinity -3.79177999
REMARK minimizedRMSD -1
REMARK  1 active torsions:
REMARK  status: ('A' for Active; 'I' for Inactive)
REMARK    1  A    between atoms: C3_4  and  O_7 
ROOT
ATOM      1  C   UNL d   1      -3.051  -1.732   0.205  0.00  0.00    -0.033 A 
ATOM      2  C1  UNL d   1      -2.208  -2.289   1.168  0.00  0.00     0.039 A 
ATOM      3  C2  UNL d   1      -0.890  -1.843   1.288  0.00  0.00    -0.080 A 
ATOM      4  C3  UNL d   1      -0.429  -0.839   0.441  0.00  0.00     0.150 A 
ATOM      5  C4  UNL d   1      -1.265  -0.276  -0.518  0.00  0.00    -0.007 A 
ATOM      6  C5  UNL d   1      -2.579  -0.724  -0.638  0.00  0.00     0.039 A 
ENDROOT
BRANCH   4   7
ATOM      7  O   UNL d   1       0.850  -0.373   0.518  0.00  0.00    -0.526 OA
ATOM      8  H5  UNL d   1       1.319  -0.874   1.206  0.00  0.00     0.418 HD
ENDBRANCH   4   7
TORSDOF 1
ENDMDL
