MODEL 1
REMARK minimizedAffinity -6.04397535
REMARK minimizedRMSD -1
REMARK  0 active torsions:
REMARK  status: ('A' for Active; 'I' for Inactive)
ROOT
ATOM      1  O1  BZF d   1       0.773  -0.206  -0.665  0.00  0.00    -0.204 OA
ATOM      2  C2  BZF d   1       1.057  -1.044   0.397  0.00  0.00     0.174 A 
ATOM      3  C3  BZF d   1       0.289  -0.741   1.463  0.00  0.00    -0.012 A 
ATOM      4  C3A BZF d   1      -0.590   0.294   1.012  0.00  0.00    -0.107 A 
ATOM      5  C4  BZF d   1      -1.596   0.998   1.611  0.00  0.00     0.055 A 
ATOM      6  C5  BZF d   1      -2.209   1.993   0.916  0.00  0.00    -0.016 A 
ATOM      7  C6  BZF d   1      -1.839   2.313  -0.374  0.00  0.00     0.022 A 
ATOM      8  C7  BZF d   1      -0.851   1.639  -1.010  0.00  0.00     0.029 A 
ATOM      9  C7A BZF d   1      -0.251   0.612  -0.323  0.00  0.00     0.058 A 
ENDROOT
TORSDOF 0
ENDMDL
