MODEL 1
REMARK minimizedAffinity -2.04355311
REMARK minimizedRMSD -1
REMARK  0 active torsions:
REMARK  status: ('A' for Active; 'I' for Inactive)
ROOT
ATOM      1  O1  BZF d   1       1.346   0.581  -1.791  0.00  0.00    -0.204 OA
ATOM      2  C2  BZF d   1       0.884   1.828  -2.166  0.00  0.00     0.174 A 
ATOM      3  C3  BZF d   1      -0.070   2.260  -1.316  0.00  0.00    -0.012 A 
ATOM      4  C3A BZF d   1      -0.147   1.259  -0.297  0.00  0.00    -0.107 A 
ATOM      5  C4  BZF d   1      -0.899   1.128   0.836  0.00  0.00     0.055 A 
ATOM      6  C5  BZF d   1      -0.785  -0.005   1.577  0.00  0.00    -0.016 A 
ATOM      7  C6  BZF d   1       0.066  -1.028   1.213  0.00  0.00     0.022 A 
ATOM      8  C7  BZF d   1       0.836  -0.942   0.101  0.00  0.00     0.029 A 
ATOM      9  C7A BZF d   1       0.748   0.216  -0.632  0.00  0.00     0.058 A 
ENDROOT
TORSDOF 0
ENDMDL
