MODEL 1
REMARK minimizedAffinity -4.46319771
REMARK minimizedRMSD -1
REMARK  0 active torsions:
REMARK  status: ('A' for Active; 'I' for Inactive)
ROOT
ATOM      1  O1  BZF d   1       0.940  -1.126  -1.930  0.00  0.00    -0.204 OA
ATOM      2  C2  BZF d   1       1.635  -0.930  -0.753  0.00  0.00     0.174 A 
ATOM      3  C3  BZF d   1       1.706  -2.075  -0.043  0.00  0.00    -0.012 A 
ATOM      4  C3A BZF d   1       1.092  -3.068  -0.870  0.00  0.00    -0.107 A 
ATOM      5  C4  BZF d   1       0.872  -4.408  -0.721  0.00  0.00     0.055 A 
ATOM      6  C5  BZF d   1       0.180  -5.074  -1.682  0.00  0.00    -0.016 A 
ATOM      7  C6  BZF d   1      -0.311  -4.432  -2.800  0.00  0.00     0.022 A 
ATOM      8  C7  BZF d   1      -0.114  -3.105  -2.994  0.00  0.00     0.029 A 
ATOM      9  C7A BZF d   1       0.614  -2.436  -2.041  0.00  0.00     0.058 A 
ENDROOT
TORSDOF 0
ENDMDL
