MODEL 1
REMARK minimizedAffinity -2.06104183
REMARK minimizedRMSD -1
REMARK  0 active torsions:
REMARK  status: ('A' for Active; 'I' for Inactive)
ROOT
ATOM      1  O1  BZF d   1      -0.684   0.053   1.839  0.00  0.00    -0.204 OA
ATOM      2  C2  BZF d   1      -1.453   1.081   2.349  0.00  0.00     0.174 A 
ATOM      3  C3  BZF d   1      -1.407   2.160   1.542  0.00  0.00    -0.012 A 
ATOM      4  C3A BZF d   1      -0.630   1.751   0.412  0.00  0.00    -0.107 A 
ATOM      5  C4  BZF d   1      -0.244   2.378  -0.738  0.00  0.00     0.055 A 
ATOM      6  C5  BZF d   1       0.574   1.724  -1.604  0.00  0.00    -0.016 A 
ATOM      7  C6  BZF d   1       1.028   0.447  -1.350  0.00  0.00     0.022 A 
ATOM      8  C7  BZF d   1       0.669  -0.217  -0.225  0.00  0.00     0.029 A 
ATOM      9  C7A BZF d   1      -0.185   0.428   0.637  0.00  0.00     0.058 A 
ENDROOT
TORSDOF 0
ENDMDL
