MODEL 1
REMARK minimizedAffinity 0.367684156
REMARK minimizedRMSD -1
REMARK  0 active torsions:
REMARK  status: ('A' for Active; 'I' for Inactive)
ROOT
ATOM      1  O1  BZF d   1      -0.780   0.476  -1.268  0.00  0.00    -0.204 OA
ATOM      2  C2  BZF d   1       0.229   1.370  -1.572  0.00  0.00     0.174 A 
ATOM      3  C3  BZF d   1       1.017   1.585  -0.499  0.00  0.00    -0.012 A 
ATOM      4  C3A BZF d   1       0.521   0.706   0.515  0.00  0.00    -0.107 A 
ATOM      5  C4  BZF d   1       0.899   0.449   1.802  0.00  0.00     0.055 A 
ATOM      6  C5  BZF d   1       0.159  -0.413   2.547  0.00  0.00    -0.016 A 
ATOM      7  C6  BZF d   1      -0.965  -1.032   2.041  0.00  0.00     0.022 A 
ATOM      8  C7  BZF d   1      -1.376  -0.812   0.768  0.00  0.00     0.029 A 
ATOM      9  C7A BZF d   1      -0.612   0.034   0.001  0.00  0.00     0.058 A 
ENDROOT
TORSDOF 0
ENDMDL
