MODEL 1
REMARK minimizedAffinity 3.16694427
REMARK minimizedRMSD -1
REMARK  0 active torsions:
REMARK  status: ('A' for Active; 'I' for Inactive)
ROOT
ATOM      1  O1  BZF d   1       4.073  -1.622  -5.590  0.00  0.00    -0.204 OA
ATOM      2  C2  BZF d   1       5.111  -0.742  -5.825  0.00  0.00     0.174 A 
ATOM      3  C3  BZF d   1       6.000  -0.768  -4.811  0.00  0.00    -0.012 A 
ATOM      4  C3A BZF d   1       5.532  -1.793  -3.928  0.00  0.00    -0.107 A 
ATOM      5  C4  BZF d   1       5.999  -2.302  -2.750  0.00  0.00     0.055 A 
ATOM      6  C5  BZF d   1       5.268  -3.248  -2.103  0.00  0.00    -0.016 A 
ATOM      7  C6  BZF d   1       4.066  -3.703  -2.603  0.00  0.00     0.022 A 
ATOM      8  C7  BZF d   1       3.565  -3.232  -3.770  0.00  0.00     0.029 A 
ATOM      9  C7A BZF d   1       4.317  -2.300  -4.443  0.00  0.00     0.058 A 
ENDROOT
TORSDOF 0
ENDMDL
