MODEL 1
REMARK minimizedAffinity -3.85440683
REMARK minimizedRMSD -1
REMARK  0 active torsions:
REMARK  status: ('A' for Active; 'I' for Inactive)
ROOT
ATOM      1  O1  BZF d   1       0.763  -1.139   0.280  0.00  0.00    -0.204 OA
ATOM      2  C2  BZF d   1       0.652   0.232   0.145  0.00  0.00     0.174 A 
ATOM      3  C3  BZF d   1       0.313   0.562  -1.118  0.00  0.00    -0.012 A 
ATOM      4  C3A BZF d   1       0.116  -0.685  -1.792  0.00  0.00    -0.107 A 
ATOM      5  C4  BZF d   1      -0.249  -1.015  -3.066  0.00  0.00     0.055 A 
ATOM      6  C5  BZF d   1      -0.279  -2.326  -3.426  0.00  0.00    -0.016 A 
ATOM      7  C6  BZF d   1       0.054  -3.329  -2.540  0.00  0.00     0.022 A 
ATOM      8  C7  BZF d   1       0.417  -3.051  -1.264  0.00  0.00     0.029 A 
ATOM      9  C7A BZF d   1       0.417  -1.730  -0.888  0.00  0.00     0.058 A 
ENDROOT
TORSDOF 0
ENDMDL
