MODEL 1
REMARK minimizedAffinity -6.13679934
REMARK minimizedRMSD -1
REMARK  0 active torsions:
REMARK  status: ('A' for Active; 'I' for Inactive)
ROOT
ATOM      1  O1  BZF d   1      -1.623   1.693   2.550  0.00  0.00    -0.204 OA
ATOM      2  C2  BZF d   1      -2.436   2.614   1.920  0.00  0.00     0.174 A 
ATOM      3  C3  BZF d   1      -2.227   2.605   0.588  0.00  0.00    -0.012 A 
ATOM      4  C3A BZF d   1      -1.285   1.552   0.362  0.00  0.00    -0.107 A 
ATOM      5  C4  BZF d   1      -0.697   1.043  -0.761  0.00  0.00     0.055 A 
ATOM      6  C5  BZF d   1       0.234   0.061  -0.631  0.00  0.00    -0.016 A 
ATOM      7  C6  BZF d   1       0.604  -0.431   0.603  0.00  0.00     0.022 A 
ATOM      8  C7  BZF d   1       0.044   0.039   1.745  0.00  0.00     0.029 A 
ATOM      9  C7A BZF d   1      -0.921   1.008   1.615  0.00  0.00     0.058 A 
ENDROOT
TORSDOF 0
ENDMDL
