MODEL 1
REMARK minimizedAffinity -5.57297897
REMARK minimizedRMSD -1
REMARK  0 active torsions:
REMARK  status: ('A' for Active; 'I' for Inactive)
ROOT
ATOM      1  O1  BZF d   1       1.324   0.477  -0.989  0.00  0.00    -0.204 OA
ATOM      2  C2  BZF d   1       1.241   1.539  -1.868  0.00  0.00     0.174 A 
ATOM      3  C3  BZF d   1       0.203   2.341  -1.553  0.00  0.00    -0.012 A 
ATOM      4  C3A BZF d   1      -0.345   1.792  -0.350  0.00  0.00    -0.107 A 
ATOM      5  C4  BZF d   1      -1.382   2.154   0.460  0.00  0.00     0.055 A 
ATOM      6  C5  BZF d   1      -1.702   1.363   1.518  0.00  0.00    -0.016 A 
ATOM      7  C6  BZF d   1      -1.010   0.202   1.791  0.00  0.00     0.022 A 
ATOM      8  C7  BZF d   1       0.030  -0.196   1.019  0.00  0.00     0.029 A 
ATOM      9  C7A BZF d   1       0.377   0.618  -0.031  0.00  0.00     0.058 A 
ENDROOT
TORSDOF 0
ENDMDL
