MODEL 1
REMARK minimizedAffinity -3.61397719
REMARK minimizedRMSD -1
REMARK  0 active torsions:
REMARK  status: ('A' for Active; 'I' for Inactive)
ROOT
ATOM      1  O1  BZF d   1      -0.376   0.648  -1.204  0.00  0.00    -0.204 OA
ATOM      2  C2  BZF d   1       0.522  -0.401  -1.249  0.00  0.00     0.174 A 
ATOM      3  C3  BZF d   1       0.775  -0.867  -0.009  0.00  0.00    -0.012 A 
ATOM      4  C3A BZF d   1      -0.083  -0.119   0.857  0.00  0.00    -0.107 A 
ATOM      5  C4  BZF d   1      -0.302  -0.135   2.205  0.00  0.00     0.055 A 
ATOM      6  C5  BZF d   1      -1.154   0.774   2.747  0.00  0.00    -0.016 A 
ATOM      7  C6  BZF d   1      -1.800   1.715   1.973  0.00  0.00     0.022 A 
ATOM      8  C7  BZF d   1      -1.619   1.767   0.631  0.00  0.00     0.029 A 
ATOM      9  C7A BZF d   1      -0.784   0.829   0.076  0.00  0.00     0.058 A 
ENDROOT
TORSDOF 0
ENDMDL
