MODEL 1
REMARK minimizedAffinity -4.09387016
REMARK minimizedRMSD -1
REMARK  0 active torsions:
REMARK  status: ('A' for Active; 'I' for Inactive)
ROOT
ATOM      1  O1  BZF d   1      -0.386  -1.636   0.299  0.00  0.00    -0.204 OA
ATOM      2  C2  BZF d   1       0.402  -1.449  -0.820  0.00  0.00     0.174 A 
ATOM      3  C3  BZF d   1       0.632  -0.137  -1.029  0.00  0.00    -0.012 A 
ATOM      4  C3A BZF d   1       0.022   0.533   0.078  0.00  0.00    -0.107 A 
ATOM      5  C4  BZF d   1      -0.074   1.845   0.445  0.00  0.00     0.055 A 
ATOM      6  C5  BZF d   1      -0.801   2.172   1.546  0.00  0.00    -0.016 A 
ATOM      7  C6  BZF d   1      -1.447   1.215   2.299  0.00  0.00     0.022 A 
ATOM      8  C7  BZF d   1      -1.376  -0.100   1.979  0.00  0.00     0.029 A 
ATOM      9  C7A BZF d   1      -0.615  -0.437   0.886  0.00  0.00     0.058 A 
ENDROOT
TORSDOF 0
ENDMDL
