MODEL 1
REMARK minimizedAffinity -5.49410009
REMARK minimizedRMSD -1
REMARK  0 active torsions:
REMARK  status: ('A' for Active; 'I' for Inactive)
ROOT
ATOM      1  O1  BZF d   1      -0.269  -0.184   0.658  0.00  0.00    -0.204 OA
ATOM      2  C2  BZF d   1      -0.904   0.012   1.869  0.00  0.00     0.174 A 
ATOM      3  C3  BZF d   1      -1.016   1.328   2.143  0.00  0.00    -0.012 A 
ATOM      4  C3A BZF d   1      -0.496   1.998   0.990  0.00  0.00    -0.107 A 
ATOM      5  C4  BZF d   1      -0.353   3.313   0.653  0.00  0.00     0.055 A 
ATOM      6  C5  BZF d   1       0.259   3.633  -0.517  0.00  0.00    -0.016 A 
ATOM      7  C6  BZF d   1       0.743   2.664  -1.372  0.00  0.00     0.022 A 
ATOM      8  C7  BZF d   1       0.619   1.345  -1.083  0.00  0.00     0.029 A 
ATOM      9  C7A BZF d   1      -0.028   1.019   0.083  0.00  0.00     0.058 A 
ENDROOT
TORSDOF 0
ENDMDL
