MODEL 1
REMARK minimizedAffinity -3.57035398
REMARK minimizedRMSD -1
REMARK  0 active torsions:
REMARK  status: ('A' for Active; 'I' for Inactive)
ROOT
ATOM      1  O1  BZF d   1      -0.361  -1.883  -2.976  0.00  0.00    -0.204 OA
ATOM      2  C2  BZF d   1      -0.348  -3.237  -2.702  0.00  0.00     0.174 A 
ATOM      3  C3  BZF d   1      -0.013  -3.462  -1.415  0.00  0.00    -0.012 A 
ATOM      4  C3A BZF d   1       0.107  -2.164  -0.825  0.00  0.00    -0.107 A 
ATOM      5  C4  BZF d   1       0.404  -1.730   0.435  0.00  0.00     0.055 A 
ATOM      6  C5  BZF d   1       0.512  -0.395   0.665  0.00  0.00    -0.016 A 
ATOM      7  C6  BZF d   1       0.335   0.532  -0.342  0.00  0.00     0.022 A 
ATOM      8  C7  BZF d   1       0.034   0.149  -1.607  0.00  0.00     0.029 A 
ATOM      9  C7A BZF d   1      -0.109  -1.198  -1.835  0.00  0.00     0.058 A 
ENDROOT
TORSDOF 0
ENDMDL
