MODEL 1
REMARK minimizedAffinity 2.22052956
REMARK minimizedRMSD -1
REMARK  0 active torsions:
REMARK  status: ('A' for Active; 'I' for Inactive)
ROOT
ATOM      1  O1  BZF d   1       1.078   0.223   0.399  0.00  0.00    -0.204 OA
ATOM      2  C2  BZF d   1       0.754  -0.298   1.636  0.00  0.00     0.174 A 
ATOM      3  C3  BZF d   1      -0.584  -0.340   1.802  0.00  0.00    -0.012 A 
ATOM      4  C3A BZF d   1      -1.132   0.102   0.556  0.00  0.00    -0.107 A 
ATOM      5  C4  BZF d   1      -2.407   0.262   0.095  0.00  0.00     0.055 A 
ATOM      6  C5  BZF d   1      -2.600   0.781  -1.146  0.00  0.00    -0.016 A 
ATOM      7  C6  BZF d   1      -1.543   1.155  -1.950  0.00  0.00     0.022 A 
ATOM      8  C7  BZF d   1      -0.260   1.011  -1.538  0.00  0.00     0.029 A 
ATOM      9  C7A BZF d   1      -0.061   0.455  -0.297  0.00  0.00     0.058 A 
ENDROOT
TORSDOF 0
ENDMDL
