MODEL 1
REMARK minimizedAffinity 8.00512791
REMARK minimizedRMSD -1
REMARK  0 active torsions:
REMARK  status: ('A' for Active; 'I' for Inactive)
ROOT
ATOM      1  N1  IND d   1       2.109  -0.607   3.960  0.00  0.00    -0.196 N 
ATOM      2  C2  IND d   1       1.382  -0.971   5.060  0.00  0.00     0.054 A 
ATOM      3  C3  IND d   1       0.309  -0.161   5.203  0.00  0.00    -0.031 A 
ATOM      4  C4  IND d   1      -0.503   1.761   3.695  0.00  0.00     0.051 A 
ATOM      5  C5  IND d   1      -0.149   2.489   2.594  0.00  0.00    -0.031 A 
ATOM      6  C6  IND d   1       0.997   2.215   1.876  0.00  0.00     0.015 A 
ATOM      7  C7  IND d   1       1.830   1.191   2.227  0.00  0.00    -0.016 A 
ATOM      8  C8  IND d   1       1.478   0.454   3.349  0.00  0.00    -0.047 A 
ATOM      9  C9  IND d   1       0.338   0.754   4.106  0.00  0.00    -0.096 A 
ATOM     10  HN1 IND d   1       2.837  -0.979   3.695  0.00  0.00     0.298 HD
ENDROOT
TORSDOF 0
ENDMDL
