MODEL 1
REMARK minimizedAffinity 7.42893314
REMARK minimizedRMSD -1
REMARK  0 active torsions:
REMARK  status: ('A' for Active; 'I' for Inactive)
ROOT
ATOM      1  N1  IND d   1      -1.800   1.096  -0.319  0.00  0.00    -0.196 N 
ATOM      2  C2  IND d   1      -0.595   1.568  -0.759  0.00  0.00     0.054 A 
ATOM      3  C3  IND d   1       0.358   0.619  -0.628  0.00  0.00    -0.031 A 
ATOM      4  C4  IND d   1       0.144  -1.813   0.188  0.00  0.00     0.051 A 
ATOM      5  C5  IND d   1      -0.751  -2.693   0.730  0.00  0.00    -0.031 A 
ATOM      6  C6  IND d   1      -2.069  -2.348   0.952  0.00  0.00     0.015 A 
ATOM      7  C7  IND d   1      -2.545  -1.109   0.628  0.00  0.00    -0.016 A 
ATOM      8  C8  IND d   1      -1.638  -0.212   0.084  0.00  0.00    -0.047 A 
ATOM      9  C9  IND d   1      -0.289  -0.542  -0.104  0.00  0.00    -0.096 A 
ATOM     10  HN1 IND d   1      -2.536   1.540  -0.298  0.00  0.00     0.298 HD
ENDROOT
TORSDOF 0
ENDMDL
