MODEL 1
REMARK minimizedAffinity 0.979108393
REMARK minimizedRMSD -1
REMARK  0 active torsions:
REMARK  status: ('A' for Active; 'I' for Inactive)
ROOT
ATOM      1  N1  IND d   1      -2.558  -4.634  -4.142  0.00  0.00    -0.196 N 
ATOM      2  C2  IND d   1      -1.972  -5.050  -2.980  0.00  0.00     0.054 A 
ATOM      3  C3  IND d   1      -2.069  -4.088  -2.034  0.00  0.00    -0.031 A 
ATOM      4  C4  IND d   1      -3.237  -1.797  -2.145  0.00  0.00     0.051 A 
ATOM      5  C5  IND d   1      -3.882  -0.957  -3.009  0.00  0.00    -0.031 A 
ATOM      6  C6  IND d   1      -4.126  -1.308  -4.321  0.00  0.00     0.015 A 
ATOM      7  C7  IND d   1      -3.742  -2.522  -4.817  0.00  0.00    -0.016 A 
ATOM      8  C8  IND d   1      -3.081  -3.375  -3.944  0.00  0.00    -0.047 A 
ATOM      9  C9  IND d   1      -2.793  -3.007  -2.623  0.00  0.00    -0.096 A 
ATOM     10  HN1 IND d   1      -2.594  -5.083  -4.875  0.00  0.00     0.298 HD
ENDROOT
TORSDOF 0
ENDMDL
