MODEL 1
REMARK minimizedAffinity 3.02392149
REMARK minimizedRMSD -1
REMARK  0 active torsions:
REMARK  status: ('A' for Active; 'I' for Inactive)
ROOT
ATOM      1  N1  IND d   1      -5.997   5.687  -3.866  0.00  0.00    -0.196 N 
ATOM      2  C2  IND d   1      -5.931   5.979  -5.200  0.00  0.00     0.054 A 
ATOM      3  C3  IND d   1      -5.841   4.842  -5.926  0.00  0.00    -0.031 A 
ATOM      4  C4  IND d   1      -5.887   2.391  -5.140  0.00  0.00     0.051 A 
ATOM      5  C5  IND d   1      -5.899   1.622  -4.010  0.00  0.00    -0.031 A 
ATOM      6  C6  IND d   1      -5.948   2.180  -2.749  0.00  0.00     0.015 A 
ATOM      7  C7  IND d   1      -5.999   3.534  -2.570  0.00  0.00    -0.016 A 
ATOM      8  C8  IND d   1      -5.980   4.318  -3.715  0.00  0.00    -0.047 A 
ATOM      9  C9  IND d   1      -5.887   3.758  -4.996  0.00  0.00    -0.096 A 
ATOM     10  HN1 IND d   1      -6.042   6.262  -3.228  0.00  0.00     0.298 HD
ENDROOT
TORSDOF 0
ENDMDL
