MODEL 1
REMARK minimizedAffinity 4.88986588
REMARK minimizedRMSD -1
REMARK  0 active torsions:
REMARK  status: ('A' for Active; 'I' for Inactive)
ROOT
ATOM      1  N1  IND d   1      -1.859  -2.796  -2.466  0.00  0.00    -0.196 N 
ATOM      2  C2  IND d   1      -1.305  -3.940  -1.962  0.00  0.00     0.054 A 
ATOM      3  C3  IND d   1      -0.422  -3.643  -0.983  0.00  0.00    -0.031 A 
ATOM      4  C4  IND d   1       0.195  -1.355   0.024  0.00  0.00     0.051 A 
ATOM      5  C5  IND d   1      -0.022  -0.015  -0.133  0.00  0.00    -0.031 A 
ATOM      6  C6  IND d   1      -0.883   0.476  -1.094  0.00  0.00     0.015 A 
ATOM      7  C7  IND d   1      -1.570  -0.359  -1.929  0.00  0.00    -0.016 A 
ATOM      8  C8  IND d   1      -1.346  -1.720  -1.777  0.00  0.00    -0.047 A 
ATOM      9  C9  IND d   1      -0.441  -2.222  -0.832  0.00  0.00    -0.096 A 
ATOM     10  HN1 IND d   1      -2.432  -2.756  -3.106  0.00  0.00     0.298 HD
ENDROOT
TORSDOF 0
ENDMDL
