MODEL 1
REMARK minimizedAffinity 5.9358511
REMARK minimizedRMSD -1
REMARK  0 active torsions:
REMARK  status: ('A' for Active; 'I' for Inactive)
ROOT
ATOM      1  N1  IND d   1      -0.351   1.290  -0.521  0.00  0.00    -0.196 N 
ATOM      2  C2  IND d   1       0.720   0.446  -0.423  0.00  0.00     0.054 A 
ATOM      3  C3  IND d   1       0.322  -0.773   0.005  0.00  0.00    -0.031 A 
ATOM      4  C4  IND d   1      -2.052  -1.635   0.507  0.00  0.00     0.051 A 
ATOM      5  C5  IND d   1      -3.351  -1.221   0.597  0.00  0.00    -0.031 A 
ATOM      6  C6  IND d   1      -3.725   0.076   0.310  0.00  0.00     0.015 A 
ATOM      7  C7  IND d   1      -2.811   1.009  -0.090  0.00  0.00    -0.016 A 
ATOM      8  C8  IND d   1      -1.489   0.594  -0.175  0.00  0.00    -0.047 A 
ATOM      9  C9  IND d   1      -1.098  -0.709   0.156  0.00  0.00    -0.096 A 
ATOM     10  HN1 IND d   1      -0.320   2.115  -0.758  0.00  0.00     0.298 HD
ENDROOT
TORSDOF 0
ENDMDL
