MODEL 1
REMARK minimizedAffinity 9.7251339
REMARK minimizedRMSD -1
REMARK  1 active torsions:
REMARK  status: ('A' for Active; 'I' for Inactive)
REMARK    1  A    between atoms: C1_2  and  C2_3 
ROOT
ATOM      1  C2  UNL d   1       4.512  -4.438  -2.222  0.00  0.00    -0.076 A 
ATOM      2  C3  UNL d   1       5.324  -4.196  -3.344  0.00  0.00     0.004 A 
ATOM      3  C4  UNL d   1       5.090  -4.848  -4.553  0.00  0.00    -0.003 A 
ATOM      4  C5  UNL d   1       4.040  -5.752  -4.661  0.00  0.00     0.000 A 
ATOM      5  C6  UNL d   1       3.213  -5.992  -3.564  0.00  0.00     0.000 A 
ATOM      6  C7  UNL d   1       3.425  -5.331  -2.342  0.00  0.00    -0.073 A 
ATOM      7  C8  UNL d   1       2.507  -5.631  -1.190  0.00  0.00     0.078 C 
ENDROOT
BRANCH   1   8
ATOM      8  C1  UNL d   1       4.830  -3.722  -0.929  0.00  0.00     0.053 C 
ATOM      9  C   UNL d   1       4.860  -2.210  -1.093  0.00  0.00     0.018 C 
ENDBRANCH   1   8
TORSDOF 1
ENDMDL
