MODEL 1
REMARK minimizedAffinity 5.99151182
REMARK minimizedRMSD -1
REMARK  1 active torsions:
REMARK  status: ('A' for Active; 'I' for Inactive)
REMARK    1  A    between atoms: C1_2  and  C2_3 
ROOT
ATOM      1  C2  UNL d   1      -0.934   2.302   2.401  0.00  0.00    -0.076 A 
ATOM      2  C3  UNL d   1      -1.166   3.046   1.231  0.00  0.00     0.004 A 
ATOM      3  C4  UNL d   1      -0.106   3.493   0.444  0.00  0.00    -0.003 A 
ATOM      4  C5  UNL d   1       1.202   3.203   0.813  0.00  0.00     0.000 A 
ATOM      5  C6  UNL d   1       1.450   2.451   1.961  0.00  0.00     0.000 A 
ATOM      6  C7  UNL d   1       0.392   1.979   2.758  0.00  0.00    -0.073 A 
ATOM      7  C8  UNL d   1       0.718   1.178   3.988  0.00  0.00     0.078 C 
ENDROOT
BRANCH   1   8
ATOM      8  C1  UNL d   1      -2.122   1.867   3.230  0.00  0.00     0.053 C 
ATOM      9  C   UNL d   1      -3.114   1.033   2.434  0.00  0.00     0.018 C 
ENDBRANCH   1   8
TORSDOF 1
ENDMDL
