MODEL 1
REMARK minimizedAffinity 8.44219589
REMARK minimizedRMSD -1
REMARK  1 active torsions:
REMARK  status: ('A' for Active; 'I' for Inactive)
REMARK    1  A    between atoms: C1_2  and  C2_3 
ROOT
ATOM      1  C2  UNL d   1      -0.544   3.959   1.504  0.00  0.00    -0.076 A 
ATOM      2  C3  UNL d   1       0.297   3.371   0.543  0.00  0.00     0.004 A 
ATOM      3  C4  UNL d   1       0.704   4.082  -0.585  0.00  0.00    -0.003 A 
ATOM      4  C5  UNL d   1       0.277   5.392  -0.770  0.00  0.00     0.000 A 
ATOM      5  C6  UNL d   1      -0.543   5.997   0.182  0.00  0.00     0.000 A 
ATOM      6  C7  UNL d   1      -0.949   5.300   1.333  0.00  0.00    -0.073 A 
ATOM      7  C8  UNL d   1      -1.838   5.999   2.324  0.00  0.00     0.078 C 
ENDROOT
BRANCH   1   8
ATOM      8  C1  UNL d   1      -0.975   3.130   2.693  0.00  0.00     0.053 C 
ATOM      9  C   UNL d   1       0.079   2.116   3.109  0.00  0.00     0.018 C 
ENDBRANCH   1   8
TORSDOF 1
ENDMDL
