MODEL 1
REMARK minimizedAffinity 5.9830904
REMARK minimizedRMSD -1
REMARK  1 active torsions:
REMARK  status: ('A' for Active; 'I' for Inactive)
REMARK    1  A    between atoms: C1_2  and  C2_3 
ROOT
ATOM      1  C2  UNL d   1       0.931   1.499   0.853  0.00  0.00    -0.076 A 
ATOM      2  C3  UNL d   1       0.354   2.448  -0.008  0.00  0.00     0.004 A 
ATOM      3  C4  UNL d   1      -0.594   3.358   0.458  0.00  0.00    -0.003 A 
ATOM      4  C5  UNL d   1      -0.979   3.334   1.794  0.00  0.00     0.000 A 
ATOM      5  C6  UNL d   1      -0.404   2.411   2.667  0.00  0.00     0.000 A 
ATOM      6  C7  UNL d   1       0.565   1.497   2.216  0.00  0.00    -0.073 A 
ATOM      7  C8  UNL d   1       1.148   0.520   3.199  0.00  0.00     0.078 C 
ENDROOT
BRANCH   1   8
ATOM      8  C1  UNL d   1       1.933   0.520   0.285  0.00  0.00     0.053 C 
ATOM      9  C   UNL d   1       1.560   0.049  -1.112  0.00  0.00     0.018 C 
ENDBRANCH   1   8
TORSDOF 1
ENDMDL
