MODEL 1
REMARK minimizedAffinity 6.83716249
REMARK minimizedRMSD -1
REMARK  1 active torsions:
REMARK  status: ('A' for Active; 'I' for Inactive)
REMARK    1  A    between atoms: C1_2  and  C2_3 
ROOT
ATOM      1  C2  UNL d   1      -0.201   5.516  -1.793  0.00  0.00    -0.076 A 
ATOM      2  C3  UNL d   1       0.816   5.559  -2.763  0.00  0.00     0.004 A 
ATOM      3  C4  UNL d   1       0.518   5.793  -4.104  0.00  0.00    -0.003 A 
ATOM      4  C5  UNL d   1      -0.802   5.991  -4.497  0.00  0.00     0.000 A 
ATOM      5  C6  UNL d   1      -1.821   5.970  -3.545  0.00  0.00     0.000 A 
ATOM      6  C7  UNL d   1      -1.535   5.750  -2.187  0.00  0.00    -0.073 A 
ATOM      7  C8  UNL d   1      -2.674   5.732  -1.204  0.00  0.00     0.078 C 
ENDROOT
BRANCH   1   8
ATOM      8  C1  UNL d   1       0.180   5.230  -0.358  0.00  0.00     0.053 C 
ATOM      9  C   UNL d   1       0.015   3.763   0.008  0.00  0.00     0.018 C 
ENDBRANCH   1   8
TORSDOF 1
ENDMDL
