MODEL 1
REMARK minimizedAffinity 10.2396059
REMARK minimizedRMSD -1
REMARK  1 active torsions:
REMARK  status: ('A' for Active; 'I' for Inactive)
REMARK    1  A    between atoms: C1_2  and  C2_3 
ROOT
ATOM      1  C2  UNL d   1      -0.240   2.621   2.364  0.00  0.00    -0.076 A 
ATOM      2  C3  UNL d   1      -1.430   1.886   2.509  0.00  0.00     0.004 A 
ATOM      3  C4  UNL d   1      -1.478   0.749   3.313  0.00  0.00    -0.003 A 
ATOM      4  C5  UNL d   1      -0.337   0.327   3.986  0.00  0.00     0.000 A 
ATOM      5  C6  UNL d   1       0.848   1.054   3.868  0.00  0.00     0.000 A 
ATOM      6  C7  UNL d   1       0.909   2.212   3.075  0.00  0.00    -0.073 A 
ATOM      7  C8  UNL d   1       2.214   2.953   2.978  0.00  0.00     0.078 C 
ENDROOT
BRANCH   1   8
ATOM      8  C1  UNL d   1      -0.242   3.830   1.457  0.00  0.00     0.053 C 
ATOM      9  C   UNL d   1      -0.026   3.464  -0.003  0.00  0.00     0.018 C 
ENDBRANCH   1   8
TORSDOF 1
ENDMDL
