MODEL 1
REMARK minimizedAffinity 8.1377058
REMARK minimizedRMSD -1
REMARK  0 active torsions:
REMARK  status: ('A' for Active; 'I' for Inactive)
ROOT
ATOM      1  C   UNL d   1       0.372   4.516  -0.331  0.00  0.00     0.020 A 
ATOM      2  C1  UNL d   1       1.553   5.195  -0.031  0.00  0.00     0.020 A 
ATOM      3  C2  UNL d   1       2.199   4.968   1.186  0.00  0.00     0.034 A 
ATOM      4  C3  UNL d   1       1.665   4.060   2.108  0.00  0.00     0.017 A 
ATOM      5  C4  UNL d   1       0.480   3.379   1.806  0.00  0.00     0.017 A 
ATOM      6  C5  UNL d   1      -0.163   3.610   0.586  0.00  0.00     0.034 A 
ATOM      7 Cl   UNL d   1      -0.239   2.243   2.893  0.00  0.00    -0.070 Cl
ATOM      8 Cl1  UNL d   1       2.517   3.828   3.593  0.00  0.00    -0.070 Cl
ENDROOT
TORSDOF 0
ENDMDL
