MODEL 1
REMARK minimizedAffinity 3.99772215
REMARK minimizedRMSD -1
REMARK  0 active torsions:
REMARK  status: ('A' for Active; 'I' for Inactive)
ROOT
ATOM      1  C   UNL d   1       1.614   5.035  -0.076  0.00  0.00     0.020 A 
ATOM      2  C1  UNL d   1       0.329   4.526  -0.262  0.00  0.00     0.020 A 
ATOM      3  C2  UNL d   1      -0.241   3.698   0.707  0.00  0.00     0.034 A 
ATOM      4  C3  UNL d   1       0.474   3.377   1.867  0.00  0.00     0.017 A 
ATOM      5  C4  UNL d   1       1.763   3.889   2.053  0.00  0.00     0.017 A 
ATOM      6  C5  UNL d   1       2.329   4.717   1.079  0.00  0.00     0.034 A 
ATOM      7 Cl   UNL d   1       2.707   3.537   3.458  0.00  0.00    -0.070 Cl
ATOM      8 Cl1  UNL d   1      -0.293   2.348   3.024  0.00  0.00    -0.070 Cl
ENDROOT
TORSDOF 0
ENDMDL
