MODEL 1
REMARK minimizedAffinity 15.342905
REMARK minimizedRMSD -1
REMARK  0 active torsions:
REMARK  status: ('A' for Active; 'I' for Inactive)
ROOT
ATOM      1  C   UNL d   1       4.943  -4.818   4.926  0.00  0.00     0.020 A 
ATOM      2  C1  UNL d   1       5.990  -4.287   5.679  0.00  0.00     0.020 A 
ATOM      3  C2  UNL d   1       6.000  -2.928   5.999  0.00  0.00     0.034 A 
ATOM      4  C3  UNL d   1       4.962  -2.095   5.566  0.00  0.00     0.017 A 
ATOM      5  C4  UNL d   1       3.912  -2.629   4.811  0.00  0.00     0.017 A 
ATOM      6  C5  UNL d   1       3.906  -3.991   4.493  0.00  0.00     0.034 A 
ATOM      7 Cl   UNL d   1       2.595  -1.664   4.241  0.00  0.00    -0.070 Cl
ATOM      8 Cl1  UNL d   1       5.039  -0.424   5.999  0.00  0.00    -0.070 Cl
ENDROOT
TORSDOF 0
ENDMDL
