MODEL 1
REMARK minimizedAffinity 5.84083462
REMARK minimizedRMSD -1
REMARK  0 active torsions:
REMARK  status: ('A' for Active; 'I' for Inactive)
ROOT
ATOM      1  C   UNL d   1       0.073   6.000   0.003  0.00  0.00     0.020 A 
ATOM      2  C1  UNL d   1       0.426   5.380  -1.195  0.00  0.00     0.020 A 
ATOM      3  C2  UNL d   1       0.519   3.989  -1.260  0.00  0.00     0.034 A 
ATOM      4  C3  UNL d   1       0.260   3.212  -0.125  0.00  0.00     0.017 A 
ATOM      5  C4  UNL d   1      -0.094   3.835   1.077  0.00  0.00     0.017 A 
ATOM      6  C5  UNL d   1      -0.187   5.229   1.137  0.00  0.00     0.034 A 
ATOM      7 Cl   UNL d   1      -0.430   2.943   2.519  0.00  0.00    -0.070 Cl
ATOM      8 Cl1  UNL d   1       0.394   1.496  -0.278  0.00  0.00    -0.070 Cl
ENDROOT
TORSDOF 0
ENDMDL
