MODEL 1
REMARK minimizedAffinity 11.6691246
REMARK minimizedRMSD -1
REMARK  0 active torsions:
REMARK  status: ('A' for Active; 'I' for Inactive)
ROOT
ATOM      1  C   UNL d   1       0.020   5.629   0.738  0.00  0.00     0.020 A 
ATOM      2  C1  UNL d   1       0.163   5.192  -0.579  0.00  0.00     0.020 A 
ATOM      3  C2  UNL d   1       0.297   3.829  -0.852  0.00  0.00     0.034 A 
ATOM      4  C3  UNL d   1       0.289   2.898   0.193  0.00  0.00     0.017 A 
ATOM      5  C4  UNL d   1       0.146   3.337   1.514  0.00  0.00     0.017 A 
ATOM      6  C5  UNL d   1       0.011   4.703   1.782  0.00  0.00     0.034 A 
ATOM      7 Cl   UNL d   1       0.126   2.248   2.856  0.00  0.00    -0.070 Cl
ATOM      8 Cl1  UNL d   1       0.459   1.228  -0.218  0.00  0.00    -0.070 Cl
ENDROOT
TORSDOF 0
ENDMDL
