MODEL 1
REMARK minimizedAffinity -4.50852633
REMARK minimizedRMSD -1
REMARK  1 active torsions:
REMARK  status: ('A' for Active; 'I' for Inactive)
REMARK    1  A    between atoms: C1_2  and  C2_3 
ROOT
ATOM      1  C2  UNL d   1      -0.066  -0.292  -0.162  0.00  0.00    -0.076 A 
ATOM      2  C3  UNL d   1      -0.874  -0.494   0.970  0.00  0.00     0.004 A 
ATOM      3  C4  UNL d   1      -2.254  -0.645   0.849  0.00  0.00    -0.003 A 
ATOM      4  C5  UNL d   1      -2.849  -0.597  -0.406  0.00  0.00     0.000 A 
ATOM      5  C6  UNL d   1      -2.061  -0.415  -1.542  0.00  0.00     0.000 A 
ATOM      6  C7  UNL d   1      -0.666  -0.277  -1.439  0.00  0.00    -0.073 A 
ATOM      7  C8  UNL d   1       0.134  -0.077  -2.697  0.00  0.00     0.078 C 
ENDROOT
BRANCH   1   8
ATOM      8  C1  UNL d   1       1.422  -0.107   0.033  0.00  0.00     0.053 C 
ATOM      9  C   UNL d   1       1.789   1.323   0.398  0.00  0.00     0.018 C 
ENDBRANCH   1   8
TORSDOF 1
ENDMDL
