MODEL 1
REMARK minimizedAffinity -5.61074686
REMARK minimizedRMSD -1
REMARK  1 active torsions:
REMARK  status: ('A' for Active; 'I' for Inactive)
REMARK    1  A    between atoms: C1_2  and  C2_3 
ROOT
ATOM      1  C2  UNL d   1      -0.767  -1.044   0.273  0.00  0.00    -0.076 A 
ATOM      2  C3  UNL d   1       0.478  -0.696  -0.278  0.00  0.00     0.004 A 
ATOM      3  C4  UNL d   1       0.559   0.052  -1.452  0.00  0.00    -0.003 A 
ATOM      4  C5  UNL d   1      -0.604   0.465  -2.092  0.00  0.00     0.000 A 
ATOM      5  C6  UNL d   1      -1.848   0.144  -1.550  0.00  0.00     0.000 A 
ATOM      6  C7  UNL d   1      -1.947  -0.596  -0.359  0.00  0.00    -0.073 A 
ATOM      7  C8  UNL d   1      -3.314  -0.920   0.179  0.00  0.00     0.078 C 
ENDROOT
BRANCH   1   8
ATOM      8  C1  UNL d   1      -0.793  -1.880   1.533  0.00  0.00     0.053 C 
ATOM      9  C   UNL d   1       0.575  -2.443   1.887  0.00  0.00     0.018 C 
ENDBRANCH   1   8
TORSDOF 1
ENDMDL
