MODEL 1
REMARK minimizedAffinity -3.9222784
REMARK minimizedRMSD -1
REMARK  1 active torsions:
REMARK  status: ('A' for Active; 'I' for Inactive)
REMARK    1  A    between atoms: C1_2  and  C2_3 
ROOT
ATOM      1  C2  UNL d   1      -0.940  -1.085  -0.353  0.00  0.00    -0.076 A 
ATOM      2  C3  UNL d   1      -0.600  -1.775   0.823  0.00  0.00     0.004 A 
ATOM      3  C4  UNL d   1       0.717  -1.812   1.279  0.00  0.00    -0.003 A 
ATOM      4  C5  UNL d   1       1.716  -1.158   0.565  0.00  0.00     0.000 A 
ATOM      5  C6  UNL d   1       1.394  -0.454  -0.595  0.00  0.00     0.000 A 
ATOM      6  C7  UNL d   1       0.068  -0.394  -1.059  0.00  0.00    -0.073 A 
ATOM      7  C8  UNL d   1      -0.221   0.375  -2.319  0.00  0.00     0.078 C 
ENDROOT
BRANCH   1   8
ATOM      8  C1  UNL d   1      -2.380  -1.103  -0.813  0.00  0.00     0.053 C 
ATOM      9  C   UNL d   1      -3.324  -0.478   0.202  0.00  0.00     0.018 C 
ENDBRANCH   1   8
TORSDOF 1
ENDMDL
