MODEL 1
REMARK minimizedAffinity -2.39902782
REMARK minimizedRMSD -1
REMARK  1 active torsions:
REMARK  status: ('A' for Active; 'I' for Inactive)
REMARK    1  A    between atoms: C1_2  and  C2_3 
ROOT
ATOM      1  C2  UNL d   1       2.814   1.834  -0.255  0.00  0.00    -0.076 A 
ATOM      2  C3  UNL d   1       3.459   1.893  -1.503  0.00  0.00     0.004 A 
ATOM      3  C4  UNL d   1       4.119   3.050  -1.915  0.00  0.00    -0.003 A 
ATOM      4  C5  UNL d   1       4.146   4.165  -1.085  0.00  0.00     0.000 A 
ATOM      5  C6  UNL d   1       3.527   4.118   0.164  0.00  0.00     0.000 A 
ATOM      6  C7  UNL d   1       2.871   2.954   0.601  0.00  0.00    -0.073 A 
ATOM      7  C8  UNL d   1       2.215   2.961   1.954  0.00  0.00     0.078 C 
ENDROOT
BRANCH   1   8
ATOM      8  C1  UNL d   1       2.091   0.562   0.126  0.00  0.00     0.053 C 
ATOM      9  C   UNL d   1       0.682   0.499  -0.445  0.00  0.00     0.018 C 
ENDBRANCH   1   8
TORSDOF 1
ENDMDL
