MODEL 1
REMARK minimizedAffinity -5.83545637
REMARK minimizedRMSD -1
REMARK  1 active torsions:
REMARK  status: ('A' for Active; 'I' for Inactive)
REMARK    1  A    between atoms: C1_2  and  C2_3 
ROOT
ATOM      1  C2  UNL d   1      -0.132  -0.675  -0.123  0.00  0.00    -0.076 A 
ATOM      2  C3  UNL d   1      -0.457   0.038  -1.290  0.00  0.00     0.004 A 
ATOM      3  C4  UNL d   1      -1.770   0.098  -1.753  0.00  0.00    -0.003 A 
ATOM      4  C5  UNL d   1      -2.781  -0.554  -1.054  0.00  0.00     0.000 A 
ATOM      5  C6  UNL d   1      -2.480  -1.251   0.115  0.00  0.00     0.000 A 
ATOM      6  C7  UNL d   1      -1.163  -1.308   0.604  0.00  0.00    -0.073 A 
ATOM      7  C8  UNL d   1      -0.895  -2.079   1.867  0.00  0.00     0.078 C 
ENDROOT
BRANCH   1   8
ATOM      8  C1  UNL d   1       1.314  -0.728   0.315  0.00  0.00     0.053 C 
ATOM      9  C   UNL d   1       2.002   0.625   0.217  0.00  0.00     0.018 C 
ENDBRANCH   1   8
TORSDOF 1
ENDMDL
