MODEL 1
REMARK minimizedAffinity -5.45237112
REMARK minimizedRMSD -1
REMARK  1 active torsions:
REMARK  status: ('A' for Active; 'I' for Inactive)
REMARK    1  A    between atoms: C1_2  and  C2_3 
ROOT
ATOM      1  C2  UNL d   1      -0.361  -0.094  -0.162  0.00  0.00    -0.076 A 
ATOM      2  C3  UNL d   1      -1.119  -0.489   0.955  0.00  0.00     0.004 A 
ATOM      3  C4  UNL d   1      -2.505  -0.611   0.874  0.00  0.00    -0.003 A 
ATOM      4  C5  UNL d   1      -3.156  -0.340  -0.324  0.00  0.00     0.000 A 
ATOM      5  C6  UNL d   1      -2.419   0.036  -1.446  0.00  0.00     0.000 A 
ATOM      6  C7  UNL d   1      -1.019   0.148  -1.387  0.00  0.00    -0.073 A 
ATOM      7  C8  UNL d   1      -0.274   0.564  -2.626  0.00  0.00     0.078 C 
ENDROOT
BRANCH   1   8
ATOM      8  C1  UNL d   1       1.136   0.048  -0.007  0.00  0.00     0.053 C 
ATOM      9  C   UNL d   1       1.538   1.397   0.570  0.00  0.00     0.018 C 
ENDBRANCH   1   8
TORSDOF 1
ENDMDL
