MODEL 1
REMARK minimizedAffinity -2.12209654
REMARK minimizedRMSD -1
REMARK  1 active torsions:
REMARK  status: ('A' for Active; 'I' for Inactive)
REMARK    1  A    between atoms: C1_2  and  C2_3 
ROOT
ATOM      1  C2  UNL d   1       1.251   1.409  -0.100  0.00  0.00    -0.076 A 
ATOM      2  C3  UNL d   1       1.215   2.808   0.036  0.00  0.00     0.004 A 
ATOM      3  C4  UNL d   1       2.162   3.478   0.809  0.00  0.00    -0.003 A 
ATOM      4  C5  UNL d   1       3.161   2.761   1.458  0.00  0.00     0.000 A 
ATOM      5  C6  UNL d   1       3.222   1.375   1.320  0.00  0.00     0.000 A 
ATOM      6  C7  UNL d   1       2.286   0.685   0.531  0.00  0.00    -0.073 A 
ATOM      7  C8  UNL d   1       2.396  -0.811   0.422  0.00  0.00     0.078 C 
ENDROOT
BRANCH   1   8
ATOM      8  C1  UNL d   1       0.182   0.734  -0.929  0.00  0.00     0.053 C 
ATOM      9  C   UNL d   1      -0.846   0.010  -0.075  0.00  0.00     0.018 C 
ENDBRANCH   1   8
TORSDOF 1
ENDMDL
