MODEL 1
REMARK minimizedAffinity -0.655766368
REMARK minimizedRMSD -1
REMARK  1 active torsions:
REMARK  status: ('A' for Active; 'I' for Inactive)
REMARK    1  A    between atoms: C1_2  and  C2_3 
ROOT
ATOM      1  C2  UNL d   1       0.703   0.277  -0.314  0.00  0.00    -0.076 A 
ATOM      2  C3  UNL d   1       0.201  -0.290   0.870  0.00  0.00     0.004 A 
ATOM      3  C4  UNL d   1      -1.057  -0.890   0.901  0.00  0.00    -0.003 A 
ATOM      4  C5  UNL d   1      -1.832  -0.934  -0.252  0.00  0.00     0.000 A 
ATOM      5  C6  UNL d   1      -1.342  -0.392  -1.440  0.00  0.00     0.000 A 
ATOM      6  C7  UNL d   1      -0.070   0.202  -1.492  0.00  0.00    -0.073 A 
ATOM      7  C8  UNL d   1       0.406   0.776  -2.799  0.00  0.00     0.078 C 
ENDROOT
BRANCH   1   8
ATOM      8  C1  UNL d   1       2.062   0.939  -0.280  0.00  0.00     0.053 C 
ATOM      9  C   UNL d   1       2.226   1.873   0.909  0.00  0.00     0.018 C 
ENDBRANCH   1   8
TORSDOF 1
ENDMDL
