MODEL 1
REMARK minimizedAffinity -3.20142031
REMARK minimizedRMSD -1
REMARK  1 active torsions:
REMARK  status: ('A' for Active; 'I' for Inactive)
REMARK    1  A    between atoms: C1_2  and  C2_3 
ROOT
ATOM      1  C2  UNL d   1      -1.467  -0.168  -0.495  0.00  0.00    -0.076 A 
ATOM      2  C3  UNL d   1      -1.087  -0.667   0.763  0.00  0.00     0.004 A 
ATOM      3  C4  UNL d   1       0.220  -0.526   1.227  0.00  0.00    -0.003 A 
ATOM      4  C5  UNL d   1       1.169   0.117   0.439  0.00  0.00     0.000 A 
ATOM      5  C6  UNL d   1       0.806   0.633  -0.805  0.00  0.00     0.000 A 
ATOM      6  C7  UNL d   1      -0.512   0.513  -1.280  0.00  0.00    -0.073 A 
ATOM      7  C8  UNL d   1      -0.846   1.083  -2.631  0.00  0.00     0.078 C 
ENDROOT
BRANCH   1   8
ATOM      8  C1  UNL d   1      -2.892  -0.375  -0.956  0.00  0.00     0.053 C 
ATOM      9  C   UNL d   1      -3.762  -1.021   0.110  0.00  0.00     0.018 C 
ENDBRANCH   1   8
TORSDOF 1
ENDMDL
