MODEL 1
REMARK minimizedAffinity -2.87379742
REMARK minimizedRMSD -1
REMARK  1 active torsions:
REMARK  status: ('A' for Active; 'I' for Inactive)
REMARK    1  A    between atoms: C1_2  and  C2_3 
ROOT
ATOM      1  C2  UNL d   1       0.128   0.147  -0.324  0.00  0.00    -0.076 A 
ATOM      2  C3  UNL d   1      -0.608  -0.283   0.794  0.00  0.00     0.004 A 
ATOM      3  C4  UNL d   1      -1.946  -0.654   0.673  0.00  0.00    -0.003 A 
ATOM      4  C5  UNL d   1      -2.570  -0.600  -0.568  0.00  0.00     0.000 A 
ATOM      5  C6  UNL d   1      -1.851  -0.193  -1.691  0.00  0.00     0.000 A 
ATOM      6  C7  UNL d   1      -0.497   0.169  -1.589  0.00  0.00    -0.073 A 
ATOM      7  C8  UNL d   1       0.229   0.607  -2.832  0.00  0.00     0.078 C 
ENDROOT
BRANCH   1   8
ATOM      8  C1  UNL d   1       1.568   0.563  -0.127  0.00  0.00     0.053 C 
ATOM      9  C   UNL d   1       1.740   1.545   1.021  0.00  0.00     0.018 C 
ENDBRANCH   1   8
TORSDOF 1
ENDMDL
