MODEL 1
REMARK minimizedAffinity -4.97445488
REMARK minimizedRMSD -1
REMARK  1 active torsions:
REMARK  status: ('A' for Active; 'I' for Inactive)
REMARK    1  A    between atoms: C1_2  and  C2_3 
ROOT
ATOM      1  C2  UNL d   1      -0.220  -0.324   0.223  0.00  0.00    -0.076 A 
ATOM      2  C3  UNL d   1      -0.926  -0.863   1.312  0.00  0.00     0.004 A 
ATOM      3  C4  UNL d   1      -2.310  -1.022   1.263  0.00  0.00    -0.003 A 
ATOM      4  C5  UNL d   1      -3.011  -0.645   0.123  0.00  0.00     0.000 A 
ATOM      5  C6  UNL d   1      -2.325  -0.125  -0.974  0.00  0.00     0.000 A 
ATOM      6  C7  UNL d   1      -0.928   0.027  -0.947  0.00  0.00    -0.073 A 
ATOM      7  C8  UNL d   1      -0.240   0.599  -2.156  0.00  0.00     0.078 C 
ENDROOT
BRANCH   1   8
ATOM      8  C1  UNL d   1       1.277  -0.150   0.344  0.00  0.00     0.053 C 
ATOM      9  C   UNL d   1       1.659   1.175   0.985  0.00  0.00     0.018 C 
ENDBRANCH   1   8
TORSDOF 1
ENDMDL
