MODEL 1
REMARK minimizedAffinity -3.1335001
REMARK minimizedRMSD -1
REMARK  1 active torsions:
REMARK  status: ('A' for Active; 'I' for Inactive)
REMARK    1  A    between atoms: C1_2  and  C2_3 
ROOT
ATOM      1  C2  UNL d   1      -0.388   0.117  -0.297  0.00  0.00    -0.076 A 
ATOM      2  C3  UNL d   1      -1.116  -0.494   0.739  0.00  0.00     0.004 A 
ATOM      3  C4  UNL d   1      -2.363  -1.069   0.498  0.00  0.00    -0.003 A 
ATOM      4  C5  UNL d   1      -2.901  -1.043  -0.784  0.00  0.00     0.000 A 
ATOM      5  C6  UNL d   1      -2.184  -0.458  -1.827  0.00  0.00     0.000 A 
ATOM      6  C7  UNL d   1      -0.919   0.112  -1.604  0.00  0.00    -0.073 A 
ATOM      7  C8  UNL d   1      -0.193   0.736  -2.765  0.00  0.00     0.078 C 
ENDROOT
BRANCH   1   8
ATOM      8  C1  UNL d   1       0.946   0.748   0.031  0.00  0.00     0.053 C 
ATOM      9  C   UNL d   1       1.878  -0.205   0.764  0.00  0.00     0.018 C 
ENDBRANCH   1   8
TORSDOF 1
ENDMDL
