MODEL 1
REMARK minimizedAffinity -3.75478268
REMARK minimizedRMSD -1
REMARK  1 active torsions:
REMARK  status: ('A' for Active; 'I' for Inactive)
REMARK    1  A    between atoms: C1_2  and  C2_3 
ROOT
ATOM      1  C2  UNL d   1      -0.068  -0.047   0.079  0.00  0.00    -0.076 A 
ATOM      2  C3  UNL d   1      -0.876  -0.434   1.162  0.00  0.00     0.004 A 
ATOM      3  C4  UNL d   1      -2.246  -0.633   0.999  0.00  0.00    -0.003 A 
ATOM      4  C5  UNL d   1      -2.830  -0.449  -0.249  0.00  0.00     0.000 A 
ATOM      5  C6  UNL d   1      -2.041  -0.083  -1.339  0.00  0.00     0.000 A 
ATOM      6  C7  UNL d   1      -0.655   0.105  -1.196  0.00  0.00    -0.073 A 
ATOM      7  C8  UNL d   1       0.147   0.506  -2.403  0.00  0.00     0.078 C 
ENDROOT
BRANCH   1   8
ATOM      8  C1  UNL d   1       1.407   0.180   0.321  0.00  0.00     0.053 C 
ATOM      9  C   UNL d   1       1.698   1.561   0.887  0.00  0.00     0.018 C 
ENDBRANCH   1   8
TORSDOF 1
ENDMDL
