MODEL 1
REMARK minimizedAffinity -1.52942872
REMARK minimizedRMSD -1
REMARK  1 active torsions:
REMARK  status: ('A' for Active; 'I' for Inactive)
REMARK    1  A    between atoms: C1_2  and  C2_3 
ROOT
ATOM      1  C2  UNL d   1      -0.956  -0.773   0.635  0.00  0.00    -0.076 A 
ATOM      2  C3  UNL d   1      -2.355  -0.907   0.666  0.00  0.00     0.004 A 
ATOM      3  C4  UNL d   1      -3.131  -0.589  -0.448  0.00  0.00    -0.003 A 
ATOM      4  C5  UNL d   1      -2.519  -0.133  -1.611  0.00  0.00     0.000 A 
ATOM      5  C6  UNL d   1      -1.131  -0.011  -1.665  0.00  0.00     0.000 A 
ATOM      6  C7  UNL d   1      -0.334  -0.343  -0.556  0.00  0.00    -0.073 A 
ATOM      7  C8  UNL d   1       1.158  -0.187  -0.668  0.00  0.00     0.078 C 
ENDROOT
BRANCH   1   8
ATOM      8  C1  UNL d   1      -0.169  -1.107   1.883  0.00  0.00     0.053 C 
ATOM      9  C   UNL d   1      -0.367  -2.547   2.328  0.00  0.00     0.018 C 
ENDBRANCH   1   8
TORSDOF 1
ENDMDL
