MODEL 1
REMARK minimizedAffinity 28.3766766
REMARK minimizedRMSD -1
REMARK  0 active torsions:
REMARK  status: ('A' for Active; 'I' for Inactive)
ROOT
ATOM      1  C   UNL d   1      -0.416  -2.006   1.037  0.00  0.00    -0.002 A 
ATOM      2  C1  UNL d   1      -0.416  -2.630   2.277  0.00  0.00     0.010 A 
ATOM      3  C2  UNL d   1      -0.735  -1.913   3.432  0.00  0.00     0.041 A 
ATOM      4  C3  UNL d   1      -1.059  -0.547   3.319  0.00  0.00    -0.075 A 
ATOM      5  S   UNL d   1      -1.484   0.529   4.597  0.00  0.00     0.015 SA
ATOM      6  C4  UNL d   1      -1.677   1.842   3.528  0.00  0.00     0.022 A 
ATOM      7  C5  UNL d   1      -1.427   1.486   2.224  0.00  0.00     0.026 A 
ATOM      8  C6  UNL d   1      -1.068   0.103   2.082  0.00  0.00    -0.082 A 
ATOM      9  C7  UNL d   1      -0.739  -0.651   0.929  0.00  0.00     0.045 A 
ENDROOT
TORSDOF 0
ENDMDL
