MODEL 1
REMARK minimizedAffinity 28.5872936
REMARK minimizedRMSD -1
REMARK  0 active torsions:
REMARK  status: ('A' for Active; 'I' for Inactive)
ROOT
ATOM      1  C   UNL d   1      -0.419  -4.262   1.683  0.00  0.00    -0.002 A 
ATOM      2  C1  UNL d   1      -0.697  -5.305   0.811  0.00  0.00     0.010 A 
ATOM      3  C2  UNL d   1      -0.989  -5.050  -0.531  0.00  0.00     0.041 A 
ATOM      4  C3  UNL d   1      -0.995  -3.717  -0.985  0.00  0.00    -0.075 A 
ATOM      5  S   UNL d   1      -1.324  -3.166  -2.585  0.00  0.00     0.015 SA
ATOM      6  C4  UNL d   1      -1.102  -1.533  -2.149  0.00  0.00     0.022 A 
ATOM      7  C5  UNL d   1      -0.785  -1.394  -0.819  0.00  0.00     0.026 A 
ATOM      8  C6  UNL d   1      -0.718  -2.650  -0.126  0.00  0.00    -0.082 A 
ATOM      9  C7  UNL d   1      -0.426  -2.941   1.228  0.00  0.00     0.045 A 
ENDROOT
TORSDOF 0
ENDMDL
