MODEL 1
REMARK minimizedAffinity 24.0510063
REMARK minimizedRMSD -1
REMARK  0 active torsions:
REMARK  status: ('A' for Active; 'I' for Inactive)
ROOT
ATOM      1  C   UNL d   1       4.294   3.372   1.738  0.00  0.00    -0.002 A 
ATOM      2  C1  UNL d   1       5.259   2.543   2.292  0.00  0.00     0.010 A 
ATOM      3  C2  UNL d   1       5.684   2.729   3.609  0.00  0.00     0.041 A 
ATOM      4  C3  UNL d   1       5.117   3.773   4.367  0.00  0.00    -0.075 A 
ATOM      5  S   UNL d   1       5.484   4.189   6.000  0.00  0.00     0.015 SA
ATOM      6  C4  UNL d   1       4.368   5.477   6.000  0.00  0.00     0.022 A 
ATOM      7  C5  UNL d   1       3.723   5.602   4.792  0.00  0.00     0.026 A 
ATOM      8  C6  UNL d   1       4.144   4.621   3.831  0.00  0.00    -0.082 A 
ATOM      9  C7  UNL d   1       3.735   4.407   2.493  0.00  0.00     0.045 A 
ENDROOT
TORSDOF 0
ENDMDL
