MODEL 1
REMARK minimizedAffinity 30.2088985
REMARK minimizedRMSD -1
REMARK  0 active torsions:
REMARK  status: ('A' for Active; 'I' for Inactive)
ROOT
ATOM      1  C   UNL d   1      -2.126   2.774  -3.867  0.00  0.00    -0.002 A 
ATOM      2  C1  UNL d   1      -0.809   2.545  -4.240  0.00  0.00     0.010 A 
ATOM      3  C2  UNL d   1      -0.181   1.338  -3.926  0.00  0.00     0.041 A 
ATOM      4  C3  UNL d   1      -0.907   0.355  -3.225  0.00  0.00    -0.075 A 
ATOM      5  S   UNL d   1      -0.344  -1.199  -2.733  0.00  0.00     0.015 SA
ATOM      6  C4  UNL d   1      -1.839  -1.596  -2.017  0.00  0.00     0.022 A 
ATOM      7  C5  UNL d   1      -2.756  -0.580  -2.141  0.00  0.00     0.026 A 
ATOM      8  C6  UNL d   1      -2.235   0.561  -2.840  0.00  0.00    -0.082 A 
ATOM      9  C7  UNL d   1      -2.843   1.796  -3.172  0.00  0.00     0.045 A 
ENDROOT
TORSDOF 0
ENDMDL
