MODEL 1
REMARK minimizedAffinity 18.9617615
REMARK minimizedRMSD -1
REMARK  0 active torsions:
REMARK  status: ('A' for Active; 'I' for Inactive)
ROOT
ATOM      1  C   UNL d   1       5.116   5.988   5.255  0.00  0.00    -0.002 A 
ATOM      2  C1  UNL d   1       3.991   5.635   5.986  0.00  0.00     0.010 A 
ATOM      3  C2  UNL d   1       3.538   4.314   6.000  0.00  0.00     0.041 A 
ATOM      4  C3  UNL d   1       4.243   3.344   5.260  0.00  0.00    -0.075 A 
ATOM      5  S   UNL d   1       3.873   1.665   5.129  0.00  0.00     0.015 SA
ATOM      6  C4  UNL d   1       5.200   1.377   4.100  0.00  0.00     0.022 A 
ATOM      7  C5  UNL d   1       5.919   2.522   3.851  0.00  0.00     0.026 A 
ATOM      8  C6  UNL d   1       5.379   3.675   4.516  0.00  0.00    -0.082 A 
ATOM      9  C7  UNL d   1       5.812   5.023   4.522  0.00  0.00     0.045 A 
ENDROOT
TORSDOF 0
ENDMDL
