MODEL 1
REMARK minimizedAffinity 29.5179081
REMARK minimizedRMSD -1
REMARK  0 active torsions:
REMARK  status: ('A' for Active; 'I' for Inactive)
ROOT
ATOM      1  C   UNL d   1       5.047   5.764   5.916  0.00  0.00    -0.002 A 
ATOM      2  C1  UNL d   1       3.680   6.000   5.935  0.00  0.00     0.010 A 
ATOM      3  C2  UNL d   1       2.775   4.936   5.924  0.00  0.00     0.041 A 
ATOM      4  C3  UNL d   1       3.273   3.619   5.896  0.00  0.00    -0.075 A 
ATOM      5  S   UNL d   1       2.354   2.160   5.879  0.00  0.00     0.015 SA
ATOM      6  C4  UNL d   1       3.754   1.190   5.848  0.00  0.00     0.022 A 
ATOM      7  C5  UNL d   1       4.904   1.943   5.849  0.00  0.00     0.026 A 
ATOM      8  C6  UNL d   1       4.646   3.356   5.878  0.00  0.00    -0.082 A 
ATOM      9  C7  UNL d   1       5.537   4.456   5.888  0.00  0.00     0.045 A 
ENDROOT
TORSDOF 0
ENDMDL
