MODEL 1
REMARK minimizedAffinity 16.2192211
REMARK minimizedRMSD -1
REMARK  0 active torsions:
REMARK  status: ('A' for Active; 'I' for Inactive)
ROOT
ATOM      1  C   UNL d   1      -0.155  -0.815  -2.854  0.00  0.00    -0.002 A 
ATOM      2  C1  UNL d   1      -1.529  -0.870  -2.667  0.00  0.00     0.010 A 
ATOM      3  C2  UNL d   1      -2.367   0.065  -3.277  0.00  0.00     0.041 A 
ATOM      4  C3  UNL d   1      -1.796   1.066  -4.088  0.00  0.00    -0.075 A 
ATOM      5  S   UNL d   1      -2.626   2.316  -4.936  0.00  0.00     0.015 SA
ATOM      6  C4  UNL d   1      -1.177   2.953  -5.567  0.00  0.00     0.022 A 
ATOM      7  C5  UNL d   1      -0.077   2.241  -5.151  0.00  0.00     0.026 A 
ATOM      8  C6  UNL d   1      -0.415   1.142  -4.292  0.00  0.00    -0.082 A 
ATOM      9  C7  UNL d   1       0.408   0.180  -3.659  0.00  0.00     0.045 A 
ENDROOT
TORSDOF 0
ENDMDL
