MODEL 1
REMARK minimizedAffinity 14.325388
REMARK minimizedRMSD -1
REMARK  0 active torsions:
REMARK  status: ('A' for Active; 'I' for Inactive)
ROOT
ATOM      1  C   UNL d   1      -1.044  -2.976   1.740  0.00  0.00    -0.002 A 
ATOM      2  C1  UNL d   1      -1.636  -1.726   1.853  0.00  0.00     0.010 A 
ATOM      3  C2  UNL d   1      -2.127  -1.068   0.724  0.00  0.00     0.041 A 
ATOM      4  C3  UNL d   1      -2.014  -1.694  -0.533  0.00  0.00    -0.075 A 
ATOM      5  S   UNL d   1      -2.545  -1.078  -2.053  0.00  0.00     0.015 SA
ATOM      6  C4  UNL d   1      -1.998  -2.459  -2.888  0.00  0.00     0.022 A 
ATOM      7  C5  UNL d   1      -1.422  -3.378  -2.044  0.00  0.00     0.026 A 
ATOM      8  C6  UNL d   1      -1.422  -2.952  -0.672  0.00  0.00    -0.082 A 
ATOM      9  C7  UNL d   1      -0.932  -3.593   0.492  0.00  0.00     0.045 A 
ENDROOT
TORSDOF 0
ENDMDL
