MODEL 1
REMARK minimizedAffinity 22.118145
REMARK minimizedRMSD -1
REMARK  0 active torsions:
REMARK  status: ('A' for Active; 'I' for Inactive)
ROOT
ATOM      1  C   UNL d   1      -1.240  -4.539  -1.105  0.00  0.00    -0.002 A 
ATOM      2  C1  UNL d   1      -0.889  -4.266  -2.420  0.00  0.00     0.010 A 
ATOM      3  C2  UNL d   1      -1.248  -3.055  -3.014  0.00  0.00     0.041 A 
ATOM      4  C3  UNL d   1      -1.972  -2.113  -2.257  0.00  0.00    -0.075 A 
ATOM      5  S   UNL d   1      -2.519  -0.562  -2.776  0.00  0.00     0.015 SA
ATOM      6  C4  UNL d   1      -3.231  -0.225  -1.265  0.00  0.00     0.022 A 
ATOM      7  C5  UNL d   1      -3.065  -1.259  -0.374  0.00  0.00     0.026 A 
ATOM      8  C6  UNL d   1      -2.336  -2.364  -0.931  0.00  0.00    -0.082 A 
ATOM      9  C7  UNL d   1      -1.957  -3.602  -0.357  0.00  0.00     0.045 A 
ENDROOT
TORSDOF 0
ENDMDL
