MODEL 1
REMARK minimizedAffinity 18.9633617
REMARK minimizedRMSD -1
REMARK  0 active torsions:
REMARK  status: ('A' for Active; 'I' for Inactive)
ROOT
ATOM      1  C   UNL d   1      -2.554  -3.008   5.999  0.00  0.00    -0.002 A 
ATOM      2  C1  UNL d   1      -2.211  -2.023   5.085  0.00  0.00     0.010 A 
ATOM      3  C2  UNL d   1      -1.550  -2.352   3.900  0.00  0.00     0.041 A 
ATOM      4  C3  UNL d   1      -1.237  -3.702   3.647  0.00  0.00    -0.075 A 
ATOM      5  S   UNL d   1      -0.431  -4.341   2.263  0.00  0.00     0.015 SA
ATOM      6  C4  UNL d   1      -0.523  -5.937   2.853  0.00  0.00     0.022 A 
ATOM      7  C5  UNL d   1      -1.150  -5.999   4.075  0.00  0.00     0.026 A 
ATOM      8  C6  UNL d   1      -1.572  -4.713   4.552  0.00  0.00    -0.082 A 
ATOM      9  C7  UNL d   1      -2.242  -4.346   5.745  0.00  0.00     0.045 A 
ENDROOT
TORSDOF 0
ENDMDL
