MODEL 1
REMARK minimizedAffinity 8.16409397
REMARK minimizedRMSD -1
REMARK  0 active torsions:
REMARK  status: ('A' for Active; 'I' for Inactive)
ROOT
ATOM      1  C4' PXY d   1      -5.207   4.041   1.548  0.00  0.00     0.077 C 
ATOM      2  C1' PXY d   1      -2.083   5.999   6.000  0.00  0.00     0.077 C 
ATOM      3  C1  PXY d   1      -2.913   5.487   4.839  0.00  0.00    -0.082 A 
ATOM      4  C2  PXY d   1      -2.353   4.710   3.927  0.00  0.00     0.003 A 
ATOM      5  C3  PXY d   1      -3.081   4.264   2.854  0.00  0.00     0.003 A 
ATOM      6  C4  PXY d   1      -4.410   4.573   2.742  0.00  0.00    -0.082 A 
ATOM      7  C5  PXY d   1      -4.992   5.357   3.674  0.00  0.00     0.003 A 
ATOM      8  C6  PXY d   1      -4.225   5.833   4.733  0.00  0.00     0.003 A 
ENDROOT
TORSDOF 0
ENDMDL
