MODEL 1
REMARK minimizedAffinity 9.89148617
REMARK minimizedRMSD -1
REMARK  0 active torsions:
REMARK  status: ('A' for Active; 'I' for Inactive)
ROOT
ATOM      1  C4' PXY d   1       5.067   4.309   5.008  0.00  0.00     0.077 C 
ATOM      2  C1' PXY d   1       5.235   5.506  -0.645  0.00  0.00     0.077 C 
ATOM      3  C1  PXY d   1       5.203   5.197   0.839  0.00  0.00    -0.082 A 
ATOM      4  C2  PXY d   1       4.396   4.252   1.293  0.00  0.00     0.003 A 
ATOM      5  C3  PXY d   1       4.331   3.982   2.635  0.00  0.00     0.003 A 
ATOM      6  C4  PXY d   1       5.139   4.649   3.516  0.00  0.00    -0.082 A 
ATOM      7  C5  PXY d   1       5.973   5.607   3.060  0.00  0.00     0.003 A 
ATOM      8  C6  PXY d   1       5.994   5.894   1.698  0.00  0.00     0.003 A 
ENDROOT
TORSDOF 0
ENDMDL
