MODEL 1
REMARK minimizedAffinity 2.7782917
REMARK minimizedRMSD -1
REMARK  0 active torsions:
REMARK  status: ('A' for Active; 'I' for Inactive)
ROOT
ATOM      1  C4' PXY d   1       5.905  -5.988   4.667  0.00  0.00     0.077 C 
ATOM      2  C1' PXY d   1       1.172  -5.389   1.402  0.00  0.00     0.077 C 
ATOM      3  C1  PXY d   1       2.408  -5.538   2.267  0.00  0.00    -0.082 A 
ATOM      4  C2  PXY d   1       3.570  -5.826   1.704  0.00  0.00     0.003 A 
ATOM      5  C3  PXY d   1       4.691  -5.996   2.475  0.00  0.00     0.003 A 
ATOM      6  C4  PXY d   1       4.633  -5.818   3.831  0.00  0.00    -0.082 A 
ATOM      7  C5  PXY d   1       3.453  -5.514   4.412  0.00  0.00     0.003 A 
ATOM      8  C6  PXY d   1       2.319  -5.386   3.617  0.00  0.00     0.003 A 
ENDROOT
TORSDOF 0
ENDMDL
