MODEL 1
REMARK minimizedAffinity 10.2284479
REMARK minimizedRMSD -1
REMARK  0 active torsions:
REMARK  status: ('A' for Active; 'I' for Inactive)
ROOT
ATOM      1  C4' PXY d   1      -1.688   6.000   5.960  0.00  0.00     0.077 C 
ATOM      2  C1' PXY d   1      -6.000   4.222   2.545  0.00  0.00     0.077 C 
ATOM      3  C1  PXY d   1      -4.862   4.677   3.438  0.00  0.00    -0.082 A 
ATOM      4  C2  PXY d   1      -5.098   5.553   4.402  0.00  0.00     0.003 A 
ATOM      5  C3  PXY d   1      -4.075   6.000   5.198  0.00  0.00     0.003 A 
ATOM      6  C4  PXY d   1      -2.808   5.505   5.041  0.00  0.00    -0.082 A 
ATOM      7  C5  PXY d   1      -2.562   4.603   4.067  0.00  0.00     0.003 A 
ATOM      8  C6  PXY d   1      -3.606   4.193   3.243  0.00  0.00     0.003 A 
ENDROOT
TORSDOF 0
ENDMDL
