MODEL 1
REMARK minimizedAffinity -4.4741478
REMARK minimizedRMSD -1
REMARK  0 active torsions:
REMARK  status: ('A' for Active; 'I' for Inactive)
ROOT
ATOM      1  C4' PXY d   1       4.112  -5.250   5.999  0.00  0.00     0.077 C 
ATOM      2  C1' PXY d   1       5.722  -0.004   4.182  0.00  0.00     0.077 C 
ATOM      3  C1  PXY d   1       5.287  -1.377   4.655  0.00  0.00    -0.082 A 
ATOM      4  C2  PXY d   1       5.999  -2.008   5.576  0.00  0.00     0.003 A 
ATOM      5  C3  PXY d   1       5.638  -3.264   5.991  0.00  0.00     0.003 A 
ATOM      6  C4  PXY d   1       4.508  -3.859   5.499  0.00  0.00    -0.082 A 
ATOM      7  C5  PXY d   1       3.771  -3.218   4.567  0.00  0.00     0.003 A 
ATOM      8  C6  PXY d   1       4.176  -1.961   4.128  0.00  0.00     0.003 A 
ENDROOT
TORSDOF 0
ENDMDL
