MODEL 1
REMARK minimizedAffinity 12.4474106
REMARK minimizedRMSD -1
REMARK  0 active torsions:
REMARK  status: ('A' for Active; 'I' for Inactive)
ROOT
ATOM      1  C4' PXY d   1       3.562   0.762  -3.654  0.00  0.00     0.077 C 
ATOM      2  C1' PXY d   1      -1.295   0.297  -0.554  0.00  0.00     0.077 C 
ATOM      3  C1  PXY d   1      -0.028   0.423  -1.378  0.00  0.00    -0.082 A 
ATOM      4  C2  PXY d   1       1.029  -0.309  -1.067  0.00  0.00     0.003 A 
ATOM      5  C3  PXY d   1       2.193  -0.184  -1.781  0.00  0.00     0.003 A 
ATOM      6  C4  PXY d   1       2.259   0.660  -2.857  0.00  0.00    -0.082 A 
ATOM      7  C5  PXY d   1       1.181   1.403  -3.186  0.00  0.00     0.003 A 
ATOM      8  C6  PXY d   1       0.022   1.292  -2.424  0.00  0.00     0.003 A 
ENDROOT
TORSDOF 0
ENDMDL
