MODEL 1
REMARK minimizedAffinity 11.7636156
REMARK minimizedRMSD -1
REMARK  0 active torsions:
REMARK  status: ('A' for Active; 'I' for Inactive)
ROOT
ATOM      1  C4' PXY d   1      -2.525   1.134   2.605  0.00  0.00     0.077 C 
ATOM      2  C1' PXY d   1      -5.686   5.972   2.465  0.00  0.00     0.077 C 
ATOM      3  C1  PXY d   1      -4.847   4.710   2.505  0.00  0.00    -0.082 A 
ATOM      4  C2  PXY d   1      -5.201   3.665   1.775  0.00  0.00     0.003 A 
ATOM      5  C3  PXY d   1      -4.472   2.505   1.824  0.00  0.00     0.003 A 
ATOM      6  C4  PXY d   1      -3.337   2.432   2.588  0.00  0.00    -0.082 A 
ATOM      7  C5  PXY d   1      -2.963   3.498   3.327  0.00  0.00     0.003 A 
ATOM      8  C6  PXY d   1      -3.740   4.652   3.295  0.00  0.00     0.003 A 
ENDROOT
TORSDOF 0
ENDMDL
