MODEL 1
REMARK minimizedAffinity 14.1425819
REMARK minimizedRMSD -1
REMARK  0 active torsions:
REMARK  status: ('A' for Active; 'I' for Inactive)
ROOT
ATOM      1  C4' PXY d   1      -3.585  -3.110  -0.745  0.00  0.00     0.077 C 
ATOM      2  C1' PXY d   1      -2.815   1.091   3.151  0.00  0.00     0.077 C 
ATOM      3  C1  PXY d   1      -3.017  -0.020   2.139  0.00  0.00    -0.082 A 
ATOM      4  C2  PXY d   1      -2.611   0.151   0.891  0.00  0.00     0.003 A 
ATOM      5  C3  PXY d   1      -2.815  -0.831  -0.045  0.00  0.00     0.003 A 
ATOM      6  C4  PXY d   1      -3.393  -2.019   0.312  0.00  0.00    -0.082 A 
ATOM      7  C5  PXY d   1      -3.800  -2.205   1.586  0.00  0.00     0.003 A 
ATOM      8  C6  PXY d   1      -3.621  -1.181   2.511  0.00  0.00     0.003 A 
ENDROOT
TORSDOF 0
ENDMDL
