MODEL 1
REMARK minimizedAffinity 0.0101096425
REMARK minimizedRMSD -1
REMARK  0 active torsions:
REMARK  status: ('A' for Active; 'I' for Inactive)
ROOT
ATOM      1  C4' PXY d   1      -4.201   5.841   5.709  0.00  0.00     0.077 C 
ATOM      2  C1' PXY d   1      -3.069   4.694   0.158  0.00  0.00     0.077 C 
ATOM      3  C1  PXY d   1      -3.377   5.001   1.610  0.00  0.00    -0.082 A 
ATOM      4  C2  PXY d   1      -2.391   5.053   2.491  0.00  0.00     0.003 A 
ATOM      5  C3  PXY d   1      -2.655   5.298   3.814  0.00  0.00     0.003 A 
ATOM      6  C4  PXY d   1      -3.936   5.544   4.231  0.00  0.00    -0.082 A 
ATOM      7  C5  PXY d   1      -4.946   5.503   3.336  0.00  0.00     0.003 A 
ATOM      8  C6  PXY d   1      -4.662   5.212   2.005  0.00  0.00     0.003 A 
ENDROOT
TORSDOF 0
ENDMDL
