MODEL 1
REMARK minimizedAffinity 12.9638186
REMARK minimizedRMSD -1
REMARK  0 active torsions:
REMARK  status: ('A' for Active; 'I' for Inactive)
ROOT
ATOM      1  C4' PXY d   1       5.159  -0.321   4.346  0.00  0.00     0.077 C 
ATOM      2  C1' PXY d   1       4.809  -5.851   5.993  0.00  0.00     0.077 C 
ATOM      3  C1  PXY d   1       4.893  -4.403   5.551  0.00  0.00    -0.082 A 
ATOM      4  C2  PXY d   1       5.919  -3.661   5.934  0.00  0.00     0.003 A 
ATOM      5  C3  PXY d   1       5.995  -2.341   5.569  0.00  0.00     0.003 A 
ATOM      6  C4  PXY d   1       5.037  -1.790   4.761  0.00  0.00    -0.082 A 
ATOM      7  C5  PXY d   1       3.993  -2.543   4.357  0.00  0.00     0.003 A 
ATOM      8  C6  PXY d   1       3.913  -3.870   4.772  0.00  0.00     0.003 A 
ENDROOT
TORSDOF 0
ENDMDL
