MODEL 1
REMARK minimizedAffinity 3.21775889
REMARK minimizedRMSD -1
REMARK  0 active torsions:
REMARK  status: ('A' for Active; 'I' for Inactive)
ROOT
ATOM      1  C4' PXY d   1      -5.682   4.549   1.520  0.00  0.00     0.077 C 
ATOM      2  C1' PXY d   1      -2.266   5.843   6.000  0.00  0.00     0.077 C 
ATOM      3  C1  PXY d   1      -3.151   5.501   4.818  0.00  0.00    -0.082 A 
ATOM      4  C2  PXY d   1      -4.377   5.996   4.753  0.00  0.00     0.003 A 
ATOM      5  C3  PXY d   1      -5.202   5.672   3.707  0.00  0.00     0.003 A 
ATOM      6  C4  PXY d   1      -4.750   4.875   2.690  0.00  0.00    -0.082 A 
ATOM      7  C5  PXY d   1      -3.497   4.374   2.743  0.00  0.00     0.003 A 
ATOM      8  C6  PXY d   1      -2.690   4.682   3.834  0.00  0.00     0.003 A 
ENDROOT
TORSDOF 0
ENDMDL
