MODEL 1
REMARK minimizedAffinity 12.2511425
REMARK minimizedRMSD -1
REMARK  0 active torsions:
REMARK  status: ('A' for Active; 'I' for Inactive)
ROOT
ATOM      1  C4' PXY d   1      -2.625   1.377   3.400  0.00  0.00     0.077 C 
ATOM      2  C1' PXY d   1      -2.440  -2.341  -1.023  0.00  0.00     0.077 C 
ATOM      3  C1  PXY d   1      -2.499  -1.372   0.142  0.00  0.00    -0.082 A 
ATOM      4  C2  PXY d   1      -1.949  -0.174   0.025  0.00  0.00     0.003 A 
ATOM      5  C3  PXY d   1      -1.965   0.702   1.079  0.00  0.00     0.003 A 
ATOM      6  C4  PXY d   1      -2.598   0.370   2.247  0.00  0.00    -0.082 A 
ATOM      7  C5  PXY d   1      -3.170  -0.846   2.370  0.00  0.00     0.003 A 
ATOM      8  C6  PXY d   1      -3.107  -1.737   1.303  0.00  0.00     0.003 A 
ENDROOT
TORSDOF 0
ENDMDL
