MODEL 1
REMARK minimizedAffinity 9.82431221
REMARK minimizedRMSD -1
REMARK  0 active torsions:
REMARK  status: ('A' for Active; 'I' for Inactive)
ROOT
ATOM      1  C4' PXY d   1       2.486   3.463  -2.574  0.00  0.00     0.077 C 
ATOM      2  C1' PXY d   1       0.229  -1.858  -2.464  0.00  0.00     0.077 C 
ATOM      3  C1  PXY d   1       0.818  -0.462  -2.505  0.00  0.00    -0.082 A 
ATOM      4  C2  PXY d   1       1.726  -0.107  -1.610  0.00  0.00     0.003 A 
ATOM      5  C3  PXY d   1       2.245   1.162  -1.613  0.00  0.00     0.003 A 
ATOM      6  C4  PXY d   1       1.871   2.061  -2.576  0.00  0.00    -0.082 A 
ATOM      7  C5  PXY d   1       0.954   1.703  -3.500  0.00  0.00     0.003 A 
ATOM      8  C6  PXY d   1       0.408   0.424  -3.454  0.00  0.00     0.003 A 
ENDROOT
TORSDOF 0
ENDMDL
