MODEL 1
REMARK minimizedAffinity 8.46922588
REMARK minimizedRMSD -1
REMARK  0 active torsions:
REMARK  status: ('A' for Active; 'I' for Inactive)
ROOT
ATOM      1  C4' PXY d   1      -0.749   5.999   6.000  0.00  0.00     0.077 C 
ATOM      2  C1' PXY d   1      -5.175   3.975   2.880  0.00  0.00     0.077 C 
ATOM      3  C1  PXY d   1      -4.021   4.517   3.701  0.00  0.00    -0.082 A 
ATOM      4  C2  PXY d   1      -2.799   4.049   3.501  0.00  0.00     0.003 A 
ATOM      5  C3  PXY d   1      -1.750   4.505   4.256  0.00  0.00     0.003 A 
ATOM      6  C4  PXY d   1      -1.943   5.488   5.188  0.00  0.00    -0.082 A 
ATOM      7  C5  PXY d   1      -3.184   5.978   5.391  0.00  0.00     0.003 A 
ATOM      8  C6  PXY d   1      -4.243   5.473   4.643  0.00  0.00     0.003 A 
ENDROOT
TORSDOF 0
ENDMDL
