MODEL 1
REMARK minimizedAffinity 7.6899581
REMARK minimizedRMSD -1
REMARK  0 active torsions:
REMARK  status: ('A' for Active; 'I' for Inactive)
ROOT
ATOM      1  C4' PXY d   1       1.166   1.841  -5.366  0.00  0.00     0.077 C 
ATOM      2  C1' PXY d   1       2.187  -1.883  -1.064  0.00  0.00     0.077 C 
ATOM      3  C1  PXY d   1       1.921  -0.916  -2.201  0.00  0.00    -0.082 A 
ATOM      4  C2  PXY d   1       2.155   0.375  -2.030  0.00  0.00     0.003 A 
ATOM      5  C3  PXY d   1       1.889   1.268  -3.037  0.00  0.00     0.003 A 
ATOM      6  C4  PXY d   1       1.430   0.827  -4.249  0.00  0.00    -0.082 A 
ATOM      7  C5  PXY d   1       1.199  -0.489  -4.435  0.00  0.00     0.003 A 
ATOM      8  C6  PXY d   1       1.436  -1.374  -3.387  0.00  0.00     0.003 A 
ENDROOT
TORSDOF 0
ENDMDL
