MODEL 1
REMARK minimizedAffinity 15.0333405
REMARK minimizedRMSD -1
REMARK  0 active torsions:
REMARK  status: ('A' for Active; 'I' for Inactive)
ROOT
ATOM      1  C4' PXY d   1      -3.449  -1.133   0.646  0.00  0.00     0.077 C 
ATOM      2  C1' PXY d   1      -5.964   0.067   5.710  0.00  0.00     0.077 C 
ATOM      3  C1  PXY d   1      -5.296  -0.239   4.384  0.00  0.00    -0.082 A 
ATOM      4  C2  PXY d   1      -5.996  -0.802   3.413  0.00  0.00     0.003 A 
ATOM      5  C3  PXY d   1      -5.399  -1.115   2.219  0.00  0.00     0.003 A 
ATOM      6  C4  PXY d   1      -4.085  -0.798   1.998  0.00  0.00    -0.082 A 
ATOM      7  C5  PXY d   1      -3.367  -0.214   2.980  0.00  0.00     0.003 A 
ATOM      8  C6  PXY d   1      -3.981   0.058   4.199  0.00  0.00     0.003 A 
ENDROOT
TORSDOF 0
ENDMDL
