MODEL 1
REMARK minimizedAffinity 4.4216218
REMARK minimizedRMSD -1
REMARK  0 active torsions:
REMARK  status: ('A' for Active; 'I' for Inactive)
ROOT
ATOM      1  C4' PXY d   1       2.591   4.518  -5.996  0.00  0.00     0.077 C 
ATOM      2  C1' PXY d   1       1.557   0.584  -1.889  0.00  0.00     0.077 C 
ATOM      3  C1  PXY d   1       1.829   1.625  -2.957  0.00  0.00    -0.082 A 
ATOM      4  C2  PXY d   1       1.385   1.430  -4.188  0.00  0.00     0.003 A 
ATOM      5  C3  PXY d   1       1.650   2.346  -5.174  0.00  0.00     0.003 A 
ATOM      6  C4  PXY d   1       2.331   3.498  -4.884  0.00  0.00    -0.082 A 
ATOM      7  C5  PXY d   1       2.778   3.709  -3.628  0.00  0.00     0.003 A 
ATOM      8  C6  PXY d   1       2.534   2.748  -2.651  0.00  0.00     0.003 A 
ENDROOT
TORSDOF 0
ENDMDL
