MODEL 1
REMARK minimizedAffinity 10.9787045
REMARK minimizedRMSD -1
REMARK  0 active torsions:
REMARK  status: ('A' for Active; 'I' for Inactive)
ROOT
ATOM      1  C4' PXY d   1       3.048   3.704  -3.252  0.00  0.00     0.077 C 
ATOM      2  C1' PXY d   1       0.736  -1.447  -2.017  0.00  0.00     0.077 C 
ATOM      3  C1  PXY d   1       1.338  -0.098  -2.353  0.00  0.00    -0.082 A 
ATOM      4  C2  PXY d   1       2.328   0.379  -1.615  0.00  0.00     0.003 A 
ATOM      5  C3  PXY d   1       2.863   1.612  -1.886  0.00  0.00     0.003 A 
ATOM      6  C4  PXY d   1       2.416   2.342  -2.955  0.00  0.00    -0.082 A 
ATOM      7  C5  PXY d   1       1.414   1.857  -3.719  0.00  0.00     0.003 A 
ATOM      8  C6  PXY d   1       0.857   0.622  -3.403  0.00  0.00     0.003 A 
ENDROOT
TORSDOF 0
ENDMDL
