MODEL 1
REMARK minimizedAffinity 3.12631726
REMARK minimizedRMSD -1
REMARK  0 active torsions:
REMARK  status: ('A' for Active; 'I' for Inactive)
ROOT
ATOM      1  C4' PXY d   1      -4.941   1.128   3.284  0.00  0.00     0.077 C 
ATOM      2  C1' PXY d   1      -3.320   5.996   5.946  0.00  0.00     0.077 C 
ATOM      3  C1  PXY d   1      -3.736   4.722   5.239  0.00  0.00    -0.082 A 
ATOM      4  C2  PXY d   1      -4.940   4.216   5.456  0.00  0.00     0.003 A 
ATOM      5  C3  PXY d   1      -5.321   3.048   4.849  0.00  0.00     0.003 A 
ATOM      6  C4  PXY d   1      -4.482   2.418   3.970  0.00  0.00    -0.082 A 
ATOM      7  C5  PXY d   1      -3.256   2.933   3.734  0.00  0.00     0.003 A 
ATOM      8  C6  PXY d   1      -2.873   4.098   4.392  0.00  0.00     0.003 A 
ENDROOT
TORSDOF 0
ENDMDL
