MODEL 1
REMARK minimizedAffinity 5.3766284
REMARK minimizedRMSD -1
REMARK  0 active torsions:
REMARK  status: ('A' for Active; 'I' for Inactive)
ROOT
ATOM      1  C4' PXY d   1       1.507  -3.513  -3.691  0.00  0.00     0.077 C 
ATOM      2  C1' PXY d   1       1.975   2.012  -2.059  0.00  0.00     0.077 C 
ATOM      3  C1  PXY d   1       1.863   0.560  -2.479  0.00  0.00    -0.082 A 
ATOM      4  C2  PXY d   1       1.285   0.255  -3.630  0.00  0.00     0.003 A 
ATOM      5  C3  PXY d   1       1.146  -1.055  -4.011  0.00  0.00     0.003 A 
ATOM      6  C4  PXY d   1       1.651  -2.060  -3.231  0.00  0.00    -0.082 A 
ATOM      7  C5  PXY d   1       2.252  -1.757  -2.060  0.00  0.00     0.003 A 
ATOM      8  C6  PXY d   1       2.346  -0.423  -1.672  0.00  0.00     0.003 A 
ENDROOT
TORSDOF 0
ENDMDL
