MODEL 1
REMARK minimizedAffinity 2.45567012
REMARK minimizedRMSD -1
REMARK  0 active torsions:
REMARK  status: ('A' for Active; 'I' for Inactive)
ROOT
ATOM      1  C   UNL d   1      -5.998   1.757   0.758  0.00  0.00     0.078 C 
ATOM      2  C1  UNL d   1      -4.598   1.772   0.219  0.00  0.00    -0.077 A 
ATOM      3  C2  UNL d   1      -3.524   1.314   0.992  0.00  0.00    -0.001 A 
ATOM      4  C3  UNL d   1      -2.225   1.343   0.481  0.00  0.00     0.003 A 
ATOM      5  C4  UNL d   1      -1.988   1.829  -0.803  0.00  0.00    -0.005 A 
ATOM      6  C5  UNL d   1      -3.051   2.288  -1.578  0.00  0.00     0.003 A 
ATOM      7  C6  UNL d   1      -4.350   2.261  -1.069  0.00  0.00    -0.001 A 
ENDROOT
TORSDOF 0
ENDMDL
