MODEL 1
REMARK minimizedAffinity 6.71532774
REMARK minimizedRMSD -1
REMARK  0 active torsions:
REMARK  status: ('A' for Active; 'I' for Inactive)
ROOT
ATOM      1  C   UNL d   1      -2.227   1.838  -0.038  0.00  0.00     0.078 C 
ATOM      2  C1  UNL d   1      -2.102   1.219   1.322  0.00  0.00    -0.077 A 
ATOM      3  C2  UNL d   1      -2.459  -0.117   1.542  0.00  0.00    -0.001 A 
ATOM      4  C3  UNL d   1      -2.346  -0.678   2.816  0.00  0.00     0.003 A 
ATOM      5  C4  UNL d   1      -1.878   0.091   3.879  0.00  0.00    -0.005 A 
ATOM      6  C5  UNL d   1      -1.522   1.422   3.671  0.00  0.00     0.003 A 
ATOM      7  C6  UNL d   1      -1.634   1.984   2.398  0.00  0.00    -0.001 A 
ENDROOT
TORSDOF 0
ENDMDL
