MODEL 1
REMARK minimizedAffinity 4.43049908
REMARK minimizedRMSD -1
REMARK  0 active torsions:
REMARK  status: ('A' for Active; 'I' for Inactive)
ROOT
ATOM      1  C   UNL d   1      -2.187   2.589  -1.061  0.00  0.00     0.078 C 
ATOM      2  C1  UNL d   1      -3.040   1.678  -0.230  0.00  0.00    -0.077 A 
ATOM      3  C2  UNL d   1      -2.507   0.519   0.348  0.00  0.00    -0.001 A 
ATOM      4  C3  UNL d   1      -3.316  -0.325   1.111  0.00  0.00     0.003 A 
ATOM      5  C4  UNL d   1      -4.662  -0.020   1.302  0.00  0.00    -0.005 A 
ATOM      6  C5  UNL d   1      -5.201   1.130   0.729  0.00  0.00     0.003 A 
ATOM      7  C6  UNL d   1      -4.395   1.975  -0.034  0.00  0.00    -0.001 A 
ENDROOT
TORSDOF 0
ENDMDL
