MODEL 1
REMARK minimizedAffinity 1.38765621
REMARK minimizedRMSD -1
REMARK  0 active torsions:
REMARK  status: ('A' for Active; 'I' for Inactive)
ROOT
ATOM      1  C   UNL d   1      -5.859   2.071   0.430  0.00  0.00     0.078 C 
ATOM      2  C1  UNL d   1      -4.521   1.416   0.598  0.00  0.00    -0.077 A 
ATOM      3  C2  UNL d   1      -4.409   0.135   1.153  0.00  0.00    -0.001 A 
ATOM      4  C3  UNL d   1      -3.156  -0.459   1.312  0.00  0.00     0.003 A 
ATOM      5  C4  UNL d   1      -2.005   0.221   0.920  0.00  0.00    -0.005 A 
ATOM      6  C5  UNL d   1      -2.106   1.497   0.369  0.00  0.00     0.003 A 
ATOM      7  C6  UNL d   1      -3.358   2.092   0.209  0.00  0.00    -0.001 A 
ENDROOT
TORSDOF 0
ENDMDL
