MODEL 1
REMARK minimizedAffinity -2.43964577
REMARK minimizedRMSD -1
REMARK  0 active torsions:
REMARK  status: ('A' for Active; 'I' for Inactive)
ROOT
ATOM      1  C   UNL d   1      -2.186  -0.273   1.483  0.00  0.00     0.078 C 
ATOM      2  C1  UNL d   1      -3.509   0.423   1.363  0.00  0.00    -0.077 A 
ATOM      3  C2  UNL d   1      -3.581   1.786   1.049  0.00  0.00    -0.001 A 
ATOM      4  C3  UNL d   1      -4.819   2.423   0.950  0.00  0.00     0.003 A 
ATOM      5  C4  UNL d   1      -5.994   1.705   1.163  0.00  0.00    -0.005 A 
ATOM      6  C5  UNL d   1      -5.932   0.349   1.478  0.00  0.00     0.003 A 
ATOM      7  C6  UNL d   1      -4.695  -0.290   1.578  0.00  0.00    -0.001 A 
ENDROOT
TORSDOF 0
ENDMDL
