MODEL 1
REMARK minimizedAffinity -1.80219162
REMARK minimizedRMSD -1
REMARK  0 active torsions:
REMARK  status: ('A' for Active; 'I' for Inactive)
ROOT
ATOM      1  C   UNL d   1      -5.171   1.833   0.541  0.00  0.00     0.078 C 
ATOM      2  C1  UNL d   1      -3.768   1.322   0.403  0.00  0.00    -0.077 A 
ATOM      3  C2  UNL d   1      -2.859   1.937  -0.467  0.00  0.00    -0.001 A 
ATOM      4  C3  UNL d   1      -1.559   1.445  -0.593  0.00  0.00     0.003 A 
ATOM      5  C4  UNL d   1      -1.157   0.335   0.148  0.00  0.00    -0.005 A 
ATOM      6  C5  UNL d   1      -2.055  -0.284   1.015  0.00  0.00     0.003 A 
ATOM      7  C6  UNL d   1      -3.355   0.206   1.142  0.00  0.00    -0.001 A 
ENDROOT
TORSDOF 0
ENDMDL
