MODEL 1
REMARK minimizedAffinity -3.58373928
REMARK minimizedRMSD -1
REMARK  0 active torsions:
REMARK  status: ('A' for Active; 'I' for Inactive)
ROOT
ATOM      1  C   UNL d   1      -1.960   0.115   1.224  0.00  0.00     0.078 C 
ATOM      2  C1  UNL d   1      -3.364   0.641   1.225  0.00  0.00    -0.077 A 
ATOM      3  C2  UNL d   1      -4.445  -0.188   1.552  0.00  0.00    -0.001 A 
ATOM      4  C3  UNL d   1      -5.747   0.313   1.540  0.00  0.00     0.003 A 
ATOM      5  C4  UNL d   1      -5.982   1.644   1.200  0.00  0.00    -0.005 A 
ATOM      6  C5  UNL d   1      -4.914   2.475   0.870  0.00  0.00     0.003 A 
ATOM      7  C6  UNL d   1      -3.611   1.976   0.882  0.00  0.00    -0.001 A 
ENDROOT
TORSDOF 0
ENDMDL
