MODEL 1
REMARK minimizedAffinity 2.42876291
REMARK minimizedRMSD -1
REMARK  0 active torsions:
REMARK  status: ('A' for Active; 'I' for Inactive)
ROOT
ATOM      1  C   UNL d   1      -0.714  -5.145  -3.229  0.00  0.00     0.078 C 
ATOM      2  C1  UNL d   1      -1.698  -4.413  -2.366  0.00  0.00    -0.077 A 
ATOM      3  C2  UNL d   1      -1.910  -4.791  -1.035  0.00  0.00    -0.001 A 
ATOM      4  C3  UNL d   1      -2.836  -4.106  -0.246  0.00  0.00     0.003 A 
ATOM      5  C4  UNL d   1      -3.558  -3.040  -0.780  0.00  0.00    -0.005 A 
ATOM      6  C5  UNL d   1      -3.354  -2.658  -2.104  0.00  0.00     0.003 A 
ATOM      7  C6  UNL d   1      -2.429  -3.342  -2.895  0.00  0.00    -0.001 A 
ENDROOT
TORSDOF 0
ENDMDL
