MODEL 1
REMARK minimizedAffinity 13.6727629
REMARK minimizedRMSD -1
REMARK  0 active torsions:
REMARK  status: ('A' for Active; 'I' for Inactive)
ROOT
ATOM      1  C   UNL d   1       5.064   2.610   0.732  0.00  0.00     0.078 C 
ATOM      2  C1  UNL d   1       4.017   2.125  -0.225  0.00  0.00    -0.077 A 
ATOM      3  C2  UNL d   1       3.063   3.003  -0.756  0.00  0.00    -0.001 A 
ATOM      4  C3  UNL d   1       2.088   2.535  -1.638  0.00  0.00     0.003 A 
ATOM      5  C4  UNL d   1       2.055   1.189  -1.996  0.00  0.00    -0.005 A 
ATOM      6  C5  UNL d   1       2.998   0.308  -1.470  0.00  0.00     0.003 A 
ATOM      7  C6  UNL d   1       3.974   0.773  -0.588  0.00  0.00    -0.001 A 
ENDROOT
TORSDOF 0
ENDMDL
