MODEL 1
REMARK minimizedAffinity 1.42796433
REMARK minimizedRMSD -1
REMARK  0 active torsions:
REMARK  status: ('A' for Active; 'I' for Inactive)
ROOT
ATOM      1  C   UNL d   1       0.365   3.395   3.026  0.00  0.00     0.078 C 
ATOM      2  C1  UNL d   1       0.984   2.500   1.994  0.00  0.00    -0.077 A 
ATOM      3  C2  UNL d   1       0.190   1.806   1.072  0.00  0.00    -0.001 A 
ATOM      4  C3  UNL d   1       0.779   0.968   0.124  0.00  0.00     0.003 A 
ATOM      5  C4  UNL d   1       2.163   0.815   0.089  0.00  0.00    -0.005 A 
ATOM      6  C5  UNL d   1       2.961   1.500   1.003  0.00  0.00     0.003 A 
ATOM      7  C6  UNL d   1       2.374   2.338   1.953  0.00  0.00    -0.001 A 
ENDROOT
TORSDOF 0
ENDMDL
