MODEL 1
REMARK minimizedAffinity 2.86932325
REMARK minimizedRMSD -1
REMARK  0 active torsions:
REMARK  status: ('A' for Active; 'I' for Inactive)
ROOT
ATOM      1  C   UNL d   1      -1.384   0.335   0.043  0.00  0.00     0.078 C 
ATOM      2  C1  UNL d   1      -0.159   0.962   0.640  0.00  0.00    -0.077 A 
ATOM      3  C2  UNL d   1       1.108   0.397   0.445  0.00  0.00    -0.001 A 
ATOM      4  C3  UNL d   1       2.238   0.985   1.014  0.00  0.00     0.003 A 
ATOM      5  C4  UNL d   1       2.114   2.141   1.782  0.00  0.00    -0.005 A 
ATOM      6  C5  UNL d   1       0.858   2.709   1.983  0.00  0.00     0.003 A 
ATOM      7  C6  UNL d   1      -0.274   2.122   1.415  0.00  0.00    -0.001 A 
ENDROOT
TORSDOF 0
ENDMDL
