MODEL 1
REMARK minimizedAffinity 7.03792143
REMARK minimizedRMSD -1
REMARK  0 active torsions:
REMARK  status: ('A' for Active; 'I' for Inactive)
ROOT
ATOM      1  C   UNL d   1      -2.994  -4.383  -1.843  0.00  0.00     0.078 C 
ATOM      2  C1  UNL d   1      -3.688  -4.941  -0.637  0.00  0.00    -0.077 A 
ATOM      3  C2  UNL d   1      -2.958  -5.460   0.440  0.00  0.00    -0.001 A 
ATOM      4  C3  UNL d   1      -3.618  -5.985   1.552  0.00  0.00     0.003 A 
ATOM      5  C4  UNL d   1      -5.010  -5.998   1.598  0.00  0.00    -0.005 A 
ATOM      6  C5  UNL d   1      -5.745  -5.486   0.530  0.00  0.00     0.003 A 
ATOM      7  C6  UNL d   1      -5.087  -4.961  -0.583  0.00  0.00    -0.001 A 
ENDROOT
TORSDOF 0
ENDMDL
