MODEL 1
REMARK minimizedAffinity 6.28684855
REMARK minimizedRMSD -1
REMARK  0 active torsions:
REMARK  status: ('A' for Active; 'I' for Inactive)
ROOT
ATOM      1  C   UNL d   1      -0.176   2.944   2.481  0.00  0.00     0.078 C 
ATOM      2  C1  UNL d   1       0.696   2.038   1.664  0.00  0.00    -0.077 A 
ATOM      3  C2  UNL d   1       0.139   1.034   0.862  0.00  0.00    -0.001 A 
ATOM      4  C3  UNL d   1       0.963   0.191   0.113  0.00  0.00     0.003 A 
ATOM      5  C4  UNL d   1       2.347   0.343   0.161  0.00  0.00    -0.005 A 
ATOM      6  C5  UNL d   1       2.910   1.338   0.957  0.00  0.00     0.003 A 
ATOM      7  C6  UNL d   1       2.088   2.181   1.706  0.00  0.00    -0.001 A 
ENDROOT
TORSDOF 0
ENDMDL
