MODEL 1
REMARK minimizedAffinity 6.40890455
REMARK minimizedRMSD -1
REMARK  0 active torsions:
REMARK  status: ('A' for Active; 'I' for Inactive)
ROOT
ATOM      1  C   UNL d   1      -1.112  -2.559   4.490  0.00  0.00     0.078 C 
ATOM      2  C1  UNL d   1      -0.390  -3.763   3.962  0.00  0.00    -0.077 A 
ATOM      3  C2  UNL d   1       0.473  -4.502   4.780  0.00  0.00    -0.001 A 
ATOM      4  C3  UNL d   1       1.146  -5.615   4.273  0.00  0.00     0.003 A 
ATOM      5  C4  UNL d   1       0.963  -5.998   2.946  0.00  0.00    -0.005 A 
ATOM      6  C5  UNL d   1       0.108  -5.267   2.124  0.00  0.00     0.003 A 
ATOM      7  C6  UNL d   1      -0.566  -4.154   2.629  0.00  0.00    -0.001 A 
ENDROOT
TORSDOF 0
ENDMDL
