MODEL 1
REMARK minimizedAffinity -3.84082603
REMARK minimizedRMSD -1
REMARK  2 active torsions:
REMARK  status: ('A' for Active; 'I' for Inactive)
REMARK    1  A    between atoms: C1_2  and  C2_3 
REMARK    2  A    between atoms: C2_3  and  C3_4 
ROOT
ATOM      1  C3  UNL d   1       0.015   0.249   0.130  0.00  0.00    -0.075 A 
ATOM      2  C4  UNL d   1      -1.200   0.527   0.773  0.00  0.00     0.002 A 
ATOM      3  C5  UNL d   1      -1.292   0.483   2.164  0.00  0.00     0.002 A 
ATOM      4  C6  UNL d   1      -0.175   0.151   2.929  0.00  0.00    -0.004 A 
ATOM      5  C7  UNL d   1       1.032  -0.144   2.300  0.00  0.00     0.002 A 
ATOM      6  C8  UNL d   1       1.128  -0.096   0.908  0.00  0.00     0.002 A 
ENDROOT
BRANCH   1   7
ATOM      7  C2  UNL d   1       0.128   0.323  -1.374  0.00  0.00     0.056 C 
BRANCH   7   8
ATOM      8  C1  UNL d   1       0.304  -1.038  -2.055  0.00  0.00     0.007 C 
ATOM      9  C   UNL d   1       1.028  -0.952  -3.391  0.00  0.00     0.009 C 
ENDBRANCH   7   8
ENDBRANCH   1   7
TORSDOF 2
ENDMDL
