MODEL 1
REMARK minimizedAffinity 0.576868534
REMARK minimizedRMSD -1
REMARK  2 active torsions:
REMARK  status: ('A' for Active; 'I' for Inactive)
REMARK    1  A    between atoms: C1_2  and  C2_3 
REMARK    2  A    between atoms: C2_3  and  C3_4 
ROOT
ATOM      1  C3  UNL d   1      -0.276   0.080  -0.268  0.00  0.00    -0.075 A 
ATOM      2  C4  UNL d   1       0.873   0.147   0.534  0.00  0.00     0.002 A 
ATOM      3  C5  UNL d   1       0.773   0.456   1.890  0.00  0.00     0.002 A 
ATOM      4  C6  UNL d   1      -0.472   0.711   2.460  0.00  0.00    -0.004 A 
ATOM      5  C7  UNL d   1      -1.619   0.664   1.669  0.00  0.00     0.002 A 
ATOM      6  C8  UNL d   1      -1.522   0.351   0.312  0.00  0.00     0.002 A 
ENDROOT
BRANCH   1   7
ATOM      7  C2  UNL d   1      -0.177  -0.283  -1.731  0.00  0.00     0.056 C 
BRANCH   7   8
ATOM      8  C1  UNL d   1       1.202  -0.023  -2.346  0.00  0.00     0.007 C 
ATOM      9  C   UNL d   1       1.603  -1.064  -3.383  0.00  0.00     0.009 C 
ENDBRANCH   7   8
ENDBRANCH   1   7
TORSDOF 2
ENDMDL
