MODEL 1
REMARK minimizedAffinity -1.70791888
REMARK minimizedRMSD -1
REMARK  2 active torsions:
REMARK  status: ('A' for Active; 'I' for Inactive)
REMARK    1  A    between atoms: C1_2  and  C2_3 
REMARK    2  A    between atoms: C2_3  and  C3_4 
ROOT
ATOM      1  C3  UNL d   1       0.269   0.265  -0.204  0.00  0.00    -0.075 A 
ATOM      2  C4  UNL d   1      -0.704   0.471   0.785  0.00  0.00     0.002 A 
ATOM      3  C5  UNL d   1      -0.394   0.285   2.133  0.00  0.00     0.002 A 
ATOM      4  C6  UNL d   1       0.885  -0.118   2.507  0.00  0.00    -0.004 A 
ATOM      5  C7  UNL d   1       1.855  -0.341   1.532  0.00  0.00     0.002 A 
ATOM      6  C8  UNL d   1       1.550  -0.152   0.183  0.00  0.00     0.002 A 
ENDROOT
BRANCH   1   7
ATOM      7  C2  UNL d   1      -0.051   0.494  -1.662  0.00  0.00     0.056 C 
BRANCH   7   8
ATOM      8  C1  UNL d   1       1.012  -0.044  -2.626  0.00  0.00     0.007 C 
ATOM      9  C   UNL d   1       0.516  -1.202  -3.481  0.00  0.00     0.009 C 
ENDBRANCH   7   8
ENDBRANCH   1   7
TORSDOF 2
ENDMDL
