MODEL 1
REMARK minimizedAffinity -2.60196352
REMARK minimizedRMSD -1
REMARK  2 active torsions:
REMARK  status: ('A' for Active; 'I' for Inactive)
REMARK    1  A    between atoms: C1_2  and  C2_3 
REMARK    2  A    between atoms: C2_3  and  C3_4 
ROOT
ATOM      1  C3  UNL d   1      -0.007  -0.011  -1.037  0.00  0.00    -0.075 A 
ATOM      2  C4  UNL d   1      -1.309   0.249  -0.583  0.00  0.00     0.002 A 
ATOM      3  C5  UNL d   1      -1.584   0.304   0.784  0.00  0.00     0.002 A 
ATOM      4  C6  UNL d   1      -0.567   0.089   1.711  0.00  0.00    -0.004 A 
ATOM      5  C7  UNL d   1       0.726  -0.187   1.271  0.00  0.00     0.002 A 
ATOM      6  C8  UNL d   1       1.005  -0.238  -0.096  0.00  0.00     0.002 A 
ENDROOT
BRANCH   1   7
ATOM      7  C2  UNL d   1       0.303  -0.042  -2.515  0.00  0.00     0.056 C 
BRANCH   7   8
ATOM      8  C1  UNL d   1       0.416  -1.454  -3.099  0.00  0.00     0.007 C 
ATOM      9  C   UNL d   1       1.821  -1.797  -3.575  0.00  0.00     0.009 C 
ENDBRANCH   7   8
ENDBRANCH   1   7
TORSDOF 2
ENDMDL
