MODEL 1
REMARK minimizedAffinity -2.2819252
REMARK minimizedRMSD -1
REMARK  2 active torsions:
REMARK  status: ('A' for Active; 'I' for Inactive)
REMARK    1  A    between atoms: C1_2  and  C2_3 
REMARK    2  A    between atoms: C2_3  and  C3_4 
ROOT
ATOM      1  C3  UNL d   1       0.530  -0.131  -0.943  0.00  0.00    -0.075 A 
ATOM      2  C4  UNL d   1       1.291   0.657  -1.819  0.00  0.00     0.002 A 
ATOM      3  C5  UNL d   1       1.771   0.124  -3.015  0.00  0.00     0.002 A 
ATOM      4  C6  UNL d   1       1.506  -1.204  -3.346  0.00  0.00    -0.004 A 
ATOM      5  C7  UNL d   1       0.765  -2.000  -2.475  0.00  0.00     0.002 A 
ATOM      6  C8  UNL d   1       0.280  -1.468  -1.280  0.00  0.00     0.002 A 
ENDROOT
BRANCH   1   7
ATOM      7  C2  UNL d   1      -0.018   0.449   0.339  0.00  0.00     0.056 C 
BRANCH   7   8
ATOM      8  C1  UNL d   1       0.467  -0.267   1.604  0.00  0.00     0.007 C 
ATOM      9  C   UNL d   1      -0.282   0.160   2.860  0.00  0.00     0.009 C 
ENDBRANCH   7   8
ENDBRANCH   1   7
TORSDOF 2
ENDMDL
