MODEL 1
REMARK minimizedAffinity -2.23936582
REMARK minimizedRMSD -1
REMARK  2 active torsions:
REMARK  status: ('A' for Active; 'I' for Inactive)
REMARK    1  A    between atoms: C1_2  and  C2_3 
REMARK    2  A    between atoms: C2_3  and  C3_4 
ROOT
ATOM      1  C3  UNL d   1       0.683  -0.073  -0.675  0.00  0.00    -0.075 A 
ATOM      2  C4  UNL d   1      -0.603   0.422  -0.937  0.00  0.00     0.002 A 
ATOM      3  C5  UNL d   1      -1.044   0.589  -2.250  0.00  0.00     0.002 A 
ATOM      4  C6  UNL d   1      -0.204   0.272  -3.316  0.00  0.00    -0.004 A 
ATOM      5  C7  UNL d   1       1.081  -0.205  -3.067  0.00  0.00     0.002 A 
ATOM      6  C8  UNL d   1       1.523  -0.377  -1.754  0.00  0.00     0.002 A 
ENDROOT
BRANCH   1   7
ATOM      7  C2  UNL d   1       1.155  -0.284   0.744  0.00  0.00     0.056 C 
BRANCH   7   8
ATOM      8  C1  UNL d   1       0.943   0.928   1.658  0.00  0.00     0.007 C 
ATOM      9  C   UNL d   1      -0.025   0.655   2.801  0.00  0.00     0.009 C 
ENDBRANCH   7   8
ENDBRANCH   1   7
TORSDOF 2
ENDMDL
