MODEL 1
REMARK minimizedAffinity -2.28946161
REMARK minimizedRMSD -1
REMARK  2 active torsions:
REMARK  status: ('A' for Active; 'I' for Inactive)
REMARK    1  A    between atoms: C1_2  and  C2_3 
REMARK    2  A    between atoms: C2_3  and  C3_4 
ROOT
ATOM      1  C3  UNL d   1       0.305   0.055   0.113  0.00  0.00    -0.075 A 
ATOM      2  C4  UNL d   1      -0.737   0.426   0.976  0.00  0.00     0.002 A 
ATOM      3  C5  UNL d   1      -0.535   0.460   2.356  0.00  0.00     0.002 A 
ATOM      4  C6  UNL d   1       0.704   0.115   2.891  0.00  0.00    -0.004 A 
ATOM      5  C7  UNL d   1       1.741  -0.272   2.044  0.00  0.00     0.002 A 
ATOM      6  C8  UNL d   1       1.543  -0.303   0.663  0.00  0.00     0.002 A 
ENDROOT
BRANCH   1   7
ATOM      7  C2  UNL d   1       0.102   0.044  -1.383  0.00  0.00     0.056 C 
BRANCH   7   8
ATOM      8  C1  UNL d   1       1.211  -0.675  -2.158  0.00  0.00     0.007 C 
ATOM      9  C   UNL d   1       0.961  -0.722  -3.660  0.00  0.00     0.009 C 
ENDBRANCH   7   8
ENDBRANCH   1   7
TORSDOF 2
ENDMDL
