MODEL 1
REMARK minimizedAffinity -3.36873007
REMARK minimizedRMSD -1
REMARK  2 active torsions:
REMARK  status: ('A' for Active; 'I' for Inactive)
REMARK    1  A    between atoms: C1_2  and  C2_3 
REMARK    2  A    between atoms: C2_3  and  C3_4 
ROOT
ATOM      1  C3  UNL d   1      -1.105   0.505   0.997  0.00  0.00    -0.075 A 
ATOM      2  C4  UNL d   1      -0.500   0.415  -0.266  0.00  0.00     0.002 A 
ATOM      3  C5  UNL d   1       0.860   0.124  -0.380  0.00  0.00     0.002 A 
ATOM      4  C6  UNL d   1       1.632  -0.070   0.763  0.00  0.00    -0.004 A 
ATOM      5  C7  UNL d   1       1.046   0.034   2.022  0.00  0.00     0.002 A 
ATOM      6  C8  UNL d   1      -0.315   0.321   2.140  0.00  0.00     0.002 A 
ENDROOT
BRANCH   1   7
ATOM      7  C2  UNL d   1      -2.582   0.791   1.127  0.00  0.00     0.056 C 
BRANCH   7   8
ATOM      8  C1  UNL d   1      -3.033   1.105   2.557  0.00  0.00     0.007 C 
ATOM      9  C   UNL d   1      -4.088   2.200   2.627  0.00  0.00     0.009 C 
ENDBRANCH   7   8
ENDBRANCH   1   7
TORSDOF 2
ENDMDL
