MODEL 1
REMARK minimizedAffinity -3.08404088
REMARK minimizedRMSD -1
REMARK  2 active torsions:
REMARK  status: ('A' for Active; 'I' for Inactive)
REMARK    1  A    between atoms: C1_2  and  C2_3 
REMARK    2  A    between atoms: C2_3  and  C3_4 
ROOT
ATOM      1  C3  UNL d   1      -0.189   0.413  -0.035  0.00  0.00    -0.075 A 
ATOM      2  C4  UNL d   1      -1.578   0.594  -0.103  0.00  0.00     0.002 A 
ATOM      3  C5  UNL d   1      -2.320   0.815   1.057  0.00  0.00     0.002 A 
ATOM      4  C6  UNL d   1      -1.688   0.847   2.298  0.00  0.00    -0.004 A 
ATOM      5  C7  UNL d   1      -0.311   0.651   2.379  0.00  0.00     0.002 A 
ATOM      6  C8  UNL d   1       0.436   0.434   1.219  0.00  0.00     0.002 A 
ENDROOT
BRANCH   1   7
ATOM      7  C2  UNL d   1       0.625   0.203  -1.289  0.00  0.00     0.056 C 
BRANCH   7   8
ATOM      8  C1  UNL d   1       0.298  -1.095  -2.035  0.00  0.00     0.007 C 
ATOM      9  C   UNL d   1       1.333  -1.459  -3.091  0.00  0.00     0.009 C 
ENDBRANCH   7   8
ENDBRANCH   1   7
TORSDOF 2
ENDMDL
