MODEL 1
REMARK minimizedAffinity -4.54092836
REMARK minimizedRMSD -1
REMARK  2 active torsions:
REMARK  status: ('A' for Active; 'I' for Inactive)
REMARK    1  A    between atoms: C1_2  and  C2_3 
REMARK    2  A    between atoms: C2_3  and  C3_4 
ROOT
ATOM      1  C3  UNL d   1       0.527  -0.609  -1.698  0.00  0.00    -0.075 A 
ATOM      2  C4  UNL d   1       0.998  -1.602  -0.826  0.00  0.00     0.002 A 
ATOM      3  C5  UNL d   1       1.231  -1.311   0.519  0.00  0.00     0.002 A 
ATOM      4  C6  UNL d   1       1.007  -0.025   1.005  0.00  0.00    -0.004 A 
ATOM      5  C7  UNL d   1       0.556   0.973   0.145  0.00  0.00     0.002 A 
ATOM      6  C8  UNL d   1       0.317   0.684  -1.200  0.00  0.00     0.002 A 
ENDROOT
BRANCH   1   7
ATOM      7  C2  UNL d   1       0.244  -0.925  -3.147  0.00  0.00     0.056 C 
BRANCH   7   8
ATOM      8  C1  UNL d   1       1.494  -1.262  -3.967  0.00  0.00     0.007 C 
ATOM      9  C   UNL d   1       2.526  -0.143  -3.976  0.00  0.00     0.009 C 
ENDBRANCH   7   8
ENDBRANCH   1   7
TORSDOF 2
ENDMDL
