MODEL 1
REMARK minimizedAffinity -3.32843661
REMARK minimizedRMSD -1
REMARK  2 active torsions:
REMARK  status: ('A' for Active; 'I' for Inactive)
REMARK    1  A    between atoms: C1_2  and  C2_3 
REMARK    2  A    between atoms: C2_3  and  C3_4 
ROOT
ATOM      1  C3  UNL d   1       0.233  -0.239  -0.431  0.00  0.00    -0.075 A 
ATOM      2  C4  UNL d   1       1.147  -1.302  -0.398  0.00  0.00     0.002 A 
ATOM      3  C5  UNL d   1       1.689  -1.807  -1.580  0.00  0.00     0.002 A 
ATOM      4  C6  UNL d   1       1.318  -1.263  -2.808  0.00  0.00    -0.004 A 
ATOM      5  C7  UNL d   1       0.398  -0.218  -2.853  0.00  0.00     0.002 A 
ATOM      6  C8  UNL d   1      -0.143   0.292  -1.672  0.00  0.00     0.002 A 
ENDROOT
BRANCH   1   7
ATOM      7  C2  UNL d   1      -0.335   0.331   0.847  0.00  0.00     0.056 C 
BRANCH   7   8
ATOM      8  C1  UNL d   1       0.671   0.397   2.002  0.00  0.00     0.007 C 
ATOM      9  C   UNL d   1       0.029   0.745   3.338  0.00  0.00     0.009 C 
ENDBRANCH   7   8
ENDBRANCH   1   7
TORSDOF 2
ENDMDL
