MODEL 1
REMARK minimizedAffinity -1.05907011
REMARK minimizedRMSD -1
REMARK  0 active torsions:
REMARK  status: ('A' for Active; 'I' for Inactive)
ROOT
ATOM      1  C1  BNZ d   1       3.609   2.528   5.799  0.00  0.00     0.000 A 
ATOM      2  C2  BNZ d   1       4.783   3.223   5.919  0.00  0.00     0.000 A 
ATOM      3  C3  BNZ d   1       5.980   2.567   5.999  0.00  0.00     0.000 A 
ATOM      4  C4  BNZ d   1       5.998   1.219   5.999  0.00  0.00     0.000 A 
ATOM      5  C5  BNZ d   1       4.822   0.504   5.887  0.00  0.00     0.000 A 
ATOM      6  C6  BNZ d   1       3.623   1.168   5.768  0.00  0.00     0.000 A 
ENDROOT
TORSDOF 0
ENDMDL
