MODEL 1
REMARK minimizedAffinity 6.09130383
REMARK minimizedRMSD -1
REMARK  0 active torsions:
REMARK  status: ('A' for Active; 'I' for Inactive)
ROOT
ATOM      1  C1  BNZ d   1       6.000   3.721  -0.723  0.00  0.00     0.000 A 
ATOM      2  C2  BNZ d   1       5.255   3.057   0.215  0.00  0.00     0.000 A 
ATOM      3  C3  BNZ d   1       4.496   3.744   1.121  0.00  0.00     0.000 A 
ATOM      4  C4  BNZ d   1       4.515   5.093   1.113  0.00  0.00     0.000 A 
ATOM      5  C5  BNZ d   1       5.268   5.777   0.180  0.00  0.00     0.000 A 
ATOM      6  C6  BNZ d   1       6.000   5.082  -0.755  0.00  0.00     0.000 A 
ENDROOT
TORSDOF 0
ENDMDL
