MODEL 1
REMARK minimizedAffinity 12.7271519
REMARK minimizedRMSD -1
REMARK  0 active torsions:
REMARK  status: ('A' for Active; 'I' for Inactive)
ROOT
ATOM      1  C1  BNZ d   1       4.148   4.844   0.749  0.00  0.00     0.000 A 
ATOM      2  C2  BNZ d   1       5.087   5.519   0.016  0.00  0.00     0.000 A 
ATOM      3  C3  BNZ d   1       6.000   4.843  -0.744  0.00  0.00     0.000 A 
ATOM      4  C4  BNZ d   1       5.999   3.495  -0.739  0.00  0.00     0.000 A 
ATOM      5  C5  BNZ d   1       5.064   2.800   0.003  0.00  0.00     0.000 A 
ATOM      6  C6  BNZ d   1       4.122   3.484   0.736  0.00  0.00     0.000 A 
ENDROOT
TORSDOF 0
ENDMDL
