MODEL 1
REMARK minimizedAffinity 9.23525715
REMARK minimizedRMSD -1
REMARK  0 active torsions:
REMARK  status: ('A' for Active; 'I' for Inactive)
ROOT
ATOM      1  C1  BNZ d   1      -2.592  -5.998   4.897  0.00  0.00     0.000 A 
ATOM      2  C2  BNZ d   1      -2.523  -5.172   3.807  0.00  0.00     0.000 A 
ATOM      3  C3  BNZ d   1      -1.679  -4.097   3.796  0.00  0.00     0.000 A 
ATOM      4  C4  BNZ d   1      -0.936  -3.826   4.889  0.00  0.00     0.000 A 
ATOM      5  C5  BNZ d   1      -1.002  -4.644   5.999  0.00  0.00     0.000 A 
ATOM      6  C6  BNZ d   1      -1.824  -5.748   5.992  0.00  0.00     0.000 A 
ENDROOT
TORSDOF 0
ENDMDL
