MODEL 1
REMARK minimizedAffinity 10.7532349
REMARK minimizedRMSD -1
REMARK  0 active torsions:
REMARK  status: ('A' for Active; 'I' for Inactive)
ROOT
ATOM      1  C1  BNZ d   1      -3.126  -1.031  -1.987  0.00  0.00     0.000 A 
ATOM      2  C2  BNZ d   1      -2.889  -1.155  -3.330  0.00  0.00     0.000 A 
ATOM      3  C3  BNZ d   1      -2.071  -2.141  -3.809  0.00  0.00     0.000 A 
ATOM      4  C4  BNZ d   1      -1.460  -2.974  -2.942  0.00  0.00     0.000 A 
ATOM      5  C5  BNZ d   1      -1.681  -2.856  -1.584  0.00  0.00     0.000 A 
ATOM      6  C6  BNZ d   1      -2.536  -1.887  -1.109  0.00  0.00     0.000 A 
ENDROOT
TORSDOF 0
ENDMDL
