MODEL 1
REMARK minimizedAffinity 2.66740227
REMARK minimizedRMSD -1
REMARK  0 active torsions:
REMARK  status: ('A' for Active; 'I' for Inactive)
ROOT
ATOM      1  C1  BNZ d   1      -6.000   6.000  -1.258  0.00  0.00     0.000 A 
ATOM      2  C2  BNZ d   1      -5.999   5.467   0.004  0.00  0.00     0.000 A 
ATOM      3  C3  BNZ d   1      -4.861   4.929   0.536  0.00  0.00     0.000 A 
ATOM      4  C4  BNZ d   1      -3.737   4.887  -0.208  0.00  0.00     0.000 A 
ATOM      5  C5  BNZ d   1      -3.724   5.411  -1.485  0.00  0.00     0.000 A 
ATOM      6  C6  BNZ d   1      -4.861   5.988  -2.003  0.00  0.00     0.000 A 
ENDROOT
TORSDOF 0
ENDMDL
