MODEL 1
REMARK minimizedAffinity -1.27493
REMARK minimizedRMSD -1
REMARK  0 active torsions:
REMARK  status: ('A' for Active; 'I' for Inactive)
ROOT
ATOM      1  C1  BNZ d   1      -6.000   4.868   1.247  0.00  0.00     0.000 A 
ATOM      2  C2  BNZ d   1      -5.245   3.754   0.993  0.00  0.00     0.000 A 
ATOM      3  C3  BNZ d   1      -4.294   3.762   0.012  0.00  0.00     0.000 A 
ATOM      4  C4  BNZ d   1      -4.125   4.869  -0.740  0.00  0.00     0.000 A 
ATOM      5  C5  BNZ d   1      -4.884   5.998  -0.502  0.00  0.00     0.000 A 
ATOM      6  C6  BNZ d   1      -5.814   5.999   0.512  0.00  0.00     0.000 A 
ENDROOT
TORSDOF 0
ENDMDL
