MODEL 1
REMARK minimizedAffinity 9.17623997
REMARK minimizedRMSD -1
REMARK  0 active torsions:
REMARK  status: ('A' for Active; 'I' for Inactive)
ROOT
ATOM      1  C1  BNZ d   1      -5.028   3.942  -5.559  0.00  0.00     0.000 A 
ATOM      2  C2  BNZ d   1      -5.999   4.907  -5.605  0.00  0.00     0.000 A 
ATOM      3  C3  BNZ d   1      -5.997   5.945  -4.717  0.00  0.00     0.000 A 
ATOM      4  C4  BNZ d   1      -5.049   5.997  -3.759  0.00  0.00     0.000 A 
ATOM      5  C5  BNZ d   1      -4.069   5.027  -3.693  0.00  0.00     0.000 A 
ATOM      6  C6  BNZ d   1      -4.051   4.004  -4.614  0.00  0.00     0.000 A 
ENDROOT
TORSDOF 0
ENDMDL
