MODEL 1
REMARK minimizedAffinity 8.58196449
REMARK minimizedRMSD -1
REMARK  0 active torsions:
REMARK  status: ('A' for Active; 'I' for Inactive)
ROOT
ATOM      1  C1  BNZ d   1      -1.835  -1.320  -1.837  0.00  0.00     0.000 A 
ATOM      2  C2  BNZ d   1      -2.720  -1.232  -0.796  0.00  0.00     0.000 A 
ATOM      3  C3  BNZ d   1      -2.292  -1.341   0.498  0.00  0.00     0.000 A 
ATOM      4  C4  BNZ d   1      -0.988  -1.578   0.747  0.00  0.00     0.000 A 
ATOM      5  C5  BNZ d   1      -0.085  -1.678  -0.292  0.00  0.00     0.000 A 
ATOM      6  C6  BNZ d   1      -0.512  -1.529  -1.591  0.00  0.00     0.000 A 
ENDROOT
TORSDOF 0
ENDMDL
