MODEL 1
REMARK minimizedAffinity -0.341496557
REMARK minimizedRMSD -1
REMARK  0 active torsions:
REMARK  status: ('A' for Active; 'I' for Inactive)
ROOT
ATOM      1  C1  BNZ d   1      -4.548   5.887  -1.459  0.00  0.00     0.000 A 
ATOM      2  C2  BNZ d   1      -3.506   5.501  -0.658  0.00  0.00     0.000 A 
ATOM      3  C3  BNZ d   1      -3.708   5.215   0.663  0.00  0.00     0.000 A 
ATOM      4  C4  BNZ d   1      -4.941   5.353   1.191  0.00  0.00     0.000 A 
ATOM      5  C5  BNZ d   1      -6.000   5.750   0.399  0.00  0.00     0.000 A 
ATOM      6  C6  BNZ d   1      -5.801   6.000  -0.940  0.00  0.00     0.000 A 
ENDROOT
TORSDOF 0
ENDMDL
