MODEL 1
REMARK minimizedAffinity 12.6659842
REMARK minimizedRMSD -1
REMARK  0 active torsions:
REMARK  status: ('A' for Active; 'I' for Inactive)
ROOT
ATOM      1  C1  BNZ d   1       6.000  -0.905  -3.555  0.00  0.00     0.000 A 
ATOM      2  C2  BNZ d   1       4.894  -1.672  -3.302  0.00  0.00     0.000 A 
ATOM      3  C3  BNZ d   1       3.776  -1.123  -2.738  0.00  0.00     0.000 A 
ATOM      4  C4  BNZ d   1       3.780   0.181  -2.393  0.00  0.00     0.000 A 
ATOM      5  C5  BNZ d   1       4.890   0.965  -2.633  0.00  0.00     0.000 A 
ATOM      6  C6  BNZ d   1       6.000   0.418  -3.236  0.00  0.00     0.000 A 
ENDROOT
TORSDOF 0
ENDMDL
