MODEL 1
REMARK minimizedAffinity 4.2032733
REMARK minimizedRMSD -1
REMARK  0 active torsions:
REMARK  status: ('A' for Active; 'I' for Inactive)
ROOT
ATOM      1  C1  BNZ d   1       3.957   4.363   0.391  0.00  0.00     0.000 A 
ATOM      2  C2  BNZ d   1       3.838   3.004   0.274  0.00  0.00     0.000 A 
ATOM      3  C3  BNZ d   1       4.696   2.292  -0.516  0.00  0.00     0.000 A 
ATOM      4  C4  BNZ d   1       5.646   2.943  -1.219  0.00  0.00     0.000 A 
ATOM      5  C5  BNZ d   1       5.773   4.314  -1.118  0.00  0.00     0.000 A 
ATOM      6  C6  BNZ d   1       4.932   5.023  -0.292  0.00  0.00     0.000 A 
ENDROOT
TORSDOF 0
ENDMDL
