MODEL 1
REMARK minimizedAffinity 7.11350584
REMARK minimizedRMSD -1
REMARK  0 active torsions:
REMARK  status: ('A' for Active; 'I' for Inactive)
ROOT
ATOM      1  C1  BNZ d   1      -1.229  -3.077   1.535  0.00  0.00     0.000 A 
ATOM      2  C2  BNZ d   1      -2.075  -2.106   2.000  0.00  0.00     0.000 A 
ATOM      3  C3  BNZ d   1      -2.778  -1.316   1.134  0.00  0.00     0.000 A 
ATOM      4  C4  BNZ d   1      -2.602  -1.469  -0.195  0.00  0.00     0.000 A 
ATOM      5  C5  BNZ d   1      -1.745  -2.437  -0.679  0.00  0.00     0.000 A 
ATOM      6  C6  BNZ d   1      -1.069  -3.257   0.195  0.00  0.00     0.000 A 
ENDROOT
TORSDOF 0
ENDMDL
