MODEL 1
REMARK minimizedAffinity 2.54744363
REMARK minimizedRMSD -1
REMARK  0 active torsions:
REMARK  status: ('A' for Active; 'I' for Inactive)
ROOT
ATOM      1  C1  BNZ d   1      -2.087  -1.429  -0.361  0.00  0.00     0.000 A 
ATOM      2  C2  BNZ d   1      -0.982  -2.239  -0.338  0.00  0.00     0.000 A 
ATOM      3  C3  BNZ d   1      -0.566  -2.821   0.827  0.00  0.00     0.000 A 
ATOM      4  C4  BNZ d   1      -1.230  -2.562   1.972  0.00  0.00     0.000 A 
ATOM      5  C5  BNZ d   1      -2.340  -1.740   1.966  0.00  0.00     0.000 A 
ATOM      6  C6  BNZ d   1      -2.779  -1.187   0.785  0.00  0.00     0.000 A 
ENDROOT
TORSDOF 0
ENDMDL
