MODEL 1
REMARK minimizedAffinity 4.08865261
REMARK minimizedRMSD -1
REMARK  0 active torsions:
REMARK  status: ('A' for Active; 'I' for Inactive)
ROOT
ATOM      1  C1  BNZ d   1      -1.491  -0.716   5.954  0.00  0.00     0.000 A 
ATOM      2  C2  BNZ d   1      -2.090  -1.947   5.987  0.00  0.00     0.000 A 
ATOM      3  C3  BNZ d   1      -3.452  -2.062   5.989  0.00  0.00     0.000 A 
ATOM      4  C4  BNZ d   1      -4.212  -0.947   6.000  0.00  0.00     0.000 A 
ATOM      5  C5  BNZ d   1      -3.622   0.301   5.977  0.00  0.00     0.000 A 
ATOM      6  C6  BNZ d   1      -2.251   0.412   5.935  0.00  0.00     0.000 A 
ENDROOT
TORSDOF 0
ENDMDL
