MODEL 1
REMARK minimizedAffinity 5.42521906
REMARK minimizedRMSD -1
REMARK  0 active torsions:
REMARK  status: ('A' for Active; 'I' for Inactive)
ROOT
ATOM      1  C1  BNZ d   1      -2.792  -1.262   0.312  0.00  0.00     0.000 A 
ATOM      2  C2  BNZ d   1      -2.609  -2.161   1.330  0.00  0.00     0.000 A 
ATOM      3  C3  BNZ d   1      -1.601  -3.082   1.278  0.00  0.00     0.000 A 
ATOM      4  C4  BNZ d   1      -0.802  -3.130   0.192  0.00  0.00     0.000 A 
ATOM      5  C5  BNZ d   1      -0.979  -2.237  -0.846  0.00  0.00     0.000 A 
ATOM      6  C6  BNZ d   1      -1.971  -1.286  -0.773  0.00  0.00     0.000 A 
ENDROOT
TORSDOF 0
ENDMDL
