MODEL 1
REMARK minimizedAffinity 3.97164392
REMARK minimizedRMSD -1
REMARK  0 active torsions:
REMARK  status: ('A' for Active; 'I' for Inactive)
ROOT
ATOM      1  C1  BNZ d   1      -2.255   0.038   5.625  0.00  0.00     0.000 A 
ATOM      2  C2  BNZ d   1      -1.279  -0.737   5.058  0.00  0.00     0.000 A 
ATOM      3  C3  BNZ d   1      -1.480  -2.073   4.851  0.00  0.00     0.000 A 
ATOM      4  C4  BNZ d   1      -2.638  -2.639   5.247  0.00  0.00     0.000 A 
ATOM      5  C5  BNZ d   1      -3.628  -1.872   5.828  0.00  0.00     0.000 A 
ATOM      6  C6  BNZ d   1      -3.438  -0.520   6.000  0.00  0.00     0.000 A 
ENDROOT
TORSDOF 0
ENDMDL
