MODEL 1
REMARK minimizedAffinity 3.80284357
REMARK minimizedRMSD -1
REMARK  2 active torsions:
REMARK  status: ('A' for Active; 'I' for Inactive)
REMARK    1  A    between atoms: C1_2  and  C2_3 
REMARK    2  A    between atoms: C2_3  and  C3_4 
ROOT
ATOM      1  C3  UNL d   1       4.192   2.091  -4.691  0.00  0.00    -0.075 A 
ATOM      2  C4  UNL d   1       3.350   2.852  -3.866  0.00  0.00     0.002 A 
ATOM      3  C5  UNL d   1       3.835   3.411  -2.683  0.00  0.00     0.002 A 
ATOM      4  C6  UNL d   1       5.160   3.207  -2.304  0.00  0.00    -0.004 A 
ATOM      5  C7  UNL d   1       6.000   2.438  -3.107  0.00  0.00     0.002 A 
ATOM      6  C8  UNL d   1       5.519   1.882  -4.294  0.00  0.00     0.002 A 
ENDROOT
BRANCH   1   7
ATOM      7  C2  UNL d   1       3.682   1.508  -5.987  0.00  0.00     0.056 C 
BRANCH   7   8
ATOM      8  C1  UNL d   1       2.173   1.240  -6.000  0.00  0.00     0.007 C 
ATOM      9  C   UNL d   1       1.817  -0.202  -5.663  0.00  0.00     0.009 C 
ENDBRANCH   7   8
ENDBRANCH   1   7
TORSDOF 2
ENDMDL
