MODEL 1
REMARK minimizedAffinity 0.707390964
REMARK minimizedRMSD -1
REMARK  2 active torsions:
REMARK  status: ('A' for Active; 'I' for Inactive)
REMARK    1  A    between atoms: C1_2  and  C2_3 
REMARK    2  A    between atoms: C2_3  and  C3_4 
ROOT
ATOM      1  C3  UNL d   1      -0.367   3.854  -5.978  0.00  0.00    -0.075 A 
ATOM      2  C4  UNL d   1       0.576   4.891  -5.991  0.00  0.00     0.002 A 
ATOM      3  C5  UNL d   1       1.942   4.606  -6.000  0.00  0.00     0.002 A 
ATOM      4  C6  UNL d   1       2.381   3.284  -5.985  0.00  0.00    -0.004 A 
ATOM      5  C7  UNL d   1       1.453   2.246  -5.955  0.00  0.00     0.002 A 
ATOM      6  C8  UNL d   1       0.086   2.528  -5.951  0.00  0.00     0.002 A 
ENDROOT
BRANCH   1   7
ATOM      7  C2  UNL d   1      -1.847   4.155  -5.999  0.00  0.00     0.056 C 
BRANCH   7   8
ATOM      8  C1  UNL d   1      -2.737   2.908  -6.000  0.00  0.00     0.007 C 
ATOM      9  C   UNL d   1      -4.225   3.232  -5.984  0.00  0.00     0.009 C 
ENDBRANCH   7   8
ENDBRANCH   1   7
TORSDOF 2
ENDMDL
