MODEL 1
REMARK minimizedAffinity -3.12008739
REMARK minimizedRMSD -1
REMARK  2 active torsions:
REMARK  status: ('A' for Active; 'I' for Inactive)
REMARK    1  A    between atoms: C1_2  and  C2_3 
REMARK    2  A    between atoms: C2_3  and  C3_4 
ROOT
ATOM      1  C3  UNL d   1      -0.644   3.869  -5.891  0.00  0.00    -0.075 A 
ATOM      2  C4  UNL d   1      -1.247   5.135  -5.915  0.00  0.00     0.002 A 
ATOM      3  C5  UNL d   1      -2.636   5.258  -5.956  0.00  0.00     0.002 A 
ATOM      4  C6  UNL d   1      -3.438   4.120  -5.985  0.00  0.00    -0.004 A 
ATOM      5  C7  UNL d   1      -2.850   2.857  -5.979  0.00  0.00     0.002 A 
ATOM      6  C8  UNL d   1      -1.461   2.731  -5.933  0.00  0.00     0.002 A 
ENDROOT
BRANCH   1   7
ATOM      7  C2  UNL d   1       0.857   3.728  -5.817  0.00  0.00     0.056 C 
BRANCH   7   8
ATOM      8  C1  UNL d   1       1.616   5.049  -5.985  0.00  0.00     0.007 C 
ATOM      9  C   UNL d   1       3.129   4.877  -5.982  0.00  0.00     0.009 C 
ENDBRANCH   7   8
ENDBRANCH   1   7
TORSDOF 2
ENDMDL
