MODEL 1
REMARK minimizedAffinity -1.85661685
REMARK minimizedRMSD -1
REMARK  2 active torsions:
REMARK  status: ('A' for Active; 'I' for Inactive)
REMARK    1  A    between atoms: C1_2  and  C2_3 
REMARK    2  A    between atoms: C2_3  and  C3_4 
ROOT
ATOM      1  C3  UNL d   1      -1.049   3.679  -5.949  0.00  0.00    -0.075 A 
ATOM      2  C4  UNL d   1      -0.640   5.021  -5.937  0.00  0.00     0.002 A 
ATOM      3  C5  UNL d   1       0.716   5.349  -5.967  0.00  0.00     0.002 A 
ATOM      4  C6  UNL d   1       1.678   4.342  -5.999  0.00  0.00    -0.004 A 
ATOM      5  C7  UNL d   1       1.284   3.006  -5.995  0.00  0.00     0.002 A 
ATOM      6  C8  UNL d   1      -0.072   2.675  -5.969  0.00  0.00     0.002 A 
ENDROOT
BRANCH   1   7
ATOM      7  C2  UNL d   1      -2.515   3.318  -5.946  0.00  0.00     0.056 C 
BRANCH   7   8
ATOM      8  C1  UNL d   1      -3.455   4.528  -5.982  0.00  0.00     0.007 C 
ATOM      9  C   UNL d   1      -4.875   4.198  -5.541  0.00  0.00     0.009 C 
ENDBRANCH   7   8
ENDBRANCH   1   7
TORSDOF 2
ENDMDL
