MODEL 1
REMARK minimizedAffinity 1.19886959
REMARK minimizedRMSD -1
REMARK  2 active torsions:
REMARK  status: ('A' for Active; 'I' for Inactive)
REMARK    1  A    between atoms: C1_2  and  C2_3 
REMARK    2  A    between atoms: C2_3  and  C3_4 
ROOT
ATOM      1  C3  UNL d   1      -1.492   3.659  -5.993  0.00  0.00    -0.075 A 
ATOM      2  C4  UNL d   1      -1.151   5.019  -5.998  0.00  0.00     0.002 A 
ATOM      3  C5  UNL d   1      -2.144   5.998  -5.967  0.00  0.00     0.002 A 
ATOM      4  C6  UNL d   1      -3.488   5.632  -5.940  0.00  0.00    -0.004 A 
ATOM      5  C7  UNL d   1      -3.838   4.283  -5.951  0.00  0.00     0.002 A 
ATOM      6  C8  UNL d   1      -2.847   3.301  -5.978  0.00  0.00     0.002 A 
ENDROOT
BRANCH   1   7
ATOM      7  C2  UNL d   1      -0.421   2.594  -5.998  0.00  0.00     0.056 C 
BRANCH   7   8
ATOM      8  C1  UNL d   1       1.007   3.145  -5.923  0.00  0.00     0.007 C 
ATOM      9  C   UNL d   1       2.073   2.060  -5.998  0.00  0.00     0.009 C 
ENDBRANCH   7   8
ENDBRANCH   1   7
TORSDOF 2
ENDMDL
