MODEL 1
REMARK minimizedAffinity -0.556863904
REMARK minimizedRMSD -1
REMARK  2 active torsions:
REMARK  status: ('A' for Active; 'I' for Inactive)
REMARK    1  A    between atoms: C1_2  and  C2_3 
REMARK    2  A    between atoms: C2_3  and  C3_4 
ROOT
ATOM      1  C3  UNL d   1      -2.446   4.283  -5.962  0.00  0.00    -0.075 A 
ATOM      2  C4  UNL d   1      -1.556   3.199  -5.987  0.00  0.00     0.002 A 
ATOM      3  C5  UNL d   1      -0.178   3.415  -5.999  0.00  0.00     0.002 A 
ATOM      4  C6  UNL d   1       0.327   4.713  -5.998  0.00  0.00    -0.004 A 
ATOM      5  C7  UNL d   1      -0.548   5.797  -5.990  0.00  0.00     0.002 A 
ATOM      6  C8  UNL d   1      -1.928   5.584  -5.973  0.00  0.00     0.002 A 
ENDROOT
BRANCH   1   7
ATOM      7  C2  UNL d   1      -3.939   4.056  -5.918  0.00  0.00     0.056 C 
BRANCH   7   8
ATOM      8  C1  UNL d   1      -4.708   5.116  -5.123  0.00  0.00     0.007 C 
ATOM      9  C   UNL d   1      -5.591   5.997  -5.997  0.00  0.00     0.009 C 
ENDBRANCH   7   8
ENDBRANCH   1   7
TORSDOF 2
ENDMDL
