MODEL 1
REMARK minimizedAffinity 3.4948101
REMARK minimizedRMSD -1
REMARK  2 active torsions:
REMARK  status: ('A' for Active; 'I' for Inactive)
REMARK    1  A    between atoms: C1_2  and  C2_3 
REMARK    2  A    between atoms: C2_3  and  C3_4 
ROOT
ATOM      1  C3  UNL d   1      -1.513   3.928  -5.972  0.00  0.00    -0.075 A 
ATOM      2  C4  UNL d   1      -1.088   2.592  -5.990  0.00  0.00     0.002 A 
ATOM      3  C5  UNL d   1       0.273   2.282  -5.999  0.00  0.00     0.002 A 
ATOM      4  C6  UNL d   1       1.223   3.301  -5.999  0.00  0.00    -0.004 A 
ATOM      5  C7  UNL d   1       0.811   4.632  -5.998  0.00  0.00     0.002 A 
ATOM      6  C8  UNL d   1      -0.549   4.945  -5.985  0.00  0.00     0.002 A 
ENDROOT
BRANCH   1   7
ATOM      7  C2  UNL d   1      -2.983   4.271  -5.932  0.00  0.00     0.056 C 
BRANCH   7   8
ATOM      8  C1  UNL d   1      -3.909   3.050  -5.967  0.00  0.00     0.007 C 
ATOM      9  C   UNL d   1      -5.386   3.417  -5.999  0.00  0.00     0.009 C 
ENDBRANCH   7   8
ENDBRANCH   1   7
TORSDOF 2
ENDMDL
