MODEL 1
REMARK minimizedAffinity 0.276267886
REMARK minimizedRMSD -1
REMARK  2 active torsions:
REMARK  status: ('A' for Active; 'I' for Inactive)
REMARK    1  A    between atoms: C1_2  and  C2_3 
REMARK    2  A    between atoms: C2_3  and  C3_4 
ROOT
ATOM      1  C3  UNL d   1       0.548   4.612  -5.899  0.00  0.00    -0.075 A 
ATOM      2  C4  UNL d   1       0.526   3.211  -5.847  0.00  0.00     0.002 A 
ATOM      3  C5  UNL d   1      -0.686   2.523  -5.788  0.00  0.00     0.002 A 
ATOM      4  C6  UNL d   1      -1.889   3.225  -5.770  0.00  0.00    -0.004 A 
ATOM      5  C7  UNL d   1      -1.879   4.618  -5.805  0.00  0.00     0.002 A 
ATOM      6  C8  UNL d   1      -0.668   5.309  -5.868  0.00  0.00     0.002 A 
ENDROOT
BRANCH   1   7
ATOM      7  C2  UNL d   1       1.855   5.362  -5.993  0.00  0.00     0.056 C 
BRANCH   7   8
ATOM      8  C1  UNL d   1       3.093   4.458  -5.999  0.00  0.00     0.007 C 
ATOM      9  C   UNL d   1       4.401   5.231  -5.892  0.00  0.00     0.009 C 
ENDBRANCH   7   8
ENDBRANCH   1   7
TORSDOF 2
ENDMDL
