MODEL 1
REMARK minimizedAffinity 3.08838153
REMARK minimizedRMSD -1
REMARK  2 active torsions:
REMARK  status: ('A' for Active; 'I' for Inactive)
REMARK    1  A    between atoms: C1_2  and  C2_3 
REMARK    2  A    between atoms: C2_3  and  C3_4 
ROOT
ATOM      1  C3  UNL d   1       3.590   3.579  -5.865  0.00  0.00    -0.075 A 
ATOM      2  C4  UNL d   1       3.399   4.965  -5.967  0.00  0.00     0.002 A 
ATOM      3  C5  UNL d   1       4.484   5.838  -5.881  0.00  0.00     0.002 A 
ATOM      4  C6  UNL d   1       5.769   5.338  -5.683  0.00  0.00    -0.004 A 
ATOM      5  C7  UNL d   1       5.969   3.965  -5.563  0.00  0.00     0.002 A 
ATOM      6  C8  UNL d   1       4.885   3.089  -5.653  0.00  0.00     0.002 A 
ENDROOT
BRANCH   1   7
ATOM      7  C2  UNL d   1       2.424   2.628  -5.986  0.00  0.00     0.056 C 
BRANCH   7   8
ATOM      8  C1  UNL d   1       1.055   3.317  -6.000  0.00  0.00     0.007 C 
ATOM      9  C   UNL d   1      -0.111   2.338  -5.996  0.00  0.00     0.009 C 
ENDBRANCH   7   8
ENDBRANCH   1   7
TORSDOF 2
ENDMDL
