MODEL 1
REMARK minimizedAffinity -1.77630711
REMARK minimizedRMSD -1
REMARK  2 active torsions:
REMARK  status: ('A' for Active; 'I' for Inactive)
REMARK    1  A    between atoms: C1_2  and  C2_3 
REMARK    2  A    between atoms: C2_3  and  C3_4 
ROOT
ATOM      1  C3  UNL d   1      -1.451   3.577  -5.889  0.00  0.00    -0.075 A 
ATOM      2  C4  UNL d   1      -2.851   3.503  -5.927  0.00  0.00     0.002 A 
ATOM      3  C5  UNL d   1      -3.620   4.666  -5.987  0.00  0.00     0.002 A 
ATOM      4  C6  UNL d   1      -3.001   5.914  -6.000  0.00  0.00    -0.004 A 
ATOM      5  C7  UNL d   1      -1.612   5.999  -5.945  0.00  0.00     0.002 A 
ATOM      6  C8  UNL d   1      -0.839   4.838  -5.890  0.00  0.00     0.002 A 
ENDROOT
BRANCH   1   7
ATOM      7  C2  UNL d   1      -0.612   2.322  -5.854  0.00  0.00     0.056 C 
BRANCH   7   8
ATOM      8  C1  UNL d   1       0.893   2.581  -5.721  0.00  0.00     0.007 C 
ATOM      9  C   UNL d   1       1.380   2.562  -4.279  0.00  0.00     0.009 C 
ENDBRANCH   7   8
ENDBRANCH   1   7
TORSDOF 2
ENDMDL
