MODEL 1
REMARK minimizedAffinity -3.08528519
REMARK minimizedRMSD -1
REMARK  2 active torsions:
REMARK  status: ('A' for Active; 'I' for Inactive)
REMARK    1  A    between atoms: C1_2  and  C2_3 
REMARK    2  A    between atoms: C2_3  and  C3_4 
ROOT
ATOM      1  C3  UNL d   1      -1.805   3.544  -5.968  0.00  0.00    -0.075 A 
ATOM      2  C4  UNL d   1      -3.207   3.584  -5.947  0.00  0.00     0.002 A 
ATOM      3  C5  UNL d   1      -3.880   4.806  -5.966  0.00  0.00     0.002 A 
ATOM      4  C6  UNL d   1      -3.163   6.000  -5.996  0.00  0.00    -0.004 A 
ATOM      5  C7  UNL d   1      -1.770   5.972  -6.000  0.00  0.00     0.002 A 
ATOM      6  C8  UNL d   1      -1.094   4.751  -5.985  0.00  0.00     0.002 A 
ENDROOT
BRANCH   1   7
ATOM      7  C2  UNL d   1      -1.070   2.225  -5.977  0.00  0.00     0.056 C 
BRANCH   7   8
ATOM      8  C1  UNL d   1       0.413   2.334  -5.609  0.00  0.00     0.007 C 
ATOM      9  C   UNL d   1       0.651   2.468  -4.111  0.00  0.00     0.009 C 
ENDBRANCH   7   8
ENDBRANCH   1   7
TORSDOF 2
ENDMDL
