MODEL 1
REMARK minimizedAffinity -1.13494325
REMARK minimizedRMSD -1
REMARK  2 active torsions:
REMARK  status: ('A' for Active; 'I' for Inactive)
REMARK    1  A    between atoms: C1_2  and  C2_3 
REMARK    2  A    between atoms: C2_3  and  C3_4 
ROOT
ATOM      1  C3  UNL d   1      -2.305   3.920  -5.214  0.00  0.00    -0.075 A 
ATOM      2  C4  UNL d   1      -2.186   5.318  -5.222  0.00  0.00     0.002 A 
ATOM      3  C5  UNL d   1      -0.994   5.925  -5.617  0.00  0.00     0.002 A 
ATOM      4  C6  UNL d   1       0.095   5.146  -6.000  0.00  0.00    -0.004 A 
ATOM      5  C7  UNL d   1      -0.006   3.756  -5.980  0.00  0.00     0.002 A 
ATOM      6  C8  UNL d   1      -1.199   3.146  -5.589  0.00  0.00     0.002 A 
ENDROOT
BRANCH   1   7
ATOM      7  C2  UNL d   1      -3.601   3.257  -4.816  0.00  0.00     0.056 C 
BRANCH   7   8
ATOM      8  C1  UNL d   1      -4.490   2.862  -6.000  0.00  0.00     0.007 C 
ATOM      9  C   UNL d   1      -5.863   3.519  -5.966  0.00  0.00     0.009 C 
ENDBRANCH   7   8
ENDBRANCH   1   7
TORSDOF 2
ENDMDL
