MODEL 1
REMARK minimizedAffinity 9.33468246
REMARK minimizedRMSD -1
REMARK  2 active torsions:
REMARK  status: ('A' for Active; 'I' for Inactive)
REMARK    1  A    between atoms: C1_2  and  C2_3 
REMARK    2  A    between atoms: C2_3  and  C3_4 
ROOT
ATOM      1  C3  UNL d   1      -1.330  -2.470  -0.739  0.00  0.00    -0.075 A 
ATOM      2  C4  UNL d   1      -1.160  -2.708   0.632  0.00  0.00     0.002 A 
ATOM      3  C5  UNL d   1      -0.613  -1.726   1.459  0.00  0.00     0.002 A 
ATOM      4  C6  UNL d   1      -0.220  -0.501   0.925  0.00  0.00    -0.004 A 
ATOM      5  C7  UNL d   1      -0.369  -0.260  -0.439  0.00  0.00     0.002 A 
ATOM      6  C8  UNL d   1      -0.921  -1.239  -1.268  0.00  0.00     0.002 A 
ENDROOT
BRANCH   1   7
ATOM      7  C2  UNL d   1      -1.949  -3.517  -1.634  0.00  0.00     0.056 C 
BRANCH   7   8
ATOM      8  C1  UNL d   1      -2.728  -4.600  -0.881  0.00  0.00     0.007 C 
ATOM      9  C   UNL d   1      -4.203  -4.265  -0.703  0.00  0.00     0.009 C 
ENDBRANCH   7   8
ENDBRANCH   1   7
TORSDOF 2
ENDMDL
