MODEL 1
REMARK minimizedAffinity 1.34562194
REMARK minimizedRMSD -1
REMARK  2 active torsions:
REMARK  status: ('A' for Active; 'I' for Inactive)
REMARK    1  A    between atoms: C1_2  and  C2_3 
REMARK    2  A    between atoms: C2_3  and  C3_4 
ROOT
ATOM      1  C3  UNL d   1      -0.188   4.256  -5.953  0.00  0.00    -0.075 A 
ATOM      2  C4  UNL d   1      -0.931   5.443  -5.878  0.00  0.00     0.002 A 
ATOM      3  C5  UNL d   1      -2.325   5.404  -5.825  0.00  0.00     0.002 A 
ATOM      4  C6  UNL d   1      -2.992   4.182  -5.855  0.00  0.00    -0.004 A 
ATOM      5  C7  UNL d   1      -2.265   2.997  -5.945  0.00  0.00     0.002 A 
ATOM      6  C8  UNL d   1      -0.870   3.033  -5.995  0.00  0.00     0.002 A 
ENDROOT
BRANCH   1   7
ATOM      7  C2  UNL d   1       1.321   4.289  -5.982  0.00  0.00     0.056 C 
BRANCH   7   8
ATOM      8  C1  UNL d   1       1.976   2.904  -5.982  0.00  0.00     0.007 C 
ATOM      9  C   UNL d   1       3.498   2.959  -5.985  0.00  0.00     0.009 C 
ENDBRANCH   7   8
ENDBRANCH   1   7
TORSDOF 2
ENDMDL
