MODEL 1
REMARK minimizedAffinity -0.45215562
REMARK minimizedRMSD -1
REMARK  2 active torsions:
REMARK  status: ('A' for Active; 'I' for Inactive)
REMARK    1  A    between atoms: C1_2  and  C2_3 
REMARK    2  A    between atoms: C2_3  and  C3_4 
ROOT
ATOM      1  C3  UNL d   1      -1.620   3.994  -5.995  0.00  0.00    -0.075 A 
ATOM      2  C4  UNL d   1      -1.975   5.351  -6.000  0.00  0.00     0.002 A 
ATOM      3  C5  UNL d   1      -3.317   5.732  -5.987  0.00  0.00     0.002 A 
ATOM      4  C6  UNL d   1      -4.319   4.764  -5.980  0.00  0.00    -0.004 A 
ATOM      5  C7  UNL d   1      -3.978   3.413  -5.992  0.00  0.00     0.002 A 
ATOM      6  C8  UNL d   1      -2.635   3.029  -6.000  0.00  0.00     0.002 A 
ENDROOT
BRANCH   1   7
ATOM      7  C2  UNL d   1      -0.169   3.575  -5.979  0.00  0.00     0.056 C 
BRANCH   7   8
ATOM      8  C1  UNL d   1       0.741   4.509  -5.173  0.00  0.00     0.007 C 
ATOM      9  C   UNL d   1       1.877   5.099  -5.999  0.00  0.00     0.009 C 
ENDBRANCH   7   8
ENDBRANCH   1   7
TORSDOF 2
ENDMDL
