MODEL 1
REMARK minimizedAffinity -0.980199099
REMARK minimizedRMSD -1
REMARK  2 active torsions:
REMARK  status: ('A' for Active; 'I' for Inactive)
REMARK    1  A    between atoms: C1_2  and  C2_3 
REMARK    2  A    between atoms: C2_3  and  C3_4 
ROOT
ATOM      1  C3  UNL d   1      -0.741   4.096  -5.938  0.00  0.00    -0.075 A 
ATOM      2  C4  UNL d   1      -1.288   5.386  -5.986  0.00  0.00     0.002 A 
ATOM      3  C5  UNL d   1      -2.671   5.569  -5.992  0.00  0.00     0.002 A 
ATOM      4  C6  UNL d   1      -3.523   4.467  -5.960  0.00  0.00    -0.004 A 
ATOM      5  C7  UNL d   1      -2.990   3.180  -5.929  0.00  0.00     0.002 A 
ATOM      6  C8  UNL d   1      -1.606   2.994  -5.918  0.00  0.00     0.002 A 
ENDROOT
BRANCH   1   7
ATOM      7  C2  UNL d   1       0.755   3.892  -5.902  0.00  0.00     0.056 C 
BRANCH   7   8
ATOM      8  C1  UNL d   1       1.564   5.192  -5.976  0.00  0.00     0.007 C 
ATOM      9  C   UNL d   1       3.069   4.964  -5.955  0.00  0.00     0.009 C 
ENDBRANCH   7   8
ENDBRANCH   1   7
TORSDOF 2
ENDMDL
