MODEL 1
REMARK minimizedAffinity -4.90795994
REMARK minimizedRMSD -1
REMARK  2 active torsions:
REMARK  status: ('A' for Active; 'I' for Inactive)
REMARK    1  A    between atoms: C1_2  and  C2_3 
REMARK    2  A    between atoms: C2_3  and  C3_4 
ROOT
ATOM      1  C3  UNL d   1       0.188   0.118   0.284  0.00  0.00    -0.075 A 
ATOM      2  C4  UNL d   1       0.862   0.308   1.499  0.00  0.00     0.002 A 
ATOM      3  C5  UNL d   1       0.417   1.261   2.415  0.00  0.00     0.002 A 
ATOM      4  C6  UNL d   1      -0.699   2.043   2.123  0.00  0.00    -0.004 A 
ATOM      5  C7  UNL d   1      -1.366   1.876   0.912  0.00  0.00     0.002 A 
ATOM      6  C8  UNL d   1      -0.925   0.919  -0.004  0.00  0.00     0.002 A 
ENDROOT
BRANCH   1   7
ATOM      7  C2  UNL d   1       0.647  -0.932  -0.699  0.00  0.00     0.056 C 
BRANCH   7   8
ATOM      8  C1  UNL d   1      -0.079  -2.274  -0.562  0.00  0.00     0.007 C 
ATOM      9  C   UNL d   1       0.848  -3.475  -0.694  0.00  0.00     0.009 C 
ENDBRANCH   7   8
ENDBRANCH   1   7
TORSDOF 2
ENDMDL
