MODEL 1
REMARK minimizedAffinity -5.25061846
REMARK minimizedRMSD -1
REMARK  2 active torsions:
REMARK  status: ('A' for Active; 'I' for Inactive)
REMARK    1  A    between atoms: C1_2  and  C2_3 
REMARK    2  A    between atoms: C2_3  and  C3_4 
ROOT
ATOM      1  C3  UNL d   1      -0.050   0.983  -0.269  0.00  0.00    -0.075 A 
ATOM      2  C4  UNL d   1      -0.451   2.189  -0.861  0.00  0.00     0.002 A 
ATOM      3  C5  UNL d   1      -0.756   3.298  -0.071  0.00  0.00     0.002 A 
ATOM      4  C6  UNL d   1      -0.674   3.213   1.317  0.00  0.00    -0.004 A 
ATOM      5  C7  UNL d   1      -0.292   2.015   1.916  0.00  0.00     0.002 A 
ATOM      6  C8  UNL d   1       0.018   0.905   1.129  0.00  0.00     0.002 A 
ENDROOT
BRANCH   1   7
ATOM      7  C2  UNL d   1       0.310  -0.213  -1.118  0.00  0.00     0.056 C 
BRANCH   7   8
ATOM      8  C1  UNL d   1       0.049  -1.562  -0.440  0.00  0.00     0.007 C 
ATOM      9  C   UNL d   1       0.028  -2.730  -1.416  0.00  0.00     0.009 C 
ENDBRANCH   7   8
ENDBRANCH   1   7
TORSDOF 2
ENDMDL
