MODEL 1
REMARK minimizedAffinity -6.3658309
REMARK minimizedRMSD -1
REMARK  2 active torsions:
REMARK  status: ('A' for Active; 'I' for Inactive)
REMARK    1  A    between atoms: C1_2  and  C2_3 
REMARK    2  A    between atoms: C2_3  and  C3_4 
ROOT
ATOM      1  C3  UNL d   1      -0.167   0.450  -0.199  0.00  0.00    -0.075 A 
ATOM      2  C4  UNL d   1      -0.074  -0.094   1.090  0.00  0.00     0.002 A 
ATOM      3  C5  UNL d   1      -0.333   0.694   2.212  0.00  0.00     0.002 A 
ATOM      4  C6  UNL d   1      -0.679   2.035   2.060  0.00  0.00    -0.004 A 
ATOM      5  C7  UNL d   1      -0.758   2.590   0.785  0.00  0.00     0.002 A 
ATOM      6  C8  UNL d   1      -0.503   1.803  -0.340  0.00  0.00     0.002 A 
ENDROOT
BRANCH   1   7
ATOM      7  C2  UNL d   1       0.084  -0.405  -1.418  0.00  0.00     0.056 C 
BRANCH   7   8
ATOM      8  C1  UNL d   1      -0.133  -1.903  -1.185  0.00  0.00     0.007 C 
ATOM      9  C   UNL d   1      -0.831  -2.597  -2.347  0.00  0.00     0.009 C 
ENDBRANCH   7   8
ENDBRANCH   1   7
TORSDOF 2
ENDMDL
