MODEL 1
REMARK minimizedAffinity -5.57692432
REMARK minimizedRMSD -1
REMARK  2 active torsions:
REMARK  status: ('A' for Active; 'I' for Inactive)
REMARK    1  A    between atoms: C1_2  and  C2_3 
REMARK    2  A    between atoms: C2_3  and  C3_4 
ROOT
ATOM      1  C3  UNL d   1       0.038   0.801   0.983  0.00  0.00    -0.075 A 
ATOM      2  C4  UNL d   1      -0.789   1.616   0.196  0.00  0.00     0.002 A 
ATOM      3  C5  UNL d   1      -0.846   2.992   0.419  0.00  0.00     0.002 A 
ATOM      4  C6  UNL d   1      -0.087   3.568   1.436  0.00  0.00    -0.004 A 
ATOM      5  C7  UNL d   1       0.725   2.765   2.235  0.00  0.00     0.002 A 
ATOM      6  C8  UNL d   1       0.787   1.389   2.010  0.00  0.00     0.002 A 
ENDROOT
BRANCH   1   7
ATOM      7  C2  UNL d   1       0.127  -0.685   0.727  0.00  0.00     0.056 C 
BRANCH   7   8
ATOM      8  C1  UNL d   1       0.804  -1.050  -0.598  0.00  0.00     0.007 C 
ATOM      9  C   UNL d   1       0.813  -2.548  -0.875  0.00  0.00     0.009 C 
ENDBRANCH   7   8
ENDBRANCH   1   7
TORSDOF 2
ENDMDL
