MODEL 1
REMARK minimizedAffinity -6.52472782
REMARK minimizedRMSD -1
REMARK  2 active torsions:
REMARK  status: ('A' for Active; 'I' for Inactive)
REMARK    1  A    between atoms: C1_2  and  C2_3 
REMARK    2  A    between atoms: C2_3  and  C3_4 
ROOT
ATOM      1  C3  UNL d   1      -0.083   0.194   0.865  0.00  0.00    -0.075 A 
ATOM      2  C4  UNL d   1       0.588   1.046   1.754  0.00  0.00     0.002 A 
ATOM      3  C5  UNL d   1       0.100   2.328   2.009  0.00  0.00     0.002 A 
ATOM      4  C6  UNL d   1      -1.055   2.777   1.374  0.00  0.00    -0.004 A 
ATOM      5  C7  UNL d   1      -1.720   1.944   0.476  0.00  0.00     0.002 A 
ATOM      6  C8  UNL d   1      -1.237   0.660   0.222  0.00  0.00     0.002 A 
ENDROOT
BRANCH   1   7
ATOM      7  C2  UNL d   1       0.424  -1.205   0.606  0.00  0.00     0.056 C 
BRANCH   7   8
ATOM      8  C1  UNL d   1       0.275  -1.664  -0.848  0.00  0.00     0.007 C 
ATOM      9  C   UNL d   1       0.297  -3.178  -1.006  0.00  0.00     0.009 C 
ENDBRANCH   7   8
ENDBRANCH   1   7
TORSDOF 2
ENDMDL
