MODEL 1
REMARK minimizedAffinity -3.75974274
REMARK minimizedRMSD -1
REMARK  2 active torsions:
REMARK  status: ('A' for Active; 'I' for Inactive)
REMARK    1  A    between atoms: C1_2  and  C2_3 
REMARK    2  A    between atoms: C2_3  and  C3_4 
ROOT
ATOM      1  C3  UNL d   1       0.076   0.060   0.025  0.00  0.00    -0.075 A 
ATOM      2  C4  UNL d   1       0.378   0.352   1.363  0.00  0.00     0.002 A 
ATOM      3  C5  UNL d   1      -0.196   1.456   1.994  0.00  0.00     0.002 A 
ATOM      4  C6  UNL d   1      -1.070   2.286   1.294  0.00  0.00    -0.004 A 
ATOM      5  C7  UNL d   1      -1.364   2.014  -0.040  0.00  0.00     0.002 A 
ATOM      6  C8  UNL d   1      -0.795   0.908  -0.673  0.00  0.00     0.002 A 
ENDROOT
BRANCH   1   7
ATOM      7  C2  UNL d   1       0.671  -1.151  -0.654  0.00  0.00     0.056 C 
BRANCH   7   8
ATOM      8  C1  UNL d   1      -0.370  -2.128  -1.211  0.00  0.00     0.007 C 
ATOM      9  C   UNL d   1      -0.063  -3.583  -0.883  0.00  0.00     0.009 C 
ENDBRANCH   7   8
ENDBRANCH   1   7
TORSDOF 2
ENDMDL
