MODEL 1
REMARK minimizedAffinity -4.4575882
REMARK minimizedRMSD -1
REMARK  2 active torsions:
REMARK  status: ('A' for Active; 'I' for Inactive)
REMARK    1  A    between atoms: C1_2  and  C2_3 
REMARK    2  A    between atoms: C2_3  and  C3_4 
ROOT
ATOM      1  C3  UNL d   1       0.248   0.589   0.103  0.00  0.00    -0.075 A 
ATOM      2  C4  UNL d   1       0.809   0.896   1.351  0.00  0.00     0.002 A 
ATOM      3  C5  UNL d   1       0.249   1.891   2.153  0.00  0.00     0.002 A 
ATOM      4  C6  UNL d   1      -0.869   2.597   1.715  0.00  0.00    -0.004 A 
ATOM      5  C7  UNL d   1      -1.425   2.312   0.470  0.00  0.00     0.002 A 
ATOM      6  C8  UNL d   1      -0.870   1.314  -0.333  0.00  0.00     0.002 A 
ENDROOT
BRANCH   1   7
ATOM      7  C2  UNL d   1       0.831  -0.506  -0.758  0.00  0.00     0.056 C 
BRANCH   7   8
ATOM      8  C1  UNL d   1      -0.176  -1.592  -1.152  0.00  0.00     0.007 C 
ATOM      9  C   UNL d   1       0.368  -3.004  -0.983  0.00  0.00     0.009 C 
ENDBRANCH   7   8
ENDBRANCH   1   7
TORSDOF 2
ENDMDL
