MODEL 1
REMARK minimizedAffinity 11.3555346
REMARK minimizedRMSD -1
REMARK  0 active torsions:
REMARK  status: ('A' for Active; 'I' for Inactive)
ROOT
ATOM      1  C   UNL d   1       1.444   0.323  -3.114  0.00  0.00     0.078 C 
ATOM      2  C1  UNL d   1       2.499   0.439  -2.055  0.00  0.00    -0.077 A 
ATOM      3  C2  UNL d   1       2.953   1.691  -1.622  0.00  0.00    -0.001 A 
ATOM      4  C3  UNL d   1       3.943   1.783  -0.643  0.00  0.00     0.003 A 
ATOM      5  C4  UNL d   1       4.488   0.627  -0.088  0.00  0.00    -0.005 A 
ATOM      6  C5  UNL d   1       4.044  -0.623  -0.513  0.00  0.00     0.003 A 
ATOM      7  C6  UNL d   1       3.055  -0.718  -1.493  0.00  0.00    -0.001 A 
ENDROOT
TORSDOF 0
ENDMDL
