MODEL 1
REMARK minimizedAffinity 7.48539019
REMARK minimizedRMSD -1
REMARK  0 active torsions:
REMARK  status: ('A' for Active; 'I' for Inactive)
ROOT
ATOM      1  C   UNL d   1      -4.214  -2.187   5.368  0.00  0.00     0.078 C 
ATOM      2  C1  UNL d   1      -4.007  -0.766   4.934  0.00  0.00    -0.077 A 
ATOM      3  C2  UNL d   1      -3.600   0.215   5.846  0.00  0.00    -0.001 A 
ATOM      4  C3  UNL d   1      -3.421   1.535   5.430  0.00  0.00     0.003 A 
ATOM      5  C4  UNL d   1      -3.647   1.886   4.101  0.00  0.00    -0.005 A 
ATOM      6  C5  UNL d   1      -4.055   0.917   3.186  0.00  0.00     0.003 A 
ATOM      7  C6  UNL d   1      -4.235  -0.403   3.601  0.00  0.00    -0.001 A 
ENDROOT
TORSDOF 0
ENDMDL
