MODEL 1
REMARK minimizedAffinity 19.1423492
REMARK minimizedRMSD -1
REMARK  0 active torsions:
REMARK  status: ('A' for Active; 'I' for Inactive)
ROOT
ATOM      1  C   UNL d   1       6.000  -4.775  -1.649  0.00  0.00     0.078 C 
ATOM      2  C1  UNL d   1       4.599  -4.792  -1.114  0.00  0.00    -0.077 A 
ATOM      3  C2  UNL d   1       3.910  -5.998  -0.935  0.00  0.00    -0.001 A 
ATOM      4  C3  UNL d   1       2.603  -5.998  -0.445  0.00  0.00     0.003 A 
ATOM      5  C4  UNL d   1       1.974  -4.795  -0.131  0.00  0.00    -0.005 A 
ATOM      6  C5  UNL d   1       2.651  -3.590  -0.308  0.00  0.00     0.003 A 
ATOM      7  C6  UNL d   1       3.958  -3.588  -0.798  0.00  0.00    -0.001 A 
ENDROOT
TORSDOF 0
ENDMDL
