MODEL 1
REMARK minimizedAffinity 17.0995369
REMARK minimizedRMSD -1
REMARK  0 active torsions:
REMARK  status: ('A' for Active; 'I' for Inactive)
ROOT
ATOM      1  C   UNL d   1       1.880  -5.992  -1.142  0.00  0.00     0.078 C 
ATOM      2  C1  UNL d   1       0.648  -5.407  -1.765  0.00  0.00    -0.077 A 
ATOM      3  C2  UNL d   1       0.058  -5.999  -2.889  0.00  0.00    -0.001 A 
ATOM      4  C3  UNL d   1      -1.084  -5.439  -3.464  0.00  0.00     0.003 A 
ATOM      5  C4  UNL d   1      -1.644  -4.283  -2.924  0.00  0.00    -0.005 A 
ATOM      6  C5  UNL d   1      -1.062  -3.685  -1.808  0.00  0.00     0.003 A 
ATOM      7  C6  UNL d   1       0.079  -4.244  -1.231  0.00  0.00    -0.001 A 
ENDROOT
TORSDOF 0
ENDMDL
