MODEL 1
REMARK minimizedAffinity 6.16896391
REMARK minimizedRMSD -1
REMARK  0 active torsions:
REMARK  status: ('A' for Active; 'I' for Inactive)
ROOT
ATOM      1  C   UNL d   1       3.917   0.367  -0.735  0.00  0.00     0.078 C 
ATOM      2  C1  UNL d   1       2.936  -0.743  -0.971  0.00  0.00    -0.077 A 
ATOM      3  C2  UNL d   1       3.238  -2.061  -0.611  0.00  0.00    -0.001 A 
ATOM      4  C3  UNL d   1       2.320  -3.086  -0.845  0.00  0.00     0.003 A 
ATOM      5  C4  UNL d   1       1.092  -2.802  -1.441  0.00  0.00    -0.005 A 
ATOM      6  C5  UNL d   1       0.783  -1.493  -1.804  0.00  0.00     0.003 A 
ATOM      7  C6  UNL d   1       1.701  -0.467  -1.571  0.00  0.00    -0.001 A 
ENDROOT
TORSDOF 0
ENDMDL
