MODEL 1
REMARK minimizedAffinity 10.2204189
REMARK minimizedRMSD -1
REMARK  0 active torsions:
REMARK  status: ('A' for Active; 'I' for Inactive)
ROOT
ATOM      1  C   UNL d   1       1.330  -0.775  -1.211  0.00  0.00     0.078 C 
ATOM      2  C1  UNL d   1       2.258   0.065  -0.386  0.00  0.00    -0.077 A 
ATOM      3  C2  UNL d   1       3.641   0.037  -0.602  0.00  0.00    -0.001 A 
ATOM      4  C3  UNL d   1       4.494   0.817   0.181  0.00  0.00     0.003 A 
ATOM      5  C4  UNL d   1       3.973   1.630   1.186  0.00  0.00    -0.005 A 
ATOM      6  C5  UNL d   1       2.598   1.663   1.409  0.00  0.00     0.003 A 
ATOM      7  C6  UNL d   1       1.744   0.884   0.628  0.00  0.00    -0.001 A 
ENDROOT
TORSDOF 0
ENDMDL
