MODEL 1
REMARK minimizedAffinity 7.09221649
REMARK minimizedRMSD -1
REMARK  0 active torsions:
REMARK  status: ('A' for Active; 'I' for Inactive)
ROOT
ATOM      1  C   UNL d   1       2.226  -4.072  -0.258  0.00  0.00     0.078 C 
ATOM      2  C1  UNL d   1       1.824  -2.724  -0.778  0.00  0.00    -0.077 A 
ATOM      3  C2  UNL d   1       1.055  -2.600  -1.941  0.00  0.00    -0.001 A 
ATOM      4  C3  UNL d   1       0.697  -1.338  -2.419  0.00  0.00     0.003 A 
ATOM      5  C4  UNL d   1       1.103  -0.191  -1.740  0.00  0.00    -0.005 A 
ATOM      6  C5  UNL d   1       1.870  -0.305  -0.582  0.00  0.00     0.003 A 
ATOM      7  C6  UNL d   1       2.230  -1.565  -0.103  0.00  0.00    -0.001 A 
ENDROOT
TORSDOF 0
ENDMDL
