MODEL 1
REMARK minimizedAffinity 16.9276867
REMARK minimizedRMSD -1
REMARK  0 active torsions:
REMARK  status: ('A' for Active; 'I' for Inactive)
ROOT
ATOM      1  C   UNL d   1      -1.510  -5.619  -5.943  0.00  0.00     0.078 C 
ATOM      2  C1  UNL d   1      -1.545  -5.143  -4.521  0.00  0.00    -0.077 A 
ATOM      3  C2  UNL d   1      -2.503  -4.215  -4.095  0.00  0.00    -0.001 A 
ATOM      4  C3  UNL d   1      -2.517  -3.773  -2.771  0.00  0.00     0.003 A 
ATOM      5  C4  UNL d   1      -1.575  -4.253  -1.863  0.00  0.00    -0.005 A 
ATOM      6  C5  UNL d   1      -0.617  -5.175  -2.278  0.00  0.00     0.003 A 
ATOM      7  C6  UNL d   1      -0.601  -5.618  -3.602  0.00  0.00    -0.001 A 
ENDROOT
TORSDOF 0
ENDMDL
