MODEL 1
REMARK minimizedAffinity 6.32254028
REMARK minimizedRMSD -1
REMARK  0 active torsions:
REMARK  status: ('A' for Active; 'I' for Inactive)
ROOT
ATOM      1  C   UNL d   1      -0.001  -3.118  -1.882  0.00  0.00     0.078 C 
ATOM      2  C1  UNL d   1       1.194  -2.275  -1.552  0.00  0.00    -0.077 A 
ATOM      3  C2  UNL d   1       2.277  -2.807  -0.842  0.00  0.00    -0.001 A 
ATOM      4  C3  UNL d   1       3.379  -2.007  -0.532  0.00  0.00     0.003 A 
ATOM      5  C4  UNL d   1       3.407  -0.672  -0.927  0.00  0.00    -0.005 A 
ATOM      6  C5  UNL d   1       2.333  -0.133  -1.633  0.00  0.00     0.003 A 
ATOM      7  C6  UNL d   1       1.230  -0.931  -1.943  0.00  0.00    -0.001 A 
ENDROOT
TORSDOF 0
ENDMDL
