MODEL 1
REMARK minimizedAffinity 11.258728
REMARK minimizedRMSD -1
REMARK  0 active torsions:
REMARK  status: ('A' for Active; 'I' for Inactive)
ROOT
ATOM      1  C   UNL d   1      -2.276   1.888   3.369  0.00  0.00     0.078 C 
ATOM      2  C1  UNL d   1      -0.951   1.699   4.045  0.00  0.00    -0.077 A 
ATOM      3  C2  UNL d   1       0.108   1.058   3.390  0.00  0.00    -0.001 A 
ATOM      4  C3  UNL d   1       1.333   0.881   4.034  0.00  0.00     0.003 A 
ATOM      5  C4  UNL d   1       1.511   1.340   5.338  0.00  0.00    -0.005 A 
ATOM      6  C5  UNL d   1       0.463   1.977   5.999  0.00  0.00     0.003 A 
ATOM      7  C6  UNL d   1      -0.763   2.156   5.356  0.00  0.00    -0.001 A 
ENDROOT
TORSDOF 0
ENDMDL
