MODEL 1
REMARK minimizedAffinity 10.4704475
REMARK minimizedRMSD -1
REMARK  0 active torsions:
REMARK  status: ('A' for Active; 'I' for Inactive)
ROOT
ATOM      1  C   UNL d   1       6.000  -5.629  -1.563  0.00  0.00     0.078 C 
ATOM      2  C1  UNL d   1       4.642  -5.120  -1.180  0.00  0.00    -0.077 A 
ATOM      3  C2  UNL d   1       4.444  -3.774  -0.847  0.00  0.00    -0.001 A 
ATOM      4  C3  UNL d   1       3.177  -3.316  -0.484  0.00  0.00     0.003 A 
ATOM      5  C4  UNL d   1       2.098  -4.197  -0.448  0.00  0.00    -0.005 A 
ATOM      6  C5  UNL d   1       2.286  -5.538  -0.775  0.00  0.00     0.003 A 
ATOM      7  C6  UNL d   1       3.552  -5.998  -1.139  0.00  0.00    -0.001 A 
ENDROOT
TORSDOF 0
ENDMDL
