MODEL 1
REMARK minimizedAffinity 11.0354567
REMARK minimizedRMSD -1
REMARK  0 active torsions:
REMARK  status: ('A' for Active; 'I' for Inactive)
ROOT
ATOM      1  C   UNL d   1      -5.999  -1.182   2.255  0.00  0.00     0.078 C 
ATOM      2  C1  UNL d   1      -4.966  -0.366   2.974  0.00  0.00    -0.077 A 
ATOM      3  C2  UNL d   1      -4.527  -0.724   4.255  0.00  0.00    -0.001 A 
ATOM      4  C3  UNL d   1      -3.573   0.050   4.916  0.00  0.00     0.003 A 
ATOM      5  C4  UNL d   1      -3.050   1.188   4.306  0.00  0.00    -0.005 A 
ATOM      6  C5  UNL d   1      -3.483   1.554   3.033  0.00  0.00     0.003 A 
ATOM      7  C6  UNL d   1      -4.437   0.781   2.370  0.00  0.00    -0.001 A 
ENDROOT
TORSDOF 0
ENDMDL
