MODEL 1
REMARK minimizedAffinity 4.28011513
REMARK minimizedRMSD -1
REMARK  0 active torsions:
REMARK  status: ('A' for Active; 'I' for Inactive)
ROOT
ATOM      1  C   UNL d   1      -2.385   1.708   2.997  0.00  0.00     0.078 C 
ATOM      2  C1  UNL d   1      -1.167   1.495   3.845  0.00  0.00    -0.077 A 
ATOM      3  C2  UNL d   1      -0.006   0.923   3.310  0.00  0.00    -0.001 A 
ATOM      4  C3  UNL d   1       1.117   0.721   4.113  0.00  0.00     0.003 A 
ATOM      5  C4  UNL d   1       1.090   1.087   5.457  0.00  0.00    -0.005 A 
ATOM      6  C5  UNL d   1      -0.061   1.655   6.000  0.00  0.00     0.003 A 
ATOM      7  C6  UNL d   1      -1.185   1.857   5.198  0.00  0.00    -0.001 A 
ENDROOT
TORSDOF 0
ENDMDL
