MODEL 1
REMARK minimizedAffinity 12.6479635
REMARK minimizedRMSD -1
REMARK  0 active torsions:
REMARK  status: ('A' for Active; 'I' for Inactive)
ROOT
ATOM      1  C   UNL d   1       1.976   1.454  -2.437  0.00  0.00     0.078 C 
ATOM      2  C1  UNL d   1       1.516   0.177  -1.800  0.00  0.00    -0.077 A 
ATOM      3  C2  UNL d   1       1.357  -0.990  -2.558  0.00  0.00    -0.001 A 
ATOM      4  C3  UNL d   1       0.919  -2.170  -1.954  0.00  0.00     0.003 A 
ATOM      5  C4  UNL d   1       0.635  -2.194  -0.590  0.00  0.00    -0.005 A 
ATOM      6  C5  UNL d   1       0.789  -1.037   0.172  0.00  0.00     0.003 A 
ATOM      7  C6  UNL d   1       1.227   0.144  -0.431  0.00  0.00    -0.001 A 
ENDROOT
TORSDOF 0
ENDMDL
