MODEL 1
REMARK minimizedAffinity 4.56613445
REMARK minimizedRMSD -1
REMARK  0 active torsions:
REMARK  status: ('A' for Active; 'I' for Inactive)
ROOT
ATOM      1  C1  DEN d   1       3.320   1.441  -0.137  0.00  0.00     0.130 A 
ATOM      2  C2  DEN d   1       3.767   2.170  -1.320  0.00  0.00    -0.031 A 
ATOM      3  C3  DEN d   1       3.499   1.328  -2.504  0.00  0.00     0.027 A 
ATOM      4  C4  DEN d   1       2.436  -1.019  -2.618  0.00  0.00     0.027 A 
ATOM      5  C5  DEN d   1       1.906  -2.049  -1.872  0.00  0.00    -0.003 A 
ATOM      6  C6  DEN d   1       1.843  -2.002  -0.505  0.00  0.00     0.001 A 
ATOM      7  C7  DEN d   1       2.275  -0.884   0.158  0.00  0.00     0.017 A 
ATOM      8  C8  DEN d   1       2.817   0.156  -0.587  0.00  0.00    -0.094 A 
ATOM      9  C9  DEN d   1       2.861   0.095  -1.969  0.00  0.00    -0.072 A 
ENDROOT
TORSDOF 0
ENDMDL
