MODEL 1
REMARK minimizedAffinity 2.91951704
REMARK minimizedRMSD -1
REMARK  0 active torsions:
REMARK  status: ('A' for Active; 'I' for Inactive)
ROOT
ATOM      1  C1  DEN d   1       5.781   1.122  -1.174  0.00  0.00     0.130 A 
ATOM      2  C2  DEN d   1       6.000   2.543  -0.917  0.00  0.00    -0.031 A 
ATOM      3  C3  DEN d   1       4.812   3.069  -0.215  0.00  0.00     0.027 A 
ATOM      4  C4  DEN d   1       2.669   1.826   0.501  0.00  0.00     0.027 A 
ATOM      5  C5  DEN d   1       2.019   0.612   0.491  0.00  0.00    -0.003 A 
ATOM      6  C6  DEN d   1       2.558  -0.500  -0.099  0.00  0.00     0.001 A 
ATOM      7  C7  DEN d   1       3.803  -0.432  -0.666  0.00  0.00     0.017 A 
ATOM      8  C8  DEN d   1       4.462   0.791  -0.666  0.00  0.00    -0.094 A 
ATOM      9  C9  DEN d   1       3.905   1.901  -0.053  0.00  0.00    -0.072 A 
ENDROOT
TORSDOF 0
ENDMDL
