MODEL 1
REMARK minimizedAffinity -2.00080585
REMARK minimizedRMSD -1
REMARK  0 active torsions:
REMARK  status: ('A' for Active; 'I' for Inactive)
ROOT
ATOM      1  C1  DEN d   1      -5.624   3.001  -2.266  0.00  0.00     0.130 A 
ATOM      2  C2  DEN d   1      -4.475   3.886  -2.092  0.00  0.00    -0.031 A 
ATOM      3  C3  DEN d   1      -3.407   3.432  -3.004  0.00  0.00     0.027 A 
ATOM      4  C4  DEN d   1      -3.420   1.458  -4.664  0.00  0.00     0.027 A 
ATOM      5  C5  DEN d   1      -4.167   0.411  -5.157  0.00  0.00    -0.003 A 
ATOM      6  C6  DEN d   1      -5.429   0.136  -4.701  0.00  0.00     0.001 A 
ATOM      7  C7  DEN d   1      -6.000   0.945  -3.753  0.00  0.00     0.017 A 
ATOM      8  C8  DEN d   1      -5.250   1.997  -3.246  0.00  0.00    -0.094 A 
ATOM      9  C9  DEN d   1      -3.981   2.267  -3.729  0.00  0.00    -0.072 A 
ENDROOT
TORSDOF 0
ENDMDL
