MODEL 1
REMARK minimizedAffinity 9.35337067
REMARK minimizedRMSD -1
REMARK  0 active torsions:
REMARK  status: ('A' for Active; 'I' for Inactive)
ROOT
ATOM      1  C1  DEN d   1      -5.613  -0.609  -1.406  0.00  0.00     0.130 A 
ATOM      2  C2  DEN d   1      -5.997   0.368  -0.390  0.00  0.00    -0.031 A 
ATOM      3  C3  DEN d   1      -5.757   1.717  -0.940  0.00  0.00     0.027 A 
ATOM      4  C4  DEN d   1      -4.838   2.386  -3.255  0.00  0.00     0.027 A 
ATOM      5  C5  DEN d   1      -4.360   1.906  -4.455  0.00  0.00    -0.003 A 
ATOM      6  C6  DEN d   1      -4.237   0.566  -4.708  0.00  0.00     0.001 A 
ATOM      7  C7  DEN d   1      -4.637  -0.343  -3.764  0.00  0.00     0.017 A 
ATOM      8  C8  DEN d   1      -5.112   0.133  -2.549  0.00  0.00    -0.094 A 
ATOM      9  C9  DEN d   1      -5.241   1.492  -2.317  0.00  0.00    -0.072 A 
ENDROOT
TORSDOF 0
ENDMDL
