MODEL 1
REMARK minimizedAffinity 7.35215521
REMARK minimizedRMSD -1
REMARK  0 active torsions:
REMARK  status: ('A' for Active; 'I' for Inactive)
ROOT
ATOM      1  C1  DEN d   1      -5.181  -0.453  -2.233  0.00  0.00     0.130 A 
ATOM      2  C2  DEN d   1      -5.999  -0.021  -1.104  0.00  0.00    -0.031 A 
ATOM      3  C3  DEN d   1      -5.999   1.455  -1.077  0.00  0.00     0.027 A 
ATOM      4  C4  DEN d   1      -4.819   3.106  -2.669  0.00  0.00     0.027 A 
ATOM      5  C5  DEN d   1      -3.999   3.212  -3.771  0.00  0.00    -0.003 A 
ATOM      6  C6  DEN d   1      -3.492   2.112  -4.412  0.00  0.00     0.001 A 
ATOM      7  C7  DEN d   1      -3.837   0.858  -3.983  0.00  0.00     0.017 A 
ATOM      8  C8  DEN d   1      -4.657   0.743  -2.868  0.00  0.00    -0.094 A 
ATOM      9  C9  DEN d   1      -5.169   1.867  -2.242  0.00  0.00    -0.072 A 
ENDROOT
TORSDOF 0
ENDMDL
