MODEL 1
REMARK minimizedAffinity 12.6492968
REMARK minimizedRMSD -1
REMARK  0 active torsions:
REMARK  status: ('A' for Active; 'I' for Inactive)
ROOT
ATOM      1  C1  DEN d   1      -5.931   3.633   5.180  0.00  0.00     0.130 A 
ATOM      2  C2  DEN d   1      -5.878   4.855   5.978  0.00  0.00    -0.031 A 
ATOM      3  C3  DEN d   1      -5.756   6.000   5.053  0.00  0.00     0.027 A 
ATOM      4  C4  DEN d   1      -5.649   5.999   2.476  0.00  0.00     0.027 A 
ATOM      5  C5  DEN d   1      -5.646   5.201   1.353  0.00  0.00    -0.003 A 
ATOM      6  C6  DEN d   1      -5.703   3.835   1.427  0.00  0.00     0.001 A 
ATOM      7  C7  DEN d   1      -5.811   3.226   2.650  0.00  0.00     0.017 A 
ATOM      8  C8  DEN d   1      -5.807   4.023   3.787  0.00  0.00    -0.094 A 
ATOM      9  C9  DEN d   1      -5.761   5.403   3.690  0.00  0.00    -0.072 A 
ENDROOT
TORSDOF 0
ENDMDL
