MODEL 1
REMARK minimizedAffinity -1.93198907
REMARK minimizedRMSD -1
REMARK  0 active torsions:
REMARK  status: ('A' for Active; 'I' for Inactive)
ROOT
ATOM      1  N1  IND d   1      -0.270  -0.784   2.620  0.00  0.00    -0.196 N 
ATOM      2  C2  IND d   1       0.657  -1.729   2.962  0.00  0.00     0.054 A 
ATOM      3  C3  IND d   1       1.465  -1.997   1.911  0.00  0.00    -0.031 A 
ATOM      4  C4  IND d   1       1.511  -0.930  -0.431  0.00  0.00     0.051 A 
ATOM      5  C5  IND d   1       0.835  -0.047  -1.226  0.00  0.00    -0.031 A 
ATOM      6  C6  IND d   1      -0.264   0.651  -0.769  0.00  0.00     0.015 A 
ATOM      7  C7  IND d   1      -0.724   0.500   0.508  0.00  0.00    -0.016 A 
ATOM      8  C8  IND d   1      -0.044  -0.400   1.316  0.00  0.00    -0.047 A 
ATOM      9  C9  IND d   1       1.046  -1.144   0.845  0.00  0.00    -0.096 A 
ATOM     10  HN1 IND d   1      -0.890  -0.481   3.133  0.00  0.00     0.298 HD
ENDROOT
TORSDOF 0
ENDMDL
