MODEL 1
REMARK minimizedAffinity 2.2244091
REMARK minimizedRMSD -1
REMARK  0 active torsions:
REMARK  status: ('A' for Active; 'I' for Inactive)
ROOT
ATOM      1  N1  IND d   1       4.100  -2.431  -3.057  0.00  0.00    -0.196 N 
ATOM      2  C2  IND d   1       3.236  -2.778  -4.058  0.00  0.00     0.054 A 
ATOM      3  C3  IND d   1       2.925  -4.091  -3.977  0.00  0.00    -0.031 A 
ATOM      4  C4  IND d   1       3.638  -5.835  -2.223  0.00  0.00     0.051 A 
ATOM      5  C5  IND d   1       4.450  -6.000  -1.136  0.00  0.00    -0.031 A 
ATOM      6  C6  IND d   1       5.200  -4.962  -0.622  0.00  0.00     0.015 A 
ATOM      7  C7  IND d   1       5.157  -3.712  -1.172  0.00  0.00    -0.016 A 
ATOM      8  C8  IND d   1       4.339  -3.542  -2.280  0.00  0.00    -0.047 A 
ATOM      9  C9  IND d   1       3.608  -4.602  -2.831  0.00  0.00    -0.096 A 
ATOM     10  HN1 IND d   1       4.438  -1.650  -2.934  0.00  0.00     0.298 HD
ENDROOT
TORSDOF 0
ENDMDL
