MODEL 1
REMARK minimizedAffinity -1.87687349
REMARK minimizedRMSD -1
REMARK  0 active torsions:
REMARK  status: ('A' for Active; 'I' for Inactive)
ROOT
ATOM      1  N1  IND d   1       3.836  -1.536  -2.431  0.00  0.00    -0.196 N 
ATOM      2  C2  IND d   1       3.499  -1.914  -3.701  0.00  0.00     0.054 A 
ATOM      3  C3  IND d   1       3.726  -3.236  -3.873  0.00  0.00    -0.031 A 
ATOM      4  C4  IND d   1       4.552  -4.989  -2.178  0.00  0.00     0.051 A 
ATOM      5  C5  IND d   1       5.023  -5.114  -0.902  0.00  0.00    -0.031 A 
ATOM      6  C6  IND d   1       5.123  -4.031  -0.051  0.00  0.00     0.015 A 
ATOM      7  C7  IND d   1       4.742  -2.780  -0.445  0.00  0.00    -0.016 A 
ATOM      8  C8  IND d   1       4.269  -2.647  -1.743  0.00  0.00    -0.047 A 
ATOM      9  C9  IND d   1       4.206  -3.735  -2.624  0.00  0.00    -0.096 A 
ATOM     10  HN1 IND d   1       3.786  -0.737  -2.116  0.00  0.00     0.298 HD
ENDROOT
TORSDOF 0
ENDMDL
