MODEL 1
REMARK minimizedAffinity 2.20000935
REMARK minimizedRMSD -1
REMARK  0 active torsions:
REMARK  status: ('A' for Active; 'I' for Inactive)
ROOT
ATOM      1  N1  IND d   1       5.637  -3.828  -1.530  0.00  0.00    -0.196 N 
ATOM      2  C2  IND d   1       5.592  -2.523  -1.125  0.00  0.00     0.054 A 
ATOM      3  C3  IND d   1       4.381  -2.236  -0.594  0.00  0.00    -0.031 A 
ATOM      4  C4  IND d   1       2.362  -3.783  -0.198  0.00  0.00     0.051 A 
ATOM      5  C5  IND d   1       1.914  -5.052  -0.436  0.00  0.00    -0.031 A 
ATOM      6  C6  IND d   1       2.701  -5.998  -1.060  0.00  0.00     0.015 A 
ATOM      7  C7  IND d   1       3.975  -5.712  -1.462  0.00  0.00    -0.016 A 
ATOM      8  C8  IND d   1       4.431  -4.422  -1.229  0.00  0.00    -0.047 A 
ATOM      9  C9  IND d   1       3.622  -3.445  -0.634  0.00  0.00    -0.096 A 
ATOM     10  HN1 IND d   1       6.306  -4.213  -1.909  0.00  0.00     0.298 HD
ENDROOT
TORSDOF 0
ENDMDL
