MODEL 1
REMARK minimizedAffinity 2.67563629
REMARK minimizedRMSD -1
REMARK  0 active torsions:
REMARK  status: ('A' for Active; 'I' for Inactive)
ROOT
ATOM      1  N1  IND d   1       4.846  -0.421   0.424  0.00  0.00    -0.196 N 
ATOM      2  C2  IND d   1       3.855  -0.203   1.340  0.00  0.00     0.054 A 
ATOM      3  C3  IND d   1       3.106  -1.318   1.497  0.00  0.00    -0.031 A 
ATOM      4  C4  IND d   1       3.388  -3.642   0.427  0.00  0.00     0.051 A 
ATOM      5  C5  IND d   1       4.128  -4.317  -0.503  0.00  0.00    -0.031 A 
ATOM      6  C6  IND d   1       5.168  -3.717  -1.183  0.00  0.00     0.015 A 
ATOM      7  C7  IND d   1       5.515  -2.416  -0.950  0.00  0.00    -0.016 A 
ATOM      8  C8  IND d   1       4.761  -1.725  -0.011  0.00  0.00    -0.047 A 
ATOM      9  C9  IND d   1       3.678  -2.317   0.651  0.00  0.00    -0.096 A 
ATOM     10  HN1 IND d   1       5.424   0.159   0.162  0.00  0.00     0.298 HD
ENDROOT
TORSDOF 0
ENDMDL
