MODEL 1
REMARK minimizedAffinity -1.39428055
REMARK minimizedRMSD -1
REMARK  0 active torsions:
REMARK  status: ('A' for Active; 'I' for Inactive)
ROOT
ATOM      1  N1  IND d   1      -4.523   6.000  -0.238  0.00  0.00    -0.196 N 
ATOM      2  C2  IND d   1      -4.546   6.000   1.129  0.00  0.00     0.054 A 
ATOM      3  C3  IND d   1      -3.348   5.610   1.619  0.00  0.00    -0.031 A 
ATOM      4  C4  IND d   1      -1.179   5.024   0.363  0.00  0.00     0.051 A 
ATOM      5  C5  IND d   1      -0.677   4.846  -0.896  0.00  0.00    -0.031 A 
ATOM      6  C6  IND d   1      -1.447   5.050  -2.022  0.00  0.00     0.015 A 
ATOM      7  C7  IND d   1      -2.750   5.453  -1.932  0.00  0.00    -0.016 A 
ATOM      8  C8  IND d   1      -3.264   5.628  -0.655  0.00  0.00    -0.047 A 
ATOM      9  C9  IND d   1      -2.500   5.381   0.493  0.00  0.00    -0.096 A 
ATOM     10  HN1 IND d   1      -5.184   6.199  -0.751  0.00  0.00     0.298 HD
ENDROOT
TORSDOF 0
ENDMDL
