MODEL 1
REMARK minimizedAffinity 0.293192804
REMARK minimizedRMSD -1
REMARK  0 active torsions:
REMARK  status: ('A' for Active; 'I' for Inactive)
ROOT
ATOM      1  N1  IND d   1       4.575  -5.575  -3.287  0.00  0.00    -0.196 N 
ATOM      2  C2  IND d   1       3.706  -5.237  -4.287  0.00  0.00     0.054 A 
ATOM      3  C3  IND d   1       3.181  -4.012  -4.060  0.00  0.00    -0.031 A 
ATOM      4  C4  IND d   1       3.683  -2.343  -2.165  0.00  0.00     0.051 A 
ATOM      5  C5  IND d   1       4.380  -2.218  -0.996  0.00  0.00    -0.031 A 
ATOM      6  C6  IND d   1       5.197  -3.225  -0.523  0.00  0.00     0.015 A 
ATOM      7  C7  IND d   1       5.356  -4.395  -1.210  0.00  0.00    -0.016 A 
ATOM      8  C8  IND d   1       4.644  -4.528  -2.394  0.00  0.00    -0.047 A 
ATOM      9  C9  IND d   1       3.781  -3.527  -2.857  0.00  0.00    -0.096 A 
ATOM     10  HN1 IND d   1       5.006  -6.316  -3.226  0.00  0.00     0.298 HD
ENDROOT
TORSDOF 0
ENDMDL
