MODEL 1
REMARK minimizedAffinity -4.5723362
REMARK minimizedRMSD -1
REMARK  0 active torsions:
REMARK  status: ('A' for Active; 'I' for Inactive)
ROOT
ATOM      1  N1  IND d   1       5.398  -2.518  -0.988  0.00  0.00    -0.196 N 
ATOM      2  C2  IND d   1       4.878  -1.620  -0.099  0.00  0.00     0.054 A 
ATOM      3  C3  IND d   1       3.586  -1.916   0.168  0.00  0.00    -0.031 A 
ATOM      4  C4  IND d   1       2.155  -3.887  -0.663  0.00  0.00     0.051 A 
ATOM      5  C5  IND d   1       2.181  -4.952  -1.521  0.00  0.00    -0.031 A 
ATOM      6  C6  IND d   1       3.305  -5.267  -2.257  0.00  0.00     0.015 A 
ATOM      7  C7  IND d   1       4.453  -4.533  -2.154  0.00  0.00    -0.016 A 
ATOM      8  C8  IND d   1       4.427  -3.448  -1.290  0.00  0.00    -0.047 A 
ATOM      9  C9  IND d   1       3.276  -3.097  -0.572  0.00  0.00    -0.096 A 
ATOM     10  HN1 IND d   1       6.197  -2.504  -1.306  0.00  0.00     0.298 HD
ENDROOT
TORSDOF 0
ENDMDL
