MODEL 1
REMARK minimizedAffinity -0.555231929
REMARK minimizedRMSD -1
REMARK  0 active torsions:
REMARK  status: ('A' for Active; 'I' for Inactive)
ROOT
ATOM      1  N1  IND d   1      -5.767  -4.151   4.159  0.00  0.00    -0.196 N 
ATOM      2  C2  IND d   1      -5.921  -4.166   5.517  0.00  0.00     0.054 A 
ATOM      3  C3  IND d   1      -5.999  -2.904   5.995  0.00  0.00    -0.031 A 
ATOM      4  C4  IND d   1      -5.999  -0.668   4.719  0.00  0.00     0.051 A 
ATOM      5  C5  IND d   1      -5.845  -0.142   3.467  0.00  0.00    -0.031 A 
ATOM      6  C6  IND d   1      -5.655  -0.942   2.359  0.00  0.00     0.015 A 
ATOM      7  C7  IND d   1      -5.624  -2.305   2.460  0.00  0.00    -0.016 A 
ATOM      8  C8  IND d   1      -5.774  -2.841   3.731  0.00  0.00    -0.047 A 
ATOM      9  C9  IND d   1      -5.924  -2.033   4.865  0.00  0.00    -0.096 A 
ATOM     10  HN1 IND d   1      -5.680  -4.843   3.656  0.00  0.00     0.298 HD
ENDROOT
TORSDOF 0
ENDMDL
