MODEL 1
REMARK minimizedAffinity 5.73919201
REMARK minimizedRMSD -1
REMARK  0 active torsions:
REMARK  status: ('A' for Active; 'I' for Inactive)
ROOT
ATOM      1  N1  IND d   1       4.288  -1.990  -1.518  0.00  0.00    -0.196 N 
ATOM      2  C2  IND d   1       3.721  -1.672  -2.721  0.00  0.00     0.054 A 
ATOM      3  C3  IND d   1       3.626  -2.771  -3.501  0.00  0.00    -0.031 A 
ATOM      4  C4  IND d   1       4.246  -5.213  -2.970  0.00  0.00     0.051 A 
ATOM      5  C5  IND d   1       4.833  -5.991  -2.011  0.00  0.00    -0.031 A 
ATOM      6  C6  IND d   1       5.274  -5.465  -0.814  0.00  0.00     0.015 A 
ATOM      7  C7  IND d   1       5.134  -4.137  -0.525  0.00  0.00    -0.016 A 
ATOM      8  C8  IND d   1       4.546  -3.343  -1.499  0.00  0.00    -0.047 A 
ATOM      9  C9  IND d   1       4.135  -3.863  -2.733  0.00  0.00    -0.096 A 
ATOM     10  HN1 IND d   1       4.456  -1.437  -0.881  0.00  0.00     0.298 HD
ENDROOT
TORSDOF 0
ENDMDL
