MODEL 1
REMARK minimizedAffinity 1.71287858
REMARK minimizedRMSD -1
REMARK  1 active torsions:
REMARK  status: ('A' for Active; 'I' for Inactive)
REMARK    1  A    between atoms: N_2  and  C1_3 
ROOT
ATOM      1  C1  UNL d   1       0.501   1.125   1.410  0.00  0.00     0.143 A 
ATOM      2  C2  UNL d   1      -0.411   0.514   0.543  0.00  0.00    -0.057 A 
ATOM      3  C3  UNL d   1      -1.649   0.047   1.002  0.00  0.00     0.033 A 
ATOM      4  C4  UNL d   1      -1.985   0.157   2.347  0.00  0.00    -0.042 A 
ATOM      5  C5  UNL d   1      -1.084   0.738   3.232  0.00  0.00     0.033 A 
ATOM      6  C6  UNL d   1       0.148   1.209   2.766  0.00  0.00    -0.057 A 
ENDROOT
BRANCH   1   7
ATOM      7  N   UNL d   1       1.786   1.521   1.034  0.00  0.00    -0.732 N 
ATOM      8  C   UNL d   1       2.945   0.772   1.470  0.00  0.00     0.284 C 
ATOM      9  H3  UNL d   1       1.830   1.828   0.065  0.00  0.00     0.395 HD
ENDBRANCH   1   7
TORSDOF 1
ENDMDL
