MODEL 1
REMARK minimizedAffinity -1.29127073
REMARK minimizedRMSD -1
REMARK  1 active torsions:
REMARK  status: ('A' for Active; 'I' for Inactive)
REMARK    1  A    between atoms: N_2  and  C1_3 
ROOT
ATOM      1  C1  UNL d   1       0.547   1.127   0.823  0.00  0.00     0.143 A 
ATOM      2  C2  UNL d   1      -0.300   0.301   0.076  0.00  0.00    -0.057 A 
ATOM      3  C3  UNL d   1      -1.483  -0.211   0.623  0.00  0.00     0.033 A 
ATOM      4  C4  UNL d   1      -1.825   0.071   1.941  0.00  0.00    -0.042 A 
ATOM      5  C5  UNL d   1      -0.986   0.869   2.711  0.00  0.00     0.033 A 
ATOM      6  C6  UNL d   1       0.190   1.383   2.156  0.00  0.00    -0.057 A 
ENDROOT
BRANCH   1   7
ATOM      7  N   UNL d   1       1.785   1.586   0.368  0.00  0.00    -0.732 N 
ATOM      8  C   UNL d   1       2.991   1.331   1.127  0.00  0.00     0.284 C 
ATOM      9  H3  UNL d   1       1.895   1.475  -0.637  0.00  0.00     0.395 HD
ENDBRANCH   1   7
TORSDOF 1
ENDMDL
