MODEL 1
REMARK minimizedAffinity 2.14071202
REMARK minimizedRMSD -1
REMARK  1 active torsions:
REMARK  status: ('A' for Active; 'I' for Inactive)
REMARK    1  A    between atoms: N_2  and  C1_3 
ROOT
ATOM      1  C1  UNL d   1       0.565   0.469   1.176  0.00  0.00     0.143 A 
ATOM      2  C2  UNL d   1      -0.329  -0.213   0.345  0.00  0.00    -0.057 A 
ATOM      3  C3  UNL d   1      -1.619  -0.541   0.779  0.00  0.00     0.033 A 
ATOM      4  C4  UNL d   1      -2.029  -0.216   2.068  0.00  0.00    -0.042 A 
ATOM      5  C5  UNL d   1      -1.148   0.440   2.921  0.00  0.00     0.033 A 
ATOM      6  C6  UNL d   1       0.137   0.770   2.479  0.00  0.00    -0.057 A 
ENDROOT
BRANCH   1   7
ATOM      7  N   UNL d   1       1.894   0.735   0.837  0.00  0.00    -0.732 N 
ATOM      8  C   UNL d   1       2.974   0.329   1.710  0.00  0.00     0.284 C 
ATOM      9  H3  UNL d   1       2.080   0.584  -0.152  0.00  0.00     0.395 HD
ENDBRANCH   1   7
TORSDOF 1
ENDMDL
