MODEL 1
REMARK minimizedAffinity -0.673038781
REMARK minimizedRMSD -1
REMARK  1 active torsions:
REMARK  status: ('A' for Active; 'I' for Inactive)
REMARK    1  A    between atoms: N_2  and  C1_3 
ROOT
ATOM      1  C1  UNL d   1      -0.913   0.020   0.791  0.00  0.00     0.143 A 
ATOM      2  C2  UNL d   1       0.103   0.912   0.436  0.00  0.00    -0.057 A 
ATOM      3  C3  UNL d   1       0.696   1.753   1.385  0.00  0.00     0.033 A 
ATOM      4  C4  UNL d   1       0.261   1.737   2.706  0.00  0.00    -0.042 A 
ATOM      5  C5  UNL d   1      -0.765   0.876   3.077  0.00  0.00     0.033 A 
ATOM      6  C6  UNL d   1      -1.349   0.033   2.126  0.00  0.00    -0.057 A 
ENDROOT
BRANCH   1   7
ATOM      7  N   UNL d   1      -1.610  -0.771  -0.125  0.00  0.00    -0.732 N 
ATOM      8  C   UNL d   1      -3.048  -0.905  -0.040  0.00  0.00     0.284 C 
ATOM      9  H3  UNL d   1      -1.258  -0.668  -1.074  0.00  0.00     0.395 HD
ENDBRANCH   1   7
TORSDOF 1
ENDMDL
