MODEL 1
REMARK minimizedAffinity -0.106122188
REMARK minimizedRMSD -1
REMARK  1 active torsions:
REMARK  status: ('A' for Active; 'I' for Inactive)
REMARK    1  A    between atoms: N_2  and  C1_3 
ROOT
ATOM      1  C1  UNL d   1      -0.503   1.188   1.784  0.00  0.00     0.143 A 
ATOM      2  C2  UNL d   1      -0.546   0.898   0.416  0.00  0.00    -0.057 A 
ATOM      3  C3  UNL d   1      -1.491   0.008  -0.108  0.00  0.00     0.033 A 
ATOM      4  C4  UNL d   1      -2.393  -0.634   0.735  0.00  0.00    -0.042 A 
ATOM      5  C5  UNL d   1      -2.352  -0.380   2.101  0.00  0.00     0.033 A 
ATOM      6  C6  UNL d   1      -1.410   0.516   2.617  0.00  0.00    -0.057 A 
ENDROOT
BRANCH   1   7
ATOM      7  N   UNL d   1       0.476   1.989   2.378  0.00  0.00    -0.732 N 
ATOM      8  C   UNL d   1       1.843   1.527   2.482  0.00  0.00     0.284 C 
ATOM      9  H3  UNL d   1       0.386   2.969   2.119  0.00  0.00     0.395 HD
ENDBRANCH   1   7
TORSDOF 1
ENDMDL
