MODEL 1
REMARK minimizedAffinity -0.423941821
REMARK minimizedRMSD -1
REMARK  1 active torsions:
REMARK  status: ('A' for Active; 'I' for Inactive)
REMARK    1  A    between atoms: N_2  and  C1_3 
ROOT
ATOM      1  C1  UNL d   1       0.697   1.122   1.203  0.00  0.00     0.143 A 
ATOM      2  C2  UNL d   1      -0.105   0.355   0.351  0.00  0.00    -0.057 A 
ATOM      3  C3  UNL d   1      -1.347  -0.136   0.771  0.00  0.00     0.033 A 
ATOM      4  C4  UNL d   1      -1.798   0.108   2.063  0.00  0.00    -0.042 A 
ATOM      5  C5  UNL d   1      -1.007   0.848   2.935  0.00  0.00     0.033 A 
ATOM      6  C6  UNL d   1       0.230   1.341   2.509  0.00  0.00    -0.057 A 
ENDROOT
BRANCH   1   7
ATOM      7  N   UNL d   1       1.985   1.556   0.878  0.00  0.00    -0.732 N 
ATOM      8  C   UNL d   1       3.008   0.606   0.497  0.00  0.00     0.284 C 
ATOM      9  H3  UNL d   1       1.979   2.407   0.321  0.00  0.00     0.395 HD
ENDBRANCH   1   7
TORSDOF 1
ENDMDL
