MODEL 1
REMARK minimizedAffinity 0.533725858
REMARK minimizedRMSD -1
REMARK  1 active torsions:
REMARK  status: ('A' for Active; 'I' for Inactive)
REMARK    1  A    between atoms: N_2  and  C1_3 
ROOT
ATOM      1  C1  UNL d   1       0.595   1.349   1.370  0.00  0.00     0.143 A 
ATOM      2  C2  UNL d   1      -0.189   0.480   0.604  0.00  0.00    -0.057 A 
ATOM      3  C3  UNL d   1      -1.322  -0.142   1.143  0.00  0.00     0.033 A 
ATOM      4  C4  UNL d   1      -1.675   0.073   2.471  0.00  0.00    -0.042 A 
ATOM      5  C5  UNL d   1      -0.896   0.913   3.259  0.00  0.00     0.033 A 
ATOM      6  C6  UNL d   1       0.231   1.536   2.713  0.00  0.00    -0.057 A 
ENDROOT
BRANCH   1   7
ATOM      7  N   UNL d   1       1.788   1.921   0.921  0.00  0.00    -0.732 N 
ATOM      8  C   UNL d   1       3.066   1.393   1.351  0.00  0.00     0.284 C 
ATOM      9  H3  UNL d   1       1.752   2.171  -0.064  0.00  0.00     0.395 HD
ENDBRANCH   1   7
TORSDOF 1
ENDMDL
