MODEL 1
REMARK minimizedAffinity 0.723754644
REMARK minimizedRMSD -1
REMARK  1 active torsions:
REMARK  status: ('A' for Active; 'I' for Inactive)
REMARK    1  A    between atoms: N_2  and  C1_3 
ROOT
ATOM      1  C1  UNL d   1      -0.508  -1.133   4.955  0.00  0.00     0.143 A 
ATOM      2  C2  UNL d   1      -1.199  -1.931   5.873  0.00  0.00    -0.057 A 
ATOM      3  C3  UNL d   1      -2.592  -1.854   6.000  0.00  0.00     0.033 A 
ATOM      4  C4  UNL d   1      -3.317  -0.952   5.227  0.00  0.00    -0.042 A 
ATOM      5  C5  UNL d   1      -2.648  -0.131   4.326  0.00  0.00     0.033 A 
ATOM      6  C6  UNL d   1      -1.259  -0.218   4.200  0.00  0.00    -0.057 A 
ENDROOT
BRANCH   1   7
ATOM      7  N   UNL d   1       0.884  -1.094   4.853  0.00  0.00    -0.732 N 
ATOM      8  C   UNL d   1       1.682  -2.250   5.201  0.00  0.00     0.284 C 
ATOM      9  H3  UNL d   1       1.198  -0.609   4.015  0.00  0.00     0.395 HD
ENDBRANCH   1   7
TORSDOF 1
ENDMDL
