MODEL 1
REMARK minimizedAffinity -0.0632749498
REMARK minimizedRMSD -1
REMARK  1 active torsions:
REMARK  status: ('A' for Active; 'I' for Inactive)
REMARK    1  A    between atoms: N_2  and  C1_3 
ROOT
ATOM      1  C1  UNL d   1      -0.493  -1.512   5.255  0.00  0.00     0.143 A 
ATOM      2  C2  UNL d   1      -1.168  -0.581   4.458  0.00  0.00    -0.057 A 
ATOM      3  C3  UNL d   1      -2.567  -0.519   4.440  0.00  0.00     0.033 A 
ATOM      4  C4  UNL d   1      -3.318  -1.409   5.201  0.00  0.00    -0.042 A 
ATOM      5  C5  UNL d   1      -2.668  -2.359   5.982  0.00  0.00     0.033 A 
ATOM      6  C6  UNL d   1      -1.271  -2.411   6.000  0.00  0.00    -0.057 A 
ENDROOT
BRANCH   1   7
ATOM      7  N   UNL d   1       0.893  -1.688   5.240  0.00  0.00    -0.732 N 
ATOM      8  C   UNL d   1       1.468  -2.982   4.942  0.00  0.00     0.284 C 
ATOM      9  H3  UNL d   1       1.379  -0.907   4.806  0.00  0.00     0.395 HD
ENDBRANCH   1   7
TORSDOF 1
ENDMDL
