MODEL 1
REMARK minimizedAffinity -4.89999628
REMARK minimizedRMSD -1
REMARK  1 active torsions:
REMARK  status: ('A' for Active; 'I' for Inactive)
REMARK    1  A    between atoms: N_2  and  C1_3 
ROOT
ATOM      1  C1  UNL d   1       0.122  -0.321   0.697  0.00  0.00     0.143 A 
ATOM      2  C2  UNL d   1       0.232  -1.330  -0.266  0.00  0.00    -0.057 A 
ATOM      3  C3  UNL d   1      -0.218  -2.631  -0.010  0.00  0.00     0.033 A 
ATOM      4  C4  UNL d   1      -0.761  -2.954   1.229  0.00  0.00    -0.042 A 
ATOM      5  C5  UNL d   1      -0.858  -1.974   2.210  0.00  0.00     0.033 A 
ATOM      6  C6  UNL d   1      -0.413  -0.675   1.946  0.00  0.00    -0.057 A 
ENDROOT
BRANCH   1   7
ATOM      7  N   UNL d   1       0.640   0.966   0.538  0.00  0.00    -0.732 N 
ATOM      8  C   UNL d   1       1.930   1.315   1.095  0.00  0.00     0.284 C 
ATOM      9  H3  UNL d   1       0.475   1.339  -0.394  0.00  0.00     0.395 HD
ENDBRANCH   1   7
TORSDOF 1
ENDMDL
