MODEL 1
REMARK minimizedAffinity -1.30447912
REMARK minimizedRMSD -1
REMARK  1 active torsions:
REMARK  status: ('A' for Active; 'I' for Inactive)
REMARK    1  A    between atoms: N_2  and  C1_3 
ROOT
ATOM      1  C1  UNL d   1       0.145  -0.508   0.162  0.00  0.00     0.143 A 
ATOM      2  C2  UNL d   1      -0.414  -0.493   1.445  0.00  0.00    -0.057 A 
ATOM      3  C3  UNL d   1      -1.109  -1.600   1.946  0.00  0.00     0.033 A 
ATOM      4  C4  UNL d   1      -1.283  -2.734   1.160  0.00  0.00    -0.042 A 
ATOM      5  C5  UNL d   1      -0.758  -2.761  -0.127  0.00  0.00     0.033 A 
ATOM      6  C6  UNL d   1      -0.059  -1.655  -0.620  0.00  0.00    -0.057 A 
ENDROOT
BRANCH   1   7
ATOM      7  N   UNL d   1       0.763   0.597  -0.430  0.00  0.00    -0.732 N 
ATOM      8  C   UNL d   1       0.267   1.935  -0.189  0.00  0.00     0.284 C 
ATOM      9  H3  UNL d   1       1.778   0.523  -0.427  0.00  0.00     0.395 HD
ENDBRANCH   1   7
TORSDOF 1
ENDMDL
