MODEL 1
REMARK minimizedAffinity -3.87526035
REMARK minimizedRMSD -1
REMARK  1 active torsions:
REMARK  status: ('A' for Active; 'I' for Inactive)
REMARK    1  A    between atoms: N_2  and  C1_3 
ROOT
ATOM      1  C1  UNL d   1       0.902   1.322   0.192  0.00  0.00     0.143 A 
ATOM      2  C2  UNL d   1       0.878   0.662   1.425  0.00  0.00    -0.057 A 
ATOM      3  C3  UNL d   1       0.484  -0.678   1.525  0.00  0.00     0.033 A 
ATOM      4  C4  UNL d   1       0.078  -1.376   0.392  0.00  0.00    -0.042 A 
ATOM      5  C5  UNL d   1       0.070  -0.733  -0.841  0.00  0.00     0.033 A 
ATOM      6  C6  UNL d   1       0.470   0.604  -0.934  0.00  0.00    -0.057 A 
ENDROOT
BRANCH   1   7
ATOM      7  N   UNL d   1       1.189   2.681   0.042  0.00  0.00    -0.732 N 
ATOM      8  C   UNL d   1       2.519   3.186   0.304  0.00  0.00     0.284 C 
ATOM      9  H3  UNL d   1       0.746   3.083  -0.781  0.00  0.00     0.395 HD
ENDBRANCH   1   7
TORSDOF 1
ENDMDL
