MODEL 1
REMARK minimizedAffinity -3.58461404
REMARK minimizedRMSD -1
REMARK  1 active torsions:
REMARK  status: ('A' for Active; 'I' for Inactive)
REMARK    1  A    between atoms: N_2  and  C1_3 
ROOT
ATOM      1  C1  UNL d   1       0.090  -0.055   0.461  0.00  0.00     0.143 A 
ATOM      2  C2  UNL d   1       0.429  -1.351   0.864  0.00  0.00    -0.057 A 
ATOM      3  C3  UNL d   1      -0.547  -2.251   1.308  0.00  0.00     0.033 A 
ATOM      4  C4  UNL d   1      -1.880  -1.860   1.385  0.00  0.00    -0.042 A 
ATOM      5  C5  UNL d   1      -2.236  -0.569   1.014  0.00  0.00     0.033 A 
ATOM      6  C6  UNL d   1      -1.258   0.324   0.564  0.00  0.00    -0.057 A 
ENDROOT
BRANCH   1   7
ATOM      7  N   UNL d   1       1.026   0.918   0.103  0.00  0.00    -0.732 N 
ATOM      8  C   UNL d   1       0.723   2.325   0.257  0.00  0.00     0.284 C 
ATOM      9  H3  UNL d   1       1.973   0.665   0.375  0.00  0.00     0.395 HD
ENDBRANCH   1   7
TORSDOF 1
ENDMDL
