MODEL 1
REMARK minimizedAffinity -4.66649961
REMARK minimizedRMSD -1
REMARK  1 active torsions:
REMARK  status: ('A' for Active; 'I' for Inactive)
REMARK    1  A    between atoms: N_2  and  C1_3 
ROOT
ATOM      1  C1  UNL d   1       0.364  -0.440   0.470  0.00  0.00     0.143 A 
ATOM      2  C2  UNL d   1       0.264  -1.651  -0.224  0.00  0.00    -0.057 A 
ATOM      3  C3  UNL d   1      -0.792  -2.539   0.013  0.00  0.00     0.033 A 
ATOM      4  C4  UNL d   1      -1.754  -2.245   0.973  0.00  0.00    -0.042 A 
ATOM      5  C5  UNL d   1      -1.662  -1.059   1.693  0.00  0.00     0.033 A 
ATOM      6  C6  UNL d   1      -0.609  -0.173   1.447  0.00  0.00    -0.057 A 
ENDROOT
BRANCH   1   7
ATOM      7  N   UNL d   1       1.443   0.439   0.350  0.00  0.00    -0.732 N 
ATOM      8  C   UNL d   1       1.242   1.869   0.445  0.00  0.00     0.284 C 
ATOM      9  H3  UNL d   1       2.273   0.102   0.832  0.00  0.00     0.395 HD
ENDBRANCH   1   7
TORSDOF 1
ENDMDL
