MODEL 1
REMARK minimizedAffinity -0.507582605
REMARK minimizedRMSD -1
REMARK  1 active torsions:
REMARK  status: ('A' for Active; 'I' for Inactive)
REMARK    1  A    between atoms: N_2  and  C1_3 
ROOT
ATOM      1  C1  UNL d   1      -1.210  -1.738   0.772  0.00  0.00     0.143 A 
ATOM      2  C2  UNL d   1      -0.265  -1.369  -0.191  0.00  0.00    -0.057 A 
ATOM      3  C3  UNL d   1       0.130  -0.035  -0.346  0.00  0.00     0.033 A 
ATOM      4  C4  UNL d   1      -0.438   0.961   0.441  0.00  0.00    -0.042 A 
ATOM      5  C5  UNL d   1      -1.398   0.621   1.387  0.00  0.00     0.033 A 
ATOM      6  C6  UNL d   1      -1.783  -0.714   1.543  0.00  0.00    -0.057 A 
ENDROOT
BRANCH   1   7
ATOM      7  N   UNL d   1      -1.716  -3.033   0.909  0.00  0.00    -0.732 N 
ATOM      8  C   UNL d   1      -3.137  -3.285   0.803  0.00  0.00     0.284 C 
ATOM      9  H3  UNL d   1      -1.135  -3.728   0.445  0.00  0.00     0.395 HD
ENDBRANCH   1   7
TORSDOF 1
ENDMDL
