MODEL 1
REMARK minimizedAffinity -4.253232
REMARK minimizedRMSD -1
REMARK  1 active torsions:
REMARK  status: ('A' for Active; 'I' for Inactive)
REMARK    1  A    between atoms: N_2  and  C1_3 
ROOT
ATOM      1  C1  UNL d   1      -0.343  -0.978   0.354  0.00  0.00     0.143 A 
ATOM      2  C2  UNL d   1      -0.246  -2.355   0.580  0.00  0.00    -0.057 A 
ATOM      3  C3  UNL d   1       0.393  -3.198  -0.337  0.00  0.00     0.033 A 
ATOM      4  C4  UNL d   1       0.922  -2.681  -1.515  0.00  0.00    -0.042 A 
ATOM      5  C5  UNL d   1       0.815  -1.319  -1.772  0.00  0.00     0.033 A 
ATOM      6  C6  UNL d   1       0.181  -0.481  -0.849  0.00  0.00    -0.057 A 
ENDROOT
BRANCH   1   7
ATOM      7  N   UNL d   1      -1.052  -0.102   1.180  0.00  0.00    -0.732 N 
ATOM      8  C   UNL d   1      -2.268  -0.531   1.837  0.00  0.00     0.284 C 
ATOM      9  H3  UNL d   1      -0.439   0.461   1.765  0.00  0.00     0.395 HD
ENDBRANCH   1   7
TORSDOF 1
ENDMDL
