MODEL 1
REMARK minimizedAffinity -5.35404491
REMARK minimizedRMSD -1
REMARK  1 active torsions:
REMARK  status: ('A' for Active; 'I' for Inactive)
REMARK    1  A    between atoms: N_2  and  C1_3 
ROOT
ATOM      1  C1  UNL d   1       0.028  -0.254   0.907  0.00  0.00     0.143 A 
ATOM      2  C2  UNL d   1       0.251  -0.059   2.274  0.00  0.00    -0.057 A 
ATOM      3  C3  UNL d   1       0.745   1.156   2.763  0.00  0.00     0.033 A 
ATOM      4  C4  UNL d   1       1.052   2.192   1.887  0.00  0.00    -0.042 A 
ATOM      5  C5  UNL d   1       0.861   2.013   0.522  0.00  0.00     0.033 A 
ATOM      6  C6  UNL d   1       0.362   0.799   0.040  0.00  0.00    -0.057 A 
ENDROOT
BRANCH   1   7
ATOM      7  N   UNL d   1      -0.368  -1.472   0.349  0.00  0.00    -0.732 N 
ATOM      8  C   UNL d   1      -1.256  -2.359   1.070  0.00  0.00     0.284 C 
ATOM      9  H3  UNL d   1      -0.573  -1.396  -0.644  0.00  0.00     0.395 HD
ENDBRANCH   1   7
TORSDOF 1
ENDMDL
