MODEL 1
REMARK minimizedAffinity -3.03511882
REMARK minimizedRMSD -1
REMARK  1 active torsions:
REMARK  status: ('A' for Active; 'I' for Inactive)
REMARK    1  A    between atoms: N_2  and  C1_3 
ROOT
ATOM      1  C1  UNL d   1       0.010  -1.207  -1.057  0.00  0.00     0.143 A 
ATOM      2  C2  UNL d   1       0.302   0.141  -0.822  0.00  0.00    -0.057 A 
ATOM      3  C3  UNL d   1       0.119   0.714   0.443  0.00  0.00     0.033 A 
ATOM      4  C4  UNL d   1      -0.388  -0.047   1.491  0.00  0.00    -0.042 A 
ATOM      5  C5  UNL d   1      -0.709  -1.383   1.274  0.00  0.00     0.033 A 
ATOM      6  C6  UNL d   1      -0.518  -1.951   0.011  0.00  0.00    -0.057 A 
ENDROOT
BRANCH   1   7
ATOM      7  N   UNL d   1       0.078  -1.810  -2.315  0.00  0.00    -0.732 N 
ATOM      8  C   UNL d   1      -0.540  -3.097  -2.550  0.00  0.00     0.284 C 
ATOM      9  H3  UNL d   1      -0.051  -1.143  -3.073  0.00  0.00     0.395 HD
ENDBRANCH   1   7
TORSDOF 1
ENDMDL
