MODEL 1
REMARK minimizedAffinity -2.67911935
REMARK minimizedRMSD -1
REMARK  1 active torsions:
REMARK  status: ('A' for Active; 'I' for Inactive)
REMARK    1  A    between atoms: N_2  and  C1_3 
ROOT
ATOM      1  C1  UNL d   1      -0.771  -1.978  -0.713  0.00  0.00     0.143 A 
ATOM      2  C2  UNL d   1      -1.145  -2.655   0.452  0.00  0.00    -0.057 A 
ATOM      3  C3  UNL d   1      -1.188  -2.002   1.690  0.00  0.00     0.033 A 
ATOM      4  C4  UNL d   1      -0.827  -0.663   1.789  0.00  0.00    -0.042 A 
ATOM      5  C5  UNL d   1      -0.428   0.024   0.648  0.00  0.00     0.033 A 
ATOM      6  C6  UNL d   1      -0.394  -0.632  -0.586  0.00  0.00    -0.057 A 
ENDROOT
BRANCH   1   7
ATOM      7  N   UNL d   1      -0.614  -2.596  -1.956  0.00  0.00    -0.732 N 
ATOM      8  C   UNL d   1       0.053  -1.910  -3.042  0.00  0.00     0.284 C 
ATOM      9  H3  UNL d   1      -0.368  -3.579  -1.873  0.00  0.00     0.395 HD
ENDBRANCH   1   7
TORSDOF 1
ENDMDL
