MODEL 1
REMARK minimizedAffinity -2.27276921
REMARK minimizedRMSD -1
REMARK  1 active torsions:
REMARK  status: ('A' for Active; 'I' for Inactive)
REMARK    1  A    between atoms: N_2  and  C1_3 
ROOT
ATOM      1  C1  UNL d   1       0.320   1.519   0.191  0.00  0.00     0.143 A 
ATOM      2  C2  UNL d   1      -0.102   2.392   1.200  0.00  0.00    -0.057 A 
ATOM      3  C3  UNL d   1       0.577   3.589   1.456  0.00  0.00     0.033 A 
ATOM      4  C4  UNL d   1       1.712   3.922   0.725  0.00  0.00    -0.042 A 
ATOM      5  C5  UNL d   1       2.165   3.058  -0.266  0.00  0.00     0.033 A 
ATOM      6  C6  UNL d   1       1.479   1.867  -0.522  0.00  0.00    -0.057 A 
ENDROOT
BRANCH   1   7
ATOM      7  N   UNL d   1      -0.254   0.268  -0.046  0.00  0.00    -0.732 N 
ATOM      8  C   UNL d   1      -0.761  -0.530   1.049  0.00  0.00     0.284 C 
ATOM      9  H3  UNL d   1      -0.846   0.263  -0.873  0.00  0.00     0.395 HD
ENDBRANCH   1   7
TORSDOF 1
ENDMDL
