MODEL 1
REMARK minimizedAffinity 10.4970284
REMARK minimizedRMSD -1
REMARK  2 active torsions:
REMARK  status: ('A' for Active; 'I' for Inactive)
REMARK    1  A    between atoms: C1_2  and  C2_3 
REMARK    2  A    between atoms: C2_3  and  C3_4 
ROOT
ATOM      1  C3  UNL d   1       0.896  -3.353   0.582  0.00  0.00    -0.075 A 
ATOM      2  C4  UNL d   1       1.125  -2.085   1.137  0.00  0.00     0.002 A 
ATOM      3  C5  UNL d   1       0.054  -1.268   1.502  0.00  0.00     0.002 A 
ATOM      4  C6  UNL d   1      -1.255  -1.702   1.307  0.00  0.00    -0.004 A 
ATOM      5  C7  UNL d   1      -1.494  -2.953   0.741  0.00  0.00     0.002 A 
ATOM      6  C8  UNL d   1      -0.425  -3.774   0.379  0.00  0.00     0.002 A 
ENDROOT
BRANCH   1   7
ATOM      7  C2  UNL d   1       2.050  -4.253   0.212  0.00  0.00     0.056 C 
BRANCH   7   8
ATOM      8  C1  UNL d   1       2.854  -4.762   1.413  0.00  0.00     0.007 C 
ATOM      9  C   UNL d   1       2.248  -6.000   2.061  0.00  0.00     0.009 C 
ENDBRANCH   7   8
ENDBRANCH   1   7
TORSDOF 2
ENDMDL
