MODEL 1
REMARK minimizedAffinity -1.88679612
REMARK minimizedRMSD -1
REMARK  2 active torsions:
REMARK  status: ('A' for Active; 'I' for Inactive)
REMARK    1  A    between atoms: C1_2  and  C2_3 
REMARK    2  A    between atoms: C2_3  and  C3_4 
ROOT
ATOM      1  C3  UNL d   1       1.879   2.050   0.294  0.00  0.00    -0.075 A 
ATOM      2  C4  UNL d   1       0.566   1.802   0.721  0.00  0.00     0.002 A 
ATOM      3  C5  UNL d   1      -0.487   2.599   0.271  0.00  0.00     0.002 A 
ATOM      4  C6  UNL d   1      -0.241   3.657  -0.601  0.00  0.00    -0.004 A 
ATOM      5  C7  UNL d   1       1.061   3.923  -1.019  0.00  0.00     0.002 A 
ATOM      6  C8  UNL d   1       2.116   3.125  -0.574  0.00  0.00     0.002 A 
ENDROOT
BRANCH   1   7
ATOM      7  C2  UNL d   1       3.020   1.174   0.754  0.00  0.00     0.056 C 
BRANCH   7   8
ATOM      8  C1  UNL d   1       2.729   0.398   2.042  0.00  0.00     0.007 C 
ATOM      9  C   UNL d   1       2.746   1.274   3.288  0.00  0.00     0.009 C 
ENDBRANCH   7   8
ENDBRANCH   1   7
TORSDOF 2
ENDMDL
