MODEL 1
REMARK minimizedAffinity 3.81089377
REMARK minimizedRMSD -1
REMARK  2 active torsions:
REMARK  status: ('A' for Active; 'I' for Inactive)
REMARK    1  A    between atoms: C1_2  and  C2_3 
REMARK    2  A    between atoms: C2_3  and  C3_4 
ROOT
ATOM      1  C3  UNL d   1       2.469   1.806   0.986  0.00  0.00    -0.075 A 
ATOM      2  C4  UNL d   1       2.282   0.882   2.025  0.00  0.00     0.002 A 
ATOM      3  C5  UNL d   1       2.977  -0.328   2.029  0.00  0.00     0.002 A 
ATOM      4  C6  UNL d   1       3.857  -0.634   0.993  0.00  0.00    -0.004 A 
ATOM      5  C7  UNL d   1       4.038   0.270  -0.052  0.00  0.00     0.002 A 
ATOM      6  C8  UNL d   1       3.347   1.483  -0.057  0.00  0.00     0.002 A 
ENDROOT
BRANCH   1   7
ATOM      7  C2  UNL d   1       1.742   3.130   0.991  0.00  0.00     0.056 C 
BRANCH   7   8
ATOM      8  C1  UNL d   1       2.106   4.045  -0.183  0.00  0.00     0.007 C 
ATOM      9  C   UNL d   1       1.061   4.045  -1.291  0.00  0.00     0.009 C 
ENDBRANCH   7   8
ENDBRANCH   1   7
TORSDOF 2
ENDMDL
