MODEL 1
REMARK minimizedAffinity -0.873994231
REMARK minimizedRMSD -1
REMARK  2 active torsions:
REMARK  status: ('A' for Active; 'I' for Inactive)
REMARK    1  A    between atoms: C1_2  and  C2_3 
REMARK    2  A    between atoms: C2_3  and  C3_4 
ROOT
ATOM      1  C3  UNL d   1       1.518   2.297   0.340  0.00  0.00    -0.075 A 
ATOM      2  C4  UNL d   1       1.991   3.423  -0.349  0.00  0.00     0.002 A 
ATOM      3  C5  UNL d   1       1.115   4.442  -0.726  0.00  0.00     0.002 A 
ATOM      4  C6  UNL d   1      -0.242   4.344  -0.429  0.00  0.00    -0.004 A 
ATOM      5  C7  UNL d   1      -0.726   3.222   0.241  0.00  0.00     0.002 A 
ATOM      6  C8  UNL d   1       0.148   2.203   0.623  0.00  0.00     0.002 A 
ENDROOT
BRANCH   1   7
ATOM      7  C2  UNL d   1       2.464   1.205   0.777  0.00  0.00     0.056 C 
BRANCH   7   8
ATOM      8  C1  UNL d   1       1.849  -0.198   0.758  0.00  0.00     0.007 C 
ATOM      9  C   UNL d   1       1.778  -0.842   2.137  0.00  0.00     0.009 C 
ENDBRANCH   7   8
ENDBRANCH   1   7
TORSDOF 2
ENDMDL
