MODEL 1
REMARK minimizedAffinity -0.325479537
REMARK minimizedRMSD -1
REMARK  2 active torsions:
REMARK  status: ('A' for Active; 'I' for Inactive)
REMARK    1  A    between atoms: C1_2  and  C2_3 
REMARK    2  A    between atoms: C2_3  and  C3_4 
ROOT
ATOM      1  C3  UNL d   1       0.654  -1.074   1.454  0.00  0.00    -0.075 A 
ATOM      2  C4  UNL d   1       0.449   0.222   0.959  0.00  0.00     0.002 A 
ATOM      3  C5  UNL d   1       1.469   1.171   1.016  0.00  0.00     0.002 A 
ATOM      4  C6  UNL d   1       2.701   0.842   1.577  0.00  0.00    -0.004 A 
ATOM      5  C7  UNL d   1       2.910  -0.438   2.087  0.00  0.00     0.002 A 
ATOM      6  C8  UNL d   1       1.892  -1.391   2.027  0.00  0.00     0.002 A 
ENDROOT
BRANCH   1   7
ATOM      7  C2  UNL d   1      -0.437  -2.116   1.368  0.00  0.00     0.056 C 
BRANCH   7   8
ATOM      8  C1  UNL d   1      -1.846  -1.532   1.216  0.00  0.00     0.007 C 
ATOM      9  C   UNL d   1      -2.769  -2.404   0.376  0.00  0.00     0.009 C 
ENDBRANCH   7   8
ENDBRANCH   1   7
TORSDOF 2
ENDMDL
