MODEL 1
REMARK minimizedAffinity -2.13892341
REMARK minimizedRMSD -1
REMARK  2 active torsions:
REMARK  status: ('A' for Active; 'I' for Inactive)
REMARK    1  A    between atoms: C1_2  and  C2_3 
REMARK    2  A    between atoms: C2_3  and  C3_4 
ROOT
ATOM      1  C3  UNL d   1       1.314  -1.237   3.410  0.00  0.00    -0.075 A 
ATOM      2  C4  UNL d   1       2.011  -0.076   3.047  0.00  0.00     0.002 A 
ATOM      3  C5  UNL d   1       1.839   0.487   1.782  0.00  0.00     0.002 A 
ATOM      4  C6  UNL d   1       0.978  -0.109   0.863  0.00  0.00    -0.004 A 
ATOM      5  C7  UNL d   1       0.293  -1.272   1.207  0.00  0.00     0.002 A 
ATOM      6  C8  UNL d   1       0.460  -1.835   2.474  0.00  0.00     0.002 A 
ENDROOT
BRANCH   1   7
ATOM      7  C2  UNL d   1       1.473  -1.835   4.788  0.00  0.00     0.056 C 
BRANCH   7   8
ATOM      8  C1  UNL d   1       0.790  -3.195   4.961  0.00  0.00     0.007 C 
ATOM      9  C   UNL d   1       1.682  -4.234   5.629  0.00  0.00     0.009 C 
ENDBRANCH   7   8
ENDBRANCH   1   7
TORSDOF 2
ENDMDL
