MODEL 1
REMARK minimizedAffinity -3.55573034
REMARK minimizedRMSD -1
REMARK  2 active torsions:
REMARK  status: ('A' for Active; 'I' for Inactive)
REMARK    1  A    between atoms: C1_2  and  C2_3 
REMARK    2  A    between atoms: C2_3  and  C3_4 
ROOT
ATOM      1  C3  UNL d   1       1.665   0.043   2.672  0.00  0.00    -0.075 A 
ATOM      2  C4  UNL d   1       1.947   0.905   3.742  0.00  0.00     0.002 A 
ATOM      3  C5  UNL d   1       1.908   0.439   5.057  0.00  0.00     0.002 A 
ATOM      4  C6  UNL d   1       1.577  -0.889   5.319  0.00  0.00    -0.004 A 
ATOM      5  C7  UNL d   1       1.280  -1.750   4.265  0.00  0.00     0.002 A 
ATOM      6  C8  UNL d   1       1.322  -1.288   2.948  0.00  0.00     0.002 A 
ENDROOT
BRANCH   1   7
ATOM      7  C2  UNL d   1       1.735   0.533   1.246  0.00  0.00     0.056 C 
BRANCH   7   8
ATOM      8  C1  UNL d   1       0.436   0.341   0.456  0.00  0.00     0.007 C 
ATOM      9  C   UNL d   1      -0.240   1.654   0.084  0.00  0.00     0.009 C 
ENDBRANCH   7   8
ENDBRANCH   1   7
TORSDOF 2
ENDMDL
