MODEL 1
REMARK minimizedAffinity 4.27457333
REMARK minimizedRMSD -1
REMARK  0 active torsions:
REMARK  status: ('A' for Active; 'I' for Inactive)
ROOT
ATOM      1  C   UNL d   1       4.124   2.706   0.487  0.00  0.00     0.077 C 
ATOM      2  C1  UNL d   1       3.117   1.611   0.674  0.00  0.00    -0.074 A 
ATOM      3  C2  UNL d   1       2.016   1.493  -0.181  0.00  0.00    -0.005 A 
ATOM      4  C3  UNL d   1       1.093   0.464  -0.000  0.00  0.00     0.006 A 
ATOM      5  C4  UNL d   1       1.260  -0.457   1.035  0.00  0.00    -0.005 A 
ATOM      6  C5  UNL d   1       2.355  -0.355   1.899  0.00  0.00    -0.074 A 
ATOM      7  C6  UNL d   1       2.555  -1.342   3.011  0.00  0.00     0.077 C 
ATOM      8  C7  UNL d   1       3.282   0.678   1.707  0.00  0.00    -0.001 A 
ENDROOT
TORSDOF 0
ENDMDL
