MODEL 1
REMARK minimizedAffinity 4.07086802
REMARK minimizedRMSD -1
REMARK  0 active torsions:
REMARK  status: ('A' for Active; 'I' for Inactive)
ROOT
ATOM      1  C   UNL d   1      -5.975   2.680   1.708  0.00  0.00     0.077 C 
ATOM      2  C1  UNL d   1      -5.989   2.775   3.205  0.00  0.00    -0.074 A 
ATOM      3  C2  UNL d   1      -5.982   1.623   3.998  0.00  0.00    -0.005 A 
ATOM      4  C3  UNL d   1      -5.985   1.727   5.389  0.00  0.00     0.006 A 
ATOM      5  C4  UNL d   1      -5.994   2.981   6.000  0.00  0.00    -0.005 A 
ATOM      6  C5  UNL d   1      -6.000   4.144   5.223  0.00  0.00    -0.074 A 
ATOM      7  C6  UNL d   1      -5.999   5.501   5.863  0.00  0.00     0.077 C 
ATOM      8  C7  UNL d   1      -5.990   4.032   3.826  0.00  0.00    -0.001 A 
ENDROOT
TORSDOF 0
ENDMDL
