MODEL 1
REMARK minimizedAffinity 1.04809868
REMARK minimizedRMSD -1
REMARK  0 active torsions:
REMARK  status: ('A' for Active; 'I' for Inactive)
ROOT
ATOM      1  C   UNL d   1      -5.252  -0.460   1.835  0.00  0.00     0.077 C 
ATOM      2  C1  UNL d   1      -5.490   0.873   2.481  0.00  0.00    -0.074 A 
ATOM      3  C2  UNL d   1      -5.770   2.006   1.711  0.00  0.00    -0.005 A 
ATOM      4  C3  UNL d   1      -5.998   3.236   2.326  0.00  0.00     0.006 A 
ATOM      5  C4  UNL d   1      -5.949   3.346   3.716  0.00  0.00    -0.005 A 
ATOM      6  C5  UNL d   1      -5.672   2.224   4.504  0.00  0.00    -0.074 A 
ATOM      7  C6  UNL d   1      -5.625   2.323   5.999  0.00  0.00     0.077 C 
ATOM      8  C7  UNL d   1      -5.450   0.990   3.878  0.00  0.00    -0.001 A 
ENDROOT
TORSDOF 0
ENDMDL
