MODEL 1
REMARK minimizedAffinity 2.97220135
REMARK minimizedRMSD -1
REMARK  0 active torsions:
REMARK  status: ('A' for Active; 'I' for Inactive)
ROOT
ATOM      1  C   UNL d   1       0.411   1.783   3.617  0.00  0.00     0.077 C 
ATOM      2  C1  UNL d   1      -0.486   1.197   2.567  0.00  0.00    -0.074 A 
ATOM      3  C2  UNL d   1      -0.005   0.248   1.660  0.00  0.00    -0.005 A 
ATOM      4  C3  UNL d   1      -0.853  -0.296   0.695  0.00  0.00     0.006 A 
ATOM      5  C4  UNL d   1      -2.189   0.104   0.628  0.00  0.00    -0.005 A 
ATOM      6  C5  UNL d   1      -2.687   1.052   1.527  0.00  0.00    -0.074 A 
ATOM      7  C6  UNL d   1      -4.122   1.486   1.475  0.00  0.00     0.077 C 
ATOM      8  C7  UNL d   1      -1.830   1.588   2.498  0.00  0.00    -0.001 A 
ENDROOT
TORSDOF 0
ENDMDL
