MODEL 1
REMARK minimizedAffinity 9.09852314
REMARK minimizedRMSD -1
REMARK  0 active torsions:
REMARK  status: ('A' for Active; 'I' for Inactive)
ROOT
ATOM      1  C   UNL d   1       2.604  -0.331   0.362  0.00  0.00     0.077 C 
ATOM      2  C1  UNL d   1       1.331   0.086   1.038  0.00  0.00    -0.074 A 
ATOM      3  C2  UNL d   1       0.190  -0.720   0.982  0.00  0.00    -0.005 A 
ATOM      4  C3  UNL d   1      -0.984  -0.323   1.623  0.00  0.00     0.006 A 
ATOM      5  C4  UNL d   1      -1.027   0.881   2.326  0.00  0.00    -0.005 A 
ATOM      6  C5  UNL d   1       0.104   1.700   2.394  0.00  0.00    -0.074 A 
ATOM      7  C6  UNL d   1       0.077   2.993   3.154  0.00  0.00     0.077 C 
ATOM      8  C7  UNL d   1       1.282   1.291   1.753  0.00  0.00    -0.001 A 
ENDROOT
TORSDOF 0
ENDMDL
