MODEL 1
REMARK minimizedAffinity 5.66517258
REMARK minimizedRMSD -1
REMARK  0 active torsions:
REMARK  status: ('A' for Active; 'I' for Inactive)
ROOT
ATOM      1  C   UNL d   1       1.090   1.738   3.111  0.00  0.00     0.077 C 
ATOM      2  C1  UNL d   1       0.004   1.097   2.300  0.00  0.00    -0.074 A 
ATOM      3  C2  UNL d   1       0.277   0.009   1.465  0.00  0.00    -0.005 A 
ATOM      4  C3  UNL d   1      -0.746  -0.584   0.725  0.00  0.00     0.006 A 
ATOM      5  C4  UNL d   1      -2.050  -0.095   0.811  0.00  0.00    -0.005 A 
ATOM      6  C5  UNL d   1      -2.342   0.991   1.642  0.00  0.00    -0.074 A 
ATOM      7  C6  UNL d   1      -3.741   1.523   1.754  0.00  0.00     0.077 C 
ATOM      8  C7  UNL d   1      -1.311   1.577   2.388  0.00  0.00    -0.001 A 
ENDROOT
TORSDOF 0
ENDMDL
