MODEL 1
REMARK minimizedAffinity 0.854503572
REMARK minimizedRMSD -1
REMARK  0 active torsions:
REMARK  status: ('A' for Active; 'I' for Inactive)
ROOT
ATOM      1  C   UNL d   1      -4.492  -1.332   5.999  0.00  0.00     0.077 C 
ATOM      2  C1  UNL d   1      -4.625   0.007   5.336  0.00  0.00    -0.074 A 
ATOM      3  C2  UNL d   1      -5.227   1.081   6.000  0.00  0.00    -0.005 A 
ATOM      4  C3  UNL d   1      -5.335   2.323   5.375  0.00  0.00     0.006 A 
ATOM      5  C4  UNL d   1      -4.842   2.504   4.082  0.00  0.00    -0.005 A 
ATOM      6  C5  UNL d   1      -4.235   1.442   3.403  0.00  0.00    -0.074 A 
ATOM      7  C6  UNL d   1      -3.691   1.622   2.017  0.00  0.00     0.077 C 
ATOM      8  C7  UNL d   1      -4.125   0.199   4.041  0.00  0.00    -0.001 A 
ENDROOT
TORSDOF 0
ENDMDL
