MODEL 1
REMARK minimizedAffinity 15.1632471
REMARK minimizedRMSD -1
REMARK  0 active torsions:
REMARK  status: ('A' for Active; 'I' for Inactive)
ROOT
ATOM      1  C   UNL d   1       1.041  -0.441   2.171  0.00  0.00     0.077 C 
ATOM      2  C1  UNL d   1       2.435  -0.115   1.724  0.00  0.00    -0.074 A 
ATOM      3  C2  UNL d   1       2.662   0.637   0.567  0.00  0.00    -0.005 A 
ATOM      4  C3  UNL d   1       3.964   0.940   0.169  0.00  0.00     0.006 A 
ATOM      5  C4  UNL d   1       5.050   0.495   0.922  0.00  0.00    -0.005 A 
ATOM      6  C5  UNL d   1       4.843  -0.258   2.083  0.00  0.00    -0.074 A 
ATOM      7  C6  UNL d   1       6.000  -0.736   2.910  0.00  0.00     0.077 C 
ATOM      8  C7  UNL d   1       3.532  -0.552   2.480  0.00  0.00    -0.001 A 
ENDROOT
TORSDOF 0
ENDMDL
