MODEL 1
REMARK minimizedAffinity 3.72702122
REMARK minimizedRMSD -1
REMARK  0 active torsions:
REMARK  status: ('A' for Active; 'I' for Inactive)
ROOT
ATOM      1  C   UNL d   1      -0.283   1.859   2.868  0.00  0.00     0.077 C 
ATOM      2  C1  UNL d   1      -1.452   1.297   2.116  0.00  0.00    -0.074 A 
ATOM      3  C2  UNL d   1      -2.722   1.874   2.225  0.00  0.00    -0.005 A 
ATOM      4  C3  UNL d   1      -3.798   1.345   1.511  0.00  0.00     0.006 A 
ATOM      5  C4  UNL d   1      -3.615   0.237   0.683  0.00  0.00    -0.005 A 
ATOM      6  C5  UNL d   1      -2.353  -0.352   0.560  0.00  0.00    -0.074 A 
ATOM      7  C6  UNL d   1      -2.137  -1.537  -0.333  0.00  0.00     0.077 C 
ATOM      8  C7  UNL d   1      -1.275   0.189   1.275  0.00  0.00    -0.001 A 
ENDROOT
TORSDOF 0
ENDMDL
