MODEL 1
REMARK minimizedAffinity 8.40449715
REMARK minimizedRMSD -1
REMARK  0 active torsions:
REMARK  status: ('A' for Active; 'I' for Inactive)
ROOT
ATOM      1  C   UNL d   1      -1.295  -3.498   0.369  0.00  0.00     0.077 C 
ATOM      2  C1  UNL d   1      -1.757  -2.073   0.292  0.00  0.00    -0.074 A 
ATOM      3  C2  UNL d   1      -2.705  -1.676  -0.656  0.00  0.00    -0.005 A 
ATOM      4  C3  UNL d   1      -3.133  -0.349  -0.709  0.00  0.00     0.006 A 
ATOM      5  C4  UNL d   1      -2.618   0.592   0.183  0.00  0.00    -0.005 A 
ATOM      6  C5  UNL d   1      -1.670   0.212   1.139  0.00  0.00    -0.074 A 
ATOM      7  C6  UNL d   1      -1.114   1.209   2.113  0.00  0.00     0.077 C 
ATOM      8  C7  UNL d   1      -1.250  -1.124   1.191  0.00  0.00    -0.001 A 
ENDROOT
TORSDOF 0
ENDMDL
