MODEL 1
REMARK minimizedAffinity 4.67561483
REMARK minimizedRMSD -1
REMARK  0 active torsions:
REMARK  status: ('A' for Active; 'I' for Inactive)
ROOT
ATOM      1  C   UNL d   1      -1.423   0.336   0.315  0.00  0.00     0.077 C 
ATOM      2  C1  UNL d   1      -0.978   1.004   1.582  0.00  0.00    -0.074 A 
ATOM      3  C2  UNL d   1       0.375   1.270   1.817  0.00  0.00    -0.005 A 
ATOM      4  C3  UNL d   1       0.774   1.900   2.996  0.00  0.00     0.006 A 
ATOM      5  C4  UNL d   1      -0.175   2.271   3.950  0.00  0.00    -0.005 A 
ATOM      6  C5  UNL d   1      -1.532   2.014   3.732  0.00  0.00    -0.074 A 
ATOM      7  C6  UNL d   1      -2.566   2.414   4.742  0.00  0.00     0.077 C 
ATOM      8  C7  UNL d   1      -1.925   1.386   2.542  0.00  0.00    -0.001 A 
ENDROOT
TORSDOF 0
ENDMDL
