MODEL 1
REMARK minimizedAffinity 2.60187316
REMARK minimizedRMSD -1
REMARK  0 active torsions:
REMARK  status: ('A' for Active; 'I' for Inactive)
ROOT
ATOM      1  C   UNL d   1       0.741   1.896   2.980  0.00  0.00     0.077 C 
ATOM      2  C1  UNL d   1      -0.646   1.497   2.573  0.00  0.00    -0.074 A 
ATOM      3  C2  UNL d   1      -1.767   2.100   3.152  0.00  0.00    -0.005 A 
ATOM      4  C3  UNL d   1      -3.051   1.725   2.756  0.00  0.00     0.006 A 
ATOM      5  C4  UNL d   1      -3.226   0.745   1.779  0.00  0.00    -0.005 A 
ATOM      6  C5  UNL d   1      -2.117   0.131   1.188  0.00  0.00    -0.074 A 
ATOM      7  C6  UNL d   1      -2.288  -0.917   0.128  0.00  0.00     0.077 C 
ATOM      8  C7  UNL d   1      -0.830   0.519   1.586  0.00  0.00    -0.001 A 
ENDROOT
TORSDOF 0
ENDMDL
