MODEL 1
REMARK minimizedAffinity 7.72623158
REMARK minimizedRMSD -1
REMARK  0 active torsions:
REMARK  status: ('A' for Active; 'I' for Inactive)
ROOT
ATOM      1  C   UNL d   1      -2.554   2.572   3.562  0.00  0.00     0.077 C 
ATOM      2  C1  UNL d   1      -1.718   1.709   2.665  0.00  0.00    -0.074 A 
ATOM      3  C2  UNL d   1      -0.369   1.474   2.947  0.00  0.00    -0.005 A 
ATOM      4  C3  UNL d   1       0.394   0.661   2.108  0.00  0.00     0.006 A 
ATOM      5  C4  UNL d   1      -0.185   0.075   0.981  0.00  0.00    -0.005 A 
ATOM      6  C5  UNL d   1      -1.533   0.298   0.684  0.00  0.00    -0.074 A 
ATOM      7  C6  UNL d   1      -2.173  -0.332  -0.517  0.00  0.00     0.077 C 
ATOM      8  C7  UNL d   1      -2.294   1.110   1.535  0.00  0.00    -0.001 A 
ENDROOT
TORSDOF 0
ENDMDL
