MODEL 1
REMARK minimizedAffinity 3.48384595
REMARK minimizedRMSD -1
REMARK  0 active torsions:
REMARK  status: ('A' for Active; 'I' for Inactive)
ROOT
ATOM      1  C   UNL d   1      -1.401  -0.451   0.233  0.00  0.00     0.077 C 
ATOM      2  C1  UNL d   1      -1.302   0.507   1.383  0.00  0.00    -0.074 A 
ATOM      3  C2  UNL d   1      -2.439   0.889   2.101  0.00  0.00    -0.005 A 
ATOM      4  C3  UNL d   1      -2.330   1.773   3.174  0.00  0.00     0.006 A 
ATOM      5  C4  UNL d   1      -1.084   2.283   3.540  0.00  0.00    -0.005 A 
ATOM      6  C5  UNL d   1       0.065   1.912   2.834  0.00  0.00    -0.074 A 
ATOM      7  C6  UNL d   1       1.414   2.443   3.220  0.00  0.00     0.077 C 
ATOM      8  C7  UNL d   1      -0.052   1.017   1.761  0.00  0.00    -0.001 A 
ENDROOT
TORSDOF 0
ENDMDL
