MODEL 1
REMARK minimizedAffinity 3.50463128
REMARK minimizedRMSD -1
REMARK  0 active torsions:
REMARK  status: ('A' for Active; 'I' for Inactive)
ROOT
ATOM      1  C   UNL d   1      -3.787   1.559   1.713  0.00  0.00     0.077 C 
ATOM      2  C1  UNL d   1      -2.309   1.316   1.777  0.00  0.00    -0.074 A 
ATOM      3  C2  UNL d   1      -1.691   0.409   0.911  0.00  0.00    -0.005 A 
ATOM      4  C3  UNL d   1      -0.313   0.200   0.976  0.00  0.00     0.006 A 
ATOM      5  C4  UNL d   1       0.460   0.897   1.906  0.00  0.00    -0.005 A 
ATOM      6  C5  UNL d   1      -0.140   1.809   2.779  0.00  0.00    -0.074 A 
ATOM      7  C6  UNL d   1       0.677   2.573   3.778  0.00  0.00     0.077 C 
ATOM      8  C7  UNL d   1      -1.524   2.018   2.703  0.00  0.00    -0.001 A 
ENDROOT
TORSDOF 0
ENDMDL
