MODEL 1
REMARK minimizedAffinity 8.52875996
REMARK minimizedRMSD -1
REMARK  0 active torsions:
REMARK  status: ('A' for Active; 'I' for Inactive)
ROOT
ATOM      1  C   UNL d   1       1.611   3.021   2.782  0.00  0.00     0.077 C 
ATOM      2  C1  UNL d   1       0.768   1.851   2.368  0.00  0.00    -0.074 A 
ATOM      3  C2  UNL d   1       1.295   0.556   2.349  0.00  0.00    -0.005 A 
ATOM      4  C3  UNL d   1       0.496  -0.523   1.971  0.00  0.00     0.006 A 
ATOM      5  C4  UNL d   1      -0.836  -0.318   1.610  0.00  0.00    -0.005 A 
ATOM      6  C5  UNL d   1      -1.381   0.969   1.625  0.00  0.00    -0.074 A 
ATOM      7  C6  UNL d   1      -2.814   1.206   1.249  0.00  0.00     0.077 C 
ATOM      8  C7  UNL d   1      -0.574   2.048   2.012  0.00  0.00    -0.001 A 
ENDROOT
TORSDOF 0
ENDMDL
