MODEL 1
REMARK minimizedAffinity 4.56139517
REMARK minimizedRMSD -1
REMARK  0 active torsions:
REMARK  status: ('A' for Active; 'I' for Inactive)
ROOT
ATOM      1  C   UNL d   1      -0.838  -0.501   0.308  0.00  0.00     0.077 C 
ATOM      2  C1  UNL d   1      -0.938   0.525   1.397  0.00  0.00    -0.074 A 
ATOM      3  C2  UNL d   1      -2.183   0.973   1.850  0.00  0.00    -0.005 A 
ATOM      4  C3  UNL d   1      -2.261   1.920   2.871  0.00  0.00     0.006 A 
ATOM      5  C4  UNL d   1      -1.097   2.430   3.447  0.00  0.00    -0.005 A 
ATOM      6  C5  UNL d   1       0.157   1.994   3.007  0.00  0.00    -0.074 A 
ATOM      7  C6  UNL d   1       1.418   2.524   3.622  0.00  0.00     0.077 C 
ATOM      8  C7  UNL d   1       0.227   1.036   1.986  0.00  0.00    -0.001 A 
ENDROOT
TORSDOF 0
ENDMDL
