MODEL 1
REMARK minimizedAffinity 8.48346996
REMARK minimizedRMSD -1
REMARK  0 active torsions:
REMARK  status: ('A' for Active; 'I' for Inactive)
ROOT
ATOM      1  C   UNL d   1      -3.526   1.452   1.192  0.00  0.00     0.077 C 
ATOM      2  C1  UNL d   1      -2.095   1.197   1.559  0.00  0.00    -0.074 A 
ATOM      3  C2  UNL d   1      -1.310   0.307   0.818  0.00  0.00    -0.005 A 
ATOM      4  C3  UNL d   1       0.022   0.086   1.166  0.00  0.00     0.006 A 
ATOM      5  C4  UNL d   1       0.583   0.752   2.257  0.00  0.00    -0.005 A 
ATOM      6  C5  UNL d   1      -0.185   1.646   3.009  0.00  0.00    -0.074 A 
ATOM      7  C6  UNL d   1       0.405   2.378   4.178  0.00  0.00     0.077 C 
ATOM      8  C7  UNL d   1      -1.522   1.868   2.649  0.00  0.00    -0.001 A 
ENDROOT
TORSDOF 0
ENDMDL
