MODEL 1
REMARK minimizedAffinity -4.03448153
REMARK minimizedRMSD -1
REMARK  2 active torsions:
REMARK  status: ('A' for Active; 'I' for Inactive)
REMARK    1  A    between atoms: C1_2  and  C2_3 
REMARK    2  A    between atoms: C2_3  and  C3_4 
ROOT
ATOM      1  C3  UNL d   1       0.120  -0.036  -0.150  0.00  0.00    -0.075 A 
ATOM      2  C4  UNL d   1      -0.789   0.970  -0.510  0.00  0.00     0.002 A 
ATOM      3  C5  UNL d   1      -1.529   1.638   0.465  0.00  0.00     0.002 A 
ATOM      4  C6  UNL d   1      -1.379   1.302   1.809  0.00  0.00    -0.004 A 
ATOM      5  C7  UNL d   1      -0.492   0.293   2.177  0.00  0.00     0.002 A 
ATOM      6  C8  UNL d   1       0.254  -0.374   1.203  0.00  0.00     0.002 A 
ENDROOT
BRANCH   1   7
ATOM      7  C2  UNL d   1       0.945  -0.743  -1.199  0.00  0.00     0.056 C 
BRANCH   7   8
ATOM      8  C1  UNL d   1       0.783  -2.267  -1.198  0.00  0.00     0.007 C 
ATOM      9  C   UNL d   1       0.209  -2.810  -2.500  0.00  0.00     0.009 C 
ENDBRANCH   7   8
ENDBRANCH   1   7
TORSDOF 2
ENDMDL
