MODEL 1
REMARK minimizedAffinity -4.97023439
REMARK minimizedRMSD -1
REMARK  2 active torsions:
REMARK  status: ('A' for Active; 'I' for Inactive)
REMARK    1  A    between atoms: C1_2  and  C2_3 
REMARK    2  A    between atoms: C2_3  and  C3_4 
ROOT
ATOM      1  C3  UNL d   1      -0.042  -0.590  -0.375  0.00  0.00    -0.075 A 
ATOM      2  C4  UNL d   1      -0.902  -1.625  -0.770  0.00  0.00     0.002 A 
ATOM      3  C5  UNL d   1      -0.439  -2.660  -1.583  0.00  0.00     0.002 A 
ATOM      4  C6  UNL d   1       0.885  -2.668  -2.019  0.00  0.00    -0.004 A 
ATOM      5  C7  UNL d   1       1.743  -1.637  -1.646  0.00  0.00     0.002 A 
ATOM      6  C8  UNL d   1       1.283  -0.602  -0.829  0.00  0.00     0.002 A 
ENDROOT
BRANCH   1   7
ATOM      7  C2  UNL d   1      -0.530   0.517   0.529  0.00  0.00     0.056 C 
BRANCH   7   8
ATOM      8  C1  UNL d   1      -2.050   0.710   0.514  0.00  0.00     0.007 C 
ATOM      9  C   UNL d   1      -2.530   1.773   1.493  0.00  0.00     0.009 C 
ENDBRANCH   7   8
ENDBRANCH   1   7
TORSDOF 2
ENDMDL
