MODEL 1
REMARK minimizedAffinity -3.81083655
REMARK minimizedRMSD -1
REMARK  2 active torsions:
REMARK  status: ('A' for Active; 'I' for Inactive)
REMARK    1  A    between atoms: C1_2  and  C2_3 
REMARK    2  A    between atoms: C2_3  and  C3_4 
ROOT
ATOM      1  C3  UNL d   1       0.498  -0.559  -0.298  0.00  0.00    -0.075 A 
ATOM      2  C4  UNL d   1      -0.138  -0.773   0.933  0.00  0.00     0.002 A 
ATOM      3  C5  UNL d   1      -0.598   0.305   1.690  0.00  0.00     0.002 A 
ATOM      4  C6  UNL d   1      -0.420   1.608   1.232  0.00  0.00    -0.004 A 
ATOM      5  C7  UNL d   1       0.225   1.834   0.018  0.00  0.00     0.002 A 
ATOM      6  C8  UNL d   1       0.683   0.757  -0.744  0.00  0.00     0.002 A 
ENDROOT
BRANCH   1   7
ATOM      7  C2  UNL d   1       0.972  -1.722  -1.136  0.00  0.00     0.056 C 
BRANCH   7   8
ATOM      8  C1  UNL d   1       0.257  -1.851  -2.485  0.00  0.00     0.007 C 
ATOM      9  C   UNL d   1       0.109  -3.293  -2.951  0.00  0.00     0.009 C 
ENDBRANCH   7   8
ENDBRANCH   1   7
TORSDOF 2
ENDMDL
