MODEL 1
REMARK minimizedAffinity -5.34376287
REMARK minimizedRMSD -1
REMARK  2 active torsions:
REMARK  status: ('A' for Active; 'I' for Inactive)
REMARK    1  A    between atoms: C1_2  and  C2_3 
REMARK    2  A    between atoms: C2_3  and  C3_4 
ROOT
ATOM      1  C3  UNL d   1      -0.732   0.918  -0.248  0.00  0.00    -0.075 A 
ATOM      2  C4  UNL d   1      -1.513   1.966   0.259  0.00  0.00     0.002 A 
ATOM      3  C5  UNL d   1      -1.616   2.171   1.635  0.00  0.00     0.002 A 
ATOM      4  C6  UNL d   1      -0.950   1.327   2.520  0.00  0.00    -0.004 A 
ATOM      5  C7  UNL d   1      -0.184   0.272   2.028  0.00  0.00     0.002 A 
ATOM      6  C8  UNL d   1      -0.075   0.067   0.651  0.00  0.00     0.002 A 
ENDROOT
BRANCH   1   7
ATOM      7  C2  UNL d   1      -0.592   0.709  -1.737  0.00  0.00     0.056 C 
BRANCH   7   8
ATOM      8  C1  UNL d   1       0.859   0.686  -2.230  0.00  0.00     0.007 C 
ATOM      9  C   UNL d   1       1.566   2.026  -2.080  0.00  0.00     0.009 C 
ENDBRANCH   7   8
ENDBRANCH   1   7
TORSDOF 2
ENDMDL
