MODEL 1
REMARK minimizedAffinity -4.77809191
REMARK minimizedRMSD -1
REMARK  2 active torsions:
REMARK  status: ('A' for Active; 'I' for Inactive)
REMARK    1  A    between atoms: C1_2  and  C2_3 
REMARK    2  A    between atoms: C2_3  and  C3_4 
ROOT
ATOM      1  C3  UNL d   1       0.290   0.417   0.372  0.00  0.00    -0.075 A 
ATOM      2  C4  UNL d   1      -0.380   0.334   1.601  0.00  0.00     0.002 A 
ATOM      3  C5  UNL d   1      -1.268   1.337   1.993  0.00  0.00     0.002 A 
ATOM      4  C6  UNL d   1      -1.488   2.438   1.168  0.00  0.00    -0.004 A 
ATOM      5  C7  UNL d   1      -0.815   2.538  -0.047  0.00  0.00     0.002 A 
ATOM      6  C8  UNL d   1       0.070   1.534  -0.444  0.00  0.00     0.002 A 
ENDROOT
BRANCH   1   7
ATOM      7  C2  UNL d   1       1.229  -0.679  -0.071  0.00  0.00     0.056 C 
BRANCH   7   8
ATOM      8  C1  UNL d   1       0.738  -1.466  -1.291  0.00  0.00     0.007 C 
ATOM      9  C   UNL d   1       1.382  -2.840  -1.418  0.00  0.00     0.009 C 
ENDBRANCH   7   8
ENDBRANCH   1   7
TORSDOF 2
ENDMDL
