MODEL 1
REMARK minimizedAffinity -1.96014917
REMARK minimizedRMSD -1
REMARK  2 active torsions:
REMARK  status: ('A' for Active; 'I' for Inactive)
REMARK    1  A    between atoms: C1_2  and  C2_3 
REMARK    2  A    between atoms: C2_3  and  C3_4 
ROOT
ATOM      1  C3  UNL d   1       0.228  -1.078  -0.039  0.00  0.00    -0.075 A 
ATOM      2  C4  UNL d   1       0.822  -0.741   1.186  0.00  0.00     0.002 A 
ATOM      3  C5  UNL d   1       0.042  -0.284   2.249  0.00  0.00     0.002 A 
ATOM      4  C6  UNL d   1      -1.336  -0.149   2.099  0.00  0.00    -0.004 A 
ATOM      5  C7  UNL d   1      -1.934  -0.465   0.881  0.00  0.00     0.002 A 
ATOM      6  C8  UNL d   1      -1.157  -0.927  -0.183  0.00  0.00     0.002 A 
ENDROOT
BRANCH   1   7
ATOM      7  C2  UNL d   1       1.063  -1.600  -1.184  0.00  0.00     0.056 C 
BRANCH   7   8
ATOM      8  C1  UNL d   1       0.241  -2.181  -2.340  0.00  0.00     0.007 C 
ATOM      9  C   UNL d   1       0.143  -3.700  -2.303  0.00  0.00     0.009 C 
ENDBRANCH   7   8
ENDBRANCH   1   7
TORSDOF 2
ENDMDL
