MODEL 1
REMARK minimizedAffinity -5.49157286
REMARK minimizedRMSD -1
REMARK  2 active torsions:
REMARK  status: ('A' for Active; 'I' for Inactive)
REMARK    1  A    between atoms: C1_2  and  C2_3 
REMARK    2  A    between atoms: C2_3  and  C3_4 
ROOT
ATOM      1  C3  UNL d   1       0.479  -0.040  -0.233  0.00  0.00    -0.075 A 
ATOM      2  C4  UNL d   1       0.002   1.270  -0.387  0.00  0.00     0.002 A 
ATOM      3  C5  UNL d   1      -0.824   1.842   0.582  0.00  0.00     0.002 A 
ATOM      4  C6  UNL d   1      -1.191   1.110   1.708  0.00  0.00    -0.004 A 
ATOM      5  C7  UNL d   1      -0.737  -0.198   1.864  0.00  0.00     0.002 A 
ATOM      6  C8  UNL d   1       0.093  -0.771   0.898  0.00  0.00     0.002 A 
ENDROOT
BRANCH   1   7
ATOM      7  C2  UNL d   1       1.397  -0.654  -1.263  0.00  0.00     0.056 C 
BRANCH   7   8
ATOM      8  C1  UNL d   1       1.210  -2.164  -1.443  0.00  0.00     0.007 C 
ATOM      9  C   UNL d   1       0.524  -2.531  -2.752  0.00  0.00     0.009 C 
ENDBRANCH   7   8
ENDBRANCH   1   7
TORSDOF 2
ENDMDL
