MODEL 1
REMARK minimizedAffinity -4.65217543
REMARK minimizedRMSD -1
REMARK  2 active torsions:
REMARK  status: ('A' for Active; 'I' for Inactive)
REMARK    1  A    between atoms: C1_2  and  C2_3 
REMARK    2  A    between atoms: C2_3  and  C3_4 
ROOT
ATOM      1  C3  UNL d   1       0.648  -0.977  -0.784  0.00  0.00    -0.075 A 
ATOM      2  C4  UNL d   1      -0.384  -1.490  -1.584  0.00  0.00     0.002 A 
ATOM      3  C5  UNL d   1      -0.170  -2.615  -2.380  0.00  0.00     0.002 A 
ATOM      4  C6  UNL d   1       1.078  -3.235  -2.395  0.00  0.00    -0.004 A 
ATOM      5  C7  UNL d   1       2.115  -2.724  -1.617  0.00  0.00     0.002 A 
ATOM      6  C8  UNL d   1       1.902  -1.600  -0.816  0.00  0.00     0.002 A 
ENDROOT
BRANCH   1   7
ATOM      7  C2  UNL d   1       0.415   0.224   0.102  0.00  0.00     0.056 C 
BRANCH   7   8
ATOM      8  C1  UNL d   1      -0.202  -0.116   1.463  0.00  0.00     0.007 C 
ATOM      9  C   UNL d   1      -1.044   1.014   2.040  0.00  0.00     0.009 C 
ENDBRANCH   7   8
ENDBRANCH   1   7
TORSDOF 2
ENDMDL
