MODEL 1
REMARK minimizedAffinity -4.65879774
REMARK minimizedRMSD -1
REMARK  2 active torsions:
REMARK  status: ('A' for Active; 'I' for Inactive)
REMARK    1  A    between atoms: C1_2  and  C2_3 
REMARK    2  A    between atoms: C2_3  and  C3_4 
ROOT
ATOM      1  C3  UNL d   1      -0.119   0.145   0.261  0.00  0.00    -0.075 A 
ATOM      2  C4  UNL d   1      -0.639  -0.501   1.392  0.00  0.00     0.002 A 
ATOM      3  C5  UNL d   1      -1.575   0.139   2.205  0.00  0.00     0.002 A 
ATOM      4  C6  UNL d   1      -1.994   1.433   1.905  0.00  0.00    -0.004 A 
ATOM      5  C7  UNL d   1      -1.471   2.091   0.793  0.00  0.00     0.002 A 
ATOM      6  C8  UNL d   1      -0.538   1.451  -0.025  0.00  0.00     0.002 A 
ENDROOT
BRANCH   1   7
ATOM      7  C2  UNL d   1       0.872  -0.553  -0.640  0.00  0.00     0.056 C 
BRANCH   7   8
ATOM      8  C1  UNL d   1       0.297  -1.767  -1.377  0.00  0.00     0.007 C 
ATOM      9  C   UNL d   1       1.369  -2.696  -1.931  0.00  0.00     0.009 C 
ENDBRANCH   7   8
ENDBRANCH   1   7
TORSDOF 2
ENDMDL
