MODEL 1
REMARK minimizedAffinity -6.119524
REMARK minimizedRMSD -1
REMARK  2 active torsions:
REMARK  status: ('A' for Active; 'I' for Inactive)
REMARK    1  A    between atoms: C1_2  and  C2_3 
REMARK    2  A    between atoms: C2_3  and  C3_4 
ROOT
ATOM      1  C3  UNL d   1      -0.168   0.587   0.331  0.00  0.00    -0.075 A 
ATOM      2  C4  UNL d   1      -0.084   1.902  -0.149  0.00  0.00     0.002 A 
ATOM      3  C5  UNL d   1      -0.912   2.899   0.367  0.00  0.00     0.002 A 
ATOM      4  C6  UNL d   1      -1.840   2.594   1.360  0.00  0.00    -0.004 A 
ATOM      5  C7  UNL d   1      -1.944   1.287   1.833  0.00  0.00     0.002 A 
ATOM      6  C8  UNL d   1      -1.114   0.288   1.322  0.00  0.00     0.002 A 
ENDROOT
BRANCH   1   7
ATOM      7  C2  UNL d   1       0.745  -0.490  -0.202  0.00  0.00     0.056 C 
BRANCH   7   8
ATOM      8  C1  UNL d   1       0.042  -1.519  -1.094  0.00  0.00     0.007 C 
ATOM      9  C   UNL d   1       0.966  -2.634  -1.567  0.00  0.00     0.009 C 
ENDBRANCH   7   8
ENDBRANCH   1   7
TORSDOF 2
ENDMDL
