MODEL 1
REMARK minimizedAffinity -4.6707406
REMARK minimizedRMSD -1
REMARK  2 active torsions:
REMARK  status: ('A' for Active; 'I' for Inactive)
REMARK    1  A    between atoms: C1_2  and  C2_3 
REMARK    2  A    between atoms: C2_3  and  C3_4 
ROOT
ATOM      1  C3  UNL d   1      -0.558   0.719   0.974  0.00  0.00    -0.075 A 
ATOM      2  C4  UNL d   1      -0.333   1.900   0.253  0.00  0.00     0.002 A 
ATOM      3  C5  UNL d   1      -1.168   3.005   0.426  0.00  0.00     0.002 A 
ATOM      4  C6  UNL d   1      -2.240   2.939   1.312  0.00  0.00    -0.004 A 
ATOM      5  C7  UNL d   1      -2.483   1.765   2.022  0.00  0.00     0.002 A 
ATOM      6  C8  UNL d   1      -1.647   0.660   1.854  0.00  0.00     0.002 A 
ENDROOT
BRANCH   1   7
ATOM      7  C2  UNL d   1       0.359  -0.471   0.814  0.00  0.00     0.056 C 
BRANCH   7   8
ATOM      8  C1  UNL d   1       1.192  -0.447  -0.472  0.00  0.00     0.007 C 
ATOM      9  C   UNL d   1       1.323  -1.815  -1.128  0.00  0.00     0.009 C 
ENDBRANCH   7   8
ENDBRANCH   1   7
TORSDOF 2
ENDMDL
