MODEL 1
REMARK minimizedAffinity -5.86296844
REMARK minimizedRMSD -1
REMARK  2 active torsions:
REMARK  status: ('A' for Active; 'I' for Inactive)
REMARK    1  A    between atoms: C1_2  and  C2_3 
REMARK    2  A    between atoms: C2_3  and  C3_4 
ROOT
ATOM      1  C3  UNL d   1       0.004  -0.321   0.092  0.00  0.00    -0.075 A 
ATOM      2  C4  UNL d   1      -0.376   0.953  -0.357  0.00  0.00     0.002 A 
ATOM      3  C5  UNL d   1      -1.084   1.816   0.479  0.00  0.00     0.002 A 
ATOM      4  C6  UNL d   1      -1.431   1.415   1.767  0.00  0.00    -0.004 A 
ATOM      5  C7  UNL d   1      -1.073   0.146   2.218  0.00  0.00     0.002 A 
ATOM      6  C8  UNL d   1      -0.360  -0.718   1.385  0.00  0.00     0.002 A 
ENDROOT
BRANCH   1   7
ATOM      7  C2  UNL d   1       0.797  -1.248  -0.798  0.00  0.00     0.056 C 
BRANCH   7   8
ATOM      8  C1  UNL d   1      -0.053  -2.010  -1.819  0.00  0.00     0.007 C 
ATOM      9  C   UNL d   1       0.569  -3.331  -2.252  0.00  0.00     0.009 C 
ENDBRANCH   7   8
ENDBRANCH   1   7
TORSDOF 2
ENDMDL
