MODEL 1
REMARK minimizedAffinity -5.43635559
REMARK minimizedRMSD -1
REMARK  2 active torsions:
REMARK  status: ('A' for Active; 'I' for Inactive)
REMARK    1  A    between atoms: C1_2  and  C2_3 
REMARK    2  A    between atoms: C2_3  and  C3_4 
ROOT
ATOM      1  C3  UNL d   1       0.040  -0.041  -0.070  0.00  0.00    -0.075 A 
ATOM      2  C4  UNL d   1      -0.008   1.279  -0.543  0.00  0.00     0.002 A 
ATOM      3  C5  UNL d   1      -0.706   2.259   0.163  0.00  0.00     0.002 A 
ATOM      4  C6  UNL d   1      -1.372   1.931   1.342  0.00  0.00    -0.004 A 
ATOM      5  C7  UNL d   1      -1.346   0.620   1.811  0.00  0.00     0.002 A 
ATOM      6  C8  UNL d   1      -0.644  -0.362   1.110  0.00  0.00     0.002 A 
ENDROOT
BRANCH   1   7
ATOM      7  C2  UNL d   1       0.819  -1.100  -0.814  0.00  0.00     0.056 C 
BRANCH   7   8
ATOM      8  C1  UNL d   1       0.079  -1.686  -2.021  0.00  0.00     0.007 C 
ATOM      9  C   UNL d   1       0.616  -3.044  -2.453  0.00  0.00     0.009 C 
ENDBRANCH   7   8
ENDBRANCH   1   7
TORSDOF 2
ENDMDL
