MODEL 1
REMARK minimizedAffinity -1.10123312
REMARK minimizedRMSD -1
REMARK  0 active torsions:
REMARK  status: ('A' for Active; 'I' for Inactive)
ROOT
ATOM      1  C1  BNZ d   1      -1.144  -0.128   1.180  0.00  0.00     0.000 A 
ATOM      2  C2  BNZ d   1       0.196   0.122   1.315  0.00  0.00     0.000 A 
ATOM      3  C3  BNZ d   1       0.965   0.424   0.227  0.00  0.00     0.000 A 
ATOM      4  C4  BNZ d   1       0.403   0.436  -0.999  0.00  0.00     0.000 A 
ATOM      5  C5  BNZ d   1      -0.944   0.176  -1.154  0.00  0.00     0.000 A 
ATOM      6  C6  BNZ d   1      -1.723  -0.089  -0.051  0.00  0.00     0.000 A 
ENDROOT
TORSDOF 0
ENDMDL
