MODEL 1
REMARK minimizedAffinity -4.60203028
REMARK minimizedRMSD -1
REMARK  0 active torsions:
REMARK  status: ('A' for Active; 'I' for Inactive)
ROOT
ATOM      1  C1  BNZ d   1      -1.433   0.189   2.837  0.00  0.00     0.000 A 
ATOM      2  C2  BNZ d   1      -0.097   0.467   2.716  0.00  0.00     0.000 A 
ATOM      3  C3  BNZ d   1       0.532   0.365   1.507  0.00  0.00     0.000 A 
ATOM      4  C4  BNZ d   1      -0.165  -0.052   0.430  0.00  0.00     0.000 A 
ATOM      5  C5  BNZ d   1      -1.510  -0.344   0.538  0.00  0.00     0.000 A 
ATOM      6  C6  BNZ d   1      -2.148  -0.203   1.748  0.00  0.00     0.000 A 
ENDROOT
TORSDOF 0
ENDMDL
