MODEL 1
REMARK minimizedAffinity -4.65863132
REMARK minimizedRMSD -1
REMARK  0 active torsions:
REMARK  status: ('A' for Active; 'I' for Inactive)
ROOT
ATOM      1  C1  BNZ d   1       0.312  -0.158   2.298  0.00  0.00     0.000 A 
ATOM      2  C2  BNZ d   1       1.084   0.276   1.252  0.00  0.00     0.000 A 
ATOM      3  C3  BNZ d   1       0.542   0.456   0.011  0.00  0.00     0.000 A 
ATOM      4  C4  BNZ d   1      -0.759   0.165  -0.194  0.00  0.00     0.000 A 
ATOM      5  C5  BNZ d   1      -1.547  -0.282   0.847  0.00  0.00     0.000 A 
ATOM      6  C6  BNZ d   1      -1.008  -0.426   2.105  0.00  0.00     0.000 A 
ENDROOT
TORSDOF 0
ENDMDL
