MODEL 1
REMARK minimizedAffinity -2.84688878
REMARK minimizedRMSD -1
REMARK  0 active torsions:
REMARK  status: ('A' for Active; 'I' for Inactive)
ROOT
ATOM      1  C1  BNZ d   1      -0.159   0.222   0.378  0.00  0.00     0.000 A 
ATOM      2  C2  BNZ d   1      -1.211   0.199   1.254  0.00  0.00     0.000 A 
ATOM      3  C3  BNZ d   1      -0.998   0.107   2.601  0.00  0.00     0.000 A 
ATOM      4  C4  BNZ d   1       0.263  -0.002   3.067  0.00  0.00     0.000 A 
ATOM      5  C5  BNZ d   1       1.334   0.009   2.196  0.00  0.00     0.000 A 
ATOM      6  C6  BNZ d   1       1.118   0.141   0.843  0.00  0.00     0.000 A 
ENDROOT
TORSDOF 0
ENDMDL
