MODEL 1
REMARK minimizedAffinity -2.31220603
REMARK minimizedRMSD -1
REMARK  0 active torsions:
REMARK  status: ('A' for Active; 'I' for Inactive)
ROOT
ATOM      1  C1  BNZ d   1      -0.015  -1.165  -3.403  0.00  0.00     0.000 A 
ATOM      2  C2  BNZ d   1      -0.495  -0.525  -2.291  0.00  0.00     0.000 A 
ATOM      3  C3  BNZ d   1       0.285   0.359  -1.600  0.00  0.00     0.000 A 
ATOM      4  C4  BNZ d   1       1.556   0.572  -1.997  0.00  0.00     0.000 A 
ATOM      5  C5  BNZ d   1       2.058  -0.072  -3.110  0.00  0.00     0.000 A 
ATOM      6  C6  BNZ d   1       1.257  -0.931  -3.826  0.00  0.00     0.000 A 
ENDROOT
TORSDOF 0
ENDMDL
