MODEL 1
REMARK minimizedAffinity -3.16516471
REMARK minimizedRMSD -1
REMARK  0 active torsions:
REMARK  status: ('A' for Active; 'I' for Inactive)
ROOT
ATOM      1  C1  BNZ d   1      -0.755   0.322   0.386  0.00  0.00     0.000 A 
ATOM      2  C2  BNZ d   1      -2.021   0.502   0.877  0.00  0.00     0.000 A 
ATOM      3  C3  BNZ d   1      -2.241   0.609   2.222  0.00  0.00     0.000 A 
ATOM      4  C4  BNZ d   1      -1.202   0.496   3.075  0.00  0.00     0.000 A 
ATOM      5  C5  BNZ d   1       0.078   0.305   2.596  0.00  0.00     0.000 A 
ATOM      6  C6  BNZ d   1       0.301   0.237   1.239  0.00  0.00     0.000 A 
ENDROOT
TORSDOF 0
ENDMDL
