MODEL 1
REMARK minimizedAffinity -3.20856762
REMARK minimizedRMSD -1
REMARK  0 active torsions:
REMARK  status: ('A' for Active; 'I' for Inactive)
ROOT
ATOM      1  C1  BNZ d   1       1.714  -0.717  -3.253  0.00  0.00     0.000 A 
ATOM      2  C2  BNZ d   1       1.400   0.032  -2.150  0.00  0.00     0.000 A 
ATOM      3  C3  BNZ d   1       0.185  -0.100  -1.537  0.00  0.00     0.000 A 
ATOM      4  C4  BNZ d   1      -0.728  -0.950  -2.051  0.00  0.00     0.000 A 
ATOM      5  C5  BNZ d   1      -0.429  -1.704  -3.168  0.00  0.00     0.000 A 
ATOM      6  C6  BNZ d   1       0.809  -1.598  -3.759  0.00  0.00     0.000 A 
ENDROOT
TORSDOF 0
ENDMDL
