MODEL 1
REMARK minimizedAffinity -2.28885221
REMARK minimizedRMSD -1
REMARK  0 active torsions:
REMARK  status: ('A' for Active; 'I' for Inactive)
ROOT
ATOM      1  C1  BNZ d   1       0.195  -0.161  -0.963  0.00  0.00     0.000 A 
ATOM      2  C2  BNZ d   1       1.290   0.413  -1.551  0.00  0.00     0.000 A 
ATOM      3  C3  BNZ d   1       1.619   0.127  -2.847  0.00  0.00     0.000 A 
ATOM      4  C4  BNZ d   1       0.877  -0.760  -3.539  0.00  0.00     0.000 A 
ATOM      5  C5  BNZ d   1      -0.225  -1.354  -2.957  0.00  0.00     0.000 A 
ATOM      6  C6  BNZ d   1      -0.576  -1.035  -1.665  0.00  0.00     0.000 A 
ENDROOT
TORSDOF 0
ENDMDL
