MODEL 1
REMARK minimizedAffinity -3.77593231
REMARK minimizedRMSD -1
REMARK  0 active torsions:
REMARK  status: ('A' for Active; 'I' for Inactive)
ROOT
ATOM      1  C1  BNZ d   1      -0.306   0.070   0.010  0.00  0.00     0.000 A 
ATOM      2  C2  BNZ d   1      -0.999  -0.300   1.131  0.00  0.00     0.000 A 
ATOM      3  C3  BNZ d   1      -0.369  -0.410   2.339  0.00  0.00     0.000 A 
ATOM      4  C4  BNZ d   1       0.959  -0.189   2.417  0.00  0.00     0.000 A 
ATOM      5  C5  BNZ d   1       1.674   0.176   1.293  0.00  0.00     0.000 A 
ATOM      6  C6  BNZ d   1       1.029   0.324   0.087  0.00  0.00     0.000 A 
ENDROOT
TORSDOF 0
ENDMDL
