MODEL 1
REMARK minimizedAffinity -4.38733816
REMARK minimizedRMSD -1
REMARK  0 active torsions:
REMARK  status: ('A' for Active; 'I' for Inactive)
ROOT
ATOM      1  C1  BNZ d   1      -2.171   0.911   1.033  0.00  0.00     0.000 A 
ATOM      2  C2  BNZ d   1      -1.362   0.742   2.125  0.00  0.00     0.000 A 
ATOM      3  C3  BNZ d   1      -0.005   0.648   1.983  0.00  0.00     0.000 A 
ATOM      4  C4  BNZ d   1       0.536   0.683   0.748  0.00  0.00     0.000 A 
ATOM      5  C5  BNZ d   1      -0.268   0.843  -0.363  0.00  0.00     0.000 A 
ATOM      6  C6  BNZ d   1      -1.629   0.976  -0.213  0.00  0.00     0.000 A 
ENDROOT
TORSDOF 0
ENDMDL
