MODEL 1
REMARK minimizedAffinity -2.42060566
REMARK minimizedRMSD -1
REMARK  0 active torsions:
REMARK  status: ('A' for Active; 'I' for Inactive)
ROOT
ATOM      1  C1  BNZ d   1      -0.085  -1.740  -3.085  0.00  0.00     0.000 A 
ATOM      2  C2  BNZ d   1      -0.848  -1.213  -2.077  0.00  0.00     0.000 A 
ATOM      3  C3  BNZ d   1      -0.407  -0.139  -1.355  0.00  0.00     0.000 A 
ATOM      4  C4  BNZ d   1       0.810   0.381  -1.614  0.00  0.00     0.000 A 
ATOM      5  C5  BNZ d   1       1.594  -0.145  -2.622  0.00  0.00     0.000 A 
ATOM      6  C6  BNZ d   1       1.131  -1.202  -3.372  0.00  0.00     0.000 A 
ENDROOT
TORSDOF 0
ENDMDL
