MODEL 1
REMARK minimizedAffinity -2.47382259
REMARK minimizedRMSD -1
REMARK  0 active torsions:
REMARK  status: ('A' for Active; 'I' for Inactive)
ROOT
ATOM      1  C1  BNZ d   1      -2.168   3.397   3.638  0.00  0.00     0.000 A 
ATOM      2  C2  BNZ d   1      -3.176   2.571   3.217  0.00  0.00     0.000 A 
ATOM      3  C3  BNZ d   1      -2.923   1.269   2.890  0.00  0.00     0.000 A 
ATOM      4  C4  BNZ d   1      -1.658   0.805   2.945  0.00  0.00     0.000 A 
ATOM      5  C5  BNZ d   1      -0.629   1.628   3.358  0.00  0.00     0.000 A 
ATOM      6  C6  BNZ d   1      -0.894   2.928   3.724  0.00  0.00     0.000 A 
ENDROOT
TORSDOF 0
ENDMDL
