MODEL 1
REMARK minimizedAffinity -1.3212533
REMARK minimizedRMSD -1
REMARK  0 active torsions:
REMARK  status: ('A' for Active; 'I' for Inactive)
ROOT
ATOM      1  C1  BNZ d   1       1.729   0.079  -2.366  0.00  0.00     0.000 A 
ATOM      2  C2  BNZ d   1       1.948  -0.737  -3.444  0.00  0.00     0.000 A 
ATOM      3  C3  BNZ d   1       0.976  -1.590  -3.885  0.00  0.00     0.000 A 
ATOM      4  C4  BNZ d   1      -0.199  -1.656  -3.225  0.00  0.00     0.000 A 
ATOM      5  C5  BNZ d   1      -0.431  -0.847  -2.131  0.00  0.00     0.000 A 
ATOM      6  C6  BNZ d   1       0.535   0.039  -1.713  0.00  0.00     0.000 A 
ENDROOT
TORSDOF 0
ENDMDL
