MODEL 1
REMARK minimizedAffinity -2.13755441
REMARK minimizedRMSD -1
REMARK  0 active torsions:
REMARK  status: ('A' for Active; 'I' for Inactive)
ROOT
ATOM      1  C1  BNZ d   1       1.419  -0.315   1.001  0.00  0.00     0.000 A 
ATOM      2  C2  BNZ d   1       0.837  -0.151   2.230  0.00  0.00     0.000 A 
ATOM      3  C3  BNZ d   1      -0.461   0.263   2.340  0.00  0.00     0.000 A 
ATOM      4  C4  BNZ d   1      -1.162   0.551   1.224  0.00  0.00     0.000 A 
ATOM      5  C5  BNZ d   1      -0.587   0.399  -0.022  0.00  0.00     0.000 A 
ATOM      6  C6  BNZ d   1       0.708  -0.055  -0.130  0.00  0.00     0.000 A 
ENDROOT
TORSDOF 0
ENDMDL
