MODEL 1
REMARK minimizedAffinity -3.36973882
REMARK minimizedRMSD -1
REMARK  1 active torsions:
REMARK  status: ('A' for Active; 'I' for Inactive)
REMARK    1  A    between atoms: N_2  and  C1_3 
ROOT
ATOM      1  C1  UNL d   1       1.577  -2.651   0.108  0.00  0.00     0.143 A 
ATOM      2  C2  UNL d   1       2.197  -2.034  -0.984  0.00  0.00    -0.057 A 
ATOM      3  C3  UNL d   1       1.686  -0.853  -1.537  0.00  0.00     0.033 A 
ATOM      4  C4  UNL d   1       0.526  -0.283  -1.024  0.00  0.00    -0.042 A 
ATOM      5  C5  UNL d   1      -0.121  -0.893   0.045  0.00  0.00     0.033 A 
ATOM      6  C6  UNL d   1       0.397  -2.068   0.597  0.00  0.00    -0.057 A 
ENDROOT
BRANCH   1   7
ATOM      7  N   UNL d   1       1.980  -3.879   0.639  0.00  0.00    -0.732 N 
ATOM      8  C   UNL d   1       1.005  -4.809   1.167  0.00  0.00     0.284 C 
ATOM      9  H3  UNL d   1       2.717  -4.316   0.091  0.00  0.00     0.395 HD
ENDBRANCH   1   7
TORSDOF 1
ENDMDL
