MODEL 1
REMARK minimizedAffinity -3.96815181
REMARK minimizedRMSD -1
REMARK  1 active torsions:
REMARK  status: ('A' for Active; 'I' for Inactive)
REMARK    1  A    between atoms: N_2  and  C1_3 
ROOT
ATOM      1  C1  UNL d   1       1.041  -2.527  -0.503  0.00  0.00     0.143 A 
ATOM      2  C2  UNL d   1      -0.293  -2.406  -0.098  0.00  0.00    -0.057 A 
ATOM      3  C3  UNL d   1      -0.958  -1.175  -0.150  0.00  0.00     0.033 A 
ATOM      4  C4  UNL d   1      -0.290  -0.034  -0.582  0.00  0.00    -0.042 A 
ATOM      5  C5  UNL d   1       1.044  -0.126  -0.965  0.00  0.00     0.033 A 
ATOM      6  C6  UNL d   1       1.700  -1.359  -0.917  0.00  0.00    -0.057 A 
ENDROOT
BRANCH   1   7
ATOM      7  N   UNL d   1       1.786  -3.702  -0.382  0.00  0.00    -0.732 N 
ATOM      8  C   UNL d   1       1.161  -4.929   0.064  0.00  0.00     0.284 C 
ATOM      9  H3  UNL d   1       2.444  -3.826  -1.148  0.00  0.00     0.395 HD
ENDBRANCH   1   7
TORSDOF 1
ENDMDL
