MODEL 1
REMARK minimizedAffinity -0.672760069
REMARK minimizedRMSD -1
REMARK  1 active torsions:
REMARK  status: ('A' for Active; 'I' for Inactive)
REMARK    1  A    between atoms: N_2  and  C1_3 
ROOT
ATOM      1  C1  UNL d   1       1.271  -2.962  -0.049  0.00  0.00     0.143 A 
ATOM      2  C2  UNL d   1       2.236  -2.177  -0.690  0.00  0.00    -0.057 A 
ATOM      3  C3  UNL d   1       1.916  -0.919  -1.214  0.00  0.00     0.033 A 
ATOM      4  C4  UNL d   1       0.615  -0.434  -1.133  0.00  0.00    -0.042 A 
ATOM      5  C5  UNL d   1      -0.366  -1.208  -0.522  0.00  0.00     0.033 A 
ATOM      6  C6  UNL d   1      -0.039  -2.461   0.005  0.00  0.00    -0.057 A 
ENDROOT
BRANCH   1   7
ATOM      7  N   UNL d   1       1.503  -4.263   0.405  0.00  0.00    -0.732 N 
ATOM      8  C   UNL d   1       0.446  -5.022   1.039  0.00  0.00     0.284 C 
ATOM      9  H3  UNL d   1       2.074  -4.804  -0.240  0.00  0.00     0.395 HD
ENDBRANCH   1   7
TORSDOF 1
ENDMDL
