MODEL 1
REMARK minimizedAffinity 6.35727978
REMARK minimizedRMSD -1
REMARK  1 active torsions:
REMARK  status: ('A' for Active; 'I' for Inactive)
REMARK    1  A    between atoms: N_2  and  C1_3 
ROOT
ATOM      1  C1  UNL d   1       1.187  -3.709  -0.042  0.00  0.00     0.143 A 
ATOM      2  C2  UNL d   1      -0.205  -3.667   0.092  0.00  0.00    -0.057 A 
ATOM      3  C3  UNL d   1      -0.905  -4.699   0.727  0.00  0.00     0.033 A 
ATOM      4  C4  UNL d   1      -0.225  -5.810   1.217  0.00  0.00    -0.042 A 
ATOM      5  C5  UNL d   1       1.156  -5.885   1.073  0.00  0.00     0.033 A 
ATOM      6  C6  UNL d   1       1.850  -4.847   0.443  0.00  0.00    -0.057 A 
ENDROOT
BRANCH   1   7
ATOM      7  N   UNL d   1       1.930  -2.761  -0.750  0.00  0.00    -0.732 N 
ATOM      8  C   UNL d   1       2.829  -1.862  -0.058  0.00  0.00     0.284 C 
ATOM      9  H3  UNL d   1       2.302  -3.131  -1.622  0.00  0.00     0.395 HD
ENDBRANCH   1   7
TORSDOF 1
ENDMDL
