MODEL 1
REMARK minimizedAffinity 6.27525759
REMARK minimizedRMSD -1
REMARK  1 active torsions:
REMARK  status: ('A' for Active; 'I' for Inactive)
REMARK    1  A    between atoms: N_2  and  C1_3 
ROOT
ATOM      1  C1  UNL d   1       1.897  -2.272  -0.362  0.00  0.00     0.143 A 
ATOM      2  C2  UNL d   1       2.299  -0.933  -0.412  0.00  0.00    -0.057 A 
ATOM      3  C3  UNL d   1       1.416   0.076  -0.814  0.00  0.00     0.033 A 
ATOM      4  C4  UNL d   1       0.119  -0.241  -1.203  0.00  0.00    -0.042 A 
ATOM      5  C5  UNL d   1      -0.295  -1.568  -1.185  0.00  0.00     0.033 A 
ATOM      6  C6  UNL d   1       0.589  -2.571  -0.776  0.00  0.00    -0.057 A 
ENDROOT
BRANCH   1   7
ATOM      7  N   UNL d   1       2.757  -3.332  -0.066  0.00  0.00    -0.732 N 
ATOM      8  C   UNL d   1       2.242  -4.673   0.108  0.00  0.00     0.284 C 
ATOM      9  H3  UNL d   1       3.627  -3.286  -0.592  0.00  0.00     0.395 HD
ENDBRANCH   1   7
TORSDOF 1
ENDMDL
