MODEL 1
REMARK minimizedAffinity 2.97601604
REMARK minimizedRMSD -1
REMARK  1 active torsions:
REMARK  status: ('A' for Active; 'I' for Inactive)
REMARK    1  A    between atoms: N_2  and  C1_3 
ROOT
ATOM      1  C1  UNL d   1       1.022  -2.924   0.274  0.00  0.00     0.143 A 
ATOM      2  C2  UNL d   1      -0.307  -2.492   0.219  0.00  0.00    -0.057 A 
ATOM      3  C3  UNL d   1      -0.673  -1.359  -0.518  0.00  0.00     0.033 A 
ATOM      4  C4  UNL d   1       0.293  -0.618  -1.191  0.00  0.00    -0.042 A 
ATOM      5  C5  UNL d   1       1.625  -1.015  -1.130  0.00  0.00     0.033 A 
ATOM      6  C6  UNL d   1       1.982  -2.151  -0.398  0.00  0.00    -0.057 A 
ENDROOT
BRANCH   1   7
ATOM      7  N   UNL d   1       1.463  -3.985   1.068  0.00  0.00    -0.732 N 
ATOM      8  C   UNL d   1       0.709  -5.219   1.135  0.00  0.00     0.284 C 
ATOM      9  H3  UNL d   1       2.471  -4.116   1.017  0.00  0.00     0.395 HD
ENDBRANCH   1   7
TORSDOF 1
ENDMDL
