MODEL 1
REMARK minimizedAffinity -6.00945377
REMARK minimizedRMSD -1
REMARK  1 active torsions:
REMARK  status: ('A' for Active; 'I' for Inactive)
REMARK    1  A    between atoms: N_2  and  C1_3 
ROOT
ATOM      1  C1  UNL d   1       1.387  -3.326   0.032  0.00  0.00     0.143 A 
ATOM      2  C2  UNL d   1       2.219  -2.224   0.256  0.00  0.00    -0.057 A 
ATOM      3  C3  UNL d   1       1.745  -0.915   0.113  0.00  0.00     0.033 A 
ATOM      4  C4  UNL d   1       0.433  -0.684  -0.287  0.00  0.00    -0.042 A 
ATOM      5  C5  UNL d   1      -0.405  -1.764  -0.540  0.00  0.00     0.033 A 
ATOM      6  C6  UNL d   1       0.072  -3.069  -0.388  0.00  0.00    -0.057 A 
ENDROOT
BRANCH   1   7
ATOM      7  N   UNL d   1       1.826  -4.652   0.062  0.00  0.00    -0.732 N 
ATOM      8  C   UNL d   1       1.054  -5.668   0.745  0.00  0.00     0.284 C 
ATOM      9  H3  UNL d   1       2.214  -4.953  -0.828  0.00  0.00     0.395 HD
ENDBRANCH   1   7
TORSDOF 1
ENDMDL
