MODEL 1
REMARK minimizedAffinity -2.97522378
REMARK minimizedRMSD -1
REMARK  1 active torsions:
REMARK  status: ('A' for Active; 'I' for Inactive)
REMARK    1  A    between atoms: N_2  and  C1_3 
ROOT
ATOM      1  C1  UNL d   1       1.092  -3.371   0.240  0.00  0.00     0.143 A 
ATOM      2  C2  UNL d   1      -0.272  -3.096   0.378  0.00  0.00    -0.057 A 
ATOM      3  C3  UNL d   1      -0.809  -1.865  -0.020  0.00  0.00     0.033 A 
ATOM      4  C4  UNL d   1       0.018  -0.874  -0.539  0.00  0.00    -0.042 A 
ATOM      5  C5  UNL d   1       1.381  -1.117  -0.663  0.00  0.00     0.033 A 
ATOM      6  C6  UNL d   1       1.910  -2.350  -0.269  0.00  0.00    -0.057 A 
ENDROOT
BRANCH   1   7
ATOM      7  N   UNL d   1       1.702  -4.537   0.708  0.00  0.00    -0.732 N 
ATOM      8  C   UNL d   1       0.938  -5.756   0.866  0.00  0.00     0.284 C 
ATOM      9  H3  UNL d   1       2.629  -4.676   0.313  0.00  0.00     0.395 HD
ENDBRANCH   1   7
TORSDOF 1
ENDMDL
