MODEL 1
REMARK minimizedAffinity -2.63902187
REMARK minimizedRMSD -1
REMARK  1 active torsions:
REMARK  status: ('A' for Active; 'I' for Inactive)
REMARK    1  A    between atoms: N_2  and  C1_3 
ROOT
ATOM      1  C1  UNL d   1       1.365  -3.238  -0.154  0.00  0.00     0.143 A 
ATOM      2  C2  UNL d   1      -0.009  -2.972  -0.178  0.00  0.00    -0.057 A 
ATOM      3  C3  UNL d   1      -0.497  -1.706  -0.523  0.00  0.00     0.033 A 
ATOM      4  C4  UNL d   1       0.383  -0.672  -0.823  0.00  0.00    -0.042 A 
ATOM      5  C5  UNL d   1       1.753  -0.907  -0.782  0.00  0.00     0.033 A 
ATOM      6  C6  UNL d   1       2.235  -2.175  -0.443  0.00  0.00    -0.057 A 
ENDROOT
BRANCH   1   7
ATOM      7  N   UNL d   1       1.915  -4.448   0.276  0.00  0.00    -0.732 N 
ATOM      8  C   UNL d   1       1.068  -5.503   0.789  0.00  0.00     0.284 C 
ATOM      9  H3  UNL d   1       2.662  -4.774  -0.334  0.00  0.00     0.395 HD
ENDBRANCH   1   7
TORSDOF 1
ENDMDL
