MODEL 1
REMARK minimizedAffinity -4.52172327
REMARK minimizedRMSD -1
REMARK  1 active torsions:
REMARK  status: ('A' for Active; 'I' for Inactive)
REMARK    1  A    between atoms: N_2  and  C1_3 
ROOT
ATOM      1  C1  UNL d   1       0.835  -3.099   0.369  0.00  0.00     0.143 A 
ATOM      2  C2  UNL d   1       1.952  -2.819  -0.427  0.00  0.00    -0.057 A 
ATOM      3  C3  UNL d   1       2.060  -1.612  -1.128  0.00  0.00     0.033 A 
ATOM      4  C4  UNL d   1       1.036  -0.672  -1.068  0.00  0.00    -0.042 A 
ATOM      5  C5  UNL d   1      -0.094  -0.940  -0.303  0.00  0.00     0.033 A 
ATOM      6  C6  UNL d   1      -0.193  -2.144   0.400  0.00  0.00    -0.057 A 
ENDROOT
BRANCH   1   7
ATOM      7  N   UNL d   1       0.625  -4.322   1.011  0.00  0.00    -0.732 N 
ATOM      8  C   UNL d   1       1.510  -5.441   0.774  0.00  0.00     0.284 C 
ATOM      9  H3  UNL d   1       0.350  -4.208   1.984  0.00  0.00     0.395 HD
ENDBRANCH   1   7
TORSDOF 1
ENDMDL
