MODEL 1
REMARK minimizedAffinity 1.02284682
REMARK minimizedRMSD -1
REMARK  1 active torsions:
REMARK  status: ('A' for Active; 'I' for Inactive)
REMARK    1  A    between atoms: N_2  and  C1_3 
ROOT
ATOM      1  C1  UNL d   1       1.284  -2.713  -0.272  0.00  0.00     0.143 A 
ATOM      2  C2  UNL d   1      -0.084  -2.640   0.010  0.00  0.00    -0.057 A 
ATOM      3  C3  UNL d   1      -0.752  -3.696   0.642  0.00  0.00     0.033 A 
ATOM      4  C4  UNL d   1      -0.067  -4.860   0.977  0.00  0.00    -0.042 A 
ATOM      5  C5  UNL d   1       1.288  -4.964   0.683  0.00  0.00     0.033 A 
ATOM      6  C6  UNL d   1       1.951  -3.903   0.059  0.00  0.00    -0.057 A 
ENDROOT
BRANCH   1   7
ATOM      7  N   UNL d   1       1.984  -1.737  -0.986  0.00  0.00    -0.732 N 
ATOM      8  C   UNL d   1       1.305  -0.902  -1.953  0.00  0.00     0.284 C 
ATOM      9  H3  UNL d   1       2.656  -1.239  -0.406  0.00  0.00     0.395 HD
ENDBRANCH   1   7
TORSDOF 1
ENDMDL
