MODEL 1
REMARK minimizedAffinity -3.57328391
REMARK minimizedRMSD -1
REMARK  1 active torsions:
REMARK  status: ('A' for Active; 'I' for Inactive)
REMARK    1  A    between atoms: N_2  and  C1_3 
ROOT
ATOM      1  C1  UNL d   1       1.734  -3.530   0.494  0.00  0.00     0.143 A 
ATOM      2  C2  UNL d   1       2.588  -2.598  -0.105  0.00  0.00    -0.057 A 
ATOM      3  C3  UNL d   1       2.082  -1.494  -0.802  0.00  0.00     0.033 A 
ATOM      4  C4  UNL d   1       0.709  -1.318  -0.937  0.00  0.00    -0.042 A 
ATOM      5  C5  UNL d   1      -0.158  -2.245  -0.370  0.00  0.00     0.033 A 
ATOM      6  C6  UNL d   1       0.353  -3.343   0.330  0.00  0.00    -0.057 A 
ENDROOT
BRANCH   1   7
ATOM      7  N   UNL d   1       2.175  -4.701   1.116  0.00  0.00    -0.732 N 
ATOM      8  C   UNL d   1       1.515  -5.964   0.862  0.00  0.00     0.284 C 
ATOM      9  H3  UNL d   1       3.190  -4.763   1.153  0.00  0.00     0.395 HD
ENDBRANCH   1   7
TORSDOF 1
ENDMDL
