MODEL 1
REMARK minimizedAffinity -2.14120007
REMARK minimizedRMSD -1
REMARK  1 active torsions:
REMARK  status: ('A' for Active; 'I' for Inactive)
REMARK    1  A    between atoms: N_2  and  C1_3 
ROOT
ATOM      1  C1  UNL d   1       1.114  -3.485   0.604  0.00  0.00     0.143 A 
ATOM      2  C2  UNL d   1       1.861  -2.490  -0.037  0.00  0.00    -0.057 A 
ATOM      3  C3  UNL d   1       1.258  -1.315  -0.501  0.00  0.00     0.033 A 
ATOM      4  C4  UNL d   1      -0.113  -1.126  -0.358  0.00  0.00    -0.042 A 
ATOM      5  C5  UNL d   1      -0.879  -2.113   0.253  0.00  0.00     0.033 A 
ATOM      6  C6  UNL d   1      -0.270  -3.281   0.721  0.00  0.00    -0.057 A 
ENDROOT
BRANCH   1   7
ATOM      7  N   UNL d   1       1.639  -4.718   0.999  0.00  0.00    -0.732 N 
ATOM      8  C   UNL d   1       0.765  -5.780   1.450  0.00  0.00     0.284 C 
ATOM      9  H3  UNL d   1       2.395  -5.030   0.394  0.00  0.00     0.395 HD
ENDBRANCH   1   7
TORSDOF 1
ENDMDL
