MODEL 1
REMARK minimizedAffinity -2.29227448
REMARK minimizedRMSD -1
REMARK  1 active torsions:
REMARK  status: ('A' for Active; 'I' for Inactive)
REMARK    1  A    between atoms: C3_4  and  O_7 
ROOT
ATOM      1  C   UNL d   1      -0.312   0.069  -0.892  0.00  0.00    -0.033 A 
ATOM      2  C1  UNL d   1       0.722  -0.818  -0.589  0.00  0.00     0.039 A 
ATOM      3  C2  UNL d   1       0.930  -1.228   0.730  0.00  0.00    -0.080 A 
ATOM      4  C3  UNL d   1       0.096  -0.744   1.735  0.00  0.00     0.150 A 
ATOM      5  C4  UNL d   1      -0.939   0.137   1.439  0.00  0.00    -0.007 A 
ATOM      6  C5  UNL d   1      -1.144   0.546   0.122  0.00  0.00     0.039 A 
ENDROOT
BRANCH   4   7
ATOM      7  O   UNL d   1       0.262  -1.112   3.037  0.00  0.00    -0.526 OA
ATOM      8  H5  UNL d   1       1.033  -1.701   3.094  0.00  0.00     0.418 HD
ENDBRANCH   4   7
TORSDOF 1
ENDMDL
