MODEL 1
REMARK minimizedAffinity -0.941123009
REMARK minimizedRMSD -1
REMARK  1 active torsions:
REMARK  status: ('A' for Active; 'I' for Inactive)
REMARK    1  A    between atoms: C3_4  and  O_7 
ROOT
ATOM      1  C   UNL d   1      -0.214  -0.019   1.278  0.00  0.00    -0.033 A 
ATOM      2  C1  UNL d   1       0.318   0.118  -0.006  0.00  0.00     0.039 A 
ATOM      3  C2  UNL d   1       1.356  -0.715  -0.426  0.00  0.00    -0.080 A 
ATOM      4  C3  UNL d   1       1.853  -1.681   0.446  0.00  0.00     0.150 A 
ATOM      5  C4  UNL d   1       1.326  -1.825   1.725  0.00  0.00    -0.007 A 
ATOM      6  C5  UNL d   1       0.289  -0.992   2.143  0.00  0.00     0.039 A 
ENDROOT
BRANCH   4   7
ATOM      7  O   UNL d   1       2.869  -2.514   0.082  0.00  0.00    -0.526 OA
ATOM      8  H5  UNL d   1       3.152  -2.279  -0.818  0.00  0.00     0.418 HD
ENDBRANCH   4   7
TORSDOF 1
ENDMDL
