MODEL 1
REMARK minimizedAffinity -2.66312099
REMARK minimizedRMSD -1
REMARK  1 active torsions:
REMARK  status: ('A' for Active; 'I' for Inactive)
REMARK    1  A    between atoms: C3_4  and  O_7 
ROOT
ATOM      1  C   UNL d   1       0.495  -1.137   1.909  0.00  0.00    -0.033 A 
ATOM      2  C1  UNL d   1      -0.547  -0.209   1.961  0.00  0.00     0.039 A 
ATOM      3  C2  UNL d   1      -0.960   0.444   0.798  0.00  0.00    -0.080 A 
ATOM      4  C3  UNL d   1      -0.325   0.161  -0.408  0.00  0.00     0.150 A 
ATOM      5  C4  UNL d   1       0.711  -0.766  -0.467  0.00  0.00    -0.007 A 
ATOM      6  C5  UNL d   1       1.123  -1.417   0.695  0.00  0.00     0.039 A 
ENDROOT
BRANCH   4   7
ATOM      7  O   UNL d   1      -0.690   0.777  -1.567  0.00  0.00    -0.526 OA
ATOM      8  H5  UNL d   1      -1.399   1.412  -1.369  0.00  0.00     0.418 HD
ENDBRANCH   4   7
TORSDOF 1
ENDMDL
