MODEL 1
REMARK minimizedAffinity 4.22315073
REMARK minimizedRMSD -1
REMARK  1 active torsions:
REMARK  status: ('A' for Active; 'I' for Inactive)
REMARK    1  A    between atoms: C3_4  and  O_7 
ROOT
ATOM      1  C   UNL d   1      -5.604   1.869  -3.412  0.00  0.00    -0.033 A 
ATOM      2  C1  UNL d   1      -6.000   1.455  -4.685  0.00  0.00     0.039 A 
ATOM      3  C2  UNL d   1      -5.079   0.849  -5.542  0.00  0.00    -0.080 A 
ATOM      4  C3  UNL d   1      -3.768   0.662  -5.113  0.00  0.00     0.150 A 
ATOM      5  C4  UNL d   1      -3.367   1.069  -3.845  0.00  0.00    -0.007 A 
ATOM      6  C5  UNL d   1      -4.288   1.675  -2.991  0.00  0.00     0.039 A 
ENDROOT
BRANCH   4   7
ATOM      7  O   UNL d   1      -2.832   0.080  -5.916  0.00  0.00    -0.526 OA
ATOM      8  H5  UNL d   1      -3.244  -0.123  -6.772  0.00  0.00     0.418 HD
ENDBRANCH   4   7
TORSDOF 1
ENDMDL
