MODEL 1
REMARK minimizedAffinity -3.22078943
REMARK minimizedRMSD -1
REMARK  1 active torsions:
REMARK  status: ('A' for Active; 'I' for Inactive)
REMARK    1  A    between atoms: C3_4  and  O_7 
ROOT
ATOM      1  C   UNL d   1      -1.052   0.152  -0.539  0.00  0.00    -0.033 A 
ATOM      2  C1  UNL d   1      -0.621  -0.034   0.776  0.00  0.00     0.039 A 
ATOM      3  C2  UNL d   1       0.511  -0.807   1.039  0.00  0.00    -0.080 A 
ATOM      4  C3  UNL d   1       1.204  -1.387  -0.020  0.00  0.00     0.150 A 
ATOM      5  C4  UNL d   1       0.783  -1.203  -1.333  0.00  0.00    -0.007 A 
ATOM      6  C5  UNL d   1      -0.349  -0.431  -1.594  0.00  0.00     0.039 A 
ENDROOT
BRANCH   4   7
ATOM      7  O   UNL d   1       2.312  -2.154   0.187  0.00  0.00    -0.526 OA
ATOM      8  H5  UNL d   1       2.467  -2.217   1.145  0.00  0.00     0.418 HD
ENDBRANCH   4   7
TORSDOF 1
ENDMDL
