MODEL 1
REMARK minimizedAffinity -5.38185024
REMARK minimizedRMSD -1
REMARK  1 active torsions:
REMARK  status: ('A' for Active; 'I' for Inactive)
REMARK    1  A    between atoms: C3_4  and  O_7 
ROOT
ATOM      1  C   UNL d   1       2.675  -1.396   2.909  0.00  0.00    -0.033 A 
ATOM      2  C1  UNL d   1       2.689  -1.727   1.553  0.00  0.00     0.039 A 
ATOM      3  C2  UNL d   1       1.628  -1.345   0.729  0.00  0.00    -0.080 A 
ATOM      4  C3  UNL d   1       0.563  -0.633   1.272  0.00  0.00     0.150 A 
ATOM      5  C4  UNL d   1       0.545  -0.296   2.622  0.00  0.00    -0.007 A 
ATOM      6  C5  UNL d   1       1.604  -0.679   3.443  0.00  0.00     0.039 A 
ENDROOT
BRANCH   4   7
ATOM      7  O   UNL d   1      -0.497  -0.243   0.509  0.00  0.00    -0.526 OA
ATOM      8  H5  UNL d   1      -0.361  -0.570  -0.396  0.00  0.00     0.418 HD
ENDBRANCH   4   7
TORSDOF 1
ENDMDL
