MODEL 1
REMARK minimizedAffinity -4.24317265
REMARK minimizedRMSD -1
REMARK  1 active torsions:
REMARK  status: ('A' for Active; 'I' for Inactive)
REMARK    1  A    between atoms: C3_4  and  O_7 
ROOT
ATOM      1  C   UNL d   1      -0.409   0.082  -1.249  0.00  0.00    -0.033 A 
ATOM      2  C1  UNL d   1      -0.228   1.093  -0.303  0.00  0.00     0.039 A 
ATOM      3  C2  UNL d   1      -0.312   2.433  -0.686  0.00  0.00    -0.080 A 
ATOM      4  C3  UNL d   1      -0.578   2.748  -2.016  0.00  0.00     0.150 A 
ATOM      5  C4  UNL d   1      -0.763   1.746  -2.963  0.00  0.00    -0.007 A 
ATOM      6  C5  UNL d   1      -0.677   0.409  -2.578  0.00  0.00     0.039 A 
ENDROOT
BRANCH   4   7
ATOM      7  O   UNL d   1      -0.664   4.042  -2.438  0.00  0.00    -0.526 OA
ATOM      8  H5  UNL d   1      -0.486   4.625  -1.682  0.00  0.00     0.418 HD
ENDBRANCH   4   7
TORSDOF 1
ENDMDL
