MODEL 1
REMARK minimizedAffinity 7.52387142
REMARK minimizedRMSD -1
REMARK  0 active torsions:
REMARK  status: ('A' for Active; 'I' for Inactive)
ROOT
ATOM      1  C   UNL d   1      -5.995  -2.008   5.872  0.00  0.00     0.023 A 
ATOM      2  C1  UNL d   1      -5.994  -0.767   5.234  0.00  0.00     0.003 A 
ATOM      3  C2  UNL d   1      -5.994  -0.697   3.839  0.00  0.00     0.048 A 
ATOM      4  C3  UNL d   1      -5.997  -1.872   3.088  0.00  0.00     0.023 A 
ATOM      5  C4  UNL d   1      -5.998  -3.116   3.722  0.00  0.00     0.048 A 
ATOM      6  C5  UNL d   1      -5.997  -3.181   5.117  0.00  0.00     0.003 A 
ATOM      7  I   UNL d   1      -5.997  -1.771   1.013  0.00  0.00    -0.146 I 
ENDROOT
TORSDOF 0
ENDMDL
