MODEL 1
REMARK minimizedAffinity 6.79507732
REMARK minimizedRMSD -1
REMARK  0 active torsions:
REMARK  status: ('A' for Active; 'I' for Inactive)
ROOT
ATOM      1  C   UNL d   1      -5.556  -1.058   1.729  0.00  0.00     0.023 A 
ATOM      2  C1  UNL d   1      -5.871  -2.411   1.601  0.00  0.00     0.003 A 
ATOM      3  C2  UNL d   1      -5.996  -3.210   2.739  0.00  0.00     0.048 A 
ATOM      4  C3  UNL d   1      -5.805  -2.651   4.002  0.00  0.00     0.023 A 
ATOM      5  C4  UNL d   1      -5.490  -1.297   4.134  0.00  0.00     0.048 A 
ATOM      6  C5  UNL d   1      -5.365  -0.502   2.994  0.00  0.00     0.003 A 
ATOM      7  I   UNL d   1      -5.990  -3.839   5.697  0.00  0.00    -0.146 I 
ENDROOT
TORSDOF 0
ENDMDL
