MODEL 1
REMARK minimizedAffinity -2.56290698
REMARK minimizedRMSD -1
REMARK  0 active torsions:
REMARK  status: ('A' for Active; 'I' for Inactive)
ROOT
ATOM      1  C   UNL d   1      -0.990   3.722   0.819  0.00  0.00     0.023 A 
ATOM      2  C1  UNL d   1      -0.094   3.027   1.631  0.00  0.00     0.003 A 
ATOM      3  C2  UNL d   1       0.261   1.713   1.318  0.00  0.00     0.048 A 
ATOM      4  C3  UNL d   1      -0.284   1.101   0.189  0.00  0.00     0.023 A 
ATOM      5  C4  UNL d   1      -1.180   1.793  -0.627  0.00  0.00     0.048 A 
ATOM      6  C5  UNL d   1      -1.532   3.106  -0.309  0.00  0.00     0.003 A 
ATOM      7  I   UNL d   1       0.243  -0.854  -0.280  0.00  0.00    -0.146 I 
ENDROOT
TORSDOF 0
ENDMDL
