MODEL 1
REMARK minimizedAffinity -4.0844903
REMARK minimizedRMSD -1
REMARK  0 active torsions:
REMARK  status: ('A' for Active; 'I' for Inactive)
ROOT
ATOM      1  C   UNL d   1      -1.472   3.692   0.424  0.00  0.00     0.023 A 
ATOM      2  C1  UNL d   1      -1.465   3.148  -0.861  0.00  0.00     0.003 A 
ATOM      3  C2  UNL d   1      -0.896   1.894  -1.086  0.00  0.00     0.048 A 
ATOM      4  C3  UNL d   1      -0.336   1.187  -0.023  0.00  0.00     0.023 A 
ATOM      5  C4  UNL d   1      -0.342   1.726   1.265  0.00  0.00     0.048 A 
ATOM      6  C5  UNL d   1      -0.911   2.981   1.486  0.00  0.00     0.003 A 
ATOM      7  I   UNL d   1       0.511  -0.681  -0.356  0.00  0.00    -0.146 I 
ENDROOT
TORSDOF 0
ENDMDL
