MODEL 1
REMARK minimizedAffinity -2.54302144
REMARK minimizedRMSD -1
REMARK  0 active torsions:
REMARK  status: ('A' for Active; 'I' for Inactive)
ROOT
ATOM      1  C   UNL d   1      -1.160   3.428   0.704  0.00  0.00     0.023 A 
ATOM      2  C1  UNL d   1      -0.905   2.348   1.549  0.00  0.00     0.003 A 
ATOM      3  C2  UNL d   1      -0.537   1.112   1.013  0.00  0.00     0.048 A 
ATOM      4  C3  UNL d   1      -0.424   0.964  -0.369  0.00  0.00     0.023 A 
ATOM      5  C4  UNL d   1      -0.677   2.042  -1.218  0.00  0.00     0.048 A 
ATOM      6  C5  UNL d   1      -1.046   3.275  -0.678  0.00  0.00     0.003 A 
ATOM      7  I   UNL d   1       0.125  -0.875  -1.169  0.00  0.00    -0.146 I 
ENDROOT
TORSDOF 0
ENDMDL
