MODEL 1
REMARK minimizedAffinity 4.79482555
REMARK minimizedRMSD -1
REMARK  0 active torsions:
REMARK  status: ('A' for Active; 'I' for Inactive)
ROOT
ATOM      1  C   UNL d   1       0.827   4.629   1.304  0.00  0.00     0.023 A 
ATOM      2  C1  UNL d   1       0.785   3.576   2.218  0.00  0.00     0.003 A 
ATOM      3  C2  UNL d   1       0.750   2.256   1.763  0.00  0.00     0.048 A 
ATOM      4  C3  UNL d   1       0.759   1.996   0.393  0.00  0.00     0.023 A 
ATOM      5  C4  UNL d   1       0.802   3.047  -0.525  0.00  0.00     0.048 A 
ATOM      6  C5  UNL d   1       0.836   4.365  -0.066  0.00  0.00     0.003 A 
ATOM      7  I   UNL d   1       0.709   0.033  -0.287  0.00  0.00    -0.146 I 
ENDROOT
TORSDOF 0
ENDMDL
