MODEL 1
REMARK minimizedAffinity 0.315371126
REMARK minimizedRMSD -1
REMARK  0 active torsions:
REMARK  status: ('A' for Active; 'I' for Inactive)
ROOT
ATOM      1  C   UNL d   1       1.933   3.171   2.616  0.00  0.00     0.023 A 
ATOM      2  C1  UNL d   1       2.919   4.090   2.257  0.00  0.00     0.003 A 
ATOM      3  C2  UNL d   1       2.742   4.902   1.135  0.00  0.00     0.048 A 
ATOM      4  C3  UNL d   1       1.577   4.790   0.377  0.00  0.00     0.023 A 
ATOM      5  C4  UNL d   1       0.587   3.872   0.733  0.00  0.00     0.048 A 
ATOM      6  C5  UNL d   1       0.769   3.062   1.856  0.00  0.00     0.003 A 
ATOM      7  I   UNL d   1       1.311   5.998  -1.293  0.00  0.00    -0.146 I 
ENDROOT
TORSDOF 0
ENDMDL
