MODEL 1
REMARK minimizedAffinity -0.936157584
REMARK minimizedRMSD -1
REMARK  0 active torsions:
REMARK  status: ('A' for Active; 'I' for Inactive)
ROOT
ATOM      1  C   UNL d   1       1.450  -0.011   3.235  0.00  0.00     0.023 A 
ATOM      2  C1  UNL d   1       1.375  -0.979   2.234  0.00  0.00     0.003 A 
ATOM      3  C2  UNL d   1       0.784  -0.672   1.006  0.00  0.00     0.048 A 
ATOM      4  C3  UNL d   1       0.271   0.606   0.786  0.00  0.00     0.023 A 
ATOM      5  C4  UNL d   1       0.345   1.579   1.785  0.00  0.00     0.048 A 
ATOM      6  C5  UNL d   1       0.936   1.267   3.011  0.00  0.00     0.003 A 
ATOM      7  I   UNL d   1      -0.609   1.066  -1.040  0.00  0.00    -0.146 I 
ENDROOT
TORSDOF 0
ENDMDL
