MODEL 1
REMARK minimizedAffinity 7.06824303
REMARK minimizedRMSD -1
REMARK  0 active torsions:
REMARK  status: ('A' for Active; 'I' for Inactive)
ROOT
ATOM      1  C   UNL d   1       5.767  -4.185   5.999  0.00  0.00     0.023 A 
ATOM      2  C1  UNL d   1       5.536  -5.256   5.136  0.00  0.00     0.003 A 
ATOM      3  C2  UNL d   1       4.788  -5.068   3.972  0.00  0.00     0.048 A 
ATOM      4  C3  UNL d   1       4.275  -3.805   3.676  0.00  0.00     0.023 A 
ATOM      5  C4  UNL d   1       4.504  -2.730   4.536  0.00  0.00     0.048 A 
ATOM      6  C5  UNL d   1       5.252  -2.924   5.700  0.00  0.00     0.003 A 
ATOM      7  I   UNL d   1       3.162  -3.523   1.944  0.00  0.00    -0.146 I 
ENDROOT
TORSDOF 0
ENDMDL
