MODEL 1
REMARK minimizedAffinity 1.02713084
REMARK minimizedRMSD -1
REMARK  0 active torsions:
REMARK  status: ('A' for Active; 'I' for Inactive)
ROOT
ATOM      1  C   UNL d   1       2.362  -2.458   1.153  0.00  0.00     0.023 A 
ATOM      2  C1  UNL d   1       1.833  -2.761   2.407  0.00  0.00     0.003 A 
ATOM      3  C2  UNL d   1       0.715  -2.071   2.881  0.00  0.00     0.048 A 
ATOM      4  C3  UNL d   1       0.131  -1.079   2.094  0.00  0.00     0.023 A 
ATOM      5  C4  UNL d   1       0.656  -0.772   0.838  0.00  0.00     0.048 A 
ATOM      6  C5  UNL d   1       1.774  -1.464   0.369  0.00  0.00     0.003 A 
ATOM      7  I   UNL d   1      -1.533  -0.051   2.796  0.00  0.00    -0.146 I 
ENDROOT
TORSDOF 0
ENDMDL
