MODEL 1
REMARK minimizedAffinity 8.66280174
REMARK minimizedRMSD -1
REMARK  0 active torsions:
REMARK  status: ('A' for Active; 'I' for Inactive)
ROOT
ATOM      1  C   UNL d   1      -1.992   2.249   4.312  0.00  0.00     0.023 A 
ATOM      2  C1  UNL d   1      -3.168   2.461   3.593  0.00  0.00     0.003 A 
ATOM      3  C2  UNL d   1      -4.133   3.349   4.074  0.00  0.00     0.048 A 
ATOM      4  C3  UNL d   1      -3.914   4.022   5.275  0.00  0.00     0.023 A 
ATOM      5  C4  UNL d   1      -2.739   3.814   5.999  0.00  0.00     0.048 A 
ATOM      6  C5  UNL d   1      -1.778   2.925   5.514  0.00  0.00     0.003 A 
ATOM      7  I   UNL d   1      -5.349   5.344   5.994  0.00  0.00    -0.146 I 
ENDROOT
TORSDOF 0
ENDMDL
