MODEL 1
REMARK minimizedAffinity 8.47969818
REMARK minimizedRMSD -1
REMARK  0 active torsions:
REMARK  status: ('A' for Active; 'I' for Inactive)
ROOT
ATOM      1  C   UNL d   1       5.976  -0.138  -2.368  0.00  0.00     0.023 A 
ATOM      2  C1  UNL d   1       5.985   1.249  -2.521  0.00  0.00     0.003 A 
ATOM      3  C2  UNL d   1       5.990   2.077  -1.396  0.00  0.00     0.048 A 
ATOM      4  C3  UNL d   1       5.987   1.512  -0.122  0.00  0.00     0.023 A 
ATOM      5  C4  UNL d   1       5.979   0.125   0.036  0.00  0.00     0.048 A 
ATOM      6  C5  UNL d   1       5.973  -0.699  -1.091  0.00  0.00     0.003 A 
ATOM      7  I   UNL d   1       5.995   2.742   1.554  0.00  0.00    -0.146 I 
ENDROOT
TORSDOF 0
ENDMDL
