MODEL 1
REMARK minimizedAffinity 8.47394657
REMARK minimizedRMSD -1
REMARK  0 active torsions:
REMARK  status: ('A' for Active; 'I' for Inactive)
ROOT
ATOM      1  C   UNL d   1       0.110  -0.239   3.164  0.00  0.00     0.023 A 
ATOM      2  C1  UNL d   1      -0.772  -1.028   2.426  0.00  0.00     0.003 A 
ATOM      3  C2  UNL d   1      -0.283  -1.882   1.434  0.00  0.00     0.048 A 
ATOM      4  C3  UNL d   1       1.088  -1.942   1.188  0.00  0.00     0.023 A 
ATOM      5  C4  UNL d   1       1.974  -1.154   1.925  0.00  0.00     0.048 A 
ATOM      6  C5  UNL d   1       1.480  -0.301   2.915  0.00  0.00     0.003 A 
ATOM      7  I   UNL d   1       1.818  -3.211  -0.287  0.00  0.00    -0.146 I 
ENDROOT
TORSDOF 0
ENDMDL
