MODEL 1
REMARK minimizedAffinity 8.62773991
REMARK minimizedRMSD -1
REMARK  0 active torsions:
REMARK  status: ('A' for Active; 'I' for Inactive)
ROOT
ATOM      1  C   UNL d   1      -5.799   3.785  -4.897  0.00  0.00     0.023 A 
ATOM      2  C1  UNL d   1      -4.955   4.671  -4.227  0.00  0.00     0.003 A 
ATOM      3  C2  UNL d   1      -3.840   4.189  -3.539  0.00  0.00     0.048 A 
ATOM      4  C3  UNL d   1      -3.574   2.820  -3.525  0.00  0.00     0.023 A 
ATOM      5  C4  UNL d   1      -4.415   1.930  -4.194  0.00  0.00     0.048 A 
ATOM      6  C5  UNL d   1      -5.530   2.416  -4.881  0.00  0.00     0.003 A 
ATOM      7  I   UNL d   1      -1.914   2.101  -2.501  0.00  0.00    -0.146 I 
ENDROOT
TORSDOF 0
ENDMDL
