MODEL 1
REMARK minimizedAffinity 9.69189262
REMARK minimizedRMSD -1
REMARK  0 active torsions:
REMARK  status: ('A' for Active; 'I' for Inactive)
ROOT
ATOM      1  C   UNL d   1       1.004   4.175  -5.679  0.00  0.00     0.023 A 
ATOM      2  C1  UNL d   1       2.069   3.285  -5.533  0.00  0.00     0.003 A 
ATOM      3  C2  UNL d   1       3.383   3.748  -5.617  0.00  0.00     0.048 A 
ATOM      4  C3  UNL d   1       3.626   5.102  -5.847  0.00  0.00     0.023 A 
ATOM      5  C4  UNL d   1       2.564   5.996  -5.993  0.00  0.00     0.048 A 
ATOM      6  C5  UNL d   1       1.251   5.528  -5.909  0.00  0.00     0.003 A 
ATOM      7  I   UNL d   1       5.582   5.794  -5.973  0.00  0.00    -0.146 I 
ENDROOT
TORSDOF 0
ENDMDL
