MODEL 1
REMARK minimizedAffinity 4.62130642
REMARK minimizedRMSD -1
REMARK  0 active torsions:
REMARK  status: ('A' for Active; 'I' for Inactive)
ROOT
ATOM      1  C   UNL d   1      -1.542  -0.215  -3.356  0.00  0.00     0.023 A 
ATOM      2  C1  UNL d   1      -0.504   0.717  -3.329  0.00  0.00     0.003 A 
ATOM      3  C2  UNL d   1      -0.311   1.516  -2.199  0.00  0.00     0.048 A 
ATOM      4  C3  UNL d   1      -1.158   1.377  -1.101  0.00  0.00     0.023 A 
ATOM      5  C4  UNL d   1      -2.197   0.445  -1.123  0.00  0.00     0.048 A 
ATOM      6  C5  UNL d   1      -2.387  -0.351  -2.255  0.00  0.00     0.003 A 
ATOM      7  I   UNL d   1      -0.872   2.564   0.581  0.00  0.00    -0.146 I 
ENDROOT
TORSDOF 0
ENDMDL
