MODEL 1
REMARK minimizedAffinity 7.06320906
REMARK minimizedRMSD -1
REMARK  0 active torsions:
REMARK  status: ('A' for Active; 'I' for Inactive)
ROOT
ATOM      1  C   UNL d   1      -0.144  -0.457   3.859  0.00  0.00     0.023 A 
ATOM      2  C1  UNL d   1       0.788  -0.626   2.835  0.00  0.00     0.003 A 
ATOM      3  C2  UNL d   1       0.747   0.198   1.708  0.00  0.00     0.048 A 
ATOM      4  C3  UNL d   1      -0.229   1.189   1.612  0.00  0.00     0.023 A 
ATOM      5  C4  UNL d   1      -1.164   1.362   2.634  0.00  0.00     0.048 A 
ATOM      6  C5  UNL d   1      -1.119   0.536   3.758  0.00  0.00     0.003 A 
ATOM      7  I   UNL d   1      -0.293   2.416  -0.065  0.00  0.00    -0.146 I 
ENDROOT
TORSDOF 0
ENDMDL
