MODEL 1
REMARK minimizedAffinity 9.05187321
REMARK minimizedRMSD -1
REMARK  0 active torsions:
REMARK  status: ('A' for Active; 'I' for Inactive)
ROOT
ATOM      1  C   UNL d   1      -1.434  -5.936  -4.012  0.00  0.00     0.023 A 
ATOM      2  C1  UNL d   1      -1.577  -5.991  -5.398  0.00  0.00     0.003 A 
ATOM      3  C2  UNL d   1      -2.851  -6.000  -5.970  0.00  0.00     0.048 A 
ATOM      4  C3  UNL d   1      -3.978  -5.951  -5.149  0.00  0.00     0.023 A 
ATOM      5  C4  UNL d   1      -3.839  -5.895  -3.761  0.00  0.00     0.048 A 
ATOM      6  C5  UNL d   1      -2.563  -5.888  -3.194  0.00  0.00     0.003 A 
ATOM      7  I   UNL d   1      -5.875  -5.963  -5.998  0.00  0.00    -0.146 I 
ENDROOT
TORSDOF 0
ENDMDL
