MODEL 1
REMARK minimizedAffinity -1.02978909
REMARK minimizedRMSD -1
REMARK  0 active torsions:
REMARK  status: ('A' for Active; 'I' for Inactive)
ROOT
ATOM      1  C1  BNZ d   1       0.332   0.056  -3.727  0.00  0.00     0.000 A 
ATOM      2  C2  BNZ d   1       0.992   1.003  -2.990  0.00  0.00     0.000 A 
ATOM      3  C3  BNZ d   1       0.342   1.713  -2.020  0.00  0.00     0.000 A 
ATOM      4  C4  BNZ d   1      -0.975   1.505  -1.816  0.00  0.00     0.000 A 
ATOM      5  C5  BNZ d   1      -1.657   0.561  -2.557  0.00  0.00     0.000 A 
ATOM      6  C6  BNZ d   1      -0.990  -0.180  -3.506  0.00  0.00     0.000 A 
ENDROOT
TORSDOF 0
ENDMDL
