MODEL 1
REMARK minimizedAffinity 5.14618301
REMARK minimizedRMSD -1
REMARK  0 active torsions:
REMARK  status: ('A' for Active; 'I' for Inactive)
ROOT
ATOM      1  C1  BNZ d   1      -0.087   2.069   0.116  0.00  0.00     0.000 A 
ATOM      2  C2  BNZ d   1      -0.551   1.320   1.164  0.00  0.00     0.000 A 
ATOM      3  C3  BNZ d   1      -1.287   1.894   2.163  0.00  0.00     0.000 A 
ATOM      4  C4  BNZ d   1      -1.524   3.222   2.132  0.00  0.00     0.000 A 
ATOM      5  C5  BNZ d   1      -1.056   3.992   1.087  0.00  0.00     0.000 A 
ATOM      6  C6  BNZ d   1      -0.348   3.404   0.063  0.00  0.00     0.000 A 
ENDROOT
TORSDOF 0
ENDMDL
