MODEL 1
REMARK minimizedAffinity -1.57927406
REMARK minimizedRMSD -1
REMARK  0 active torsions:
REMARK  status: ('A' for Active; 'I' for Inactive)
ROOT
ATOM      1  C1  BNZ d   1       0.849   1.479  -2.785  0.00  0.00     0.000 A 
ATOM      2  C2  BNZ d   1       0.403   0.479  -3.607  0.00  0.00     0.000 A 
ATOM      3  C3  BNZ d   1      -0.688  -0.272  -3.269  0.00  0.00     0.000 A 
ATOM      4  C4  BNZ d   1      -1.306  -0.049  -2.091  0.00  0.00     0.000 A 
ATOM      5  C5  BNZ d   1      -0.864   0.949  -1.247  0.00  0.00     0.000 A 
ATOM      6  C6  BNZ d   1       0.211   1.729  -1.609  0.00  0.00     0.000 A 
ENDROOT
TORSDOF 0
ENDMDL
