MODEL 1
REMARK minimizedAffinity 4.46699524
REMARK minimizedRMSD -1
REMARK  0 active torsions:
REMARK  status: ('A' for Active; 'I' for Inactive)
ROOT
ATOM      1  C1  BNZ d   1       0.020   3.549  -0.929  0.00  0.00     0.000 A 
ATOM      2  C2  BNZ d   1      -0.051   2.320  -0.329  0.00  0.00     0.000 A 
ATOM      3  C3  BNZ d   1      -0.762   2.145   0.825  0.00  0.00     0.000 A 
ATOM      4  C4  BNZ d   1      -1.367   3.206   1.399  0.00  0.00     0.000 A 
ATOM      5  C5  BNZ d   1      -1.296   4.453   0.811  0.00  0.00     0.000 A 
ATOM      6  C6  BNZ d   1      -0.612   4.617  -0.371  0.00  0.00     0.000 A 
ENDROOT
TORSDOF 0
ENDMDL
