MODEL 1
REMARK minimizedAffinity 8.79119492
REMARK minimizedRMSD -1
REMARK  0 active torsions:
REMARK  status: ('A' for Active; 'I' for Inactive)
ROOT
ATOM      1  C1  BNZ d   1       0.763   3.234  -1.247  0.00  0.00     0.000 A 
ATOM      2  C2  BNZ d   1       0.827   2.827   0.059  0.00  0.00     0.000 A 
ATOM      3  C3  BNZ d   1      -0.173   2.073   0.607  0.00  0.00     0.000 A 
ATOM      4  C4  BNZ d   1      -1.253   1.762  -0.139  0.00  0.00     0.000 A 
ATOM      5  C5  BNZ d   1      -1.336   2.173  -1.454  0.00  0.00     0.000 A 
ATOM      6  C6  BNZ d   1      -0.310   2.898  -2.014  0.00  0.00     0.000 A 
ENDROOT
TORSDOF 0
ENDMDL
