MODEL 1
REMARK minimizedAffinity 3.34426379
REMARK minimizedRMSD -1
REMARK  0 active torsions:
REMARK  status: ('A' for Active; 'I' for Inactive)
ROOT
ATOM      1  C1  BNZ d   1       0.251   3.023   0.047  0.00  0.00     0.000 A 
ATOM      2  C2  BNZ d   1       0.449   3.755  -1.094  0.00  0.00     0.000 A 
ATOM      3  C3  BNZ d   1      -0.313   3.536  -2.207  0.00  0.00     0.000 A 
ATOM      4  C4  BNZ d   1      -1.244   2.560  -2.192  0.00  0.00     0.000 A 
ATOM      5  C5  BNZ d   1      -1.449   1.807  -1.053  0.00  0.00     0.000 A 
ATOM      6  C6  BNZ d   1      -0.706   2.056   0.079  0.00  0.00     0.000 A 
ENDROOT
TORSDOF 0
ENDMDL
