MODEL 1
REMARK minimizedAffinity 3.12751865
REMARK minimizedRMSD -1
REMARK  0 active torsions:
REMARK  status: ('A' for Active; 'I' for Inactive)
ROOT
ATOM      1  C1  BNZ d   1       3.551  -5.037  -0.752  0.00  0.00     0.000 A 
ATOM      2  C2  BNZ d   1       2.559  -4.096  -0.665  0.00  0.00     0.000 A 
ATOM      3  C3  BNZ d   1       1.499  -4.115  -1.527  0.00  0.00     0.000 A 
ATOM      4  C4  BNZ d   1       1.451  -5.049  -2.499  0.00  0.00     0.000 A 
ATOM      5  C5  BNZ d   1       2.447  -5.998  -2.605  0.00  0.00     0.000 A 
ATOM      6  C6  BNZ d   1       3.493  -6.000  -1.712  0.00  0.00     0.000 A 
ENDROOT
TORSDOF 0
ENDMDL
