MODEL 1
REMARK minimizedAffinity 1.35587394
REMARK minimizedRMSD -1
REMARK  0 active torsions:
REMARK  status: ('A' for Active; 'I' for Inactive)
ROOT
ATOM      1  C1  BNZ d   1      -1.380   4.983   0.211  0.00  0.00     0.000 A 
ATOM      2  C2  BNZ d   1      -1.223   3.794   0.873  0.00  0.00     0.000 A 
ATOM      3  C3  BNZ d   1      -0.507   2.772   0.315  0.00  0.00     0.000 A 
ATOM      4  C4  BNZ d   1       0.017   2.925  -0.919  0.00  0.00     0.000 A 
ATOM      5  C5  BNZ d   1      -0.142   4.114  -1.603  0.00  0.00     0.000 A 
ATOM      6  C6  BNZ d   1      -0.830   5.155  -1.022  0.00  0.00     0.000 A 
ENDROOT
TORSDOF 0
ENDMDL
