MODEL 1
REMARK minimizedAffinity 10.1054306
REMARK minimizedRMSD -1
REMARK  0 active torsions:
REMARK  status: ('A' for Active; 'I' for Inactive)
ROOT
ATOM      1  C1  BNZ d   1      -3.633   5.745   1.408  0.00  0.00     0.000 A 
ATOM      2  C2  BNZ d   1      -4.897   5.982   1.878  0.00  0.00     0.000 A 
ATOM      3  C3  BNZ d   1      -5.968   6.000   1.029  0.00  0.00     0.000 A 
ATOM      4  C4  BNZ d   1      -5.769   5.821  -0.293  0.00  0.00     0.000 A 
ATOM      5  C5  BNZ d   1      -4.499   5.591  -0.784  0.00  0.00     0.000 A 
ATOM      6  C6  BNZ d   1      -3.429   5.535   0.079  0.00  0.00     0.000 A 
ENDROOT
TORSDOF 0
ENDMDL
