MODEL 1
REMARK minimizedAffinity 0.528513968
REMARK minimizedRMSD -1
REMARK  0 active torsions:
REMARK  status: ('A' for Active; 'I' for Inactive)
ROOT
ATOM      1  C1  BNZ d   1      -1.802   3.081   1.024  0.00  0.00     0.000 A 
ATOM      2  C2  BNZ d   1      -1.633   3.582  -0.239  0.00  0.00     0.000 A 
ATOM      3  C3  BNZ d   1      -0.454   3.408  -0.909  0.00  0.00     0.000 A 
ATOM      4  C4  BNZ d   1       0.566   2.768  -0.300  0.00  0.00     0.000 A 
ATOM      5  C5  BNZ d   1       0.414   2.265   0.976  0.00  0.00     0.000 A 
ATOM      6  C6  BNZ d   1      -0.788   2.409   1.632  0.00  0.00     0.000 A 
ENDROOT
TORSDOF 0
ENDMDL
