MODEL 1
REMARK minimizedAffinity 12.1768427
REMARK minimizedRMSD -1
REMARK  0 active torsions:
REMARK  status: ('A' for Active; 'I' for Inactive)
ROOT
ATOM      1  C1  BNZ d   1      -3.635   5.612   0.760  0.00  0.00     0.000 A 
ATOM      2  C2  BNZ d   1      -3.447   5.254  -0.548  0.00  0.00     0.000 A 
ATOM      3  C3  BNZ d   1      -4.483   5.290  -1.440  0.00  0.00     0.000 A 
ATOM      4  C4  BNZ d   1      -5.712   5.645  -1.013  0.00  0.00     0.000 A 
ATOM      5  C5  BNZ d   1      -5.920   6.000   0.305  0.00  0.00     0.000 A 
ATOM      6  C6  BNZ d   1      -4.866   6.000   1.190  0.00  0.00     0.000 A 
ENDROOT
TORSDOF 0
ENDMDL
