MODEL 1
REMARK minimizedAffinity -3.7424264
REMARK minimizedRMSD -1
REMARK  0 active torsions:
REMARK  status: ('A' for Active; 'I' for Inactive)
ROOT
ATOM      1  C1  BNZ d   1      -0.138   2.556  -0.870  0.00  0.00     0.000 A 
ATOM      2  C2  BNZ d   1      -0.881   1.653  -0.157  0.00  0.00     0.000 A 
ATOM      3  C3  BNZ d   1      -1.147   1.857   1.168  0.00  0.00     0.000 A 
ATOM      4  C4  BNZ d   1      -0.639   2.942   1.787  0.00  0.00     0.000 A 
ATOM      5  C5  BNZ d   1       0.119   3.857   1.084  0.00  0.00     0.000 A 
ATOM      6  C6  BNZ d   1       0.353   3.668  -0.259  0.00  0.00     0.000 A 
ENDROOT
TORSDOF 0
ENDMDL
