MODEL 1
REMARK minimizedAffinity 8.20655727
REMARK minimizedRMSD -1
REMARK  0 active torsions:
REMARK  status: ('A' for Active; 'I' for Inactive)
ROOT
ATOM      1  C1  BNZ d   1      -0.967   2.275  -0.961  0.00  0.00     0.000 A 
ATOM      2  C2  BNZ d   1       0.127   2.560  -0.188  0.00  0.00     0.000 A 
ATOM      3  C3  BNZ d   1       0.952   3.604  -0.503  0.00  0.00     0.000 A 
ATOM      4  C4  BNZ d   1       0.705   4.334  -1.609  0.00  0.00     0.000 A 
ATOM      5  C5  BNZ d   1      -0.389   4.053  -2.403  0.00  0.00     0.000 A 
ATOM      6  C6  BNZ d   1      -1.239   3.026  -2.062  0.00  0.00     0.000 A 
ENDROOT
TORSDOF 0
ENDMDL
