MODEL 1
REMARK minimizedAffinity 8.42813015
REMARK minimizedRMSD -1
REMARK  0 active torsions:
REMARK  status: ('A' for Active; 'I' for Inactive)
ROOT
ATOM      1  C1  BNZ d   1      -5.534   5.251  -1.055  0.00  0.00     0.000 A 
ATOM      2  C2  BNZ d   1      -6.000   6.000  -0.008  0.00  0.00     0.000 A 
ATOM      3  C3  BNZ d   1      -5.409   5.926   1.223  0.00  0.00     0.000 A 
ATOM      4  C4  BNZ d   1      -4.381   5.074   1.414  0.00  0.00     0.000 A 
ATOM      5  C5  BNZ d   1      -3.906   4.305   0.370  0.00  0.00     0.000 A 
ATOM      6  C6  BNZ d   1      -4.478   4.411  -0.877  0.00  0.00     0.000 A 
ENDROOT
TORSDOF 0
ENDMDL
