MODEL 1
REMARK minimizedAffinity 3.33336186
REMARK minimizedRMSD -1
REMARK  0 active torsions:
REMARK  status: ('A' for Active; 'I' for Inactive)
ROOT
ATOM      1  C1  BNZ d   1      -0.913   1.895  -0.388  0.00  0.00     0.000 A 
ATOM      2  C2  BNZ d   1       0.199   2.203   0.349  0.00  0.00     0.000 A 
ATOM      3  C3  BNZ d   1       1.019   3.233  -0.018  0.00  0.00     0.000 A 
ATOM      4  C4  BNZ d   1       0.749   3.926  -1.143  0.00  0.00     0.000 A 
ATOM      5  C5  BNZ d   1      -0.363   3.621  -1.903  0.00  0.00     0.000 A 
ATOM      6  C6  BNZ d   1      -1.208   2.609  -1.508  0.00  0.00     0.000 A 
ENDROOT
TORSDOF 0
ENDMDL
