MODEL 1
REMARK minimizedAffinity 1.30103922
REMARK minimizedRMSD -1
REMARK  0 active torsions:
REMARK  status: ('A' for Active; 'I' for Inactive)
ROOT
ATOM      1  C1  BNZ d   1       0.215   1.936   1.072  0.00  0.00     0.000 A 
ATOM      2  C2  BNZ d   1      -0.399   2.201   2.267  0.00  0.00     0.000 A 
ATOM      3  C3  BNZ d   1      -1.762   2.218   2.365  0.00  0.00     0.000 A 
ATOM      4  C4  BNZ d   1      -2.509   2.011   1.261  0.00  0.00     0.000 A 
ATOM      5  C5  BNZ d   1      -1.904   1.752   0.047  0.00  0.00     0.000 A 
ATOM      6  C6  BNZ d   1      -0.532   1.697  -0.040  0.00  0.00     0.000 A 
ENDROOT
TORSDOF 0
ENDMDL
