MODEL 1
REMARK minimizedAffinity 1.81139648
REMARK minimizedRMSD -1
REMARK  0 active torsions:
REMARK  status: ('A' for Active; 'I' for Inactive)
ROOT
ATOM      1  C1  BNZ d   1       0.452   3.046  -0.342  0.00  0.00     0.000 A 
ATOM      2  C2  BNZ d   1       0.675   3.453  -1.631  0.00  0.00     0.000 A 
ATOM      3  C3  BNZ d   1      -0.308   3.356  -2.576  0.00  0.00     0.000 A 
ATOM      4  C4  BNZ d   1      -1.498   2.818  -2.241  0.00  0.00     0.000 A 
ATOM      5  C5  BNZ d   1      -1.735   2.394  -0.948  0.00  0.00     0.000 A 
ATOM      6  C6  BNZ d   1      -0.756   2.529   0.009  0.00  0.00     0.000 A 
ENDROOT
TORSDOF 0
ENDMDL
