MODEL 1
REMARK minimizedAffinity 1.79821074
REMARK minimizedRMSD -1
REMARK  1 active torsions:
REMARK  status: ('A' for Active; 'I' for Inactive)
REMARK    1  A    between atoms: C3_4  and  O_7 
ROOT
ATOM      1  C   UNL d   1      -3.804   0.406  -0.446  0.00  0.00    -0.033 A 
ATOM      2  C1  UNL d   1      -4.153   0.731  -1.759  0.00  0.00     0.039 A 
ATOM      3  C2  UNL d   1      -3.165   1.098  -2.675  0.00  0.00    -0.080 A 
ATOM      4  C3  UNL d   1      -1.835   1.136  -2.267  0.00  0.00     0.150 A 
ATOM      5  C4  UNL d   1      -1.480   0.810  -0.962  0.00  0.00    -0.007 A 
ATOM      6  C5  UNL d   1      -2.468   0.445  -0.048  0.00  0.00     0.039 A 
ENDROOT
BRANCH   4   7
ATOM      7  O   UNL d   1      -0.837   1.494  -3.124  0.00  0.00    -0.526 OA
ATOM      8  H5  UNL d   1      -1.234   1.719  -3.981  0.00  0.00     0.418 HD
ENDBRANCH   4   7
TORSDOF 1
ENDMDL
