MODEL 1
REMARK minimizedAffinity -3.72938538
REMARK minimizedRMSD -1
REMARK  1 active torsions:
REMARK  status: ('A' for Active; 'I' for Inactive)
REMARK    1  A    between atoms: C3_4  and  O_7 
ROOT
ATOM      1  C   UNL d   1      -1.471  -5.957  -3.948  0.00  0.00    -0.033 A 
ATOM      2  C1  UNL d   1      -2.150  -5.983  -5.167  0.00  0.00     0.039 A 
ATOM      3  C2  UNL d   1      -3.546  -5.997  -5.191  0.00  0.00    -0.080 A 
ATOM      4  C3  UNL d   1      -4.250  -5.983  -3.990  0.00  0.00     0.150 A 
ATOM      5  C4  UNL d   1      -3.580  -5.953  -2.772  0.00  0.00    -0.007 A 
ATOM      6  C5  UNL d   1      -2.186  -5.940  -2.750  0.00  0.00     0.039 A 
ENDROOT
BRANCH   4   7
ATOM      7  O   UNL d   1      -5.613  -6.000  -3.963  0.00  0.00    -0.526 OA
ATOM      8  H5  UNL d   1      -5.938  -6.049  -4.877  0.00  0.00     0.418 HD
ENDBRANCH   4   7
TORSDOF 1
ENDMDL
