MODEL 1
REMARK minimizedAffinity -0.443630248
REMARK minimizedRMSD -1
REMARK  1 active torsions:
REMARK  status: ('A' for Active; 'I' for Inactive)
REMARK    1  A    between atoms: C3_4  and  O_7 
ROOT
ATOM      1  C   UNL d   1       3.125  -1.712   1.209  0.00  0.00    -0.033 A 
ATOM      2  C1  UNL d   1       2.265  -1.804   2.305  0.00  0.00     0.039 A 
ATOM      3  C2  UNL d   1       1.178  -0.935   2.416  0.00  0.00    -0.080 A 
ATOM      4  C3  UNL d   1       0.962   0.020   1.426  0.00  0.00     0.150 A 
ATOM      5  C4  UNL d   1       1.813   0.115   0.330  0.00  0.00    -0.007 A 
ATOM      6  C5  UNL d   1       2.898  -0.754   0.221  0.00  0.00     0.039 A 
ENDROOT
BRANCH   4   7
ATOM      7  O   UNL d   1      -0.083   0.893   1.494  0.00  0.00    -0.526 OA
ATOM      8  H5  UNL d   1      -0.568   0.729   2.320  0.00  0.00     0.418 HD
ENDBRANCH   4   7
TORSDOF 1
ENDMDL
