MODEL 1
REMARK minimizedAffinity 2.48663235
REMARK minimizedRMSD -1
REMARK  1 active torsions:
REMARK  status: ('A' for Active; 'I' for Inactive)
REMARK    1  A    between atoms: C3_4  and  O_7 
ROOT
ATOM      1  C   UNL d   1       3.543  -1.265   1.555  0.00  0.00    -0.033 A 
ATOM      2  C1  UNL d   1       3.349  -0.709   0.289  0.00  0.00     0.039 A 
ATOM      3  C2  UNL d   1       2.112  -0.159  -0.053  0.00  0.00    -0.080 A 
ATOM      4  C3  UNL d   1       1.078  -0.171   0.880  0.00  0.00     0.150 A 
ATOM      5  C4  UNL d   1       1.265  -0.720   2.144  0.00  0.00    -0.007 A 
ATOM      6  C5  UNL d   1       2.501  -1.269   2.483  0.00  0.00     0.039 A 
ENDROOT
BRANCH   4   7
ATOM      7  O   UNL d   1      -0.148   0.349   0.591  0.00  0.00    -0.526 OA
ATOM      8  H5  UNL d   1      -0.139   0.666  -0.328  0.00  0.00     0.418 HD
ENDBRANCH   4   7
TORSDOF 1
ENDMDL
