MODEL 1
REMARK minimizedAffinity -0.789432406
REMARK minimizedRMSD -1
REMARK  1 active torsions:
REMARK  status: ('A' for Active; 'I' for Inactive)
REMARK    1  A    between atoms: C3_4  and  O_7 
ROOT
ATOM      1  C   UNL d   1       2.736  -5.236  -4.864  0.00  0.00    -0.033 A 
ATOM      2  C1  UNL d   1       1.977  -4.943  -3.730  0.00  0.00     0.039 A 
ATOM      3  C2  UNL d   1       0.601  -5.176  -3.729  0.00  0.00    -0.080 A 
ATOM      4  C3  UNL d   1      -0.004  -5.702  -4.867  0.00  0.00     0.150 A 
ATOM      5  C4  UNL d   1       0.747  -6.000  -6.000  0.00  0.00    -0.007 A 
ATOM      6  C5  UNL d   1       2.121  -5.766  -5.999  0.00  0.00     0.039 A 
ENDROOT
BRANCH   4   7
ATOM      7  O   UNL d   1      -1.345  -5.941  -4.916  0.00  0.00    -0.526 OA
ATOM      8  H5  UNL d   1      -1.738  -5.661  -4.073  0.00  0.00     0.418 HD
ENDBRANCH   4   7
TORSDOF 1
ENDMDL
