MODEL 1
REMARK minimizedAffinity -0.777278543
REMARK minimizedRMSD -1
REMARK  1 active torsions:
REMARK  status: ('A' for Active; 'I' for Inactive)
REMARK    1  A    between atoms: C3_4  and  O_7 
ROOT
ATOM      1  C   UNL d   1       2.536  -5.630  -4.876  0.00  0.00    -0.033 A 
ATOM      2  C1  UNL d   1       1.790  -6.000  -5.996  0.00  0.00     0.039 A 
ATOM      3  C2  UNL d   1       0.395  -6.000  -5.940  0.00  0.00    -0.080 A 
ATOM      4  C3  UNL d   1      -0.241  -5.628  -4.758  0.00  0.00     0.150 A 
ATOM      5  C4  UNL d   1       0.496  -5.254  -3.639  0.00  0.00    -0.007 A 
ATOM      6  C5  UNL d   1       1.889  -5.256  -3.698  0.00  0.00     0.039 A 
ENDROOT
BRANCH   4   7
ATOM      7  O   UNL d   1      -1.601  -5.617  -4.654  0.00  0.00    -0.526 OA
ATOM      8  H5  UNL d   1      -1.976  -5.925  -5.495  0.00  0.00     0.418 HD
ENDBRANCH   4   7
TORSDOF 1
ENDMDL
