MODEL 1
REMARK minimizedAffinity -1.50235748
REMARK minimizedRMSD -1
REMARK  1 active torsions:
REMARK  status: ('A' for Active; 'I' for Inactive)
REMARK    1  A    between atoms: C3_4  and  O_7 
ROOT
ATOM      1  C   UNL d   1      -0.296  -5.960  -4.680  0.00  0.00    -0.033 A 
ATOM      2  C1  UNL d   1       0.357  -5.999  -5.914  0.00  0.00     0.039 A 
ATOM      3  C2  UNL d   1       1.713  -5.675  -5.998  0.00  0.00    -0.080 A 
ATOM      4  C3  UNL d   1       2.403  -5.316  -4.843  0.00  0.00     0.150 A 
ATOM      5  C4  UNL d   1       1.759  -5.280  -3.611  0.00  0.00    -0.007 A 
ATOM      6  C5  UNL d   1       0.405  -5.602  -3.529  0.00  0.00     0.039 A 
ENDROOT
BRANCH   4   7
ATOM      7  O   UNL d   1       3.725  -4.988  -4.876  0.00  0.00    -0.526 OA
ATOM      8  H5  UNL d   1       4.030  -5.029  -5.798  0.00  0.00     0.418 HD
ENDBRANCH   4   7
TORSDOF 1
ENDMDL
