MODEL 1
REMARK minimizedAffinity 8.38260841
REMARK minimizedRMSD -1
REMARK  1 active torsions:
REMARK  status: ('A' for Active; 'I' for Inactive)
REMARK    1  A    between atoms: C3_4  and  O_7 
ROOT
ATOM      1  C   UNL d   1       0.329   1.649  -0.217  0.00  0.00    -0.033 A 
ATOM      2  C1  UNL d   1       0.375   3.043  -0.149  0.00  0.00     0.039 A 
ATOM      3  C2  UNL d   1       1.605   3.703  -0.153  0.00  0.00    -0.080 A 
ATOM      4  C3  UNL d   1       2.780   2.959  -0.226  0.00  0.00     0.150 A 
ATOM      5  C4  UNL d   1       2.741   1.570  -0.298  0.00  0.00    -0.007 A 
ATOM      6  C5  UNL d   1       1.512   0.913  -0.293  0.00  0.00     0.039 A 
ENDROOT
BRANCH   4   7
ATOM      7  O   UNL d   1       4.004   3.559  -0.228  0.00  0.00    -0.526 OA
ATOM      8  H5  UNL d   1       3.877   4.518  -0.145  0.00  0.00     0.418 HD
ENDBRANCH   4   7
TORSDOF 1
ENDMDL
