MODEL 1
REMARK minimizedAffinity 8.11097813
REMARK minimizedRMSD -1
REMARK  1 active torsions:
REMARK  status: ('A' for Active; 'I' for Inactive)
REMARK    1  A    between atoms: C3_4  and  O_7 
ROOT
ATOM      1  C   UNL d   1       1.872  -5.168  -4.854  0.00  0.00    -0.033 A 
ATOM      2  C1  UNL d   1       1.280  -5.789  -5.955  0.00  0.00     0.039 A 
ATOM      3  C2  UNL d   1      -0.101  -5.990  -5.988  0.00  0.00    -0.080 A 
ATOM      4  C3  UNL d   1      -0.879  -5.565  -4.914  0.00  0.00     0.150 A 
ATOM      5  C4  UNL d   1      -0.297  -4.942  -3.815  0.00  0.00    -0.007 A 
ATOM      6  C5  UNL d   1       1.083  -4.743  -3.784  0.00  0.00     0.039 A 
ENDROOT
BRANCH   4   7
ATOM      7  O   UNL d   1      -2.230  -5.744  -4.898  0.00  0.00    -0.526 OA
ATOM      8  H5  UNL d   1      -2.488  -6.213  -5.709  0.00  0.00     0.418 HD
ENDBRANCH   4   7
TORSDOF 1
ENDMDL
