MODEL 1
REMARK minimizedAffinity 3.06435513
REMARK minimizedRMSD -1
REMARK  1 active torsions:
REMARK  status: ('A' for Active; 'I' for Inactive)
REMARK    1  A    between atoms: C3_4  and  O_7 
ROOT
ATOM      1  C   UNL d   1       2.696  -5.246  -4.841  0.00  0.00    -0.033 A 
ATOM      2  C1  UNL d   1       1.959  -5.047  -3.672  0.00  0.00     0.039 A 
ATOM      3  C2  UNL d   1       0.585  -5.297  -3.659  0.00  0.00    -0.080 A 
ATOM      4  C3  UNL d   1      -0.038  -5.746  -4.820  0.00  0.00     0.150 A 
ATOM      5  C4  UNL d   1       0.691  -5.950  -5.987  0.00  0.00    -0.007 A 
ATOM      6  C5  UNL d   1       2.062  -5.698  -5.998  0.00  0.00     0.039 A 
ENDROOT
BRANCH   4   7
ATOM      7  O   UNL d   1      -1.377  -5.999  -4.858  0.00  0.00    -0.526 OA
ATOM      8  H5  UNL d   1      -1.755  -5.786  -3.988  0.00  0.00     0.418 HD
ENDBRANCH   4   7
TORSDOF 1
ENDMDL
