MODEL 1
REMARK minimizedAffinity 1.21228051
REMARK minimizedRMSD -1
REMARK  1 active torsions:
REMARK  status: ('A' for Active; 'I' for Inactive)
REMARK    1  A    between atoms: C3_4  and  O_7 
ROOT
ATOM      1  C   UNL d   1      -1.635  -5.216  -4.933  0.00  0.00    -0.033 A 
ATOM      2  C1  UNL d   1      -0.877  -4.459  -4.038  0.00  0.00     0.039 A 
ATOM      3  C2  UNL d   1       0.517  -4.467  -4.119  0.00  0.00    -0.080 A 
ATOM      4  C3  UNL d   1       1.139  -5.235  -5.100  0.00  0.00     0.150 A 
ATOM      5  C4  UNL d   1       0.390  -5.989  -5.998  0.00  0.00    -0.007 A 
ATOM      6  C5  UNL d   1      -1.002  -5.980  -5.914  0.00  0.00     0.039 A 
ENDROOT
BRANCH   4   7
ATOM      7  O   UNL d   1       2.497  -5.279  -5.216  0.00  0.00    -0.526 OA
ATOM      8  H5  UNL d   1       2.884  -4.732  -4.512  0.00  0.00     0.418 HD
ENDBRANCH   4   7
TORSDOF 1
ENDMDL
