MODEL 1
REMARK minimizedAffinity 3.89913464
REMARK minimizedRMSD -1
REMARK  1 active torsions:
REMARK  status: ('A' for Active; 'I' for Inactive)
REMARK    1  A    between atoms: C3_4  and  O_7 
ROOT
ATOM      1  C   UNL d   1      -3.813   0.573  -0.462  0.00  0.00    -0.033 A 
ATOM      2  C1  UNL d   1      -4.137   1.063  -1.729  0.00  0.00     0.039 A 
ATOM      3  C2  UNL d   1      -4.549   0.187  -2.734  0.00  0.00    -0.080 A 
ATOM      4  C3  UNL d   1      -4.634  -1.176  -2.461  0.00  0.00     0.150 A 
ATOM      5  C4  UNL d   1      -4.316  -1.671  -1.200  0.00  0.00    -0.007 A 
ATOM      6  C5  UNL d   1      -3.904  -0.794  -0.198  0.00  0.00     0.039 A 
ENDROOT
BRANCH   4   7
ATOM      7  O   UNL d   1      -5.027  -2.071  -3.411  0.00  0.00    -0.526 OA
ATOM      8  H5  UNL d   1      -5.186  -1.589  -4.240  0.00  0.00     0.418 HD
ENDBRANCH   4   7
TORSDOF 1
ENDMDL
