MODEL 1
REMARK minimizedAffinity -1.4875232
REMARK minimizedRMSD -1
REMARK  1 active torsions:
REMARK  status: ('A' for Active; 'I' for Inactive)
REMARK    1  A    between atoms: C3_4  and  O_7 
ROOT
ATOM      1  C   UNL d   1      -1.024   3.497  -4.195  0.00  0.00    -0.033 A 
ATOM      2  C1  UNL d   1      -0.593   2.350  -3.526  0.00  0.00     0.039 A 
ATOM      3  C2  UNL d   1      -1.510   1.358  -3.175  0.00  0.00    -0.080 A 
ATOM      4  C3  UNL d   1      -2.854   1.524  -3.500  0.00  0.00     0.150 A 
ATOM      5  C4  UNL d   1      -3.290   2.662  -4.170  0.00  0.00    -0.007 A 
ATOM      6  C5  UNL d   1      -2.373   3.652  -4.519  0.00  0.00     0.039 A 
ENDROOT
BRANCH   4   7
ATOM      7  O   UNL d   1      -3.787   0.585  -3.175  0.00  0.00    -0.526 OA
ATOM      8  H5  UNL d   1      -3.345  -0.133  -2.690  0.00  0.00     0.418 HD
ENDBRANCH   4   7
TORSDOF 1
ENDMDL
