MODEL 1
REMARK minimizedAffinity 4.94008493
REMARK minimizedRMSD -1
REMARK  1 active torsions:
REMARK  status: ('A' for Active; 'I' for Inactive)
REMARK    1  A    between atoms: C3_4  and  O_7 
ROOT
ATOM      1  C   UNL d   1       5.009  -0.835   3.676  0.00  0.00    -0.033 A 
ATOM      2  C1  UNL d   1       5.506  -0.333   2.471  0.00  0.00     0.039 A 
ATOM      3  C2  UNL d   1       4.708  -0.348   1.325  0.00  0.00    -0.080 A 
ATOM      4  C3  UNL d   1       3.417  -0.864   1.398  0.00  0.00     0.150 A 
ATOM      5  C4  UNL d   1       2.915  -1.362   2.596  0.00  0.00    -0.007 A 
ATOM      6  C5  UNL d   1       3.714  -1.348   3.739  0.00  0.00     0.039 A 
ENDROOT
BRANCH   4   7
ATOM      7  O   UNL d   1       2.603  -0.904   0.305  0.00  0.00    -0.526 OA
ATOM      8  H5  UNL d   1       3.093  -0.553  -0.457  0.00  0.00     0.418 HD
ENDBRANCH   4   7
TORSDOF 1
ENDMDL
