MODEL 1
REMARK minimizedAffinity 0.168713972
REMARK minimizedRMSD -1
REMARK  1 active torsions:
REMARK  status: ('A' for Active; 'I' for Inactive)
REMARK    1  A    between atoms: C3_4  and  O_7 
ROOT
ATOM      1  C   UNL d   1       2.105  -5.961  -6.000  0.00  0.00    -0.033 A 
ATOM      2  C1  UNL d   1       0.746  -5.695  -5.819  0.00  0.00     0.039 A 
ATOM      3  C2  UNL d   1       0.291  -5.174  -4.606  0.00  0.00    -0.080 A 
ATOM      4  C3  UNL d   1       1.202  -4.924  -3.584  0.00  0.00     0.150 A 
ATOM      5  C4  UNL d   1       2.558  -5.183  -3.759  0.00  0.00    -0.007 A 
ATOM      6  C5  UNL d   1       3.011  -5.704  -4.971  0.00  0.00     0.039 A 
ENDROOT
BRANCH   4   7
ATOM      7  O   UNL d   1       0.805  -4.421  -2.381  0.00  0.00    -0.526 OA
ATOM      8  H5  UNL d   1      -0.162  -4.319  -2.395  0.00  0.00     0.418 HD
ENDBRANCH   4   7
TORSDOF 1
ENDMDL
