MODEL 1
REMARK minimizedAffinity -2.95791268
REMARK minimizedRMSD -1
REMARK  1 active torsions:
REMARK  status: ('A' for Active; 'I' for Inactive)
REMARK    1  A    between atoms: C3_4  and  O_7 
ROOT
ATOM      1  C   UNL d   1      -3.817  -4.915   2.247  0.00  0.00    -0.033 A 
ATOM      2  C1  UNL d   1      -2.602  -4.538   1.673  0.00  0.00     0.039 A 
ATOM      3  C2  UNL d   1      -2.310  -4.894   0.354  0.00  0.00    -0.080 A 
ATOM      4  C3  UNL d   1      -3.241  -5.625  -0.378  0.00  0.00     0.150 A 
ATOM      5  C4  UNL d   1      -4.456  -6.000   0.186  0.00  0.00    -0.007 A 
ATOM      6  C5  UNL d   1      -4.745  -5.645   1.503  0.00  0.00     0.039 A 
ENDROOT
BRANCH   4   7
ATOM      7  O   UNL d   1      -2.999  -5.999  -1.667  0.00  0.00    -0.526 OA
ATOM      8  H5  UNL d   1      -2.110  -5.695  -1.914  0.00  0.00     0.418 HD
ENDBRANCH   4   7
TORSDOF 1
ENDMDL
