MODEL 1
REMARK minimizedAffinity -2.06470776
REMARK minimizedRMSD -1
REMARK  1 active torsions:
REMARK  status: ('A' for Active; 'I' for Inactive)
REMARK    1  A    between atoms: C3_4  and  O_7 
ROOT
ATOM      1  C   UNL d   1       0.573  -5.918  -5.252  0.00  0.00    -0.033 A 
ATOM      2  C1  UNL d   1      -0.606  -5.880  -5.999  0.00  0.00     0.039 A 
ATOM      3  C2  UNL d   1      -1.844  -5.905  -5.355  0.00  0.00    -0.080 A 
ATOM      4  C3  UNL d   1      -1.890  -5.965  -3.965  0.00  0.00     0.150 A 
ATOM      5  C4  UNL d   1      -0.719  -5.999  -3.214  0.00  0.00    -0.007 A 
ATOM      6  C5  UNL d   1       0.516  -5.976  -3.859  0.00  0.00     0.039 A 
ENDROOT
BRANCH   4   7
ATOM      7  O   UNL d   1      -3.075  -5.996  -3.291  0.00  0.00    -0.526 OA
ATOM      8  H5  UNL d   1      -3.798  -5.996  -3.940  0.00  0.00     0.418 HD
ENDBRANCH   4   7
TORSDOF 1
ENDMDL
