MODEL 1
REMARK minimizedAffinity 11.8445196
REMARK minimizedRMSD -1
REMARK  1 active torsions:
REMARK  status: ('A' for Active; 'I' for Inactive)
REMARK    1  A    between atoms: C1_2  and  C2_3 
ROOT
ATOM      1  C2  UNL d   1      -0.962   2.515   1.391  0.00  0.00    -0.076 A 
ATOM      2  C3  UNL d   1      -1.230   3.586   2.261  0.00  0.00     0.004 A 
ATOM      3  C4  UNL d   1      -1.982   4.681   1.841  0.00  0.00    -0.003 A 
ATOM      4  C5  UNL d   1      -2.480   4.723   0.543  0.00  0.00     0.000 A 
ATOM      5  C6  UNL d   1      -2.239   3.662  -0.328  0.00  0.00     0.000 A 
ATOM      6  C7  UNL d   1      -1.496   2.542   0.085  0.00  0.00    -0.073 A 
ATOM      7  C8  UNL d   1      -1.262   1.428  -0.899  0.00  0.00     0.078 C 
ENDROOT
BRANCH   1   8
ATOM      8  C1  UNL d   1      -0.118   1.366   1.894  0.00  0.00     0.053 C 
ATOM      9  C   UNL d   1      -0.151   1.239   3.409  0.00  0.00     0.018 C 
ENDBRANCH   1   8
TORSDOF 1
ENDMDL
