MODEL 1
REMARK minimizedAffinity -1.22246599
REMARK minimizedRMSD -1
REMARK  1 active torsions:
REMARK  status: ('A' for Active; 'I' for Inactive)
REMARK    1  A    between atoms: C1_2  and  C2_3 
ROOT
ATOM      1  C2  UNL d   1       2.160  -0.196   0.262  0.00  0.00    -0.076 A 
ATOM      2  C3  UNL d   1       1.909  -1.552  -0.010  0.00  0.00     0.004 A 
ATOM      3  C4  UNL d   1       2.789  -2.302  -0.789  0.00  0.00    -0.003 A 
ATOM      4  C5  UNL d   1       3.934  -1.708  -1.308  0.00  0.00     0.000 A 
ATOM      5  C6  UNL d   1       4.208  -0.368  -1.032  0.00  0.00     0.000 A 
ATOM      6  C7  UNL d   1       3.340   0.397  -0.235  0.00  0.00    -0.073 A 
ATOM      7  C8  UNL d   1       3.681   1.839   0.025  0.00  0.00     0.078 C 
ENDROOT
BRANCH   1   8
ATOM      8  C1  UNL d   1       1.156   0.573   1.091  0.00  0.00     0.053 C 
ATOM      9  C   UNL d   1       0.983  -0.008   2.485  0.00  0.00     0.018 C 
ENDBRANCH   1   8
TORSDOF 1
ENDMDL
