MODEL 1
REMARK minimizedAffinity 1.38183749
REMARK minimizedRMSD -1
REMARK  1 active torsions:
REMARK  status: ('A' for Active; 'I' for Inactive)
REMARK    1  A    between atoms: C1_2  and  C2_3 
ROOT
ATOM      1  C2  UNL d   1       2.123  -1.459  -0.320  0.00  0.00    -0.076 A 
ATOM      2  C3  UNL d   1       1.803  -0.256   0.332  0.00  0.00     0.004 A 
ATOM      3  C4  UNL d   1       2.587   0.884   0.161  0.00  0.00    -0.003 A 
ATOM      4  C5  UNL d   1       3.704   0.839  -0.667  0.00  0.00     0.000 A 
ATOM      5  C6  UNL d   1       4.026  -0.342  -1.335  0.00  0.00     0.000 A 
ATOM      6  C7  UNL d   1       3.237  -1.495  -1.186  0.00  0.00    -0.073 A 
ATOM      7  C8  UNL d   1       3.635  -2.743  -1.926  0.00  0.00     0.078 C 
ENDROOT
BRANCH   1   8
ATOM      8  C1  UNL d   1       1.252  -2.670  -0.074  0.00  0.00     0.053 C 
ATOM      9  C   UNL d   1       0.011  -2.683  -0.953  0.00  0.00     0.018 C 
ENDBRANCH   1   8
TORSDOF 1
ENDMDL
