MODEL 1
REMARK minimizedAffinity 7.90109634
REMARK minimizedRMSD -1
REMARK  1 active torsions:
REMARK  status: ('A' for Active; 'I' for Inactive)
REMARK    1  A    between atoms: C1_2  and  C2_3 
ROOT
ATOM      1  C2  UNL d   1       2.885  -0.223   0.039  0.00  0.00    -0.076 A 
ATOM      2  C3  UNL d   1       3.199  -1.045  -1.057  0.00  0.00     0.004 A 
ATOM      3  C4  UNL d   1       2.654  -2.322  -1.175  0.00  0.00    -0.003 A 
ATOM      4  C5  UNL d   1       1.784  -2.798  -0.200  0.00  0.00     0.000 A 
ATOM      5  C6  UNL d   1       1.448  -1.989   0.885  0.00  0.00     0.000 A 
ATOM      6  C7  UNL d   1       1.976  -0.692   1.011  0.00  0.00    -0.073 A 
ATOM      7  C8  UNL d   1       1.583   0.135   2.205  0.00  0.00     0.078 C 
ENDROOT
BRANCH   1   8
ATOM      8  C1  UNL d   1       3.528   1.143   0.128  0.00  0.00     0.053 C 
ATOM      9  C   UNL d   1       4.932   1.165  -0.457  0.00  0.00     0.018 C 
ENDBRANCH   1   8
TORSDOF 1
ENDMDL
