MODEL 1
REMARK minimizedAffinity 0.829948187
REMARK minimizedRMSD -1
REMARK  1 active torsions:
REMARK  status: ('A' for Active; 'I' for Inactive)
REMARK    1  A    between atoms: C1_2  and  C2_3 
ROOT
ATOM      1  C2  UNL d   1       0.921   1.186   1.075  0.00  0.00    -0.076 A 
ATOM      2  C3  UNL d   1       1.441   1.136   2.380  0.00  0.00     0.004 A 
ATOM      3  C4  UNL d   1       0.605   1.253   3.490  0.00  0.00    -0.003 A 
ATOM      4  C5  UNL d   1      -0.763   1.423   3.312  0.00  0.00     0.000 A 
ATOM      5  C6  UNL d   1      -1.298   1.457   2.025  0.00  0.00     0.000 A 
ATOM      6  C7  UNL d   1      -0.472   1.323   0.895  0.00  0.00    -0.073 A 
ATOM      7  C8  UNL d   1      -1.101   1.374  -0.470  0.00  0.00     0.078 C 
ENDROOT
BRANCH   1   8
ATOM      8  C1  UNL d   1       1.879   1.080  -0.090  0.00  0.00     0.053 C 
ATOM      9  C   UNL d   1       3.308   1.430   0.296  0.00  0.00     0.018 C 
ENDBRANCH   1   8
TORSDOF 1
ENDMDL
