MODEL 1
REMARK minimizedAffinity -1.5758245
REMARK minimizedRMSD -1
REMARK  0 active torsions:
REMARK  status: ('A' for Active; 'I' for Inactive)
ROOT
ATOM      1  C2' OXE d   1      -3.260   2.516  -3.097  0.00  0.00     0.078 C 
ATOM      2  C1' OXE d   1      -2.288   0.919  -5.191  0.00  0.00     0.078 C 
ATOM      3  C1  OXE d   1      -2.163   0.388  -3.785  0.00  0.00    -0.078 A 
ATOM      4  C2  OXE d   1      -2.599   1.196  -2.763  0.00  0.00    -0.078 A 
ATOM      5  C3  OXE d   1      -2.557   0.732  -1.451  0.00  0.00     0.003 A 
ATOM      6  C4  OXE d   1      -1.934  -0.485  -1.150  0.00  0.00    -0.002 A 
ATOM      7  C5  OXE d   1      -1.448  -1.306  -2.172  0.00  0.00    -0.002 A 
ATOM      8  C6  OXE d   1      -1.592  -0.904  -3.496  0.00  0.00     0.003 A 
ENDROOT
TORSDOF 0
ENDMDL
