MODEL 1
REMARK minimizedAffinity 2.10043168
REMARK minimizedRMSD -1
REMARK  0 active torsions:
REMARK  status: ('A' for Active; 'I' for Inactive)
ROOT
ATOM      1  C2' OXE d   1      -5.806   0.003  -5.937  0.00  0.00     0.078 C 
ATOM      2  C1' OXE d   1      -3.007   0.210  -5.957  0.00  0.00     0.078 C 
ATOM      3  C1  OXE d   1      -3.807   1.488  -5.949  0.00  0.00    -0.078 A 
ATOM      4  C2  OXE d   1      -5.176   1.378  -5.986  0.00  0.00    -0.078 A 
ATOM      5  C3  OXE d   1      -5.962   2.525  -5.925  0.00  0.00     0.003 A 
ATOM      6  C4  OXE d   1      -5.371   3.793  -5.982  0.00  0.00    -0.002 A 
ATOM      7  C5  OXE d   1      -3.978   3.928  -5.984  0.00  0.00    -0.002 A 
ATOM      8  C6  OXE d   1      -3.183   2.789  -5.925  0.00  0.00     0.003 A 
ENDROOT
TORSDOF 0
ENDMDL
