MODEL 1
REMARK minimizedAffinity 5.93897629
REMARK minimizedRMSD -1
REMARK  0 active torsions:
REMARK  status: ('A' for Active; 'I' for Inactive)
ROOT
ATOM      1  C2' OXE d   1       3.291  -2.012  -0.454  0.00  0.00     0.078 C 
ATOM      2  C1' OXE d   1       1.359  -0.370  -1.658  0.00  0.00     0.078 C 
ATOM      3  C1  OXE d   1       0.985  -1.802  -1.372  0.00  0.00    -0.078 A 
ATOM      4  C2  OXE d   1       1.952  -2.611  -0.826  0.00  0.00    -0.078 A 
ATOM      5  C3  OXE d   1       1.642  -3.927  -0.491  0.00  0.00     0.003 A 
ATOM      6  C4  OXE d   1       0.404  -4.476  -0.847  0.00  0.00    -0.002 A 
ATOM      7  C5  OXE d   1      -0.581  -3.680  -1.441  0.00  0.00    -0.002 A 
ATOM      8  C6  OXE d   1      -0.322  -2.333  -1.670  0.00  0.00     0.003 A 
ENDROOT
TORSDOF 0
ENDMDL
