MODEL 1
REMARK minimizedAffinity 2.0653038
REMARK minimizedRMSD -1
REMARK  0 active torsions:
REMARK  status: ('A' for Active; 'I' for Inactive)
ROOT
ATOM      1  C2' OXE d   1       0.414   1.342  -1.643  0.00  0.00     0.078 C 
ATOM      2  C1' OXE d   1      -0.661   3.908  -1.273  0.00  0.00     0.078 C 
ATOM      3  C1  OXE d   1      -0.179   3.165  -0.053  0.00  0.00    -0.078 A 
ATOM      4  C2  OXE d   1       0.303   1.891  -0.237  0.00  0.00    -0.078 A 
ATOM      5  C3  OXE d   1       0.812   1.183   0.848  0.00  0.00     0.003 A 
ATOM      6  C4  OXE d   1       0.696   1.694   2.146  0.00  0.00    -0.002 A 
ATOM      7  C5  OXE d   1       0.172   2.974   2.360  0.00  0.00    -0.002 A 
ATOM      8  C6  OXE d   1      -0.230   3.737   1.270  0.00  0.00     0.003 A 
ENDROOT
TORSDOF 0
ENDMDL
