MODEL 1
REMARK minimizedAffinity 3.15523386
REMARK minimizedRMSD -1
REMARK  0 active torsions:
REMARK  status: ('A' for Active; 'I' for Inactive)
ROOT
ATOM      1  C2' OXE d   1      -1.300  -4.378  -2.782  0.00  0.00     0.078 C 
ATOM      2  C1' OXE d   1       0.517  -5.751  -1.140  0.00  0.00     0.078 C 
ATOM      3  C1  OXE d   1       0.672  -4.255  -1.264  0.00  0.00    -0.078 A 
ATOM      4  C2  OXE d   1      -0.192  -3.598  -2.106  0.00  0.00    -0.078 A 
ATOM      5  C3  OXE d   1      -0.128  -2.212  -2.215  0.00  0.00     0.003 A 
ATOM      6  C4  OXE d   1       0.906  -1.499  -1.595  0.00  0.00    -0.002 A 
ATOM      7  C5  OXE d   1       1.821  -2.155  -0.765  0.00  0.00    -0.002 A 
ATOM      8  C6  OXE d   1       1.693  -3.524  -0.555  0.00  0.00     0.003 A 
ENDROOT
TORSDOF 0
ENDMDL
