MODEL 1
REMARK minimizedAffinity -3.26545143
REMARK minimizedRMSD -1
REMARK  0 active torsions:
REMARK  status: ('A' for Active; 'I' for Inactive)
ROOT
ATOM      1  C2' OXE d   1      -2.437   0.906  -5.997  0.00  0.00     0.078 C 
ATOM      2  C1' OXE d   1      -4.709  -0.742  -5.997  0.00  0.00     0.078 C 
ATOM      3  C1  OXE d   1      -4.795   0.575  -5.267  0.00  0.00    -0.078 A 
ATOM      4  C2  OXE d   1      -3.664   1.353  -5.232  0.00  0.00    -0.078 A 
ATOM      5  C3  OXE d   1      -3.705   2.602  -4.619  0.00  0.00     0.003 A 
ATOM      6  C4  OXE d   1      -4.841   3.004  -3.905  0.00  0.00    -0.002 A 
ATOM      7  C5  OXE d   1      -5.991   2.208  -3.894  0.00  0.00    -0.002 A 
ATOM      8  C6  OXE d   1      -5.999   1.013  -4.604  0.00  0.00     0.003 A 
ENDROOT
TORSDOF 0
ENDMDL
