MODEL 1
REMARK minimizedAffinity 4.45981836
REMARK minimizedRMSD -1
REMARK  0 active torsions:
REMARK  status: ('A' for Active; 'I' for Inactive)
ROOT
ATOM      1  C2' OXE d   1      -2.969   3.053  -2.495  0.00  0.00     0.078 C 
ATOM      2  C1' OXE d   1      -5.766   3.001  -2.261  0.00  0.00     0.078 C 
ATOM      3  C1  OXE d   1      -5.178   3.394  -3.594  0.00  0.00    -0.078 A 
ATOM      4  C2  OXE d   1      -3.809   3.462  -3.685  0.00  0.00    -0.078 A 
ATOM      5  C3  OXE d   1      -3.214   3.767  -4.907  0.00  0.00     0.003 A 
ATOM      6  C4  OXE d   1      -3.999   4.154  -6.000  0.00  0.00    -0.002 A 
ATOM      7  C5  OXE d   1      -5.395   4.130  -5.916  0.00  0.00    -0.002 A 
ATOM      8  C6  OXE d   1      -5.999   3.712  -4.736  0.00  0.00     0.003 A 
ENDROOT
TORSDOF 0
ENDMDL
