MODEL 1
REMARK minimizedAffinity 0.470375717
REMARK minimizedRMSD -1
REMARK  0 active torsions:
REMARK  status: ('A' for Active; 'I' for Inactive)
ROOT
ATOM      1  C2' OXE d   1      -1.443  -1.863  -1.746  0.00  0.00     0.078 C 
ATOM      2  C1' OXE d   1      -2.965  -0.046  -0.241  0.00  0.00     0.078 C 
ATOM      3  C1  OXE d   1      -1.624   0.416  -0.754  0.00  0.00    -0.078 A 
ATOM      4  C2  OXE d   1      -0.865  -0.495  -1.450  0.00  0.00    -0.078 A 
ATOM      5  C3  OXE d   1       0.355  -0.104  -1.993  0.00  0.00     0.003 A 
ATOM      6  C4  OXE d   1       0.886   1.160  -1.706  0.00  0.00    -0.002 A 
ATOM      7  C5  OXE d   1       0.148   2.089  -0.966  0.00  0.00    -0.002 A 
ATOM      8  C6  OXE d   1      -1.125   1.748  -0.520  0.00  0.00     0.003 A 
ENDROOT
TORSDOF 0
ENDMDL
