MODEL 1
REMARK minimizedAffinity 13.7347908
REMARK minimizedRMSD -1
REMARK  0 active torsions:
REMARK  status: ('A' for Active; 'I' for Inactive)
ROOT
ATOM      1  C2' OXE d   1       1.488   6.000  -2.616  0.00  0.00     0.078 C 
ATOM      2  C1' OXE d   1      -1.265   5.935  -2.076  0.00  0.00     0.078 C 
ATOM      3  C1  OXE d   1      -0.351   5.157  -1.162  0.00  0.00    -0.078 A 
ATOM      4  C2  OXE d   1       0.990   5.157  -1.462  0.00  0.00    -0.078 A 
ATOM      5  C3  OXE d   1       1.885   4.501  -0.620  0.00  0.00     0.003 A 
ATOM      6  C4  OXE d   1       1.415   3.716   0.439  0.00  0.00    -0.002 A 
ATOM      7  C5  OXE d   1       0.049   3.670   0.738  0.00  0.00    -0.002 A 
ATOM      8  C6  OXE d   1      -0.841   4.418  -0.026  0.00  0.00     0.003 A 
ENDROOT
TORSDOF 0
ENDMDL
