MODEL 1
REMARK minimizedAffinity -3.56782246
REMARK minimizedRMSD -1
REMARK  1 active torsions:
REMARK  status: ('A' for Active; 'I' for Inactive)
REMARK    1  A    between atoms: C1_2  and  C2_3 
ROOT
ATOM      1  C2  UNL d   1      -5.091   1.721  -5.851  0.00  0.00    -0.077 A 
ATOM      2  C3  UNL d   1      -3.731   1.962  -5.611  0.00  0.00     0.002 A 
ATOM      3  C4  UNL d   1      -3.250   3.270  -5.523  0.00  0.00     0.002 A 
ATOM      4  C5  UNL d   1      -4.123   4.346  -5.669  0.00  0.00    -0.004 A 
ATOM      5  C6  UNL d   1      -5.477   4.117  -5.910  0.00  0.00     0.002 A 
ATOM      6  C7  UNL d   1      -5.959   2.810  -6.000  0.00  0.00     0.002 A 
ENDROOT
BRANCH   1   7
ATOM      7  C1  UNL d   1      -5.619   0.311  -5.898  0.00  0.00     0.055 C 
ATOM      8  C   UNL d   1      -4.488  -0.701  -5.993  0.00  0.00     0.019 C 
ENDBRANCH   1   7
TORSDOF 1
ENDMDL
