MODEL 1
REMARK minimizedAffinity -3.94839168
REMARK minimizedRMSD -1
REMARK  1 active torsions:
REMARK  status: ('A' for Active; 'I' for Inactive)
REMARK    1  A    between atoms: C1_2  and  C2_3 
ROOT
ATOM      1  C2  UNL d   1      -1.483   0.433   0.962  0.00  0.00    -0.077 A 
ATOM      2  C3  UNL d   1      -2.585  -0.433   0.937  0.00  0.00     0.002 A 
ATOM      3  C4  UNL d   1      -3.875   0.060   1.150  0.00  0.00     0.002 A 
ATOM      4  C5  UNL d   1      -4.074   1.418   1.384  0.00  0.00    -0.004 A 
ATOM      5  C6  UNL d   1      -2.983   2.287   1.413  0.00  0.00     0.002 A 
ATOM      6  C7  UNL d   1      -1.694   1.797   1.202  0.00  0.00     0.002 A 
ENDROOT
BRANCH   1   7
ATOM      7  C1  UNL d   1      -0.097  -0.088   0.684  0.00  0.00     0.055 C 
ATOM      8  C   UNL d   1       0.634   0.792  -0.320  0.00  0.00     0.019 C 
ENDBRANCH   1   7
TORSDOF 1
ENDMDL
