MODEL 1
REMARK minimizedAffinity -4.99501085
REMARK minimizedRMSD -1
REMARK  1 active torsions:
REMARK  status: ('A' for Active; 'I' for Inactive)
REMARK    1  A    between atoms: C1_2  and  C2_3 
ROOT
ATOM      1  C2  UNL d   1       0.287   0.187  -0.086  0.00  0.00    -0.077 A 
ATOM      2  C3  UNL d   1      -0.125  -0.771  -1.023  0.00  0.00     0.002 A 
ATOM      3  C4  UNL d   1       0.539  -0.896  -2.245  0.00  0.00     0.002 A 
ATOM      4  C5  UNL d   1       1.622  -0.070  -2.538  0.00  0.00    -0.004 A 
ATOM      5  C6  UNL d   1       2.039   0.887  -1.614  0.00  0.00     0.002 A 
ATOM      6  C7  UNL d   1       1.375   1.014  -0.393  0.00  0.00     0.002 A 
ENDROOT
BRANCH   1   7
ATOM      7  C1  UNL d   1      -0.397   0.290   1.252  0.00  0.00     0.055 C 
ATOM      8  C   UNL d   1      -1.873   0.622   1.094  0.00  0.00     0.019 C 
ENDBRANCH   1   7
TORSDOF 1
ENDMDL
