MODEL 1
REMARK minimizedAffinity 0.552520216
REMARK minimizedRMSD -1
REMARK  1 active torsions:
REMARK  status: ('A' for Active; 'I' for Inactive)
REMARK    1  A    between atoms: C1_2  and  C2_3 
ROOT
ATOM      1  C2  UNL d   1      -0.044  -0.386   0.626  0.00  0.00    -0.077 A 
ATOM      2  C3  UNL d   1       0.314   0.255  -0.568  0.00  0.00     0.002 A 
ATOM      3  C4  UNL d   1       0.656  -0.492  -1.697  0.00  0.00     0.002 A 
ATOM      4  C5  UNL d   1       0.638  -1.885  -1.643  0.00  0.00    -0.004 A 
ATOM      5  C6  UNL d   1       0.285  -2.532  -0.460  0.00  0.00     0.002 A 
ATOM      6  C7  UNL d   1      -0.055  -1.786   0.669  0.00  0.00     0.002 A 
ENDROOT
BRANCH   1   7
ATOM      7  C1  UNL d   1      -0.460   0.419   1.829  0.00  0.00     0.055 C 
ATOM      8  C   UNL d   1      -1.974   0.559   1.905  0.00  0.00     0.019 C 
ENDBRANCH   1   7
TORSDOF 1
ENDMDL
