MODEL 1
REMARK minimizedAffinity -3.43946195
REMARK minimizedRMSD -1
REMARK  1 active torsions:
REMARK  status: ('A' for Active; 'I' for Inactive)
REMARK    1  A    between atoms: C1_2  and  C2_3 
ROOT
ATOM      1  C2  UNL d   1       0.629   0.166   0.259  0.00  0.00    -0.077 A 
ATOM      2  C3  UNL d   1       0.200  -0.618  -0.821  0.00  0.00     0.002 A 
ATOM      3  C4  UNL d   1       0.866  -0.557  -2.047  0.00  0.00     0.002 A 
ATOM      4  C5  UNL d   1       1.967   0.282  -2.202  0.00  0.00    -0.004 A 
ATOM      5  C6  UNL d   1       2.401   1.067  -1.134  0.00  0.00     0.002 A 
ATOM      6  C7  UNL d   1       1.735   1.008   0.091  0.00  0.00     0.002 A 
ENDROOT
BRANCH   1   7
ATOM      7  C1  UNL d   1      -0.058   0.065   1.596  0.00  0.00     0.055 C 
ATOM      8  C   UNL d   1      -1.571   0.108   1.446  0.00  0.00     0.019 C 
ENDBRANCH   1   7
TORSDOF 1
ENDMDL
