MODEL 1
REMARK minimizedAffinity -1.82419574
REMARK minimizedRMSD -1
REMARK  1 active torsions:
REMARK  status: ('A' for Active; 'I' for Inactive)
REMARK    1  A    between atoms: C1_2  and  C2_3 
ROOT
ATOM      1  C2  UNL d   1       0.011  -0.986  -0.816  0.00  0.00    -0.077 A 
ATOM      2  C3  UNL d   1       0.778  -0.044  -1.516  0.00  0.00     0.002 A 
ATOM      3  C4  UNL d   1       1.312   1.064  -0.855  0.00  0.00     0.002 A 
ATOM      4  C5  UNL d   1       1.088   1.238   0.509  0.00  0.00    -0.004 A 
ATOM      5  C6  UNL d   1       0.325   0.308   1.213  0.00  0.00     0.002 A 
ATOM      6  C7  UNL d   1      -0.211  -0.799   0.554  0.00  0.00     0.002 A 
ENDROOT
BRANCH   1   7
ATOM      7  C1  UNL d   1      -0.524  -2.207  -1.517  0.00  0.00     0.055 C 
ATOM      8  C   UNL d   1       0.047  -3.484  -0.918  0.00  0.00     0.019 C 
ENDBRANCH   1   7
TORSDOF 1
ENDMDL
