MODEL 1
REMARK minimizedAffinity -4.0887599
REMARK minimizedRMSD -1
REMARK  1 active torsions:
REMARK  status: ('A' for Active; 'I' for Inactive)
REMARK    1  A    between atoms: C1_2  and  C2_3 
ROOT
ATOM      1  C2  UNL d   1       0.387   0.531  -0.107  0.00  0.00    -0.077 A 
ATOM      2  C3  UNL d   1       0.251  -0.612  -0.908  0.00  0.00     0.002 A 
ATOM      3  C4  UNL d   1       1.106  -0.821  -1.991  0.00  0.00     0.002 A 
ATOM      4  C5  UNL d   1       2.106   0.105  -2.280  0.00  0.00    -0.004 A 
ATOM      5  C6  UNL d   1       2.249   1.246  -1.491  0.00  0.00     0.002 A 
ATOM      6  C7  UNL d   1       1.393   1.457  -0.409  0.00  0.00     0.002 A 
ENDROOT
BRANCH   1   7
ATOM      7  C1  UNL d   1      -0.504   0.734   1.091  0.00  0.00     0.055 C 
ATOM      8  C   UNL d   1      -1.846   0.042   0.907  0.00  0.00     0.019 C 
ENDBRANCH   1   7
TORSDOF 1
ENDMDL
