MODEL 1
REMARK minimizedAffinity -4.96177101
REMARK minimizedRMSD -1
REMARK  1 active torsions:
REMARK  status: ('A' for Active; 'I' for Inactive)
REMARK    1  A    between atoms: C1_2  and  C2_3 
ROOT
ATOM      1  C2  UNL d   1       0.440  -0.313  -1.178  0.00  0.00    -0.077 A 
ATOM      2  C3  UNL d   1      -0.008   0.780  -0.424  0.00  0.00     0.002 A 
ATOM      3  C4  UNL d   1      -0.605   0.581   0.823  0.00  0.00     0.002 A 
ATOM      4  C5  UNL d   1      -0.756  -0.709   1.326  0.00  0.00    -0.004 A 
ATOM      5  C6  UNL d   1      -0.315  -1.803   0.582  0.00  0.00     0.002 A 
ATOM      6  C7  UNL d   1       0.281  -1.606  -0.664  0.00  0.00     0.002 A 
ENDROOT
BRANCH   1   7
ATOM      7  C1  UNL d   1       1.129  -0.097  -2.501  0.00  0.00     0.055 C 
ATOM      8  C   UNL d   1       2.567   0.361  -2.307  0.00  0.00     0.019 C 
ENDBRANCH   1   7
TORSDOF 1
ENDMDL
