MODEL 1
REMARK minimizedAffinity -4.83874702
REMARK minimizedRMSD -1
REMARK  1 active torsions:
REMARK  status: ('A' for Active; 'I' for Inactive)
REMARK    1  A    between atoms: C1_2  and  C2_3 
ROOT
ATOM      1  C2  UNL d   1       0.140   0.102  -0.119  0.00  0.00    -0.077 A 
ATOM      2  C3  UNL d   1       0.484  -1.100  -0.751  0.00  0.00     0.002 A 
ATOM      3  C4  UNL d   1       1.260  -1.091  -1.912  0.00  0.00     0.002 A 
ATOM      4  C5  UNL d   1       1.701   0.118  -2.447  0.00  0.00    -0.004 A 
ATOM      5  C6  UNL d   1       1.362   1.319  -1.827  0.00  0.00     0.002 A 
ATOM      6  C7  UNL d   1       0.585   1.312  -0.667  0.00  0.00     0.002 A 
ENDROOT
BRANCH   1   7
ATOM      7  C1  UNL d   1      -0.656   0.092   1.161  0.00  0.00     0.055 C 
ATOM      8  C   UNL d   1      -2.151   0.040   0.883  0.00  0.00     0.019 C 
ENDBRANCH   1   7
TORSDOF 1
ENDMDL
