MODEL 1
REMARK minimizedAffinity -4.23735428
REMARK minimizedRMSD -1
REMARK  1 active torsions:
REMARK  status: ('A' for Active; 'I' for Inactive)
REMARK    1  A    between atoms: C1_2  and  C2_3 
ROOT
ATOM      1  C2  UNL d   1       0.455   0.260  -0.526  0.00  0.00    -0.077 A 
ATOM      2  C3  UNL d   1       0.262  -0.720  -1.509  0.00  0.00     0.002 A 
ATOM      3  C4  UNL d   1       0.960  -0.656  -2.717  0.00  0.00     0.002 A 
ATOM      4  C5  UNL d   1       1.858   0.383  -2.950  0.00  0.00    -0.004 A 
ATOM      5  C6  UNL d   1       2.056   1.364  -1.979  0.00  0.00     0.002 A 
ATOM      6  C7  UNL d   1       1.358   1.302  -0.772  0.00  0.00     0.002 A 
ENDROOT
BRANCH   1   7
ATOM      7  C1  UNL d   1      -0.259   0.166   0.797  0.00  0.00     0.055 C 
ATOM      8  C   UNL d   1      -0.572  -1.280   1.155  0.00  0.00     0.019 C 
ENDBRANCH   1   7
TORSDOF 1
ENDMDL
