MODEL 1
REMARK minimizedAffinity 14.9469395
REMARK minimizedRMSD -1
REMARK  0 active torsions:
REMARK  status: ('A' for Active; 'I' for Inactive)
ROOT
ATOM      1  C4' PXY d   1       0.536  -0.729   2.948  0.00  0.00     0.077 C 
ATOM      2  C1' PXY d   1       1.474   4.937   2.286  0.00  0.00     0.077 C 
ATOM      3  C1  PXY d   1       1.216   3.452   2.455  0.00  0.00    -0.082 A 
ATOM      4  C2  PXY d   1       1.911   2.765   3.347  0.00  0.00     0.003 A 
ATOM      5  C3  PXY d   1       1.713   1.416   3.491  0.00  0.00     0.003 A 
ATOM      6  C4  PXY d   1       0.757   0.774   2.750  0.00  0.00    -0.082 A 
ATOM      7  C5  PXY d   1       0.037   1.470   1.845  0.00  0.00     0.003 A 
ATOM      8  C6  PXY d   1       0.282   2.831   1.686  0.00  0.00     0.003 A 
ENDROOT
TORSDOF 0
ENDMDL
