MODEL 1
REMARK minimizedAffinity 11.0564165
REMARK minimizedRMSD -1
REMARK  0 active torsions:
REMARK  status: ('A' for Active; 'I' for Inactive)
ROOT
ATOM      1  C4' PXY d   1       0.229   4.845  -0.283  0.00  0.00     0.077 C 
ATOM      2  C1' PXY d   1       2.956   3.272   4.566  0.00  0.00     0.077 C 
ATOM      3  C1  PXY d   1       2.239   3.672   3.291  0.00  0.00    -0.082 A 
ATOM      4  C2  PXY d   1       2.486   4.851   2.744  0.00  0.00     0.003 A 
ATOM      5  C3  PXY d   1       1.823   5.242   1.609  0.00  0.00     0.003 A 
ATOM      6  C4  PXY d   1       0.937   4.395   0.999  0.00  0.00    -0.082 A 
ATOM      7  C5  PXY d   1       0.687   3.186   1.545  0.00  0.00     0.003 A 
ATOM      8  C6  PXY d   1       1.340   2.825   2.720  0.00  0.00     0.003 A 
ENDROOT
TORSDOF 0
ENDMDL
