MODEL 1
REMARK minimizedAffinity 17.0762062
REMARK minimizedRMSD -1
REMARK  0 active torsions:
REMARK  status: ('A' for Active; 'I' for Inactive)
ROOT
ATOM      1  C4' PXY d   1      -4.550   1.728  -1.098  0.00  0.00     0.077 C 
ATOM      2  C1' PXY d   1      -5.986   5.514  -5.223  0.00  0.00     0.077 C 
ATOM      3  C1  PXY d   1      -5.601   4.529  -4.137  0.00  0.00    -0.082 A 
ATOM      4  C2  PXY d   1      -5.823   3.237  -4.315  0.00  0.00     0.003 A 
ATOM      5  C3  PXY d   1      -5.510   2.337  -3.330  0.00  0.00     0.003 A 
ATOM      6  C4  PXY d   1      -4.914   2.757  -2.172  0.00  0.00    -0.082 A 
ATOM      7  C5  PXY d   1      -4.674   4.072  -1.986  0.00  0.00     0.003 A 
ATOM      8  C6  PXY d   1      -5.037   4.975  -2.981  0.00  0.00     0.003 A 
ENDROOT
TORSDOF 0
ENDMDL
