MODEL 1
REMARK minimizedAffinity 11.7102709
REMARK minimizedRMSD -1
REMARK  0 active torsions:
REMARK  status: ('A' for Active; 'I' for Inactive)
ROOT
ATOM      1  C4' PXY d   1       0.068   4.609  -0.462  0.00  0.00     0.077 C 
ATOM      2  C1' PXY d   1       2.719   3.076   4.441  0.00  0.00     0.077 C 
ATOM      3  C1  PXY d   1       2.022   3.466   3.152  0.00  0.00    -0.082 A 
ATOM      4  C2  PXY d   1       2.252   4.654   2.617  0.00  0.00     0.003 A 
ATOM      5  C3  PXY d   1       1.606   5.035   1.469  0.00  0.00     0.003 A 
ATOM      6  C4  PXY d   1       0.757   4.170   0.833  0.00  0.00    -0.082 A 
ATOM      7  C5  PXY d   1       0.526   2.952   1.366  0.00  0.00     0.003 A 
ATOM      8  C6  PXY d   1       1.160   2.600   2.554  0.00  0.00     0.003 A 
ENDROOT
TORSDOF 0
ENDMDL
