MODEL 1
REMARK minimizedAffinity 9.76682758
REMARK minimizedRMSD -1
REMARK  0 active torsions:
REMARK  status: ('A' for Active; 'I' for Inactive)
ROOT
ATOM      1  C4' PXY d   1       0.501   5.729   0.859  0.00  0.00     0.077 C 
ATOM      2  C1' PXY d   1       2.224   1.225   4.047  0.00  0.00     0.077 C 
ATOM      3  C1  PXY d   1       1.779   2.415   3.219  0.00  0.00    -0.082 A 
ATOM      4  C2  PXY d   1       0.683   2.325   2.483  0.00  0.00     0.003 A 
ATOM      5  C3  PXY d   1       0.283   3.380   1.703  0.00  0.00     0.003 A 
ATOM      6  C4  PXY d   1       0.983   4.557   1.718  0.00  0.00    -0.082 A 
ATOM      7  C5  PXY d   1       2.096   4.659   2.474  0.00  0.00     0.003 A 
ATOM      8  C6  PXY d   1       2.508   3.563   3.227  0.00  0.00     0.003 A 
ENDROOT
TORSDOF 0
ENDMDL
