MODEL 1
REMARK minimizedAffinity -6.19861603
REMARK minimizedRMSD -1
REMARK  0 active torsions:
REMARK  status: ('A' for Active; 'I' for Inactive)
ROOT
ATOM      1  C4' PXY d   1      -1.342  -1.042  -1.926  0.00  0.00     0.077 C 
ATOM      2  C1' PXY d   1      -1.696   4.069   0.751  0.00  0.00     0.077 C 
ATOM      3  C1  PXY d   1      -1.603   2.735   0.037  0.00  0.00    -0.082 A 
ATOM      4  C2  PXY d   1      -2.051   1.642   0.633  0.00  0.00     0.003 A 
ATOM      5  C3  PXY d   1      -1.946   0.422   0.015  0.00  0.00     0.003 A 
ATOM      6  C4  PXY d   1      -1.424   0.328  -1.247  0.00  0.00    -0.082 A 
ATOM      7  C5  PXY d   1      -0.974   1.440  -1.866  0.00  0.00     0.003 A 
ATOM      8  C6  PXY d   1      -1.052   2.662  -1.205  0.00  0.00     0.003 A 
ENDROOT
TORSDOF 0
ENDMDL
