MODEL 1
REMARK minimizedAffinity -1.86173725
REMARK minimizedRMSD -1
REMARK  0 active torsions:
REMARK  status: ('A' for Active; 'I' for Inactive)
ROOT
ATOM      1  C4' PXY d   1      -1.767   3.775   0.690  0.00  0.00     0.077 C 
ATOM      2  C1' PXY d   1       0.078  -0.635  -2.561  0.00  0.00     0.077 C 
ATOM      3  C1  PXY d   1      -0.399   0.530  -1.716  0.00  0.00    -0.082 A 
ATOM      4  C2  PXY d   1      -0.829   0.311  -0.484  0.00  0.00     0.003 A 
ATOM      5  C3  PXY d   1      -1.293   1.348   0.283  0.00  0.00     0.003 A 
ATOM      6  C4  PXY d   1      -1.268   2.630  -0.197  0.00  0.00    -0.082 A 
ATOM      7  C5  PXY d   1      -0.820   2.863  -1.449  0.00  0.00     0.003 A 
ATOM      8  C6  PXY d   1      -0.392   1.791  -2.226  0.00  0.00     0.003 A 
ENDROOT
TORSDOF 0
ENDMDL
