MODEL 1
REMARK minimizedAffinity -2.4272666
REMARK minimizedRMSD -1
REMARK  0 active torsions:
REMARK  status: ('A' for Active; 'I' for Inactive)
ROOT
ATOM      1  C4' PXY d   1       0.405  -1.596  -0.357  0.00  0.00     0.077 C 
ATOM      2  C1' PXY d   1      -1.210   3.732   1.199  0.00  0.00     0.077 C 
ATOM      3  C1  PXY d   1      -0.774   2.338   0.794  0.00  0.00    -0.082 A 
ATOM      4  C2  PXY d   1      -1.516   1.640  -0.051  0.00  0.00     0.003 A 
ATOM      5  C3  PXY d   1      -1.153   0.366  -0.404  0.00  0.00     0.003 A 
ATOM      6  C4  PXY d   1       0.009  -0.181   0.073  0.00  0.00    -0.082 A 
ATOM      7  C5  PXY d   1       0.776   0.529   0.927  0.00  0.00     0.003 A 
ATOM      8  C6  PXY d   1       0.369   1.805   1.305  0.00  0.00     0.003 A 
ENDROOT
TORSDOF 0
ENDMDL
