MODEL 1
REMARK minimizedAffinity -2.13932657
REMARK minimizedRMSD -1
REMARK  0 active torsions:
REMARK  status: ('A' for Active; 'I' for Inactive)
ROOT
ATOM      1  C4' PXY d   1      -1.085   2.920  -1.422  0.00  0.00     0.077 C 
ATOM      2  C1' PXY d   1       1.818   3.825   3.494  0.00  0.00     0.077 C 
ATOM      3  C1  PXY d   1       1.050   3.579   2.210  0.00  0.00    -0.082 A 
ATOM      4  C2  PXY d   1       1.622   3.835   1.045  0.00  0.00     0.003 A 
ATOM      5  C3  PXY d   1       0.930   3.648  -0.123  0.00  0.00     0.003 A 
ATOM      6  C4  PXY d   1      -0.343   3.145  -0.102  0.00  0.00    -0.082 A 
ATOM      7  C5  PXY d   1      -0.930   2.871   1.082  0.00  0.00     0.003 A 
ATOM      8  C6  PXY d   1      -0.225   3.107   2.259  0.00  0.00     0.003 A 
ENDROOT
TORSDOF 0
ENDMDL
