MODEL 1
REMARK minimizedAffinity -4.40313673
REMARK minimizedRMSD -1
REMARK  0 active torsions:
REMARK  status: ('A' for Active; 'I' for Inactive)
ROOT
ATOM      1  C4' PXY d   1       1.025  -0.910   0.071  0.00  0.00     0.077 C 
ATOM      2  C1' PXY d   1      -1.840   3.965   1.271  0.00  0.00     0.077 C 
ATOM      3  C1  PXY d   1      -1.077   2.692   0.961  0.00  0.00    -0.082 A 
ATOM      4  C2  PXY d   1      -1.523   1.876   0.020  0.00  0.00     0.003 A 
ATOM      5  C3  PXY d   1      -0.863   0.704  -0.251  0.00  0.00     0.003 A 
ATOM      6  C4  PXY d   1       0.293   0.391   0.411  0.00  0.00    -0.082 A 
ATOM      7  C5  PXY d   1       0.760   1.224   1.365  0.00  0.00     0.003 A 
ATOM      8  C6  PXY d   1       0.054   2.388   1.654  0.00  0.00     0.003 A 
ENDROOT
TORSDOF 0
ENDMDL
