MODEL 1
REMARK minimizedAffinity -2.66529369
REMARK minimizedRMSD -1
REMARK  0 active torsions:
REMARK  status: ('A' for Active; 'I' for Inactive)
ROOT
ATOM      1  C4' PXY d   1      -1.033   2.740   1.560  0.00  0.00     0.077 C 
ATOM      2  C1' PXY d   1       0.619  -1.902  -1.463  0.00  0.00     0.077 C 
ATOM      3  C1  PXY d   1       0.187  -0.692  -0.659  0.00  0.00    -0.082 A 
ATOM      4  C2  PXY d   1      -0.536   0.254  -1.237  0.00  0.00     0.003 A 
ATOM      5  C3  PXY d   1      -0.908   1.370  -0.534  0.00  0.00     0.003 A 
ATOM      6  C4  PXY d   1      -0.582   1.495   0.790  0.00  0.00    -0.082 A 
ATOM      7  C5  PXY d   1       0.145   0.530   1.390  0.00  0.00     0.003 A 
ATOM      8  C6  PXY d   1       0.548  -0.576   0.648  0.00  0.00     0.003 A 
ENDROOT
TORSDOF 0
ENDMDL
