MODEL 1
REMARK minimizedAffinity -2.10551262
REMARK minimizedRMSD -1
REMARK  0 active torsions:
REMARK  status: ('A' for Active; 'I' for Inactive)
ROOT
ATOM      1  C4' PXY d   1       0.249   0.279  -1.847  0.00  0.00     0.077 C 
ATOM      2  C1' PXY d   1       1.681   2.082   3.456  0.00  0.00     0.077 C 
ATOM      3  C1  PXY d   1       1.315   1.599   2.066  0.00  0.00    -0.082 A 
ATOM      4  C2  PXY d   1       0.734   2.431   1.217  0.00  0.00     0.003 A 
ATOM      5  C3  PXY d   1       0.366   2.003  -0.033  0.00  0.00     0.003 A 
ATOM      6  C4  PXY d   1       0.645   0.725  -0.436  0.00  0.00    -0.082 A 
ATOM      7  C5  PXY d   1       1.248  -0.127   0.420  0.00  0.00     0.003 A 
ATOM      8  C6  PXY d   1       1.575   0.315   1.698  0.00  0.00     0.003 A 
ENDROOT
TORSDOF 0
ENDMDL
