MODEL 1
REMARK minimizedAffinity -2.03255987
REMARK minimizedRMSD -1
REMARK  0 active torsions:
REMARK  status: ('A' for Active; 'I' for Inactive)
ROOT
ATOM      1  C4' PXY d   1      -0.248   1.185  -0.628  0.00  0.00     0.077 C 
ATOM      2  C1' PXY d   1       2.059  -1.285   4.061  0.00  0.00     0.077 C 
ATOM      3  C1  PXY d   1       1.448  -0.629   2.839  0.00  0.00    -0.082 A 
ATOM      4  C2  PXY d   1       1.306  -1.327   1.724  0.00  0.00     0.003 A 
ATOM      5  C3  PXY d   1       0.785  -0.740   0.600  0.00  0.00     0.003 A 
ATOM      6  C4  PXY d   1       0.356   0.560   0.633  0.00  0.00    -0.082 A 
ATOM      7  C5  PXY d   1       0.487   1.276   1.770  0.00  0.00     0.003 A 
ATOM      8  C6  PXY d   1       1.057   0.673   2.888  0.00  0.00     0.003 A 
ENDROOT
TORSDOF 0
ENDMDL
