MODEL 1
REMARK minimizedAffinity -0.098468788
REMARK minimizedRMSD -1
REMARK  0 active torsions:
REMARK  status: ('A' for Active; 'I' for Inactive)
ROOT
ATOM      1  C4' PXY d   1       0.383   0.348   0.786  0.00  0.00     0.077 C 
ATOM      2  C1' PXY d   1       0.807   5.999  -0.352  0.00  0.00     0.077 C 
ATOM      3  C1  PXY d   1       0.703   4.519  -0.043  0.00  0.00    -0.082 A 
ATOM      4  C2  PXY d   1       0.451   3.663  -1.020  0.00  0.00     0.003 A 
ATOM      5  C3  PXY d   1       0.321   2.324  -0.752  0.00  0.00     0.003 A 
ATOM      6  C4  PXY d   1       0.506   1.850   0.519  0.00  0.00    -0.082 A 
ATOM      7  C5  PXY d   1       0.775   2.716   1.519  0.00  0.00     0.003 A 
ATOM      8  C6  PXY d   1       0.861   4.076   1.234  0.00  0.00     0.003 A 
ENDROOT
TORSDOF 0
ENDMDL
