MODEL 1
REMARK minimizedAffinity 3.55879068
REMARK minimizedRMSD -1
REMARK  0 active torsions:
REMARK  status: ('A' for Active; 'I' for Inactive)
ROOT
ATOM      1  C4' PXY d   1      -2.654   1.125  -1.140  0.00  0.00     0.077 C 
ATOM      2  C1' PXY d   1       2.469  -1.211   0.171  0.00  0.00     0.077 C 
ATOM      3  C1  PXY d   1       1.131  -0.590  -0.180  0.00  0.00    -0.082 A 
ATOM      4  C2  PXY d   1       0.111  -0.719   0.652  0.00  0.00     0.003 A 
ATOM      5  C3  PXY d   1      -1.114  -0.191   0.335  0.00  0.00     0.003 A 
ATOM      6  C4  PXY d   1      -1.283   0.522  -0.821  0.00  0.00    -0.082 A 
ATOM      7  C5  PXY d   1      -0.244   0.668  -1.671  0.00  0.00     0.003 A 
ATOM      8  C6  PXY d   1       0.981   0.089  -1.350  0.00  0.00     0.003 A 
ENDROOT
TORSDOF 0
ENDMDL
