MODEL 1
REMARK minimizedAffinity -6.10137844
REMARK minimizedRMSD -1
REMARK  2 active torsions:
REMARK  status: ('A' for Active; 'I' for Inactive)
REMARK    1  A    between atoms: C2'_3  and  C1'_4 
REMARK    2  A    between atoms: C1'_4  and  C1_5 
ROOT
ATOM      1  C1  I4B d   1       0.151  -0.258  -0.549  0.00  0.00    -0.075 A 
ATOM      2  C2  I4B d   1      -0.506   0.910  -0.844  0.00  0.00     0.003 A 
ATOM      3  C3  I4B d   1      -0.771   1.856   0.176  0.00  0.00     0.002 A 
ATOM      4  C4  I4B d   1      -0.409   1.572   1.477  0.00  0.00    -0.004 A 
ATOM      5  C5  I4B d   1       0.278   0.398   1.771  0.00  0.00     0.002 A 
ATOM      6  C6  I4B d   1       0.571  -0.518   0.750  0.00  0.00     0.003 A 
ENDROOT
BRANCH   1   7
ATOM      7  C1' I4B d   1       0.386  -1.249  -1.644  0.00  0.00     0.060 C 
BRANCH   7   8
ATOM      8  C2' I4B d   1      -0.129  -2.595  -1.174  0.00  0.00    -0.013 C 
ATOM      9  C4' I4B d   1      -1.444  -2.933  -1.824  0.00  0.00     0.013 C 
ATOM     10  C3' I4B d   1       0.913  -3.626  -1.492  0.00  0.00     0.013 C 
ENDBRANCH   7   8
ENDBRANCH   1   7
TORSDOF 2
ENDMDL
