MODEL 1
REMARK minimizedAffinity -1.73238921
REMARK minimizedRMSD -1
REMARK  2 active torsions:
REMARK  status: ('A' for Active; 'I' for Inactive)
REMARK    1  A    between atoms: C2'_3  and  C1'_4 
REMARK    2  A    between atoms: C1'_4  and  C1_5 
ROOT
ATOM      1  C1  I4B d   1       0.193  -0.559  -0.296  0.00  0.00    -0.075 A 
ATOM      2  C2  I4B d   1      -0.327   0.609  -0.795  0.00  0.00     0.003 A 
ATOM      3  C3  I4B d   1      -0.626   1.686   0.075  0.00  0.00     0.002 A 
ATOM      4  C4  I4B d   1      -0.439   1.533   1.434  0.00  0.00    -0.004 A 
ATOM      5  C5  I4B d   1       0.109   0.357   1.936  0.00  0.00     0.002 A 
ATOM      6  C6  I4B d   1       0.438  -0.692   1.065  0.00  0.00     0.003 A 
ENDROOT
BRANCH   1   7
ATOM      7  C1' I4B d   1       0.467  -1.687  -1.239  0.00  0.00     0.060 C 
BRANCH   7   8
ATOM      8  C2' I4B d   1      -0.497  -2.811  -0.915  0.00  0.00    -0.013 C 
ATOM      9  C4' I4B d   1      -1.676  -2.806  -1.852  0.00  0.00     0.013 C 
ATOM     10  C3' I4B d   1       0.256  -4.105  -0.999  0.00  0.00     0.013 C 
ENDBRANCH   7   8
ENDBRANCH   1   7
TORSDOF 2
ENDMDL
