MODEL 1
REMARK minimizedAffinity -2.24841166
REMARK minimizedRMSD -1
REMARK  2 active torsions:
REMARK  status: ('A' for Active; 'I' for Inactive)
REMARK    1  A    between atoms: C2'_3  and  C1'_4 
REMARK    2  A    between atoms: C1'_4  and  C1_5 
ROOT
ATOM      1  C1  I4B d   1       0.419  -1.450  -0.331  0.00  0.00    -0.075 A 
ATOM      2  C2  I4B d   1      -0.115  -0.323  -0.905  0.00  0.00     0.003 A 
ATOM      3  C3  I4B d   1      -0.246   0.868  -0.151  0.00  0.00     0.002 A 
ATOM      4  C4  I4B d   1       0.120   0.874   1.180  0.00  0.00    -0.004 A 
ATOM      5  C5  I4B d   1       0.682  -0.263   1.754  0.00  0.00     0.002 A 
ATOM      6  C6  I4B d   1       0.844  -1.428   0.991  0.00  0.00     0.003 A 
ENDROOT
BRANCH   1   7
ATOM      7  C1' I4B d   1       0.512  -2.700  -1.147  0.00  0.00     0.060 C 
BRANCH   7   8
ATOM      8  C2' I4B d   1      -0.844  -3.376  -1.122  0.00  0.00    -0.013 C 
ATOM      9  C4' I4B d   1      -1.443  -3.446  -2.502  0.00  0.00     0.013 C 
ATOM     10  C3' I4B d   1      -0.668  -4.745  -0.537  0.00  0.00     0.013 C 
ENDBRANCH   7   8
ENDBRANCH   1   7
TORSDOF 2
ENDMDL
