MODEL 1
REMARK minimizedAffinity -2.05885315
REMARK minimizedRMSD -1
REMARK  2 active torsions:
REMARK  status: ('A' for Active; 'I' for Inactive)
REMARK    1  A    between atoms: C2'_3  and  C1'_4 
REMARK    2  A    between atoms: C1'_4  and  C1_5 
ROOT
ATOM      1  C1  I4B d   1       0.632  -0.700  -0.770  0.00  0.00    -0.075 A 
ATOM      2  C2  I4B d   1       0.786   0.106  -1.871  0.00  0.00     0.003 A 
ATOM      3  C3  I4B d   1       0.214   1.401  -1.891  0.00  0.00     0.002 A 
ATOM      4  C4  I4B d   1      -0.542   1.828  -0.818  0.00  0.00    -0.004 A 
ATOM      5  C5  I4B d   1      -0.678   1.018   0.306  0.00  0.00     0.002 A 
ATOM      6  C6  I4B d   1      -0.077  -0.249   0.335  0.00  0.00     0.003 A 
ENDROOT
BRANCH   1   7
ATOM      7  C1' I4B d   1       1.221  -2.074  -0.796  0.00  0.00     0.060 C 
BRANCH   7   8
ATOM      8  C2' I4B d   1       0.107  -3.065  -0.529  0.00  0.00    -0.013 C 
ATOM      9  C4' I4B d   1      -0.692  -3.336  -1.776  0.00  0.00     0.013 C 
ATOM     10  C3' I4B d   1       0.724  -4.324   0.003  0.00  0.00     0.013 C 
ENDBRANCH   7   8
ENDBRANCH   1   7
TORSDOF 2
ENDMDL
