MODEL 1
REMARK minimizedAffinity 1.87186694
REMARK minimizedRMSD -1
REMARK  2 active torsions:
REMARK  status: ('A' for Active; 'I' for Inactive)
REMARK    1  A    between atoms: C2'_3  and  C1'_4 
REMARK    2  A    between atoms: C1'_4  and  C1_5 
ROOT
ATOM      1  C1  I4B d   1      -1.083  -0.805   0.372  0.00  0.00    -0.075 A 
ATOM      2  C2  I4B d   1      -1.504  -0.588   1.660  0.00  0.00     0.003 A 
ATOM      3  C3  I4B d   1      -0.955   0.474   2.420  0.00  0.00     0.002 A 
ATOM      4  C4  I4B d   1       0.041   1.257   1.873  0.00  0.00    -0.004 A 
ATOM      5  C5  I4B d   1       0.451   1.049   0.559  0.00  0.00     0.002 A 
ATOM      6  C6  I4B d   1      -0.124   0.020  -0.201  0.00  0.00     0.003 A 
ENDROOT
BRANCH   1   7
ATOM      7  C1' I4B d   1      -1.660  -1.956  -0.390  0.00  0.00     0.060 C 
BRANCH   7   8
ATOM      8  C2' I4B d   1      -0.543  -2.590  -1.194  0.00  0.00    -0.013 C 
ATOM      9  C4' I4B d   1       0.073  -3.746  -0.451  0.00  0.00     0.013 C 
ATOM     10  C3' I4B d   1      -1.113  -3.033  -2.508  0.00  0.00     0.013 C 
ENDBRANCH   7   8
ENDBRANCH   1   7
TORSDOF 2
ENDMDL
