MODEL 1
REMARK minimizedAffinity -5.34769011
REMARK minimizedRMSD -1
REMARK  1 active torsions:
REMARK  status: ('A' for Active; 'I' for Inactive)
REMARK    1  A    between atoms: C3_4  and  O_7 
ROOT
ATOM      1  C   UNL d   1      -1.635   4.028   0.893  0.00  0.00    -0.033 A 
ATOM      2  C1  UNL d   1      -1.616   3.619   2.228  0.00  0.00     0.039 A 
ATOM      3  C2  UNL d   1      -0.968   2.435   2.587  0.00  0.00    -0.080 A 
ATOM      4  C3  UNL d   1      -0.343   1.673   1.605  0.00  0.00     0.150 A 
ATOM      5  C4  UNL d   1      -0.355   2.077   0.274  0.00  0.00    -0.007 A 
ATOM      6  C5  UNL d   1      -1.003   3.258  -0.084  0.00  0.00     0.039 A 
ENDROOT
BRANCH   4   7
ATOM      7  O   UNL d   1       0.298   0.508   1.907  0.00  0.00    -0.526 OA
ATOM      8  H5  UNL d   1       0.199   0.340   2.859  0.00  0.00     0.418 HD
ENDBRANCH   4   7
TORSDOF 1
ENDMDL
