MODEL 1
REMARK minimizedAffinity 1.17342603
REMARK minimizedRMSD -1
REMARK  1 active torsions:
REMARK  status: ('A' for Active; 'I' for Inactive)
REMARK    1  A    between atoms: C3_4  and  O_7 
ROOT
ATOM      1  C   UNL d   1      -0.925   3.094   0.435  0.00  0.00    -0.033 A 
ATOM      2  C1  UNL d   1      -0.457   1.931  -0.180  0.00  0.00     0.039 A 
ATOM      3  C2  UNL d   1       0.091   0.904   0.590  0.00  0.00    -0.080 A 
ATOM      4  C3  UNL d   1       0.165   1.051   1.972  0.00  0.00     0.150 A 
ATOM      5  C4  UNL d   1      -0.303   2.205   2.592  0.00  0.00    -0.007 A 
ATOM      6  C5  UNL d   1      -0.849   3.230   1.822  0.00  0.00     0.039 A 
ENDROOT
BRANCH   4   7
ATOM      7  O   UNL d   1       0.697   0.077   2.765  0.00  0.00    -0.526 OA
ATOM      8  H5  UNL d   1       1.005  -0.648   2.197  0.00  0.00     0.418 HD
ENDBRANCH   4   7
TORSDOF 1
ENDMDL
