MODEL 1
REMARK minimizedAffinity 2.74638915
REMARK minimizedRMSD -1
REMARK  1 active torsions:
REMARK  status: ('A' for Active; 'I' for Inactive)
REMARK    1  A    between atoms: C3_4  and  O_7 
ROOT
ATOM      1  C   UNL d   1      -1.202   3.808  -0.527  0.00  0.00    -0.033 A 
ATOM      2  C1  UNL d   1      -0.379   2.710  -0.270  0.00  0.00     0.039 A 
ATOM      3  C2  UNL d   1      -0.337   2.150   1.009  0.00  0.00    -0.080 A 
ATOM      4  C3  UNL d   1      -1.122   2.697   2.020  0.00  0.00     0.150 A 
ATOM      5  C4  UNL d   1      -1.947   3.789   1.770  0.00  0.00    -0.007 A 
ATOM      6  C5  UNL d   1      -1.987   4.347   0.493  0.00  0.00     0.039 A 
ENDROOT
BRANCH   4   7
ATOM      7  O   UNL d   1      -1.111   2.189   3.285  0.00  0.00    -0.526 OA
ATOM      8  H5  UNL d   1      -0.474   1.456   3.316  0.00  0.00     0.418 HD
ENDBRANCH   4   7
TORSDOF 1
ENDMDL
