MODEL 1
REMARK minimizedAffinity -2.67324376
REMARK minimizedRMSD -1
REMARK  1 active torsions:
REMARK  status: ('A' for Active; 'I' for Inactive)
REMARK    1  A    between atoms: C3_4  and  O_7 
ROOT
ATOM      1  C   UNL d   1      -1.867   2.789   2.152  0.00  0.00    -0.033 A 
ATOM      2  C1  UNL d   1      -1.815   3.739   1.130  0.00  0.00     0.039 A 
ATOM      3  C2  UNL d   1      -0.593   4.305   0.762  0.00  0.00    -0.080 A 
ATOM      4  C3  UNL d   1       0.568   3.912   1.422  0.00  0.00     0.150 A 
ATOM      5  C4  UNL d   1       0.524   2.963   2.439  0.00  0.00    -0.007 A 
ATOM      6  C5  UNL d   1      -0.698   2.400   2.806  0.00  0.00     0.039 A 
ENDROOT
BRANCH   4   7
ATOM      7  O   UNL d   1       1.784   4.439   1.101  0.00  0.00    -0.526 OA
ATOM      8  H5  UNL d   1       1.656   5.102   0.402  0.00  0.00     0.418 HD
ENDBRANCH   4   7
TORSDOF 1
ENDMDL
