MODEL 1
REMARK minimizedAffinity -1.38562989
REMARK minimizedRMSD -1
REMARK  1 active torsions:
REMARK  status: ('A' for Active; 'I' for Inactive)
REMARK    1  A    between atoms: C3_4  and  O_7 
ROOT
ATOM      1  C   UNL d   1      -1.278   2.822  -1.545  0.00  0.00    -0.033 A 
ATOM      2  C1  UNL d   1      -1.327   3.822  -0.572  0.00  0.00     0.039 A 
ATOM      3  C2  UNL d   1      -1.068   3.512   0.764  0.00  0.00    -0.080 A 
ATOM      4  C3  UNL d   1      -0.760   2.200   1.114  0.00  0.00     0.150 A 
ATOM      5  C4  UNL d   1      -0.705   1.199   0.149  0.00  0.00    -0.007 A 
ATOM      6  C5  UNL d   1      -0.966   1.511  -1.185  0.00  0.00     0.039 A 
ENDROOT
BRANCH   4   7
ATOM      7  O   UNL d   1      -0.504   1.848   2.406  0.00  0.00    -0.526 OA
ATOM      8  H5  UNL d   1      -0.606   2.636   2.965  0.00  0.00     0.418 HD
ENDBRANCH   4   7
TORSDOF 1
ENDMDL
