MODEL 1
REMARK minimizedAffinity 3.23088861
REMARK minimizedRMSD -1
REMARK  1 active torsions:
REMARK  status: ('A' for Active; 'I' for Inactive)
REMARK    1  A    between atoms: C3_4  and  O_7 
ROOT
ATOM      1  C   UNL d   1      -0.813   2.953   2.047  0.00  0.00    -0.033 A 
ATOM      2  C1  UNL d   1      -1.336   4.004   1.292  0.00  0.00     0.039 A 
ATOM      3  C2  UNL d   1      -1.271   3.964  -0.102  0.00  0.00    -0.080 A 
ATOM      4  C3  UNL d   1      -0.682   2.869  -0.728  0.00  0.00     0.150 A 
ATOM      5  C4  UNL d   1      -0.162   1.817   0.018  0.00  0.00    -0.007 A 
ATOM      6  C5  UNL d   1      -0.227   1.859   1.410  0.00  0.00     0.039 A 
ENDROOT
BRANCH   4   7
ATOM      7  O   UNL d   1      -0.591   2.788  -2.086  0.00  0.00    -0.526 OA
ATOM      8  H5  UNL d   1      -0.966   3.599  -2.468  0.00  0.00     0.418 HD
ENDBRANCH   4   7
TORSDOF 1
ENDMDL
