MODEL 1
REMARK minimizedAffinity 0.883444488
REMARK minimizedRMSD -1
REMARK  1 active torsions:
REMARK  status: ('A' for Active; 'I' for Inactive)
REMARK    1  A    between atoms: C3_4  and  O_7 
ROOT
ATOM      1  C   UNL d   1       3.381  -5.197   0.218  0.00  0.00    -0.033 A 
ATOM      2  C1  UNL d   1       4.498  -6.000  -0.021  0.00  0.00     0.039 A 
ATOM      3  C2  UNL d   1       5.244  -5.831  -1.189  0.00  0.00    -0.080 A 
ATOM      4  C3  UNL d   1       4.864  -4.857  -2.108  0.00  0.00     0.150 A 
ATOM      5  C4  UNL d   1       3.754  -4.051  -1.875  0.00  0.00    -0.007 A 
ATOM      6  C5  UNL d   1       3.010  -4.221  -0.708  0.00  0.00     0.039 A 
ENDROOT
BRANCH   4   7
ATOM      7  O   UNL d   1       5.558  -4.658  -3.264  0.00  0.00    -0.526 OA
ATOM      8  H5  UNL d   1       6.282  -5.306  -3.304  0.00  0.00     0.418 HD
ENDBRANCH   4   7
TORSDOF 1
ENDMDL
