MODEL 1
REMARK minimizedAffinity -2.80004454
REMARK minimizedRMSD -1
REMARK  0 active torsions:
REMARK  status: ('A' for Active; 'I' for Inactive)
ROOT
ATOM      1  C1  DEN d   1      -0.148   2.094   0.470  0.00  0.00     0.130 A 
ATOM      2  C2  DEN d   1       0.972   2.365   1.368  0.00  0.00    -0.031 A 
ATOM      3  C3  DEN d   1       1.833   1.166   1.398  0.00  0.00     0.027 A 
ATOM      4  C4  DEN d   1       1.547  -1.070   0.146  0.00  0.00     0.027 A 
ATOM      5  C5  DEN d   1       0.744  -1.775  -0.724  0.00  0.00    -0.003 A 
ATOM      6  C6  DEN d   1      -0.420  -1.257  -1.225  0.00  0.00     0.001 A 
ATOM      7  C7  DEN d   1      -0.792   0.020  -0.897  0.00  0.00     0.017 A 
ATOM      8  C8  DEN d   1       0.008   0.734  -0.015  0.00  0.00    -0.094 A 
ATOM      9  C9  DEN d   1       1.188   0.197   0.472  0.00  0.00    -0.072 A 
ENDROOT
TORSDOF 0
ENDMDL
