MODEL 1
REMARK minimizedAffinity 9.71293449
REMARK minimizedRMSD -1
REMARK  0 active torsions:
REMARK  status: ('A' for Active; 'I' for Inactive)
ROOT
ATOM      1  C1  DEN d   1       1.194  -1.785   1.147  0.00  0.00     0.130 A 
ATOM      2  C2  DEN d   1       0.957  -0.936  -0.018  0.00  0.00    -0.031 A 
ATOM      3  C3  DEN d   1       0.848   0.460   0.450  0.00  0.00     0.027 A 
ATOM      4  C4  DEN d   1       1.029   1.386   2.851  0.00  0.00     0.027 A 
ATOM      5  C5  DEN d   1       1.214   1.048   4.173  0.00  0.00    -0.003 A 
ATOM      6  C6  DEN d   1       1.370  -0.250   4.580  0.00  0.00     0.001 A 
ATOM      7  C7  DEN d   1       1.389  -1.255   3.650  0.00  0.00     0.017 A 
ATOM      8  C8  DEN d   1       1.196  -0.923   2.315  0.00  0.00    -0.094 A 
ATOM      9  C9  DEN d   1       1.052   0.397   1.922  0.00  0.00    -0.072 A 
ENDROOT
TORSDOF 0
ENDMDL
