MODEL 1
REMARK minimizedAffinity 6.60562611
REMARK minimizedRMSD -1
REMARK  0 active torsions:
REMARK  status: ('A' for Active; 'I' for Inactive)
ROOT
ATOM      1  C1  DEN d   1      -0.067  -2.606  -1.151  0.00  0.00     0.130 A 
ATOM      2  C2  DEN d   1       1.236  -3.005  -0.625  0.00  0.00    -0.031 A 
ATOM      3  C3  DEN d   1       1.835  -1.834   0.046  0.00  0.00     0.027 A 
ATOM      4  C4  DEN d   1       0.876   0.544   0.323  0.00  0.00     0.027 A 
ATOM      5  C5  DEN d   1      -0.192   1.364   0.034  0.00  0.00    -0.003 A 
ATOM      6  C6  DEN d   1      -1.269   0.932  -0.693  0.00  0.00     0.001 A 
ATOM      7  C7  DEN d   1      -1.323  -0.369  -1.118  0.00  0.00     0.017 A 
ATOM      8  C8  DEN d   1      -0.246  -1.200  -0.837  0.00  0.00    -0.094 A 
ATOM      9  C9  DEN d   1       0.828  -0.748  -0.090  0.00  0.00    -0.072 A 
ENDROOT
TORSDOF 0
ENDMDL
