MODEL 1
REMARK minimizedAffinity -3.83636427
REMARK minimizedRMSD -1
REMARK  0 active torsions:
REMARK  status: ('A' for Active; 'I' for Inactive)
ROOT
ATOM      1  C1  DEN d   1       0.374   1.080  -0.023  0.00  0.00     0.130 A 
ATOM      2  C2  DEN d   1      -0.591  -0.013   0.052  0.00  0.00    -0.031 A 
ATOM      3  C3  DEN d   1       0.155  -1.286  -0.001  0.00  0.00     0.027 A 
ATOM      4  C4  DEN d   1       2.700  -1.668  -0.184  0.00  0.00     0.027 A 
ATOM      5  C5  DEN d   1       3.924  -1.045  -0.287  0.00  0.00    -0.003 A 
ATOM      6  C6  DEN d   1       4.047   0.318  -0.343  0.00  0.00     0.001 A 
ATOM      7  C7  DEN d   1       2.930   1.105  -0.251  0.00  0.00     0.017 A 
ATOM      8  C8  DEN d   1       1.691   0.484  -0.154  0.00  0.00    -0.094 A 
ATOM      9  C9  DEN d   1       1.588  -0.895  -0.086  0.00  0.00    -0.072 A 
ENDROOT
TORSDOF 0
ENDMDL
