MODEL 1
REMARK minimizedAffinity 1.265239
REMARK minimizedRMSD -1
REMARK  0 active torsions:
REMARK  status: ('A' for Active; 'I' for Inactive)
ROOT
ATOM      1  C1  DEN d   1       2.474  -3.167  -3.007  0.00  0.00     0.130 A 
ATOM      2  C2  DEN d   1       3.709  -2.772  -2.335  0.00  0.00    -0.031 A 
ATOM      3  C3  DEN d   1       3.346  -1.996  -1.133  0.00  0.00     0.027 A 
ATOM      4  C4  DEN d   1       1.005  -1.373  -0.248  0.00  0.00     0.027 A 
ATOM      5  C5  DEN d   1      -0.348  -1.474  -0.485  0.00  0.00    -0.003 A 
ATOM      6  C6  DEN d   1      -0.850  -2.112  -1.588  0.00  0.00     0.001 A 
ATOM      7  C7  DEN d   1       0.005  -2.713  -2.473  0.00  0.00     0.017 A 
ATOM      8  C8  DEN d   1       1.371  -2.609  -2.245  0.00  0.00    -0.094 A 
ATOM      9  C9  DEN d   1       1.859  -1.971  -1.117  0.00  0.00    -0.072 A 
ENDROOT
TORSDOF 0
ENDMDL
