MODEL 1
REMARK minimizedAffinity -1.632447
REMARK minimizedRMSD -1
REMARK  0 active torsions:
REMARK  status: ('A' for Active; 'I' for Inactive)
ROOT
ATOM      1  C1  DEN d   1       1.152   1.301  -0.085  0.00  0.00     0.130 A 
ATOM      2  C2  DEN d   1      -0.141   0.772  -0.508  0.00  0.00    -0.031 A 
ATOM      3  C3  DEN d   1       0.094  -0.512  -1.198  0.00  0.00     0.027 A 
ATOM      4  C4  DEN d   1       2.324  -1.729  -1.646  0.00  0.00     0.027 A 
ATOM      5  C5  DEN d   1       3.690  -1.663  -1.486  0.00  0.00    -0.003 A 
ATOM      6  C6  DEN d   1       4.304  -0.598  -0.883  0.00  0.00     0.001 A 
ATOM      7  C7  DEN d   1       3.547   0.425  -0.377  0.00  0.00     0.017 A 
ATOM      8  C8  DEN d   1       2.169   0.370  -0.541  0.00  0.00    -0.094 A 
ATOM      9  C9  DEN d   1       1.566  -0.722  -1.143  0.00  0.00    -0.072 A 
ENDROOT
TORSDOF 0
ENDMDL
