MODEL 1
REMARK minimizedAffinity 11.2509499
REMARK minimizedRMSD -1
REMARK  2 active torsions:
REMARK  status: ('A' for Active; 'I' for Inactive)
REMARK    1  A    between atoms: C2'_3  and  C1'_4 
REMARK    2  A    between atoms: C1'_4  and  C1_5 
ROOT
ATOM      1  C1  I4B d   1       4.730   5.890   3.215  0.00  0.00    -0.075 A 
ATOM      2  C2  I4B d   1       5.935   5.800   3.866  0.00  0.00     0.003 A 
ATOM      3  C3  I4B d   1       5.978   5.726   5.279  0.00  0.00     0.002 A 
ATOM      4  C4  I4B d   1       4.803   5.796   6.000  0.00  0.00    -0.004 A 
ATOM      5  C5  I4B d   1       3.581   5.864   5.337  0.00  0.00     0.002 A 
ATOM      6  C6  I4B d   1       3.543   5.899   3.936  0.00  0.00     0.003 A 
ENDROOT
BRANCH   1   7
ATOM      7  C1' I4B d   1       4.723   5.999   1.723  0.00  0.00     0.060 C 
BRANCH   7   8
ATOM      8  C2' I4B d   1       5.775   5.054   1.181  0.00  0.00    -0.013 C 
ATOM      9  C4' I4B d   1       5.379   3.617   1.392  0.00  0.00     0.013 C 
ATOM     10  C3' I4B d   1       5.962   5.356  -0.276  0.00  0.00     0.013 C 
ENDBRANCH   7   8
ENDBRANCH   1   7
TORSDOF 2
ENDMDL
