MODEL 1
REMARK minimizedAffinity 8.02713394
REMARK minimizedRMSD -1
REMARK  2 active torsions:
REMARK  status: ('A' for Active; 'I' for Inactive)
REMARK    1  A    between atoms: C2'_3  and  C1'_4 
REMARK    2  A    between atoms: C1'_4  and  C1_5 
ROOT
ATOM      1  C1  I4B d   1      -3.642  -1.495   2.448  0.00  0.00    -0.075 A 
ATOM      2  C2  I4B d   1      -4.926  -1.561   1.968  0.00  0.00     0.003 A 
ATOM      3  C3  I4B d   1      -5.990  -1.924   2.827  0.00  0.00     0.002 A 
ATOM      4  C4  I4B d   1      -5.721  -2.260   4.138  0.00  0.00    -0.004 A 
ATOM      5  C5  I4B d   1      -4.422  -2.171   4.629  0.00  0.00     0.002 A 
ATOM      6  C6  I4B d   1      -3.377  -1.774   3.782  0.00  0.00     0.003 A 
ENDROOT
BRANCH   1   7
ATOM      7  C1' I4B d   1      -2.537  -1.140   1.504  0.00  0.00     0.060 C 
BRANCH   7   8
ATOM      8  C2' I4B d   1      -1.960  -2.429   0.954  0.00  0.00    -0.013 C 
ATOM      9  C4' I4B d   1      -2.305  -2.603  -0.501  0.00  0.00     0.013 C 
ATOM     10  C3' I4B d   1      -0.475  -2.396   1.159  0.00  0.00     0.013 C 
ENDBRANCH   7   8
ENDBRANCH   1   7
TORSDOF 2
ENDMDL
