MODEL 1
REMARK minimizedAffinity 7.84484196
REMARK minimizedRMSD -1
REMARK  2 active torsions:
REMARK  status: ('A' for Active; 'I' for Inactive)
REMARK    1  A    between atoms: C2'_3  and  C1'_4 
REMARK    2  A    between atoms: C1'_4  and  C1_5 
ROOT
ATOM      1  C1  I4B d   1      -2.359  -4.375   1.398  0.00  0.00    -0.075 A 
ATOM      2  C2  I4B d   1      -1.525  -3.398   1.881  0.00  0.00     0.003 A 
ATOM      3  C3  I4B d   1      -0.541  -3.714   2.849  0.00  0.00     0.002 A 
ATOM      4  C4  I4B d   1      -0.459  -5.002   3.339  0.00  0.00    -0.004 A 
ATOM      5  C5  I4B d   1      -1.290  -5.996   2.831  0.00  0.00     0.002 A 
ATOM      6  C6  I4B d   1      -2.238  -5.684   1.846  0.00  0.00     0.003 A 
ENDROOT
BRANCH   1   7
ATOM      7  C1' I4B d   1      -3.409  -3.999   0.402  0.00  0.00     0.060 C 
BRANCH   7   8
ATOM      8  C2' I4B d   1      -2.940  -4.454  -0.965  0.00  0.00    -0.013 C 
ATOM      9  C4' I4B d   1      -4.097  -4.911  -1.815  0.00  0.00     0.013 C 
ATOM     10  C3' I4B d   1      -2.213  -3.312  -1.610  0.00  0.00     0.013 C 
ENDBRANCH   7   8
ENDBRANCH   1   7
TORSDOF 2
ENDMDL
