MODEL 1
REMARK minimizedAffinity 13.0290976
REMARK minimizedRMSD -1
REMARK  2 active torsions:
REMARK  status: ('A' for Active; 'I' for Inactive)
REMARK    1  A    between atoms: C2'_3  and  C1'_4 
REMARK    2  A    between atoms: C1'_4  and  C1_5 
ROOT
ATOM      1  C1  I4B d   1       3.947   5.135   3.627  0.00  0.00    -0.075 A 
ATOM      2  C2  I4B d   1       5.313   5.245   3.693  0.00  0.00     0.003 A 
ATOM      3  C3  I4B d   1       5.938   5.658   4.895  0.00  0.00     0.002 A 
ATOM      4  C4  I4B d   1       5.160   5.997   5.983  0.00  0.00    -0.004 A 
ATOM      5  C5  I4B d   1       3.776   5.863   5.921  0.00  0.00     0.002 A 
ATOM      6  C6  I4B d   1       3.166   5.417   4.740  0.00  0.00     0.003 A 
ENDROOT
BRANCH   1   7
ATOM      7  C1' I4B d   1       3.318   4.727   2.332  0.00  0.00     0.060 C 
BRANCH   7   8
ATOM      8  C2' I4B d   1       3.269   5.946   1.433  0.00  0.00    -0.013 C 
ATOM      9  C4' I4B d   1       4.369   5.909   0.405  0.00  0.00     0.013 C 
ATOM     10  C3' I4B d   1       1.920   5.986   0.781  0.00  0.00     0.013 C 
ENDBRANCH   7   8
ENDBRANCH   1   7
TORSDOF 2
ENDMDL
