MODEL 1
REMARK minimizedAffinity 8.30332088
REMARK minimizedRMSD -1
REMARK  2 active torsions:
REMARK  status: ('A' for Active; 'I' for Inactive)
REMARK    1  A    between atoms: C2'_3  and  C1'_4 
REMARK    2  A    between atoms: C1'_4  and  C1_5 
ROOT
ATOM      1  C1  I4B d   1       0.434  -3.792   2.428  0.00  0.00    -0.075 A 
ATOM      2  C2  I4B d   1      -0.349  -4.882   2.142  0.00  0.00     0.003 A 
ATOM      3  C3  I4B d   1      -0.367  -5.996   3.016  0.00  0.00     0.002 A 
ATOM      4  C4  I4B d   1       0.448  -5.998   4.130  0.00  0.00    -0.004 A 
ATOM      5  C5  I4B d   1       1.224  -4.883   4.430  0.00  0.00     0.002 A 
ATOM      6  C6  I4B d   1       1.208  -3.767   3.581  0.00  0.00     0.003 A 
ENDROOT
BRANCH   1   7
ATOM      7  C1' I4B d   1       0.453  -2.646   1.466  0.00  0.00     0.060 C 
BRANCH   7   8
ATOM      8  C2' I4B d   1       1.793  -2.653   0.759  0.00  0.00    -0.013 C 
ATOM      9  C4' I4B d   1       1.703  -3.351  -0.573  0.00  0.00     0.013 C 
ATOM     10  C3' I4B d   1       2.238  -1.230   0.595  0.00  0.00     0.013 C 
ENDBRANCH   7   8
ENDBRANCH   1   7
TORSDOF 2
ENDMDL
