MODEL 1
REMARK minimizedAffinity 11.1186247
REMARK minimizedRMSD -1
REMARK  2 active torsions:
REMARK  status: ('A' for Active; 'I' for Inactive)
REMARK    1  A    between atoms: C2'_3  and  C1'_4 
REMARK    2  A    between atoms: C1'_4  and  C1_5 
ROOT
ATOM      1  C1  I4B d   1      -0.525   2.835  -3.687  0.00  0.00    -0.075 A 
ATOM      2  C2  I4B d   1      -0.931   3.509  -4.811  0.00  0.00     0.003 A 
ATOM      3  C3  I4B d   1      -0.155   3.456  -5.994  0.00  0.00     0.002 A 
ATOM      4  C4  I4B d   1       1.038   2.762  -5.994  0.00  0.00    -0.004 A 
ATOM      5  C5  I4B d   1       1.437   2.060  -4.860  0.00  0.00     0.002 A 
ATOM      6  C6  I4B d   1       0.645   2.086  -3.703  0.00  0.00     0.003 A 
ENDROOT
BRANCH   1   7
ATOM      7  C1' I4B d   1      -1.351   2.940  -2.445  0.00  0.00     0.060 C 
BRANCH   7   8
ATOM      8  C2' I4B d   1      -2.739   2.422  -2.763  0.00  0.00    -0.013 C 
ATOM      9  C4' I4B d   1      -2.676   1.163  -3.587  0.00  0.00     0.013 C 
ATOM     10  C3' I4B d   1      -3.454   2.186  -1.466  0.00  0.00     0.013 C 
ENDBRANCH   7   8
ENDBRANCH   1   7
TORSDOF 2
ENDMDL
