MODEL 1
REMARK minimizedAffinity 1.78167093
REMARK minimizedRMSD -1
REMARK  2 active torsions:
REMARK  status: ('A' for Active; 'I' for Inactive)
REMARK    1  A    between atoms: C2'_3  and  C1'_4 
REMARK    2  A    between atoms: C1'_4  and  C1_5 
ROOT
ATOM      1  C1  I4B d   1      -2.567  -0.225   1.729  0.00  0.00    -0.075 A 
ATOM      2  C2  I4B d   1      -3.834  -0.224   1.200  0.00  0.00     0.003 A 
ATOM      3  C3  I4B d   1      -4.496   1.001   0.938  0.00  0.00     0.002 A 
ATOM      4  C4  I4B d   1      -3.879   2.190   1.267  0.00  0.00    -0.004 A 
ATOM      5  C5  I4B d   1      -2.586   2.188   1.782  0.00  0.00     0.002 A 
ATOM      6  C6  I4B d   1      -1.921   0.973   2.004  0.00  0.00     0.003 A 
ENDROOT
BRANCH   1   7
ATOM      7  C1' I4B d   1      -1.911  -1.536   2.023  0.00  0.00     0.060 C 
BRANCH   7   8
ATOM      8  C2' I4B d   1      -1.043  -1.901   0.836  0.00  0.00    -0.013 C 
ATOM      9  C4' I4B d   1       0.418  -1.876   1.200  0.00  0.00     0.013 C 
ATOM     10  C3' I4B d   1      -1.459  -3.260   0.358  0.00  0.00     0.013 C 
ENDBRANCH   7   8
ENDBRANCH   1   7
TORSDOF 2
ENDMDL
