MODEL 1
REMARK minimizedAffinity 3.86286664
REMARK minimizedRMSD -1
REMARK  2 active torsions:
REMARK  status: ('A' for Active; 'I' for Inactive)
REMARK    1  A    between atoms: C2'_3  and  C1'_4 
REMARK    2  A    between atoms: C1'_4  and  C1_5 
ROOT
ATOM      1  C1  I4B d   1       5.092   5.831   3.395  0.00  0.00    -0.075 A 
ATOM      2  C2  I4B d   1       3.742   5.868   3.640  0.00  0.00     0.003 A 
ATOM      3  C3  I4B d   1       3.251   5.682   4.955  0.00  0.00     0.002 A 
ATOM      4  C4  I4B d   1       4.137   5.412   5.979  0.00  0.00    -0.004 A 
ATOM      5  C5  I4B d   1       5.506   5.397   5.732  0.00  0.00     0.002 A 
ATOM      6  C6  I4B d   1       5.988   5.620   4.434  0.00  0.00     0.003 A 
ENDROOT
BRANCH   1   7
ATOM      7  C1' I4B d   1       5.574   5.999   1.988  0.00  0.00     0.060 C 
BRANCH   7   8
ATOM      8  C2' I4B d   1       4.371   5.918   1.070  0.00  0.00    -0.013 C 
ATOM      9  C4' I4B d   1       4.785   5.979  -0.377  0.00  0.00     0.013 C 
ATOM     10  C3' I4B d   1       3.644   4.641   1.372  0.00  0.00     0.013 C 
ENDBRANCH   7   8
ENDBRANCH   1   7
TORSDOF 2
ENDMDL
