MODEL 1
REMARK minimizedAffinity -1.97080147
REMARK minimizedRMSD -1
REMARK  2 active torsions:
REMARK  status: ('A' for Active; 'I' for Inactive)
REMARK    1  A    between atoms: C2'_3  and  C1'_4 
REMARK    2  A    between atoms: C1'_4  and  C1_5 
ROOT
ATOM      1  C1  I4B d   1      -1.824   2.074  -1.048  0.00  0.00    -0.075 A 
ATOM      2  C2  I4B d   1      -0.826   1.493  -0.306  0.00  0.00     0.003 A 
ATOM      3  C3  I4B d   1      -1.136   0.806   0.892  0.00  0.00     0.002 A 
ATOM      4  C4  I4B d   1      -2.442   0.767   1.335  0.00  0.00    -0.004 A 
ATOM      5  C5  I4B d   1      -3.456   1.336   0.570  0.00  0.00     0.002 A 
ATOM      6  C6  I4B d   1      -3.147   1.983  -0.635  0.00  0.00     0.003 A 
ENDROOT
BRANCH   1   7
ATOM      7  C1' I4B d   1      -1.457   2.821  -2.291  0.00  0.00     0.060 C 
BRANCH   7   8
ATOM      8  C2' I4B d   1      -1.213   1.806  -3.390  0.00  0.00    -0.013 C 
ATOM      9  C4' I4B d   1      -2.082   2.081  -4.588  0.00  0.00     0.013 C 
ATOM     10  C3' I4B d   1       0.241   1.858  -3.752  0.00  0.00     0.013 C 
ENDBRANCH   7   8
ENDBRANCH   1   7
TORSDOF 2
ENDMDL
