MODEL 1
REMARK minimizedAffinity -3.32500219
REMARK minimizedRMSD -1
REMARK  0 active torsions:
REMARK  status: ('A' for Active; 'I' for Inactive)
ROOT
ATOM      1  O1  BZF d   1       0.216   0.513   2.651  0.00  0.00    -0.204 OA
ATOM      2  C2  BZF d   1      -1.081   0.817   3.020  0.00  0.00     0.174 A 
ATOM      3  C3  BZF d   1      -1.917   0.703   1.968  0.00  0.00    -0.012 A 
ATOM      4  C3A BZF d   1      -1.106   0.215   0.895  0.00  0.00    -0.107 A 
ATOM      5  C4  BZF d   1      -1.367  -0.114  -0.405  0.00  0.00     0.055 A 
ATOM      6  C5  BZF d   1      -0.340  -0.490  -1.211  0.00  0.00    -0.016 A 
ATOM      7  C6  BZF d   1       0.960  -0.543  -0.752  0.00  0.00     0.022 A 
ATOM      8  C7  BZF d   1       1.268  -0.231   0.531  0.00  0.00     0.029 A 
ATOM      9  C7A BZF d   1       0.227   0.117   1.356  0.00  0.00     0.058 A 
ENDROOT
TORSDOF 0
ENDMDL
