MODEL 1
REMARK minimizedAffinity 1.19670069
REMARK minimizedRMSD -1
REMARK  0 active torsions:
REMARK  status: ('A' for Active; 'I' for Inactive)
ROOT
ATOM      1  O1  BZF d   1       0.932  -0.689   1.216  0.00  0.00    -0.204 OA
ATOM      2  C2  BZF d   1       1.476  -1.009  -0.013  0.00  0.00     0.174 A 
ATOM      3  C3  BZF d   1       0.620  -0.706  -1.010  0.00  0.00    -0.012 A 
ATOM      4  C3A BZF d   1      -0.494  -0.077  -0.370  0.00  0.00    -0.107 A 
ATOM      5  C4  BZF d   1      -1.661   0.462  -0.832  0.00  0.00     0.055 A 
ATOM      6  C5  BZF d   1      -2.571   0.932   0.062  0.00  0.00    -0.016 A 
ATOM      7  C6  BZF d   1      -2.350   0.874   1.422  0.00  0.00     0.022 A 
ATOM      8  C7  BZF d   1      -1.205   0.353   1.928  0.00  0.00     0.029 A 
ATOM      9  C7A BZF d   1      -0.269  -0.092   1.026  0.00  0.00     0.058 A 
ENDROOT
TORSDOF 0
ENDMDL
