MODEL 1
REMARK minimizedAffinity -4.03934002
REMARK minimizedRMSD -1
REMARK  0 active torsions:
REMARK  status: ('A' for Active; 'I' for Inactive)
ROOT
ATOM      1  O1  BZF d   1      -2.327   1.148   1.741  0.00  0.00    -0.204 OA
ATOM      2  C2  BZF d   1      -2.531   0.959   0.388  0.00  0.00     0.174 A 
ATOM      3  C3  BZF d   1      -1.404   0.520  -0.209  0.00  0.00    -0.012 A 
ATOM      4  C3A BZF d   1      -0.461   0.341   0.852  0.00  0.00    -0.107 A 
ATOM      5  C4  BZF d   1       0.834  -0.090   0.895  0.00  0.00     0.055 A 
ATOM      6  C5  BZF d   1       1.496  -0.078   2.082  0.00  0.00    -0.016 A 
ATOM      7  C6  BZF d   1       0.896   0.364   3.243  0.00  0.00     0.022 A 
ATOM      8  C7  BZF d   1      -0.388   0.797   3.251  0.00  0.00     0.029 A 
ATOM      9  C7A BZF d   1      -1.070   0.754   2.060  0.00  0.00     0.058 A 
ENDROOT
TORSDOF 0
ENDMDL
