MODEL 1
REMARK minimizedAffinity 5.39283514
REMARK minimizedRMSD -1
REMARK  0 active torsions:
REMARK  status: ('A' for Active; 'I' for Inactive)
ROOT
ATOM      1  O1  BZF d   1       1.950   1.844  -4.306  0.00  0.00    -0.204 OA
ATOM      2  C2  BZF d   1       0.835   1.240  -4.852  0.00  0.00     0.174 A 
ATOM      3  C3  BZF d   1       0.030   0.757  -3.884  0.00  0.00    -0.012 A 
ATOM      4  C3A BZF d   1       0.638   1.162  -2.653  0.00  0.00    -0.107 A 
ATOM      5  C4  BZF d   1       0.301   0.995  -1.340  0.00  0.00     0.055 A 
ATOM      6  C5  BZF d   1       1.147   1.449  -0.379  0.00  0.00    -0.016 A 
ATOM      7  C6  BZF d   1       2.339   2.068  -0.693  0.00  0.00     0.022 A 
ATOM      8  C7  BZF d   1       2.714   2.261  -1.982  0.00  0.00     0.029 A 
ATOM      9  C7A BZF d   1       1.845   1.832  -2.956  0.00  0.00     0.058 A 
ENDROOT
TORSDOF 0
ENDMDL
