MODEL 1
REMARK minimizedAffinity -1.09489071
REMARK minimizedRMSD -1
REMARK  0 active torsions:
REMARK  status: ('A' for Active; 'I' for Inactive)
ROOT
ATOM      1  O1  BZF d   1       1.941   0.209  -0.104  0.00  0.00    -0.204 OA
ATOM      2  C2  BZF d   1       0.862  -0.579   0.248  0.00  0.00     0.174 A 
ATOM      3  C3  BZF d   1       0.005  -0.707  -0.786  0.00  0.00    -0.012 A 
ATOM      4  C3A BZF d   1       0.631  -0.029  -1.879  0.00  0.00    -0.107 A 
ATOM      5  C4  BZF d   1       0.277   0.178  -3.182  0.00  0.00     0.055 A 
ATOM      6  C5  BZF d   1       1.075   0.945  -3.969  0.00  0.00    -0.016 A 
ATOM      7  C6  BZF d   1       2.230   1.525  -3.487  0.00  0.00     0.022 A 
ATOM      8  C7  BZF d   1       2.625   1.344  -2.203  0.00  0.00     0.029 A 
ATOM      9  C7A BZF d   1       1.838   0.542  -1.413  0.00  0.00     0.058 A 
ENDROOT
TORSDOF 0
ENDMDL
