MODEL 1
REMARK minimizedAffinity -5.85006523
REMARK minimizedRMSD -1
REMARK  0 active torsions:
REMARK  status: ('A' for Active; 'I' for Inactive)
ROOT
ATOM      1  O1  BZF d   1       1.476  -0.914   0.306  0.00  0.00    -0.204 OA
ATOM      2  C2  BZF d   1       0.593  -0.856  -0.755  0.00  0.00     0.174 A 
ATOM      3  C3  BZF d   1      -0.523  -0.180  -0.413  0.00  0.00    -0.012 A 
ATOM      4  C3A BZF d   1      -0.286   0.287   0.918  0.00  0.00    -0.107 A 
ATOM      5  C4  BZF d   1      -1.020   1.033   1.796  0.00  0.00     0.055 A 
ATOM      6  C5  BZF d   1      -0.533   1.253   3.045  0.00  0.00    -0.016 A 
ATOM      7  C6  BZF d   1       0.681   0.737   3.452  0.00  0.00     0.022 A 
ATOM      8  C7  BZF d   1       1.447  -0.004   2.615  0.00  0.00     0.029 A 
ATOM      9  C7A BZF d   1       0.972  -0.200   1.341  0.00  0.00     0.058 A 
ENDROOT
TORSDOF 0
ENDMDL
