MODEL 1
REMARK minimizedAffinity -2.60615563
REMARK minimizedRMSD -1
REMARK  0 active torsions:
REMARK  status: ('A' for Active; 'I' for Inactive)
ROOT
ATOM      1  O1  BZF d   1      -2.312  -0.081   1.661  0.00  0.00    -0.204 OA
ATOM      2  C2  BZF d   1      -2.259  -0.440   0.328  0.00  0.00     0.174 A 
ATOM      3  C3  BZF d   1      -1.025  -0.233  -0.175  0.00  0.00    -0.012 A 
ATOM      4  C3A BZF d   1      -0.234   0.200   0.936  0.00  0.00    -0.107 A 
ATOM      5  C4  BZF d   1       1.080   0.545   1.075  0.00  0.00     0.055 A 
ATOM      6  C5  BZF d   1       1.521   0.993   2.280  0.00  0.00    -0.016 A 
ATOM      7  C6  BZF d   1       0.676   1.113   3.364  0.00  0.00     0.022 A 
ATOM      8  C7  BZF d   1      -0.634   0.778   3.276  0.00  0.00     0.029 A 
ATOM      9  C7A BZF d   1      -1.076   0.293   2.069  0.00  0.00     0.058 A 
ENDROOT
TORSDOF 0
ENDMDL
