MODEL 1
REMARK minimizedAffinity 0.0105539905
REMARK minimizedRMSD -1
REMARK  0 active torsions:
REMARK  status: ('A' for Active; 'I' for Inactive)
ROOT
ATOM      1  C1  BNZ d   1       2.275  -4.425   3.249  0.00  0.00     0.000 A 
ATOM      2  C2  BNZ d   1       1.420  -3.531   2.662  0.00  0.00     0.000 A 
ATOM      3  C3  BNZ d   1       1.496  -2.197   2.950  0.00  0.00     0.000 A 
ATOM      4  C4  BNZ d   1       2.399  -1.764   3.854  0.00  0.00     0.000 A 
ATOM      5  C5  BNZ d   1       3.262  -2.654   4.461  0.00  0.00     0.000 A 
ATOM      6  C6  BNZ d   1       3.208  -3.991   4.139  0.00  0.00     0.000 A 
ENDROOT
TORSDOF 0
ENDMDL
