MODEL 1
REMARK minimizedAffinity 5.06772566
REMARK minimizedRMSD -1
REMARK  0 active torsions:
REMARK  status: ('A' for Active; 'I' for Inactive)
ROOT
ATOM      1  C1  BNZ d   1       3.911  -5.884  -1.211  0.00  0.00     0.000 A 
ATOM      2  C2  BNZ d   1       2.610  -5.939  -1.635  0.00  0.00     0.000 A 
ATOM      3  C3  BNZ d   1       2.310  -6.000  -2.967  0.00  0.00     0.000 A 
ATOM      4  C4  BNZ d   1       3.308  -5.964  -3.873  0.00  0.00     0.000 A 
ATOM      5  C5  BNZ d   1       4.624  -5.898  -3.462  0.00  0.00     0.000 A 
ATOM      6  C6  BNZ d   1       4.924  -5.877  -2.119  0.00  0.00     0.000 A 
ENDROOT
TORSDOF 0
ENDMDL
