MODEL 1
REMARK minimizedAffinity -3.04061246
REMARK minimizedRMSD -1
REMARK  0 active torsions:
REMARK  status: ('A' for Active; 'I' for Inactive)
ROOT
ATOM      1  C1  BNZ d   1       3.707  -5.989  -2.470  0.00  0.00     0.000 A 
ATOM      2  C2  BNZ d   1       3.644  -5.995  -3.838  0.00  0.00     0.000 A 
ATOM      3  C3  BNZ d   1       2.440  -5.979  -4.484  0.00  0.00     0.000 A 
ATOM      4  C4  BNZ d   1       1.300  -5.996  -3.763  0.00  0.00     0.000 A 
ATOM      5  C5  BNZ d   1       1.347  -6.000  -2.383  0.00  0.00     0.000 A 
ATOM      6  C6  BNZ d   1       2.561  -5.977  -1.736  0.00  0.00     0.000 A 
ENDROOT
TORSDOF 0
ENDMDL
