MODEL 1
REMARK minimizedAffinity 2.09920049
REMARK minimizedRMSD -1
REMARK  0 active torsions:
REMARK  status: ('A' for Active; 'I' for Inactive)
ROOT
ATOM      1  C1  BNZ d   1      -4.297   2.219   1.632  0.00  0.00     0.000 A 
ATOM      2  C2  BNZ d   1      -3.070   2.089   1.038  0.00  0.00     0.000 A 
ATOM      3  C3  BNZ d   1      -2.742   2.833  -0.061  0.00  0.00     0.000 A 
ATOM      4  C4  BNZ d   1      -3.655   3.675  -0.588  0.00  0.00     0.000 A 
ATOM      5  C5  BNZ d   1      -4.899   3.810  -0.006  0.00  0.00     0.000 A 
ATOM      6  C6  BNZ d   1      -5.212   3.088   1.124  0.00  0.00     0.000 A 
ENDROOT
TORSDOF 0
ENDMDL
