MODEL 1
REMARK minimizedAffinity 1.14593768
REMARK minimizedRMSD -1
REMARK  0 active torsions:
REMARK  status: ('A' for Active; 'I' for Inactive)
ROOT
ATOM      1  C1  BNZ d   1       3.686  -5.976  -3.524  0.00  0.00     0.000 A 
ATOM      2  C2  BNZ d   1       2.952  -5.971  -4.680  0.00  0.00     0.000 A 
ATOM      3  C3  BNZ d   1       3.568  -6.000  -5.900  0.00  0.00     0.000 A 
ATOM      4  C4  BNZ d   1       4.915  -5.994  -5.963  0.00  0.00     0.000 A 
ATOM      5  C5  BNZ d   1       5.669  -5.990  -4.806  0.00  0.00     0.000 A 
ATOM      6  C6  BNZ d   1       5.045  -6.000  -3.580  0.00  0.00     0.000 A 
ENDROOT
TORSDOF 0
ENDMDL
