MODEL 1
REMARK minimizedAffinity 5.04627562
REMARK minimizedRMSD -1
REMARK  0 active torsions:
REMARK  status: ('A' for Active; 'I' for Inactive)
ROOT
ATOM      1  C1  BNZ d   1       5.661  -5.961  -2.002  0.00  0.00     0.000 A 
ATOM      2  C2  BNZ d   1       4.627  -5.951  -1.105  0.00  0.00     0.000 A 
ATOM      3  C3  BNZ d   1       3.329  -5.991  -1.532  0.00  0.00     0.000 A 
ATOM      4  C4  BNZ d   1       3.067  -5.999  -2.855  0.00  0.00     0.000 A 
ATOM      5  C5  BNZ d   1       4.099  -6.000  -3.772  0.00  0.00     0.000 A 
ATOM      6  C6  BNZ d   1       5.404  -5.999  -3.338  0.00  0.00     0.000 A 
ENDROOT
TORSDOF 0
ENDMDL
