MODEL 1
REMARK minimizedAffinity 0.639336228
REMARK minimizedRMSD -1
REMARK  0 active torsions:
REMARK  status: ('A' for Active; 'I' for Inactive)
ROOT
ATOM      1  C1  BNZ d   1       1.497  -5.994  -4.395  0.00  0.00     0.000 A 
ATOM      2  C2  BNZ d   1       1.968  -6.000  -3.109  0.00  0.00     0.000 A 
ATOM      3  C3  BNZ d   1       3.311  -5.981  -2.856  0.00  0.00     0.000 A 
ATOM      4  C4  BNZ d   1       4.180  -5.997  -3.886  0.00  0.00     0.000 A 
ATOM      5  C5  BNZ d   1       3.721  -6.000  -5.188  0.00  0.00     0.000 A 
ATOM      6  C6  BNZ d   1       2.369  -5.979  -5.440  0.00  0.00     0.000 A 
ENDROOT
TORSDOF 0
ENDMDL
