MODEL 1
REMARK minimizedAffinity -0.120159537
REMARK minimizedRMSD -1
REMARK  0 active torsions:
REMARK  status: ('A' for Active; 'I' for Inactive)
ROOT
ATOM      1  C4' PXY d   1       0.986   2.036   0.469  0.00  0.00     0.077 C 
ATOM      2  C1' PXY d   1      -0.201  -3.605   0.038  0.00  0.00     0.077 C 
ATOM      3  C1  PXY d   1       0.102  -2.123   0.142  0.00  0.00    -0.082 A 
ATOM      4  C2  PXY d   1       1.268  -1.725   0.624  0.00  0.00     0.003 A 
ATOM      5  C3  PXY d   1       1.545  -0.389   0.755  0.00  0.00     0.003 A 
ATOM      6  C4  PXY d   1       0.641   0.550   0.337  0.00  0.00    -0.082 A 
ATOM      7  C5  PXY d   1      -0.547   0.153  -0.166  0.00  0.00     0.003 A 
ATOM      8  C6  PXY d   1      -0.826  -1.208  -0.252  0.00  0.00     0.003 A 
ENDROOT
TORSDOF 0
ENDMDL
