MODEL 1
REMARK minimizedAffinity 0.899354219
REMARK minimizedRMSD -1
REMARK  0 active torsions:
REMARK  status: ('A' for Active; 'I' for Inactive)
ROOT
ATOM      1  C4' PXY d   1       1.841   3.876   1.255  0.00  0.00     0.077 C 
ATOM      2  C1' PXY d   1      -0.438  -0.690  -1.459  0.00  0.00     0.077 C 
ATOM      3  C1  PXY d   1       0.154   0.516  -0.756  0.00  0.00    -0.082 A 
ATOM      4  C2  PXY d   1       1.223   0.366   0.010  0.00  0.00     0.003 A 
ATOM      5  C3  PXY d   1       1.752   1.440   0.679  0.00  0.00     0.003 A 
ATOM      6  C4  PXY d   1       1.215   2.689   0.519  0.00  0.00    -0.082 A 
ATOM      7  C5  PXY d   1       0.132   2.852  -0.270  0.00  0.00     0.003 A 
ATOM      8  C6  PXY d   1      -0.416   1.742  -0.907  0.00  0.00     0.003 A 
ENDROOT
TORSDOF 0
ENDMDL
