MODEL 1
REMARK minimizedAffinity -4.2798748
REMARK minimizedRMSD -1
REMARK  0 active torsions:
REMARK  status: ('A' for Active; 'I' for Inactive)
ROOT
ATOM      1  C4' PXY d   1      -0.452  -1.486   0.642  0.00  0.00     0.077 C 
ATOM      2  C1' PXY d   1       2.148   3.667   0.326  0.00  0.00     0.077 C 
ATOM      3  C1  PXY d   1       1.478   2.310   0.413  0.00  0.00    -0.082 A 
ATOM      4  C2  PXY d   1       0.398   2.067  -0.312  0.00  0.00     0.003 A 
ATOM      5  C3  PXY d   1      -0.240   0.857  -0.221  0.00  0.00     0.003 A 
ATOM      6  C4  PXY d   1       0.264  -0.134   0.579  0.00  0.00    -0.082 A 
ATOM      7  C5  PXY d   1       1.371   0.103   1.313  0.00  0.00     0.003 A 
ATOM      8  C6  PXY d   1       1.980   1.353   1.239  0.00  0.00     0.003 A 
ENDROOT
TORSDOF 0
ENDMDL
