MODEL 1
REMARK minimizedAffinity -3.12344861
REMARK minimizedRMSD -1
REMARK  0 active torsions:
REMARK  status: ('A' for Active; 'I' for Inactive)
ROOT
ATOM      1  C4' PXY d   1       0.794   2.083   0.309  0.00  0.00     0.077 C 
ATOM      2  C1' PXY d   1      -0.694  -3.498   0.096  0.00  0.00     0.077 C 
ATOM      3  C1  PXY d   1      -0.300  -2.035   0.139  0.00  0.00    -0.082 A 
ATOM      4  C2  PXY d   1      -0.060  -1.457   1.305  0.00  0.00     0.003 A 
ATOM      5  C3  PXY d   1       0.266  -0.127   1.365  0.00  0.00     0.003 A 
ATOM      6  C4  PXY d   1       0.402   0.606   0.216  0.00  0.00    -0.082 A 
ATOM      7  C5  PXY d   1       0.170   0.020  -0.978  0.00  0.00     0.003 A 
ATOM      8  C6  PXY d   1      -0.201  -1.321  -1.014  0.00  0.00     0.003 A 
ENDROOT
TORSDOF 0
ENDMDL
