MODEL 1
REMARK minimizedAffinity -2.93187881
REMARK minimizedRMSD -1
REMARK  0 active torsions:
REMARK  status: ('A' for Active; 'I' for Inactive)
ROOT
ATOM      1  C4' PXY d   1       1.017   2.876  -0.200  0.00  0.00     0.077 C 
ATOM      2  C1' PXY d   1      -0.770  -2.564   0.592  0.00  0.00     0.077 C 
ATOM      3  C1  PXY d   1      -0.297  -1.140   0.373  0.00  0.00    -0.082 A 
ATOM      4  C2  PXY d   1      -0.010  -0.378   1.415  0.00  0.00     0.003 A 
ATOM      5  C3  PXY d   1       0.388   0.922   1.236  0.00  0.00     0.003 A 
ATOM      6  C4  PXY d   1       0.545   1.430  -0.026  0.00  0.00    -0.082 A 
ATOM      7  C5  PXY d   1       0.265   0.655  -1.095  0.00  0.00     0.003 A 
ATOM      8  C6  PXY d   1      -0.178  -0.649  -0.890  0.00  0.00     0.003 A 
ENDROOT
TORSDOF 0
ENDMDL
