MODEL 1
REMARK minimizedAffinity -4.35189104
REMARK minimizedRMSD -1
REMARK  0 active torsions:
REMARK  status: ('A' for Active; 'I' for Inactive)
ROOT
ATOM      1  C4' PXY d   1      -0.886  -1.716   1.072  0.00  0.00     0.077 C 
ATOM      2  C1' PXY d   1       1.841   3.364   0.658  0.00  0.00     0.077 C 
ATOM      3  C1  PXY d   1       1.115   2.037   0.760  0.00  0.00    -0.082 A 
ATOM      4  C2  PXY d   1       1.469   1.169   1.694  0.00  0.00     0.003 A 
ATOM      5  C3  PXY d   1       0.845  -0.049   1.781  0.00  0.00     0.003 A 
ATOM      6  C4  PXY d   1      -0.187  -0.360   0.937  0.00  0.00    -0.082 A 
ATOM      7  C5  PXY d   1      -0.561   0.524  -0.012  0.00  0.00     0.003 A 
ATOM      8  C6  PXY d   1       0.113   1.738  -0.110  0.00  0.00     0.003 A 
ENDROOT
TORSDOF 0
ENDMDL
