MODEL 1
REMARK minimizedAffinity -5.42995977
REMARK minimizedRMSD -1
REMARK  0 active torsions:
REMARK  status: ('A' for Active; 'I' for Inactive)
ROOT
ATOM      1  C4' PXY d   1      -0.869  -0.185   1.828  0.00  0.00     0.077 C 
ATOM      2  C1' PXY d   1      -0.073  -3.334  -2.954  0.00  0.00     0.077 C 
ATOM      3  C1  PXY d   1      -0.286  -2.519  -1.694  0.00  0.00    -0.082 A 
ATOM      4  C2  PXY d   1      -0.456  -1.210  -1.782  0.00  0.00     0.003 A 
ATOM      5  C3  PXY d   1      -0.618  -0.453  -0.650  0.00  0.00     0.003 A 
ATOM      6  C4  PXY d   1      -0.660  -1.049   0.581  0.00  0.00    -0.082 A 
ATOM      7  C5  PXY d   1      -0.498  -2.386   0.679  0.00  0.00     0.003 A 
ATOM      8  C6  PXY d   1      -0.294  -3.131  -0.478  0.00  0.00     0.003 A 
ENDROOT
TORSDOF 0
ENDMDL
