MODEL 1
REMARK minimizedAffinity -2.73563981
REMARK minimizedRMSD -1
REMARK  0 active torsions:
REMARK  status: ('A' for Active; 'I' for Inactive)
ROOT
ATOM      1  C4' PXY d   1       0.222  -2.322  -2.964  0.00  0.00     0.077 C 
ATOM      2  C1' PXY d   1       0.232  -0.367   2.476  0.00  0.00     0.077 C 
ATOM      3  C1  PXY d   1       0.231  -0.892   1.054  0.00  0.00    -0.082 A 
ATOM      4  C2  PXY d   1       0.535  -0.078   0.056  0.00  0.00     0.003 A 
ATOM      5  C3  PXY d   1       0.508  -0.527  -1.239  0.00  0.00     0.003 A 
ATOM      6  C4  PXY d   1       0.219  -1.838  -1.511  0.00  0.00    -0.082 A 
ATOM      7  C5  PXY d   1      -0.081  -2.677  -0.498  0.00  0.00     0.003 A 
ATOM      8  C6  PXY d   1      -0.089  -2.191   0.806  0.00  0.00     0.003 A 
ENDROOT
TORSDOF 0
ENDMDL
