MODEL 1
REMARK minimizedAffinity -4.85841417
REMARK minimizedRMSD -1
REMARK  0 active torsions:
REMARK  status: ('A' for Active; 'I' for Inactive)
ROOT
ATOM      1  C4' PXY d   1      -1.216   1.823   0.113  0.00  0.00     0.077 C 
ATOM      2  C1' PXY d   1       0.270  -3.746  -0.333  0.00  0.00     0.077 C 
ATOM      3  C1  PXY d   1      -0.109  -2.282  -0.222  0.00  0.00    -0.082 A 
ATOM      4  C2  PXY d   1      -0.925  -1.889   0.742  0.00  0.00     0.003 A 
ATOM      5  C3  PXY d   1      -1.303  -0.574   0.837  0.00  0.00     0.003 A 
ATOM      6  C4  PXY d   1      -0.799   0.357  -0.031  0.00  0.00    -0.082 A 
ATOM      7  C5  PXY d   1       0.043  -0.035  -1.011  0.00  0.00     0.003 A 
ATOM      8  C6  PXY d   1       0.382  -1.381  -1.116  0.00  0.00     0.003 A 
ENDROOT
TORSDOF 0
ENDMDL
