MODEL 1
REMARK minimizedAffinity -5.504879
REMARK minimizedRMSD -1
REMARK  0 active torsions:
REMARK  status: ('A' for Active; 'I' for Inactive)
ROOT
ATOM      1  C4' PXY d   1       1.021   1.821   0.398  0.00  0.00     0.077 C 
ATOM      2  C1' PXY d   1      -0.108  -3.761  -0.590  0.00  0.00     0.077 C 
ATOM      3  C1  PXY d   1       0.177  -2.294  -0.338  0.00  0.00    -0.082 A 
ATOM      4  C2  PXY d   1       1.416  -1.902  -0.087  0.00  0.00     0.003 A 
ATOM      5  C3  PXY d   1       1.686  -0.584   0.176  0.00  0.00     0.003 A 
ATOM      6  C4  PXY d   1       0.688   0.352   0.128  0.00  0.00    -0.082 A 
ATOM      7  C5  PXY d   1      -0.577  -0.039  -0.138  0.00  0.00     0.003 A 
ATOM      8  C6  PXY d   1      -0.838  -1.388  -0.361  0.00  0.00     0.003 A 
ENDROOT
TORSDOF 0
ENDMDL
