MODEL 1
REMARK minimizedAffinity -5.80666208
REMARK minimizedRMSD -1
REMARK  0 active torsions:
REMARK  status: ('A' for Active; 'I' for Inactive)
ROOT
ATOM      1  C4' PXY d   1       0.042  -3.239  -2.923  0.00  0.00     0.077 C 
ATOM      2  C1' PXY d   1      -0.995  -0.047   1.783  0.00  0.00     0.077 C 
ATOM      3  C1  PXY d   1      -0.721  -0.895   0.557  0.00  0.00    -0.082 A 
ATOM      4  C2  PXY d   1      -0.306  -0.316  -0.559  0.00  0.00     0.003 A 
ATOM      5  C3  PXY d   1      -0.084  -1.063  -1.687  0.00  0.00     0.003 A 
ATOM      6  C4  PXY d   1      -0.238  -2.424  -1.658  0.00  0.00    -0.082 A 
ATOM      7  C5  PXY d   1      -0.650  -3.023  -0.520  0.00  0.00     0.003 A 
ATOM      8  C6  PXY d   1      -0.910  -2.241   0.602  0.00  0.00     0.003 A 
ENDROOT
TORSDOF 0
ENDMDL
