MODEL 1
REMARK minimizedAffinity -1.3928926
REMARK minimizedRMSD -1
REMARK  0 active torsions:
REMARK  status: ('A' for Active; 'I' for Inactive)
ROOT
ATOM      1  C4' PXY d   1       0.267  -1.305  -2.630  0.00  0.00     0.077 C 
ATOM      2  C1' PXY d   1      -1.459  -0.269   2.789  0.00  0.00     0.077 C 
ATOM      3  C1  PXY d   1      -1.006  -0.553   1.370  0.00  0.00    -0.082 A 
ATOM      4  C2  PXY d   1      -0.399   0.395   0.675  0.00  0.00     0.003 A 
ATOM      5  C3  PXY d   1      -0.011   0.165  -0.620  0.00  0.00     0.003 A 
ATOM      6  C4  PXY d   1      -0.199  -1.065  -1.191  0.00  0.00    -0.082 A 
ATOM      7  C5  PXY d   1      -0.808  -2.041  -0.485  0.00  0.00     0.003 A 
ATOM      8  C6  PXY d   1      -1.231  -1.775   0.814  0.00  0.00     0.003 A 
ENDROOT
TORSDOF 0
ENDMDL
