MODEL 1
REMARK minimizedAffinity -4.86782694
REMARK minimizedRMSD -1
REMARK  0 active torsions:
REMARK  status: ('A' for Active; 'I' for Inactive)
ROOT
ATOM      1  C4' PXY d   1       0.010  -4.083  -0.069  0.00  0.00     0.077 C 
ATOM      2  C1' PXY d   1      -0.160   1.684   0.284  0.00  0.00     0.077 C 
ATOM      3  C1  PXY d   1      -0.117   0.171   0.204  0.00  0.00    -0.082 A 
ATOM      4  C2  PXY d   1       0.485  -0.413  -0.819  0.00  0.00     0.003 A 
ATOM      5  C3  PXY d   1       0.505  -1.781  -0.923  0.00  0.00     0.003 A 
ATOM      6  C4  PXY d   1      -0.050  -2.559   0.057  0.00  0.00    -0.082 A 
ATOM      7  C5  PXY d   1      -0.656  -1.970   1.110  0.00  0.00     0.003 A 
ATOM      8  C6  PXY d   1      -0.702  -0.581   1.176  0.00  0.00     0.003 A 
ENDROOT
TORSDOF 0
ENDMDL
