MODEL 1
REMARK minimizedAffinity -2.64586949
REMARK minimizedRMSD -1
REMARK  0 active torsions:
REMARK  status: ('A' for Active; 'I' for Inactive)
ROOT
ATOM      1  C4' PXY d   1       1.445   2.873   0.369  0.00  0.00     0.077 C 
ATOM      2  C1' PXY d   1      -1.313  -2.190   0.777  0.00  0.00     0.077 C 
ATOM      3  C1  PXY d   1      -0.592  -0.862   0.657  0.00  0.00    -0.082 A 
ATOM      4  C2  PXY d   1       0.354  -0.550   1.527  0.00  0.00     0.003 A 
ATOM      5  C3  PXY d   1       0.994   0.660   1.453  0.00  0.00     0.003 A 
ATOM      6  C4  PXY d   1       0.698   1.539   0.445  0.00  0.00    -0.082 A 
ATOM      7  C5  PXY d   1      -0.259   1.224  -0.453  0.00  0.00     0.003 A 
ATOM      8  C6  PXY d   1      -0.925   0.008  -0.336  0.00  0.00     0.003 A 
ENDROOT
TORSDOF 0
ENDMDL
