MODEL 1
REMARK minimizedAffinity -3.83137345
REMARK minimizedRMSD -1
REMARK  0 active torsions:
REMARK  status: ('A' for Active; 'I' for Inactive)
ROOT
ATOM      1  C4' PXY d   1      -0.162  -4.076  -0.185  0.00  0.00     0.077 C 
ATOM      2  C1' PXY d   1      -0.050   1.598  -1.283  0.00  0.00     0.077 C 
ATOM      3  C1  PXY d   1      -0.082   0.108  -1.007  0.00  0.00    -0.082 A 
ATOM      4  C2  PXY d   1      -0.330  -0.326   0.218  0.00  0.00     0.003 A 
ATOM      5  C3  PXY d   1      -0.331  -1.670   0.491  0.00  0.00     0.003 A 
ATOM      6  C4  PXY d   1      -0.129  -2.580  -0.511  0.00  0.00    -0.082 A 
ATOM      7  C5  PXY d   1       0.114  -2.146  -1.766  0.00  0.00     0.003 A 
ATOM      8  C6  PXY d   1       0.152  -0.777  -2.014  0.00  0.00     0.003 A 
ENDROOT
TORSDOF 0
ENDMDL
