MODEL 1
REMARK minimizedAffinity -3.03540134
REMARK minimizedRMSD -1
REMARK  0 active torsions:
REMARK  status: ('A' for Active; 'I' for Inactive)
ROOT
ATOM      1  C4' PXY d   1       0.226   2.469   0.229  0.00  0.00     0.077 C 
ATOM      2  C1' PXY d   1      -0.930  -2.609  -2.278  0.00  0.00     0.077 C 
ATOM      3  C1  PXY d   1      -0.634  -1.281  -1.610  0.00  0.00    -0.082 A 
ATOM      4  C2  PXY d   1      -0.334  -0.228  -2.353  0.00  0.00     0.003 A 
ATOM      5  C3  PXY d   1      -0.032   0.973  -1.764  0.00  0.00     0.003 A 
ATOM      6  C4  PXY d   1      -0.089   1.111  -0.403  0.00  0.00    -0.082 A 
ATOM      7  C5  PXY d   1      -0.405   0.043   0.361  0.00  0.00     0.003 A 
ATOM      8  C6  PXY d   1      -0.668  -1.177  -0.254  0.00  0.00     0.003 A 
ENDROOT
TORSDOF 0
ENDMDL
