MODEL 1
REMARK minimizedAffinity -4.85216284
REMARK minimizedRMSD -1
REMARK  0 active torsions:
REMARK  status: ('A' for Active; 'I' for Inactive)
ROOT
ATOM      1  C4' PXY d   1       0.004   0.376  -2.975  0.00  0.00     0.077 C 
ATOM      2  C1' PXY d   1      -1.229  -3.992   0.605  0.00  0.00     0.077 C 
ATOM      3  C1  PXY d   1      -0.900  -2.855  -0.342  0.00  0.00    -0.082 A 
ATOM      4  C2  PXY d   1      -0.778  -1.625   0.130  0.00  0.00     0.003 A 
ATOM      5  C3  PXY d   1      -0.513  -0.580  -0.717  0.00  0.00     0.003 A 
ATOM      6  C4  PXY d   1      -0.318  -0.804  -2.054  0.00  0.00    -0.082 A 
ATOM      7  C5  PXY d   1      -0.430  -2.058  -2.541  0.00  0.00     0.003 A 
ATOM      8  C6  PXY d   1      -0.741  -3.098  -1.671  0.00  0.00     0.003 A 
ENDROOT
TORSDOF 0
ENDMDL
