MODEL 1
REMARK minimizedAffinity -4.48943186
REMARK minimizedRMSD -1
REMARK  0 active torsions:
REMARK  status: ('A' for Active; 'I' for Inactive)
ROOT
ATOM      1  C4' PXY d   1      -1.561  -1.872   0.751  0.00  0.00     0.077 C 
ATOM      2  C1' PXY d   1       1.533   3.005   0.514  0.00  0.00     0.077 C 
ATOM      3  C1  PXY d   1       0.729   1.721   0.586  0.00  0.00    -0.082 A 
ATOM      4  C2  PXY d   1       0.046   1.317  -0.473  0.00  0.00     0.003 A 
ATOM      5  C3  PXY d   1      -0.711   0.176  -0.415  0.00  0.00     0.003 A 
ATOM      6  C4  PXY d   1      -0.728  -0.588   0.721  0.00  0.00    -0.082 A 
ATOM      7  C5  PXY d   1      -0.025  -0.188   1.802  0.00  0.00     0.003 A 
ATOM      8  C6  PXY d   1       0.704   0.995   1.737  0.00  0.00     0.003 A 
ENDROOT
TORSDOF 0
ENDMDL
