MODEL 1
REMARK minimizedAffinity -3.64784503
REMARK minimizedRMSD -1
REMARK  0 active torsions:
REMARK  status: ('A' for Active; 'I' for Inactive)
ROOT
ATOM      1  C4' PXY d   1       0.860   3.505  -0.047  0.00  0.00     0.077 C 
ATOM      2  C1' PXY d   1      -0.628  -2.075  -0.297  0.00  0.00     0.077 C 
ATOM      3  C1  PXY d   1      -0.239  -0.611  -0.244  0.00  0.00    -0.082 A 
ATOM      4  C2  PXY d   1       0.460  -0.157   0.783  0.00  0.00     0.003 A 
ATOM      5  C3  PXY d   1       0.793   1.171   0.862  0.00  0.00     0.003 A 
ATOM      6  C4  PXY d   1       0.453   2.032  -0.146  0.00  0.00    -0.082 A 
ATOM      7  C5  PXY d   1      -0.251   1.574  -1.203  0.00  0.00     0.003 A 
ATOM      8  C6  PXY d   1      -0.615   0.231  -1.245  0.00  0.00     0.003 A 
ENDROOT
TORSDOF 0
ENDMDL
