MODEL 1
REMARK minimizedAffinity -4.84702826
REMARK minimizedRMSD -1
REMARK  0 active torsions:
REMARK  status: ('A' for Active; 'I' for Inactive)
ROOT
ATOM      1  C4' PXY d   1       1.180   3.094   0.292  0.00  0.00     0.077 C 
ATOM      2  C1' PXY d   1      -1.067  -2.183   1.015  0.00  0.00     0.077 C 
ATOM      3  C1  PXY d   1      -0.470  -0.801   0.835  0.00  0.00    -0.082 A 
ATOM      4  C2  PXY d   1      -1.183   0.149   0.254  0.00  0.00     0.003 A 
ATOM      5  C3  PXY d   1      -0.647   1.395   0.055  0.00  0.00     0.003 A 
ATOM      6  C4  PXY d   1       0.614   1.687   0.503  0.00  0.00    -0.082 A 
ATOM      7  C5  PXY d   1       1.344   0.725   1.106  0.00  0.00     0.003 A 
ATOM      8  C6  PXY d   1       0.796  -0.545   1.262  0.00  0.00     0.003 A 
ENDROOT
TORSDOF 0
ENDMDL
