MODEL 1
REMARK minimizedAffinity -0.106111512
REMARK minimizedRMSD -1
REMARK  3 active torsions:
REMARK  status: ('A' for Active; 'I' for Inactive)
REMARK    1  A    between atoms: C3'_2  and  C2'_3 
REMARK    2  A    between atoms: C2'_3  and  C1'_4 
REMARK    3  A    between atoms: C1'_4  and  C1_5 
ROOT
ATOM      1  C1  N4B d   1       0.619   1.443   0.770  0.00  0.00    -0.075 A 
ATOM      2  C2  N4B d   1       0.425   1.104  -0.587  0.00  0.00     0.002 A 
ATOM      3  C3  N4B d   1       0.372  -0.215  -0.965  0.00  0.00     0.002 A 
ATOM      4  C4  N4B d   1       0.528  -1.208  -0.010  0.00  0.00    -0.004 A 
ATOM      5  C5  N4B d   1       0.690  -0.873   1.302  0.00  0.00     0.002 A 
ATOM      6  C6  N4B d   1       0.741   0.449   1.697  0.00  0.00     0.002 A 
ENDROOT
BRANCH   1   7
ATOM      7  C1' N4B d   1       0.770   2.871   1.218  0.00  0.00     0.057 C 
BRANCH   7   8
ATOM      8  C2' N4B d   1       0.425   3.800   0.058  0.00  0.00     0.009 C 
BRANCH   8   9
ATOM      9  C3' N4B d   1       1.315   5.030   0.030  0.00  0.00     0.004 C 
ATOM     10  C4' N4B d   1       0.934   5.999  -1.049  0.00  0.00     0.003 C 
ENDBRANCH   8   9
ENDBRANCH   7   8
ENDBRANCH   1   7
TORSDOF 3
ENDMDL
