MODEL 1
REMARK minimizedAffinity -1.93099952
REMARK minimizedRMSD -1
REMARK  3 active torsions:
REMARK  status: ('A' for Active; 'I' for Inactive)
REMARK    1  A    between atoms: C3'_2  and  C2'_3 
REMARK    2  A    between atoms: C2'_3  and  C1'_4 
REMARK    3  A    between atoms: C1'_4  and  C1_5 
ROOT
ATOM      1  C1  N4B d   1       0.570   0.767   1.468  0.00  0.00    -0.075 A 
ATOM      2  C2  N4B d   1       0.812   1.857   2.332  0.00  0.00     0.002 A 
ATOM      3  C3  N4B d   1       0.894   3.131   1.824  0.00  0.00     0.002 A 
ATOM      4  C4  N4B d   1       0.757   3.335   0.459  0.00  0.00    -0.004 A 
ATOM      5  C5  N4B d   1       0.498   2.279  -0.366  0.00  0.00     0.002 A 
ATOM      6  C6  N4B d   1       0.409   0.995   0.132  0.00  0.00     0.002 A 
ENDROOT
BRANCH   1   7
ATOM      7  C1' N4B d   1       0.557  -0.653   1.965  0.00  0.00     0.057 C 
BRANCH   7   8
ATOM      8  C2' N4B d   1       1.709  -0.850   2.945  0.00  0.00     0.009 C 
BRANCH   8   9
ATOM      9  C3' N4B d   1       3.032  -1.071   2.231  0.00  0.00     0.004 C 
ATOM     10  C4' N4B d   1       4.135  -1.474   3.164  0.00  0.00     0.003 C 
ENDBRANCH   8   9
ENDBRANCH   7   8
ENDBRANCH   1   7
TORSDOF 3
ENDMDL
