MODEL 1
REMARK minimizedAffinity -0.790433466
REMARK minimizedRMSD -1
REMARK  3 active torsions:
REMARK  status: ('A' for Active; 'I' for Inactive)
REMARK    1  A    between atoms: C3'_2  and  C2'_3 
REMARK    2  A    between atoms: C2'_3  and  C1'_4 
REMARK    3  A    between atoms: C1'_4  and  C1_5 
ROOT
ATOM      1  C1  N4B d   1       2.250  -0.313   1.836  0.00  0.00    -0.075 A 
ATOM      2  C2  N4B d   1       1.255  -0.051   2.803  0.00  0.00     0.002 A 
ATOM      3  C3  N4B d   1       0.006   0.361   2.407  0.00  0.00     0.002 A 
ATOM      4  C4  N4B d   1      -0.264   0.536   1.058  0.00  0.00    -0.004 A 
ATOM      5  C5  N4B d   1       0.695   0.256   0.130  0.00  0.00     0.002 A 
ATOM      6  C6  N4B d   1       1.954  -0.163   0.512  0.00  0.00     0.002 A 
ENDROOT
BRANCH   1   7
ATOM      7  C1' N4B d   1       3.656  -0.683   2.224  0.00  0.00     0.057 C 
BRANCH   7   8
ATOM      8  C2' N4B d   1       3.622  -1.492   3.517  0.00  0.00     0.009 C 
BRANCH   8   9
ATOM      9  C3' N4B d   1       5.013  -1.910   3.962  0.00  0.00     0.004 C 
ATOM     10  C4' N4B d   1       4.998  -2.740   5.211  0.00  0.00     0.003 C 
ENDBRANCH   8   9
ENDBRANCH   7   8
ENDBRANCH   1   7
TORSDOF 3
ENDMDL
