MODEL 1
REMARK minimizedAffinity -2.92917252
REMARK minimizedRMSD -1
REMARK  3 active torsions:
REMARK  status: ('A' for Active; 'I' for Inactive)
REMARK    1  A    between atoms: C3'_2  and  C2'_3 
REMARK    2  A    between atoms: C2'_3  and  C1'_4 
REMARK    3  A    between atoms: C1'_4  and  C1_5 
ROOT
ATOM      1  C1  N4B d   1       0.819   3.127   1.904  0.00  0.00    -0.075 A 
ATOM      2  C2  N4B d   1       1.947   3.502   2.666  0.00  0.00     0.002 A 
ATOM      3  C3  N4B d   1       2.718   4.569   2.273  0.00  0.00     0.002 A 
ATOM      4  C4  N4B d   1       2.392   5.261   1.117  0.00  0.00    -0.004 A 
ATOM      5  C5  N4B d   1       1.286   4.909   0.400  0.00  0.00     0.002 A 
ATOM      6  C6  N4B d   1       0.500   3.841   0.785  0.00  0.00     0.002 A 
ENDROOT
BRANCH   1   7
ATOM      7  C1' N4B d   1      -0.003   1.915   2.247  0.00  0.00     0.057 C 
BRANCH   7   8
ATOM      8  C2' N4B d   1      -0.434   1.222   0.958  0.00  0.00     0.009 C 
BRANCH   8   9
ATOM      9  C3' N4B d   1       0.711   0.459   0.313  0.00  0.00     0.004 C 
ATOM     10  C4' N4B d   1       1.499  -0.350   1.300  0.00  0.00     0.003 C 
ENDBRANCH   8   9
ENDBRANCH   7   8
ENDBRANCH   1   7
TORSDOF 3
ENDMDL
