MODEL 1
REMARK minimizedAffinity -2.4691453
REMARK minimizedRMSD -1
REMARK  0 active torsions:
REMARK  status: ('A' for Active; 'I' for Inactive)
ROOT
ATOM      1  C   UNL d   1       4.467   1.443  -1.496  0.00  0.00     0.172 C 
ATOM      2  N   UNL d   1       3.319   0.875  -0.829  0.00  0.00    -0.070 N 
ATOM      3  C1  UNL d   1       2.327   1.583  -0.205  0.00  0.00    -0.004 A 
ATOM      4  C2  UNL d   1       1.419   0.679   0.303  0.00  0.00    -0.047 A 
ATOM      5  C3  UNL d   1       1.882  -0.617  -0.027  0.00  0.00    -0.047 A 
ATOM      6  C4  UNL d   1       3.060  -0.467  -0.727  0.00  0.00    -0.004 A 
ENDROOT
TORSDOF 0
ENDMDL
