MODEL 1
REMARK minimizedAffinity 1.71952319
REMARK minimizedRMSD -1
REMARK  0 active torsions:
REMARK  status: ('A' for Active; 'I' for Inactive)
ROOT
ATOM      1  C   UNL d   1       2.331  -0.005  -0.479  0.00  0.00     0.172 C 
ATOM      2  N   UNL d   1       3.483   0.764  -0.887  0.00  0.00    -0.070 N 
ATOM      3  C1  UNL d   1       3.561   1.552  -2.004  0.00  0.00    -0.004 A 
ATOM      4  C2  UNL d   1       4.819   2.114  -2.037  0.00  0.00    -0.047 A 
ATOM      5  C3  UNL d   1       5.522   1.645  -0.902  0.00  0.00    -0.047 A 
ATOM      6  C4  UNL d   1       4.671   0.811  -0.208  0.00  0.00    -0.004 A 
ENDROOT
TORSDOF 0
ENDMDL
