MODEL 1
REMARK minimizedAffinity -1.06876957
REMARK minimizedRMSD -1
REMARK  0 active torsions:
REMARK  status: ('A' for Active; 'I' for Inactive)
ROOT
ATOM      1  C   UNL d   1       1.651  -1.010   0.182  0.00  0.00     0.172 C 
ATOM      2  N   UNL d   1       2.446   0.134  -0.196  0.00  0.00    -0.070 N 
ATOM      3  C1  UNL d   1       1.958   1.345  -0.607  0.00  0.00    -0.004 A 
ATOM      4  C2  UNL d   1       3.032   2.166  -0.873  0.00  0.00    -0.047 A 
ATOM      5  C3  UNL d   1       4.208   1.422  -0.613  0.00  0.00    -0.047 A 
ATOM      6  C4  UNL d   1       3.816   0.168  -0.195  0.00  0.00    -0.004 A 
ENDROOT
TORSDOF 0
ENDMDL
