MODEL 1
REMARK minimizedAffinity 2.56756783
REMARK minimizedRMSD -1
REMARK  0 active torsions:
REMARK  status: ('A' for Active; 'I' for Inactive)
ROOT
ATOM      1  C   UNL d   1       1.934  -0.648  -0.877  0.00  0.00     0.172 C 
ATOM      2  N   UNL d   1       0.653  -1.267  -0.631  0.00  0.00    -0.070 N 
ATOM      3  C1  UNL d   1       0.244  -1.810   0.558  0.00  0.00    -0.004 A 
ATOM      4  C2  UNL d   1      -1.034  -2.296   0.382  0.00  0.00    -0.047 A 
ATOM      5  C3  UNL d   1      -1.406  -2.036  -0.958  0.00  0.00    -0.047 A 
ATOM      6  C4  UNL d   1      -0.343  -1.398  -1.563  0.00  0.00    -0.004 A 
ENDROOT
TORSDOF 0
ENDMDL
