MODEL 1
REMARK minimizedAffinity 1.22199321
REMARK minimizedRMSD -1
REMARK  0 active torsions:
REMARK  status: ('A' for Active; 'I' for Inactive)
ROOT
ATOM      1  C   UNL d   1       5.418   0.797  -0.996  0.00  0.00     0.172 C 
ATOM      2  N   UNL d   1       4.326  -0.103  -1.283  0.00  0.00    -0.070 N 
ATOM      3  C1  UNL d   1       3.366  -0.503  -0.392  0.00  0.00    -0.004 A 
ATOM      4  C2  UNL d   1       2.509  -1.358  -1.051  0.00  0.00    -0.047 A 
ATOM      5  C3  UNL d   1       2.971  -1.478  -2.383  0.00  0.00    -0.047 A 
ATOM      6  C4  UNL d   1       4.097  -0.690  -2.499  0.00  0.00    -0.004 A 
ENDROOT
TORSDOF 0
ENDMDL
