MODEL 1
REMARK minimizedAffinity 4.70016718
REMARK minimizedRMSD -1
REMARK  0 active torsions:
REMARK  status: ('A' for Active; 'I' for Inactive)
ROOT
ATOM      1  C   UNL d   1       2.598   1.876  -0.697  0.00  0.00     0.172 C 
ATOM      2  N   UNL d   1       3.936   2.413  -0.777  0.00  0.00    -0.070 N 
ATOM      3  C1  UNL d   1       4.497   2.999  -1.880  0.00  0.00    -0.004 A 
ATOM      4  C2  UNL d   1       5.780   3.378  -1.550  0.00  0.00    -0.047 A 
ATOM      5  C3  UNL d   1       5.999   3.006  -0.203  0.00  0.00    -0.047 A 
ATOM      6  C4  UNL d   1       4.841   2.411   0.252  0.00  0.00    -0.004 A 
ENDROOT
TORSDOF 0
ENDMDL
