MODEL 1
REMARK minimizedAffinity 8.81430912
REMARK minimizedRMSD -1
REMARK  0 active torsions:
REMARK  status: ('A' for Active; 'I' for Inactive)
ROOT
ATOM      1  N1  IND d   1      -0.547  -4.297   1.154  0.00  0.00    -0.196 N 
ATOM      2  C2  IND d   1      -1.391  -3.375   1.709  0.00  0.00     0.054 A 
ATOM      3  C3  IND d   1      -0.731  -2.221   1.954  0.00  0.00    -0.031 A 
ATOM      4  C4  IND d   1       1.709  -1.589   1.430  0.00  0.00     0.051 A 
ATOM      5  C5  IND d   1       2.879  -2.113   0.957  0.00  0.00    -0.031 A 
ATOM      6  C6  IND d   1       2.969  -3.416   0.514  0.00  0.00     0.015 A 
ATOM      7  C7  IND d   1       1.883  -4.246   0.517  0.00  0.00    -0.016 A 
ATOM      8  C8  IND d   1       0.694  -3.720   1.003  0.00  0.00    -0.047 A 
ATOM      9  C9  IND d   1       0.608  -2.410   1.494  0.00  0.00    -0.096 A 
ATOM     10  HN1 IND d   1      -0.757  -5.102   0.936  0.00  0.00     0.298 HD
ENDROOT
TORSDOF 0
ENDMDL
