MODEL 1
REMARK minimizedAffinity 11.8412886
REMARK minimizedRMSD -1
REMARK  0 active torsions:
REMARK  status: ('A' for Active; 'I' for Inactive)
ROOT
ATOM      1  N1  IND d   1      -3.234   3.518  -3.741  0.00  0.00    -0.196 N 
ATOM      2  C2  IND d   1      -4.122   3.612  -4.776  0.00  0.00     0.054 A 
ATOM      3  C3  IND d   1      -4.880   2.495  -4.848  0.00  0.00    -0.031 A 
ATOM      4  C4  IND d   1      -4.903   0.432  -3.308  0.00  0.00     0.051 A 
ATOM      5  C5  IND d   1      -4.247  -0.128  -2.248  0.00  0.00    -0.031 A 
ATOM      6  C6  IND d   1      -3.201   0.513  -1.617  0.00  0.00     0.015 A 
ATOM      7  C7  IND d   1      -2.776   1.748  -2.017  0.00  0.00    -0.016 A 
ATOM      8  C8  IND d   1      -3.435   2.317  -3.098  0.00  0.00    -0.047 A 
ATOM      9  C9  IND d   1      -4.470   1.653  -3.769  0.00  0.00    -0.096 A 
ATOM     10  HN1 IND d   1      -2.647   4.110  -3.528  0.00  0.00     0.298 HD
ENDROOT
TORSDOF 0
ENDMDL
