MODEL 1
REMARK minimizedAffinity 4.82088995
REMARK minimizedRMSD -1
REMARK  0 active torsions:
REMARK  status: ('A' for Active; 'I' for Inactive)
ROOT
ATOM      1  N1  IND d   1       0.445   4.331  -4.673  0.00  0.00    -0.196 N 
ATOM      2  C2  IND d   1       0.824   5.237  -5.624  0.00  0.00     0.054 A 
ATOM      3  C3  IND d   1      -0.230   5.999  -5.993  0.00  0.00    -0.031 A 
ATOM      4  C4  IND d   1      -2.643   5.999  -5.096  0.00  0.00     0.051 A 
ATOM      5  C5  IND d   1      -3.477   5.326  -4.248  0.00  0.00    -0.031 A 
ATOM      6  C6  IND d   1      -3.037   4.267  -3.481  0.00  0.00     0.015 A 
ATOM      7  C7  IND d   1      -1.738   3.847  -3.525  0.00  0.00    -0.016 A 
ATOM      8  C8  IND d   1      -0.890   4.524  -4.390  0.00  0.00    -0.047 A 
ATOM      9  C9  IND d   1      -1.341   5.572  -5.203  0.00  0.00    -0.096 A 
ATOM     10  HN1 IND d   1       0.954   3.739  -4.313  0.00  0.00     0.298 HD
ENDROOT
TORSDOF 0
ENDMDL
