MODEL 1
REMARK minimizedAffinity 7.56517887
REMARK minimizedRMSD -1
REMARK  0 active torsions:
REMARK  status: ('A' for Active; 'I' for Inactive)
ROOT
ATOM      1  N1  IND d   1      -3.276   2.978  -2.960  0.00  0.00    -0.196 N 
ATOM      2  C2  IND d   1      -2.219   3.122  -3.814  0.00  0.00     0.054 A 
ATOM      3  C3  IND d   1      -1.462   2.002  -3.819  0.00  0.00    -0.031 A 
ATOM      4  C4  IND d   1      -1.828  -0.225  -2.581  0.00  0.00     0.051 A 
ATOM      5  C5  IND d   1      -2.637  -0.823  -1.656  0.00  0.00    -0.031 A 
ATOM      6  C6  IND d   1      -3.724  -0.172  -1.109  0.00  0.00     0.015 A 
ATOM      7  C7  IND d   1      -4.050   1.102  -1.477  0.00  0.00    -0.016 A 
ATOM      8  C8  IND d   1      -3.227   1.715  -2.411  0.00  0.00    -0.047 A 
ATOM      9  C9  IND d   1      -2.098   1.075  -2.938  0.00  0.00    -0.096 A 
ATOM     10  HN1 IND d   1      -3.872   3.575  -2.793  0.00  0.00     0.298 HD
ENDROOT
TORSDOF 0
ENDMDL
