MODEL 1
REMARK minimizedAffinity 18.1116409
REMARK minimizedRMSD -1
REMARK  0 active torsions:
REMARK  status: ('A' for Active; 'I' for Inactive)
ROOT
ATOM      1  N1  IND d   1       2.743  -2.840   1.413  0.00  0.00    -0.196 N 
ATOM      2  C2  IND d   1       1.609  -2.460   0.751  0.00  0.00     0.054 A 
ATOM      3  C3  IND d   1       1.906  -1.560  -0.213  0.00  0.00    -0.031 A 
ATOM      4  C4  IND d   1       4.198  -0.645  -0.945  0.00  0.00     0.051 A 
ATOM      5  C5  IND d   1       5.523  -0.670  -0.614  0.00  0.00    -0.031 A 
ATOM      6  C6  IND d   1       6.000  -1.437   0.429  0.00  0.00     0.015 A 
ATOM      7  C7  IND d   1       5.166  -2.220   1.176  0.00  0.00    -0.016 A 
ATOM      8  C8  IND d   1       3.818  -2.192   0.847  0.00  0.00    -0.047 A 
ATOM      9  C9  IND d   1       3.323  -1.383  -0.183  0.00  0.00    -0.096 A 
ATOM     10  HN1 IND d   1       2.778  -3.391   2.072  0.00  0.00     0.298 HD
ENDROOT
TORSDOF 0
ENDMDL
