MODEL 1
REMARK minimizedAffinity 9.30937767
REMARK minimizedRMSD -1
REMARK  0 active torsions:
REMARK  status: ('A' for Active; 'I' for Inactive)
ROOT
ATOM      1  N1  IND d   1      -0.441  -2.253   2.236  0.00  0.00    -0.196 N 
ATOM      2  C2  IND d   1       0.197  -1.059   2.421  0.00  0.00     0.054 A 
ATOM      3  C3  IND d   1       1.405  -1.072   1.815  0.00  0.00    -0.031 A 
ATOM      4  C4  IND d   1       2.495  -2.910   0.379  0.00  0.00     0.051 A 
ATOM      5  C5  IND d   1       2.312  -4.196  -0.044  0.00  0.00    -0.031 A 
ATOM      6  C6  IND d   1       1.178  -4.915   0.275  0.00  0.00     0.015 A 
ATOM      7  C7  IND d   1       0.175  -4.367   1.023  0.00  0.00    -0.016 A 
ATOM      8  C8  IND d   1       0.360  -3.063   1.461  0.00  0.00    -0.047 A 
ATOM      9  C9  IND d   1       1.528  -2.344   1.176  0.00  0.00    -0.096 A 
ATOM     10  HN1 IND d   1      -1.213  -2.464   2.550  0.00  0.00     0.298 HD
ENDROOT
TORSDOF 0
ENDMDL
