MODEL 1
REMARK minimizedAffinity 14.1858788
REMARK minimizedRMSD -1
REMARK  0 active torsions:
REMARK  status: ('A' for Active; 'I' for Inactive)
ROOT
ATOM      1  N1  IND d   1      -1.639   0.255   3.831  0.00  0.00    -0.196 N 
ATOM      2  C2  IND d   1      -1.363  -0.682   2.874  0.00  0.00     0.054 A 
ATOM      3  C3  IND d   1      -2.355  -0.724   1.957  0.00  0.00    -0.031 A 
ATOM      4  C4  IND d   1      -4.476   0.723   1.773  0.00  0.00     0.051 A 
ATOM      5  C5  IND d   1      -5.181   1.689   2.434  0.00  0.00    -0.031 A 
ATOM      6  C6  IND d   1      -4.732   2.239   3.617  0.00  0.00     0.015 A 
ATOM      7  C7  IND d   1      -3.549   1.850   4.180  0.00  0.00    -0.016 A 
ATOM      8  C8  IND d   1      -2.833   0.865   3.515  0.00  0.00    -0.047 A 
ATOM      9  C9  IND d   1      -3.305   0.272   2.336  0.00  0.00    -0.096 A 
ATOM     10  HN1 IND d   1      -1.150   0.433   4.515  0.00  0.00     0.298 HD
ENDROOT
TORSDOF 0
ENDMDL
