MODEL 1
REMARK minimizedAffinity 17.9731369
REMARK minimizedRMSD -1
REMARK  0 active torsions:
REMARK  status: ('A' for Active; 'I' for Inactive)
ROOT
ATOM      1  N1  IND d   1      -3.530   1.017   3.347  0.00  0.00    -0.196 N 
ATOM      2  C2  IND d   1      -4.498   1.732   2.699  0.00  0.00     0.054 A 
ATOM      3  C3  IND d   1      -4.621   1.306   1.421  0.00  0.00    -0.031 A 
ATOM      4  C4  IND d   1      -3.408  -0.617   0.215  0.00  0.00     0.051 A 
ATOM      5  C5  IND d   1      -2.411  -1.536   0.384  0.00  0.00    -0.031 A 
ATOM      6  C6  IND d   1      -1.723  -1.655   1.575  0.00  0.00     0.015 A 
ATOM      7  C7  IND d   1      -2.017  -0.864   2.649  0.00  0.00    -0.016 A 
ATOM      8  C8  IND d   1      -3.024   0.075   2.478  0.00  0.00    -0.047 A 
ATOM      9  C9  IND d   1      -3.696   0.229   1.259  0.00  0.00    -0.096 A 
ATOM     10  HN1 IND d   1      -3.279   1.136   4.161  0.00  0.00     0.298 HD
ENDROOT
TORSDOF 0
ENDMDL
