MODEL 1
REMARK minimizedAffinity -1.44201803
REMARK minimizedRMSD -1
REMARK  0 active torsions:
REMARK  status: ('A' for Active; 'I' for Inactive)
ROOT
ATOM      1  C   UNL d   1      -1.181  -1.791   1.816  0.00  0.00     0.077 C 
ATOM      2  C1  UNL d   1      -0.133  -0.997   1.094  0.00  0.00    -0.074 A 
ATOM      3  C2  UNL d   1      -0.488  -0.036   0.142  0.00  0.00    -0.005 A 
ATOM      4  C3  UNL d   1       0.497   0.701  -0.514  0.00  0.00     0.006 A 
ATOM      5  C4  UNL d   1       1.845   0.486  -0.226  0.00  0.00    -0.005 A 
ATOM      6  C5  UNL d   1       2.219  -0.470   0.724  0.00  0.00    -0.074 A 
ATOM      7  C6  UNL d   1       3.663  -0.707   1.052  0.00  0.00     0.077 C 
ATOM      8  C7  UNL d   1       1.223  -1.202   1.384  0.00  0.00    -0.001 A 
ENDROOT
TORSDOF 0
ENDMDL
