MODEL 1
REMARK minimizedAffinity -5.16971874
REMARK minimizedRMSD -1
REMARK  0 active torsions:
REMARK  status: ('A' for Active; 'I' for Inactive)
ROOT
ATOM      1  C   UNL d   1      -0.358   2.569   0.246  0.00  0.00     0.077 C 
ATOM      2  C1  UNL d   1      -0.690   2.918  -1.174  0.00  0.00    -0.074 A 
ATOM      3  C2  UNL d   1      -0.023   3.954  -1.835  0.00  0.00    -0.005 A 
ATOM      4  C3  UNL d   1      -0.336   4.261  -3.159  0.00  0.00     0.006 A 
ATOM      5  C4  UNL d   1      -1.317   3.535  -3.835  0.00  0.00    -0.005 A 
ATOM      6  C5  UNL d   1      -1.994   2.494  -3.191  0.00  0.00    -0.074 A 
ATOM      7  C6  UNL d   1      -3.044   1.697  -3.907  0.00  0.00     0.077 C 
ATOM      8  C7  UNL d   1      -1.669   2.188  -1.863  0.00  0.00    -0.001 A 
ENDROOT
TORSDOF 0
ENDMDL
