MODEL 1
REMARK minimizedAffinity -4.94927073
REMARK minimizedRMSD -1
REMARK  0 active torsions:
REMARK  status: ('A' for Active; 'I' for Inactive)
ROOT
ATOM      1  C   UNL d   1      -0.429   4.362  -3.474  0.00  0.00     0.077 C 
ATOM      2  C1  UNL d   1      -1.048   3.141  -2.861  0.00  0.00    -0.074 A 
ATOM      3  C2  UNL d   1      -2.348   2.748  -3.196  0.00  0.00    -0.005 A 
ATOM      4  C3  UNL d   1      -2.907   1.605  -2.625  0.00  0.00     0.006 A 
ATOM      5  C4  UNL d   1      -2.173   0.844  -1.715  0.00  0.00    -0.005 A 
ATOM      6  C5  UNL d   1      -0.871   1.220  -1.368  0.00  0.00    -0.074 A 
ATOM      7  C6  UNL d   1      -0.065   0.408  -0.398  0.00  0.00     0.077 C 
ATOM      8  C7  UNL d   1      -0.314   2.367  -1.951  0.00  0.00    -0.001 A 
ENDROOT
TORSDOF 0
ENDMDL
