MODEL 1
REMARK minimizedAffinity -4.76700401
REMARK minimizedRMSD -1
REMARK  0 active torsions:
REMARK  status: ('A' for Active; 'I' for Inactive)
ROOT
ATOM      1  C   UNL d   1       3.040   0.815  -0.502  0.00  0.00     0.077 C 
ATOM      2  C1  UNL d   1       1.749   0.228  -0.014  0.00  0.00    -0.074 A 
ATOM      3  C2  UNL d   1       1.692  -1.085   0.465  0.00  0.00    -0.005 A 
ATOM      4  C3  UNL d   1       0.486  -1.614   0.924  0.00  0.00     0.006 A 
ATOM      5  C4  UNL d   1      -0.673  -0.837   0.909  0.00  0.00    -0.005 A 
ATOM      6  C5  UNL d   1      -0.635   0.478   0.435  0.00  0.00    -0.074 A 
ATOM      7  C6  UNL d   1      -1.870   1.329   0.421  0.00  0.00     0.077 C 
ATOM      8  C7  UNL d   1       0.582   1.005  -0.019  0.00  0.00    -0.001 A 
ENDROOT
TORSDOF 0
ENDMDL
