MODEL 1
REMARK minimizedAffinity -5.22577143
REMARK minimizedRMSD -1
REMARK  0 active torsions:
REMARK  status: ('A' for Active; 'I' for Inactive)
ROOT
ATOM      1  C   UNL d   1       1.098  -3.345   1.531  0.00  0.00     0.077 C 
ATOM      2  C1  UNL d   1       1.257  -2.002   0.881  0.00  0.00    -0.074 A 
ATOM      3  C2  UNL d   1       2.507  -1.378   0.817  0.00  0.00    -0.005 A 
ATOM      4  C3  UNL d   1       2.642  -0.134   0.201  0.00  0.00     0.006 A 
ATOM      5  C4  UNL d   1       1.529   0.497  -0.357  0.00  0.00    -0.005 A 
ATOM      6  C5  UNL d   1       0.272  -0.112  -0.304  0.00  0.00    -0.074 A 
ATOM      7  C6  UNL d   1      -0.932   0.549  -0.907  0.00  0.00     0.077 C 
ATOM      8  C7  UNL d   1       0.146  -1.365   0.311  0.00  0.00    -0.001 A 
ENDROOT
TORSDOF 0
ENDMDL
