MODEL 1
REMARK minimizedAffinity 2.58674502
REMARK minimizedRMSD -1
REMARK  0 active torsions:
REMARK  status: ('A' for Active; 'I' for Inactive)
ROOT
ATOM      1  C   UNL d   1      -2.504   2.254  -3.369  0.00  0.00     0.077 C 
ATOM      2  C1  UNL d   1      -1.906   1.554  -2.184  0.00  0.00    -0.074 A 
ATOM      3  C2  UNL d   1      -2.668   0.674  -1.409  0.00  0.00    -0.005 A 
ATOM      4  C3  UNL d   1      -2.096   0.023  -0.316  0.00  0.00     0.006 A 
ATOM      5  C4  UNL d   1      -0.758   0.246   0.013  0.00  0.00    -0.005 A 
ATOM      6  C5  UNL d   1       0.020   1.123  -0.751  0.00  0.00    -0.074 A 
ATOM      7  C6  UNL d   1       1.461   1.366  -0.417  0.00  0.00     0.077 C 
ATOM      8  C7  UNL d   1      -0.561   1.767  -1.852  0.00  0.00    -0.001 A 
ENDROOT
TORSDOF 0
ENDMDL
