MODEL 1
REMARK minimizedAffinity -2.49288416
REMARK minimizedRMSD -1
REMARK  0 active torsions:
REMARK  status: ('A' for Active; 'I' for Inactive)
ROOT
ATOM      1  C   UNL d   1      -0.759   3.796  -3.900  0.00  0.00     0.077 C 
ATOM      2  C1  UNL d   1      -1.470   2.710  -3.149  0.00  0.00    -0.074 A 
ATOM      3  C2  UNL d   1      -2.630   2.121  -3.664  0.00  0.00    -0.005 A 
ATOM      4  C3  UNL d   1      -3.276   1.106  -2.959  0.00  0.00     0.006 A 
ATOM      5  C4  UNL d   1      -2.770   0.669  -1.734  0.00  0.00    -0.005 A 
ATOM      6  C5  UNL d   1      -1.611   1.245  -1.204  0.00  0.00    -0.074 A 
ATOM      7  C6  UNL d   1      -1.048   0.781   0.107  0.00  0.00     0.077 C 
ATOM      8  C7  UNL d   1      -0.964   2.260  -1.922  0.00  0.00    -0.001 A 
ENDROOT
TORSDOF 0
ENDMDL
