MODEL 1
REMARK minimizedAffinity -5.62609053
REMARK minimizedRMSD -1
REMARK  0 active torsions:
REMARK  status: ('A' for Active; 'I' for Inactive)
ROOT
ATOM      1  C   UNL d   1       1.134  -2.736   1.981  0.00  0.00     0.077 C 
ATOM      2  C1  UNL d   1       1.276  -1.523   1.111  0.00  0.00    -0.074 A 
ATOM      3  C2  UNL d   1       2.527  -1.128   0.628  0.00  0.00    -0.005 A 
ATOM      4  C3  UNL d   1       2.642  -0.002  -0.188  0.00  0.00     0.006 A 
ATOM      5  C4  UNL d   1       1.509   0.737  -0.529  0.00  0.00    -0.005 A 
ATOM      6  C5  UNL d   1       0.250   0.356  -0.056  0.00  0.00    -0.074 A 
ATOM      7  C6  UNL d   1      -0.980   1.135  -0.421  0.00  0.00     0.077 C 
ATOM      8  C7  UNL d   1       0.141  -0.779   0.757  0.00  0.00    -0.001 A 
ENDROOT
TORSDOF 0
ENDMDL
