MODEL 1
REMARK minimizedAffinity -4.54813528
REMARK minimizedRMSD -1
REMARK  0 active torsions:
REMARK  status: ('A' for Active; 'I' for Inactive)
ROOT
ATOM      1  C   UNL d   1      -0.740   1.774  -1.116  0.00  0.00     0.077 C 
ATOM      2  C1  UNL d   1      -0.886   0.743  -0.037  0.00  0.00    -0.074 A 
ATOM      3  C2  UNL d   1      -1.748   0.952   1.044  0.00  0.00    -0.005 A 
ATOM      4  C3  UNL d   1      -1.881  -0.020   2.036  0.00  0.00     0.006 A 
ATOM      5  C4  UNL d   1      -1.154  -1.209   1.956  0.00  0.00    -0.005 A 
ATOM      6  C5  UNL d   1      -0.288  -1.436   0.882  0.00  0.00    -0.074 A 
ATOM      7  C6  UNL d   1       0.493  -2.712   0.776  0.00  0.00     0.077 C 
ATOM      8  C7  UNL d   1      -0.165  -0.457  -0.114  0.00  0.00    -0.001 A 
ENDROOT
TORSDOF 0
ENDMDL
