MODEL 1
REMARK minimizedAffinity -5.47582293
REMARK minimizedRMSD -1
REMARK  0 active torsions:
REMARK  status: ('A' for Active; 'I' for Inactive)
ROOT
ATOM      1  C   UNL d   1       1.560  -3.069   2.249  0.00  0.00     0.077 C 
ATOM      2  C1  UNL d   1       0.539  -2.152   1.644  0.00  0.00    -0.074 A 
ATOM      3  C2  UNL d   1      -0.569  -1.723   2.383  0.00  0.00    -0.005 A 
ATOM      4  C3  UNL d   1      -1.505  -0.863   1.811  0.00  0.00     0.006 A 
ATOM      5  C4  UNL d   1      -1.345  -0.423   0.497  0.00  0.00    -0.005 A 
ATOM      6  C5  UNL d   1      -0.243  -0.841  -0.257  0.00  0.00    -0.074 A 
ATOM      7  C6  UNL d   1      -0.050  -0.370  -1.668  0.00  0.00     0.077 C 
ATOM      8  C7  UNL d   1       0.697  -1.700   0.327  0.00  0.00    -0.001 A 
ENDROOT
TORSDOF 0
ENDMDL
