MODEL 1
REMARK minimizedAffinity -4.00266123
REMARK minimizedRMSD -1
REMARK  0 active torsions:
REMARK  status: ('A' for Active; 'I' for Inactive)
ROOT
ATOM      1  C   UNL d   1       1.561  -2.667   0.818  0.00  0.00     0.077 C 
ATOM      2  C1  UNL d   1       1.239  -1.333   0.213  0.00  0.00    -0.074 A 
ATOM      3  C2  UNL d   1       2.139  -0.697  -0.647  0.00  0.00    -0.005 A 
ATOM      4  C3  UNL d   1       1.821   0.540  -1.209  0.00  0.00     0.006 A 
ATOM      5  C4  UNL d   1       0.602   1.152  -0.917  0.00  0.00    -0.005 A 
ATOM      6  C5  UNL d   1      -0.312   0.531  -0.059  0.00  0.00    -0.074 A 
ATOM      7  C6  UNL d   1      -1.631   1.170   0.259  0.00  0.00     0.077 C 
ATOM      8  C7  UNL d   1       0.012  -0.715   0.496  0.00  0.00    -0.001 A 
ENDROOT
TORSDOF 0
ENDMDL
