MODEL 1
REMARK minimizedAffinity -3.44995689
REMARK minimizedRMSD -1
REMARK  0 active torsions:
REMARK  status: ('A' for Active; 'I' for Inactive)
ROOT
ATOM      1  C   UNL d   1       1.530  -3.300   1.251  0.00  0.00     0.077 C 
ATOM      2  C1  UNL d   1       1.496  -1.921   0.664  0.00  0.00    -0.074 A 
ATOM      3  C2  UNL d   1       2.658  -1.321   0.169  0.00  0.00    -0.005 A 
ATOM      4  C3  UNL d   1       2.609  -0.041  -0.383  0.00  0.00     0.006 A 
ATOM      5  C4  UNL d   1       1.398   0.651  -0.447  0.00  0.00    -0.005 A 
ATOM      6  C5  UNL d   1       0.225   0.066   0.042  0.00  0.00    -0.074 A 
ATOM      7  C6  UNL d   1      -1.086   0.792  -0.028  0.00  0.00     0.077 C 
ATOM      8  C7  UNL d   1       0.282  -1.223   0.589  0.00  0.00    -0.001 A 
ENDROOT
TORSDOF 0
ENDMDL
