MODEL 1
REMARK minimizedAffinity -4.08934689
REMARK minimizedRMSD -1
REMARK  0 active torsions:
REMARK  status: ('A' for Active; 'I' for Inactive)
ROOT
ATOM      1  C   UNL d   1       0.012   5.672  -4.546  0.00  0.00     0.077 C 
ATOM      2  C1  UNL d   1      -0.501   4.525  -3.727  0.00  0.00    -0.074 A 
ATOM      3  C2  UNL d   1      -0.299   4.483  -2.343  0.00  0.00    -0.005 A 
ATOM      4  C3  UNL d   1      -0.791   3.415  -1.593  0.00  0.00     0.006 A 
ATOM      5  C4  UNL d   1      -1.489   2.381  -2.217  0.00  0.00    -0.005 A 
ATOM      6  C5  UNL d   1      -1.702   2.406  -3.599  0.00  0.00    -0.074 A 
ATOM      7  C6  UNL d   1      -2.459   1.307  -4.284  0.00  0.00     0.077 C 
ATOM      8  C7  UNL d   1      -1.211   3.486  -4.345  0.00  0.00    -0.001 A 
ENDROOT
TORSDOF 0
ENDMDL
