MODEL 1
REMARK minimizedAffinity -4.30424929
REMARK minimizedRMSD -1
REMARK  1 active torsions:
REMARK  status: ('A' for Active; 'I' for Inactive)
REMARK    1  A    between atoms: C1_2  and  C2_3 
ROOT
ATOM      1  C2  UNL d   1      -1.001  -0.937  -0.299  0.00  0.00    -0.077 A 
ATOM      2  C3  UNL d   1      -1.809  -0.281   0.641  0.00  0.00     0.002 A 
ATOM      3  C4  UNL d   1      -1.253   0.643   1.527  0.00  0.00     0.002 A 
ATOM      4  C5  UNL d   1       0.112   0.922   1.480  0.00  0.00    -0.004 A 
ATOM      5  C6  UNL d   1       0.924   0.273   0.551  0.00  0.00     0.002 A 
ATOM      6  C7  UNL d   1       0.370  -0.652  -0.335  0.00  0.00     0.002 A 
ENDROOT
BRANCH   1   7
ATOM      7  C1  UNL d   1      -1.607  -1.898  -1.289  0.00  0.00     0.055 C 
ATOM      8  C   UNL d   1      -1.802  -1.242  -2.648  0.00  0.00     0.019 C 
ENDBRANCH   1   7
TORSDOF 1
ENDMDL
