MODEL 1
REMARK minimizedAffinity -3.38255548
REMARK minimizedRMSD -1
REMARK  1 active torsions:
REMARK  status: ('A' for Active; 'I' for Inactive)
REMARK    1  A    between atoms: C1_2  and  C2_3 
ROOT
ATOM      1  C2  UNL d   1       0.013   0.783   0.859  0.00  0.00    -0.077 A 
ATOM      2  C3  UNL d   1      -1.122   1.003   0.066  0.00  0.00     0.002 A 
ATOM      3  C4  UNL d   1      -1.482   0.085  -0.922  0.00  0.00     0.002 A 
ATOM      4  C5  UNL d   1      -0.715  -1.061  -1.124  0.00  0.00    -0.004 A 
ATOM      5  C6  UNL d   1       0.417  -1.287  -0.342  0.00  0.00     0.002 A 
ATOM      6  C7  UNL d   1       0.779  -0.370   0.646  0.00  0.00     0.002 A 
ENDROOT
BRANCH   1   7
ATOM      7  C1  UNL d   1       0.375   1.748   1.958  0.00  0.00     0.055 C 
ATOM      8  C   UNL d   1       1.842   2.143   1.886  0.00  0.00     0.019 C 
ENDBRANCH   1   7
TORSDOF 1
ENDMDL
