MODEL 1
REMARK minimizedAffinity -3.38643861
REMARK minimizedRMSD -1
REMARK  1 active torsions:
REMARK  status: ('A' for Active; 'I' for Inactive)
REMARK    1  A    between atoms: C1_2  and  C2_3 
ROOT
ATOM      1  C2  UNL d   1      -0.781  -0.884  -0.435  0.00  0.00    -0.077 A 
ATOM      2  C3  UNL d   1      -0.211  -0.556  -1.673  0.00  0.00     0.002 A 
ATOM      3  C4  UNL d   1      -0.788  -1.011  -2.859  0.00  0.00     0.002 A 
ATOM      4  C5  UNL d   1      -1.941  -1.793  -2.820  0.00  0.00    -0.004 A 
ATOM      5  C6  UNL d   1      -2.514  -2.126  -1.594  0.00  0.00     0.002 A 
ATOM      6  C7  UNL d   1      -1.938  -1.673  -0.407  0.00  0.00     0.002 A 
ENDROOT
BRANCH   1   7
ATOM      7  C1  UNL d   1      -0.188  -0.352   0.844  0.00  0.00     0.055 C 
ATOM      8  C   UNL d   1       0.435   1.021   0.637  0.00  0.00     0.019 C 
ENDBRANCH   1   7
TORSDOF 1
ENDMDL
