MODEL 1
REMARK minimizedAffinity -4.35973263
REMARK minimizedRMSD -1
REMARK  1 active torsions:
REMARK  status: ('A' for Active; 'I' for Inactive)
REMARK    1  A    between atoms: C1_2  and  C2_3 
ROOT
ATOM      1  C2  UNL d   1      -0.754  -0.651  -1.147  0.00  0.00    -0.077 A 
ATOM      2  C3  UNL d   1      -1.445  -1.869  -1.076  0.00  0.00     0.002 A 
ATOM      3  C4  UNL d   1      -2.369  -2.215  -2.065  0.00  0.00     0.002 A 
ATOM      4  C5  UNL d   1      -2.606  -1.351  -3.132  0.00  0.00    -0.004 A 
ATOM      5  C6  UNL d   1      -1.925  -0.137  -3.210  0.00  0.00     0.002 A 
ATOM      6  C7  UNL d   1      -1.003   0.211  -2.222  0.00  0.00     0.002 A 
ENDROOT
BRANCH   1   7
ATOM      7  C1  UNL d   1       0.278  -0.298  -0.108  0.00  0.00     0.055 C 
ATOM      8  C   UNL d   1      -0.312   0.588   0.980  0.00  0.00     0.019 C 
ENDBRANCH   1   7
TORSDOF 1
ENDMDL
