MODEL 1
REMARK minimizedAffinity -3.63729382
REMARK minimizedRMSD -1
REMARK  1 active torsions:
REMARK  status: ('A' for Active; 'I' for Inactive)
REMARK    1  A    between atoms: C1_2  and  C2_3 
ROOT
ATOM      1  C2  UNL d   1      -0.278  -0.461   0.003  0.00  0.00    -0.077 A 
ATOM      2  C3  UNL d   1       0.981   0.142  -0.133  0.00  0.00     0.002 A 
ATOM      3  C4  UNL d   1       1.371   1.165   0.733  0.00  0.00     0.002 A 
ATOM      4  C5  UNL d   1       0.511   1.590   1.743  0.00  0.00    -0.004 A 
ATOM      5  C6  UNL d   1      -0.743   0.998   1.886  0.00  0.00     0.002 A 
ATOM      6  C7  UNL d   1      -1.136  -0.023   1.020  0.00  0.00     0.002 A 
ENDROOT
BRANCH   1   7
ATOM      7  C1  UNL d   1      -0.681  -1.598  -0.899  0.00  0.00     0.055 C 
ATOM      8  C   UNL d   1      -1.790  -1.181  -1.854  0.00  0.00     0.019 C 
ENDBRANCH   1   7
TORSDOF 1
ENDMDL
