MODEL 1
REMARK minimizedAffinity -2.28393793
REMARK minimizedRMSD -1
REMARK  1 active torsions:
REMARK  status: ('A' for Active; 'I' for Inactive)
REMARK    1  A    between atoms: C1_2  and  C2_3 
ROOT
ATOM      1  C2  UNL d   1       0.381   0.857   1.164  0.00  0.00    -0.077 A 
ATOM      2  C3  UNL d   1      -0.897   0.318   1.368  0.00  0.00     0.002 A 
ATOM      3  C4  UNL d   1      -1.372  -0.705   0.546  0.00  0.00     0.002 A 
ATOM      4  C5  UNL d   1      -0.575  -1.200  -0.484  0.00  0.00    -0.004 A 
ATOM      5  C6  UNL d   1       0.697  -0.670  -0.696  0.00  0.00     0.002 A 
ATOM      6  C7  UNL d   1       1.173   0.354   0.124  0.00  0.00     0.002 A 
ENDROOT
BRANCH   1   7
ATOM      7  C1  UNL d   1       0.914   1.927   2.081  0.00  0.00     0.055 C 
ATOM      8  C   UNL d   1       2.435   1.973   2.052  0.00  0.00     0.019 C 
ENDBRANCH   1   7
TORSDOF 1
ENDMDL
