MODEL 1
REMARK minimizedAffinity -4.17896271
REMARK minimizedRMSD -1
REMARK  1 active torsions:
REMARK  status: ('A' for Active; 'I' for Inactive)
REMARK    1  A    between atoms: C1_2  and  C2_3 
ROOT
ATOM      1  C2  UNL d   1      -0.694  -0.446   0.134  0.00  0.00    -0.077 A 
ATOM      2  C3  UNL d   1      -1.448   0.348   1.009  0.00  0.00     0.002 A 
ATOM      3  C4  UNL d   1      -0.822   1.297   1.819  0.00  0.00     0.002 A 
ATOM      4  C5  UNL d   1       0.560   1.464   1.759  0.00  0.00    -0.004 A 
ATOM      5  C6  UNL d   1       1.319   0.678   0.893  0.00  0.00     0.002 A 
ATOM      6  C7  UNL d   1       0.695  -0.272   0.084  0.00  0.00     0.002 A 
ENDROOT
BRANCH   1   7
ATOM      7  C1  UNL d   1      -1.373  -1.436  -0.776  0.00  0.00     0.055 C 
ATOM      8  C   UNL d   1      -1.330  -0.975  -2.226  0.00  0.00     0.019 C 
ENDBRANCH   1   7
TORSDOF 1
ENDMDL
