MODEL 1
REMARK minimizedAffinity -0.429427147
REMARK minimizedRMSD -1
REMARK  1 active torsions:
REMARK  status: ('A' for Active; 'I' for Inactive)
REMARK    1  A    between atoms: C1_2  and  C2_3 
ROOT
ATOM      1  C2  UNL d   1      -0.749  -0.582  -0.299  0.00  0.00    -0.077 A 
ATOM      2  C3  UNL d   1      -1.495  -0.029   0.752  0.00  0.00     0.002 A 
ATOM      3  C4  UNL d   1      -0.894   0.839   1.664  0.00  0.00     0.002 A 
ATOM      4  C5  UNL d   1       0.454   1.167   1.533  0.00  0.00    -0.004 A 
ATOM      5  C6  UNL d   1       1.205   0.621   0.493  0.00  0.00     0.002 A 
ATOM      6  C7  UNL d   1       0.606  -0.249  -0.419  0.00  0.00     0.002 A 
ENDROOT
BRANCH   1   7
ATOM      7  C1  UNL d   1      -1.408  -1.480  -1.313  0.00  0.00     0.055 C 
ATOM      8  C   UNL d   1      -1.660  -0.746  -2.622  0.00  0.00     0.019 C 
ENDBRANCH   1   7
TORSDOF 1
ENDMDL
