MODEL 1
REMARK minimizedAffinity -2.22408271
REMARK minimizedRMSD -1
REMARK  1 active torsions:
REMARK  status: ('A' for Active; 'I' for Inactive)
REMARK    1  A    between atoms: C1_2  and  C2_3 
ROOT
ATOM      1  C2  UNL d   1      -1.155  -0.985  -0.893  0.00  0.00    -0.077 A 
ATOM      2  C3  UNL d   1      -0.103  -1.272  -0.012  0.00  0.00     0.002 A 
ATOM      3  C4  UNL d   1       0.257  -0.357   0.979  0.00  0.00     0.002 A 
ATOM      4  C5  UNL d   1      -0.431   0.848   1.100  0.00  0.00    -0.004 A 
ATOM      5  C6  UNL d   1      -1.476   1.144   0.227  0.00  0.00     0.002 A 
ATOM      6  C7  UNL d   1      -1.837   0.231  -0.765  0.00  0.00     0.002 A 
ENDROOT
BRANCH   1   7
ATOM      7  C1  UNL d   1      -1.577  -1.992  -1.931  0.00  0.00     0.055 C 
ATOM      8  C   UNL d   1      -2.021  -1.309  -3.217  0.00  0.00     0.019 C 
ENDBRANCH   1   7
TORSDOF 1
ENDMDL
