MODEL 1
REMARK minimizedAffinity -2.62749815
REMARK minimizedRMSD -1
REMARK  1 active torsions:
REMARK  status: ('A' for Active; 'I' for Inactive)
REMARK    1  A    between atoms: C1_2  and  C2_3 
ROOT
ATOM      1  C2  UNL d   1      -0.569  -1.074  -0.415  0.00  0.00    -0.077 A 
ATOM      2  C3  UNL d   1       0.808  -1.188  -0.175  0.00  0.00     0.002 A 
ATOM      3  C4  UNL d   1       1.469  -0.241   0.610  0.00  0.00     0.002 A 
ATOM      4  C5  UNL d   1       0.761   0.823   1.163  0.00  0.00    -0.004 A 
ATOM      5  C6  UNL d   1      -0.608   0.947   0.929  0.00  0.00     0.002 A 
ATOM      6  C7  UNL d   1      -1.270   0.002   0.144  0.00  0.00     0.002 A 
ENDROOT
BRANCH   1   7
ATOM      7  C1  UNL d   1      -1.292  -2.122  -1.220  0.00  0.00     0.055 C 
ATOM      8  C   UNL d   1      -1.644  -1.608  -2.609  0.00  0.00     0.019 C 
ENDBRANCH   1   7
TORSDOF 1
ENDMDL
