MODEL 1
REMARK minimizedAffinity -4.6213398
REMARK minimizedRMSD -1
REMARK  1 active torsions:
REMARK  status: ('A' for Active; 'I' for Inactive)
REMARK    1  A    between atoms: C1_2  and  C2_3 
ROOT
ATOM      1  C2  UNL d   1       0.661  -0.199   0.185  0.00  0.00    -0.077 A 
ATOM      2  C3  UNL d   1       2.042  -0.235  -0.057  0.00  0.00     0.002 A 
ATOM      3  C4  UNL d   1       2.907   0.591   0.664  0.00  0.00     0.002 A 
ATOM      4  C5  UNL d   1       2.402   1.456   1.633  0.00  0.00    -0.004 A 
ATOM      5  C6  UNL d   1       1.030   1.500   1.879  0.00  0.00     0.002 A 
ATOM      6  C7  UNL d   1       0.164   0.676   1.159  0.00  0.00     0.002 A 
ENDROOT
BRANCH   1   7
ATOM      7  C1  UNL d   1      -0.268  -1.124  -0.556  0.00  0.00     0.055 C 
ATOM      8  C   UNL d   1      -1.195  -0.352  -1.484  0.00  0.00     0.019 C 
ENDBRANCH   1   7
TORSDOF 1
ENDMDL
