MODEL 1
REMARK minimizedAffinity -2.91050124
REMARK minimizedRMSD -1
REMARK  1 active torsions:
REMARK  status: ('A' for Active; 'I' for Inactive)
REMARK    1  A    between atoms: C1_2  and  C2_3 
ROOT
ATOM      1  C2  UNL d   1      -1.331  -1.739  -1.248  0.00  0.00    -0.077 A 
ATOM      2  C3  UNL d   1      -1.259  -1.425  -2.612  0.00  0.00     0.002 A 
ATOM      3  C4  UNL d   1      -2.404  -1.470  -3.409  0.00  0.00     0.002 A 
ATOM      4  C5  UNL d   1      -3.630  -1.824  -2.851  0.00  0.00    -0.004 A 
ATOM      5  C6  UNL d   1      -3.712  -2.141  -1.495  0.00  0.00     0.002 A 
ATOM      6  C7  UNL d   1      -2.568  -2.098  -0.697  0.00  0.00     0.002 A 
ENDROOT
BRANCH   1   7
ATOM      7  C1  UNL d   1      -0.107  -1.644  -0.376  0.00  0.00     0.055 C 
ATOM      8  C   UNL d   1      -0.232  -0.512   0.633  0.00  0.00     0.019 C 
ENDBRANCH   1   7
TORSDOF 1
ENDMDL
