MODEL 1
REMARK minimizedAffinity -2.04042053
REMARK minimizedRMSD -1
REMARK  1 active torsions:
REMARK  status: ('A' for Active; 'I' for Inactive)
REMARK    1  A    between atoms: C1_2  and  C2_3 
ROOT
ATOM      1  C2  UNL d   1       0.241  -0.139   0.072  0.00  0.00    -0.077 A 
ATOM      2  C3  UNL d   1       1.426   0.582   0.275  0.00  0.00     0.002 A 
ATOM      3  C4  UNL d   1       1.505   1.542   1.286  0.00  0.00     0.002 A 
ATOM      4  C5  UNL d   1       0.404   1.785   2.105  0.00  0.00    -0.004 A 
ATOM      5  C6  UNL d   1      -0.780   1.075   1.909  0.00  0.00     0.002 A 
ATOM      6  C7  UNL d   1      -0.861   0.116   0.898  0.00  0.00     0.002 A 
ENDROOT
BRANCH   1   7
ATOM      7  C1  UNL d   1       0.170  -1.208  -0.987  0.00  0.00     0.055 C 
ATOM      8  C   UNL d   1      -1.272  -1.568  -1.315  0.00  0.00     0.019 C 
ENDBRANCH   1   7
TORSDOF 1
ENDMDL
