MODEL 1
REMARK minimizedAffinity -2.75231528
REMARK minimizedRMSD -1
REMARK  3 active torsions:
REMARK  status: ('A' for Active; 'I' for Inactive)
REMARK    1  A    between atoms: C3'_2  and  C2'_3 
REMARK    2  A    between atoms: C2'_3  and  C1'_4 
REMARK    3  A    between atoms: C1'_4  and  C1_5 
ROOT
ATOM      1  C1  N4B d   1       0.021   0.238   0.472  0.00  0.00    -0.075 A 
ATOM      2  C2  N4B d   1       1.122   1.014   0.896  0.00  0.00     0.002 A 
ATOM      3  C3  N4B d   1       1.862   0.621   1.984  0.00  0.00     0.002 A 
ATOM      4  C4  N4B d   1       1.510  -0.530   2.673  0.00  0.00    -0.004 A 
ATOM      5  C5  N4B d   1       0.461  -1.288   2.242  0.00  0.00     0.002 A 
ATOM      6  C6  N4B d   1      -0.289  -0.907   1.148  0.00  0.00     0.002 A 
ENDROOT
BRANCH   1   7
ATOM      7  C1' N4B d   1      -0.869   0.673  -0.659  0.00  0.00     0.057 C 
BRANCH   7   8
ATOM      8  C2' N4B d   1      -0.020   0.896  -1.907  0.00  0.00     0.009 C 
BRANCH   8   9
ATOM      9  C3' N4B d   1      -0.180   2.302  -2.459  0.00  0.00     0.004 C 
ATOM     10  C4' N4B d   1      -1.602   2.632  -2.805  0.00  0.00     0.003 C 
ENDBRANCH   8   9
ENDBRANCH   7   8
ENDBRANCH   1   7
TORSDOF 3
ENDMDL
