MODEL 1
REMARK minimizedAffinity -4.91730309
REMARK minimizedRMSD -1
REMARK  3 active torsions:
REMARK  status: ('A' for Active; 'I' for Inactive)
REMARK    1  A    between atoms: C3'_2  and  C2'_3 
REMARK    2  A    between atoms: C2'_3  and  C1'_4 
REMARK    3  A    between atoms: C1'_4  and  C1_5 
ROOT
ATOM      1  C1  N4B d   1      -0.476   1.321  -1.424  0.00  0.00    -0.075 A 
ATOM      2  C2  N4B d   1      -1.756   1.797  -1.781  0.00  0.00     0.002 A 
ATOM      3  C3  N4B d   1      -1.912   3.092  -2.211  0.00  0.00     0.002 A 
ATOM      4  C4  N4B d   1      -0.809   3.930  -2.276  0.00  0.00    -0.004 A 
ATOM      5  C5  N4B d   1       0.429   3.455  -1.954  0.00  0.00     0.002 A 
ATOM      6  C6  N4B d   1       0.600   2.154  -1.524  0.00  0.00     0.002 A 
ENDROOT
BRANCH   1   7
ATOM      7  C1' N4B d   1      -0.269  -0.061  -0.866  0.00  0.00     0.057 C 
BRANCH   7   8
ATOM      8  C2' N4B d   1       0.649   0.022   0.349  0.00  0.00     0.009 C 
BRANCH   8   9
ATOM      9  C3' N4B d   1      -0.131   0.023   1.652  0.00  0.00     0.004 C 
ATOM     10  C4' N4B d   1       0.705  -0.379   2.830  0.00  0.00     0.003 C 
ENDBRANCH   8   9
ENDBRANCH   7   8
ENDBRANCH   1   7
TORSDOF 3
ENDMDL
