MODEL 1
REMARK minimizedAffinity 1.15280187
REMARK minimizedRMSD -1
REMARK  1 active torsions:
REMARK  status: ('A' for Active; 'I' for Inactive)
REMARK    1  A    between atoms: C1_2  and  C2_3 
ROOT
ATOM      1  C2  UNL d   1       2.805  -3.356   0.090  0.00  0.00    -0.081 A 
ATOM      2  C3  UNL d   1       1.644  -4.028  -0.311  0.00  0.00     0.006 A 
ATOM      3  C4  UNL d   1       0.420  -3.357  -0.362  0.00  0.00     0.002 A 
ATOM      4  C5  UNL d   1       0.337  -2.004  -0.019  0.00  0.00    -0.080 A 
ATOM      5  C6  UNL d   1      -0.966  -1.264  -0.098  0.00  0.00     0.076 C 
ATOM      6  C7  UNL d   1       1.494  -1.337   0.398  0.00  0.00     0.002 A 
ATOM      7  C8  UNL d   1       2.718  -2.007   0.450  0.00  0.00     0.006 A 
ENDROOT
BRANCH   1   8
ATOM      8  C1  UNL d   1       4.139  -4.059   0.084  0.00  0.00     0.054 C 
ATOM      9  C   UNL d   1       3.990  -5.530   0.445  0.00  0.00     0.018 C 
ENDBRANCH   1   8
TORSDOF 1
ENDMDL
