MODEL 1
REMARK minimizedAffinity -4.91643381
REMARK minimizedRMSD -1
REMARK  1 active torsions:
REMARK  status: ('A' for Active; 'I' for Inactive)
REMARK    1  A    between atoms: C1_2  and  C2_3 
ROOT
ATOM      1  C2  UNL d   1       3.377  -3.551  -0.093  0.00  0.00    -0.081 A 
ATOM      2  C3  UNL d   1       3.367  -2.154   0.012  0.00  0.00     0.006 A 
ATOM      3  C4  UNL d   1       2.163  -1.467   0.187  0.00  0.00     0.002 A 
ATOM      4  C5  UNL d   1       0.953  -2.163   0.268  0.00  0.00    -0.080 A 
ATOM      5  C6  UNL d   1      -0.342  -1.439   0.486  0.00  0.00     0.076 C 
ATOM      6  C7  UNL d   1       0.962  -3.557   0.146  0.00  0.00     0.002 A 
ATOM      7  C8  UNL d   1       2.164  -4.245  -0.030  0.00  0.00     0.006 A 
ENDROOT
BRANCH   1   8
ATOM      8  C1  UNL d   1       4.680  -4.300  -0.217  0.00  0.00     0.054 C 
ATOM      9  C   UNL d   1       4.559  -5.714   0.333  0.00  0.00     0.018 C 
ENDBRANCH   1   8
TORSDOF 1
ENDMDL
