MODEL 1
REMARK minimizedAffinity -0.422258496
REMARK minimizedRMSD -1
REMARK  1 active torsions:
REMARK  status: ('A' for Active; 'I' for Inactive)
REMARK    1  A    between atoms: C1_2  and  C2_3 
ROOT
ATOM      1  C2  UNL d   1       1.985  -3.530  -0.258  0.00  0.00    -0.081 A 
ATOM      2  C3  UNL d   1       2.325  -2.173  -0.228  0.00  0.00     0.006 A 
ATOM      3  C4  UNL d   1       1.452  -1.236   0.330  0.00  0.00     0.002 A 
ATOM      4  C5  UNL d   1       0.228  -1.642   0.874  0.00  0.00    -0.080 A 
ATOM      5  C6  UNL d   1      -0.705  -0.651   1.504  0.00  0.00     0.076 C 
ATOM      6  C7  UNL d   1      -0.119  -2.996   0.828  0.00  0.00     0.002 A 
ATOM      7  C8  UNL d   1       0.753  -3.933   0.269  0.00  0.00     0.006 A 
ENDROOT
BRANCH   1   8
ATOM      8  C1  UNL d   1       2.952  -4.551  -0.801  0.00  0.00     0.054 C 
ATOM      9  C   UNL d   1       4.320  -4.419  -0.147  0.00  0.00     0.018 C 
ENDBRANCH   1   8
TORSDOF 1
ENDMDL
