MODEL 1
REMARK minimizedAffinity -1.77171433
REMARK minimizedRMSD -1
REMARK  1 active torsions:
REMARK  status: ('A' for Active; 'I' for Inactive)
REMARK    1  A    between atoms: C1_2  and  C2_3 
ROOT
ATOM      1  C2  UNL d   1       3.109  -3.366   0.074  0.00  0.00    -0.081 A 
ATOM      2  C3  UNL d   1       1.817  -3.876   0.247  0.00  0.00     0.006 A 
ATOM      3  C4  UNL d   1       0.762  -3.029   0.595  0.00  0.00     0.002 A 
ATOM      4  C5  UNL d   1       0.980  -1.658   0.767  0.00  0.00    -0.080 A 
ATOM      5  C6  UNL d   1      -0.149  -0.732   1.111  0.00  0.00     0.076 C 
ATOM      6  C7  UNL d   1       2.275  -1.151   0.611  0.00  0.00     0.002 A 
ATOM      7  C8  UNL d   1       3.330  -1.998   0.264  0.00  0.00     0.006 A 
ENDROOT
BRANCH   1   8
ATOM      8  C1  UNL d   1       4.236  -4.267  -0.364  0.00  0.00     0.054 C 
ATOM      9  C   UNL d   1       4.291  -5.533   0.478  0.00  0.00     0.018 C 
ENDBRANCH   1   8
TORSDOF 1
ENDMDL
