MODEL 1
REMARK minimizedAffinity -3.43663692
REMARK minimizedRMSD -1
REMARK  1 active torsions:
REMARK  status: ('A' for Active; 'I' for Inactive)
REMARK    1  A    between atoms: C1_2  and  C2_3 
ROOT
ATOM      1  C2  UNL d   1       2.711  -3.425   0.030  0.00  0.00    -0.081 A 
ATOM      2  C3  UNL d   1       1.442  -4.015  -0.008  0.00  0.00     0.006 A 
ATOM      3  C4  UNL d   1       0.297  -3.247   0.216  0.00  0.00     0.002 A 
ATOM      4  C5  UNL d   1       0.401  -1.876   0.474  0.00  0.00    -0.080 A 
ATOM      5  C6  UNL d   1      -0.822  -1.034   0.686  0.00  0.00     0.076 C 
ATOM      6  C7  UNL d   1       1.670  -1.290   0.529  0.00  0.00     0.002 A 
ATOM      7  C8  UNL d   1       2.815  -2.057   0.306  0.00  0.00     0.006 A 
ENDROOT
BRANCH   1   8
ATOM      8  C1  UNL d   1       3.944  -4.237  -0.276  0.00  0.00     0.054 C 
ATOM      9  C   UNL d   1       3.959  -5.538   0.514  0.00  0.00     0.018 C 
ENDBRANCH   1   8
TORSDOF 1
ENDMDL
