MODEL 1
REMARK minimizedAffinity -4.26842356
REMARK minimizedRMSD -1
REMARK  1 active torsions:
REMARK  status: ('A' for Active; 'I' for Inactive)
REMARK    1  A    between atoms: C1_2  and  C2_3 
ROOT
ATOM      1  C2  UNL d   1       0.384  -1.811   0.143  0.00  0.00    -0.081 A 
ATOM      2  C3  UNL d   1       0.116  -3.160  -0.124  0.00  0.00     0.006 A 
ATOM      3  C4  UNL d   1       1.149  -4.101  -0.118  0.00  0.00     0.002 A 
ATOM      4  C5  UNL d   1       2.463  -3.712   0.162  0.00  0.00    -0.080 A 
ATOM      5  C6  UNL d   1       3.575  -4.717   0.202  0.00  0.00     0.076 C 
ATOM      6  C7  UNL d   1       2.733  -2.362   0.412  0.00  0.00     0.002 A 
ATOM      7  C8  UNL d   1       1.701  -1.420   0.405  0.00  0.00     0.006 A 
ENDROOT
BRANCH   1   8
ATOM      8  C1  UNL d   1      -0.737  -0.805   0.201  0.00  0.00     0.054 C 
ATOM      9  C   UNL d   1      -0.358   0.396   1.055  0.00  0.00     0.018 C 
ENDBRANCH   1   8
TORSDOF 1
ENDMDL
