MODEL 1
REMARK minimizedAffinity -3.17120004
REMARK minimizedRMSD -1
REMARK  1 active torsions:
REMARK  status: ('A' for Active; 'I' for Inactive)
REMARK    1  A    between atoms: C1_2  and  C2_3 
ROOT
ATOM      1  C2  UNL d   1       2.786  -3.525   0.153  0.00  0.00    -0.081 A 
ATOM      2  C3  UNL d   1       1.568  -4.206   0.043  0.00  0.00     0.006 A 
ATOM      3  C4  UNL d   1       0.358  -3.515   0.137  0.00  0.00     0.002 A 
ATOM      4  C5  UNL d   1       0.346  -2.130   0.336  0.00  0.00    -0.080 A 
ATOM      5  C6  UNL d   1      -0.945  -1.371   0.409  0.00  0.00     0.076 C 
ATOM      6  C7  UNL d   1       1.563  -1.451   0.464  0.00  0.00     0.002 A 
ATOM      7  C8  UNL d   1       2.773  -2.142   0.370  0.00  0.00     0.006 A 
ENDROOT
BRANCH   1   8
ATOM      8  C1  UNL d   1       4.093  -4.258  -0.013  0.00  0.00     0.054 C 
ATOM      9  C   UNL d   1       4.002  -5.679   0.525  0.00  0.00     0.018 C 
ENDBRANCH   1   8
TORSDOF 1
ENDMDL
