MODEL 1
REMARK minimizedAffinity -4.04803991
REMARK minimizedRMSD -1
REMARK  1 active torsions:
REMARK  status: ('A' for Active; 'I' for Inactive)
REMARK    1  A    between atoms: C1_2  and  C2_3 
ROOT
ATOM      1  C2  UNL d   1       0.073  -1.661   0.014  0.00  0.00    -0.081 A 
ATOM      2  C3  UNL d   1       0.026  -3.039  -0.230  0.00  0.00     0.006 A 
ATOM      3  C4  UNL d   1       1.206  -3.778  -0.353  0.00  0.00     0.002 A 
ATOM      4  C5  UNL d   1       2.451  -3.152  -0.227  0.00  0.00    -0.080 A 
ATOM      5  C6  UNL d   1       3.724  -3.938  -0.327  0.00  0.00     0.076 C 
ATOM      6  C7  UNL d   1       2.498  -1.773  -0.000  0.00  0.00     0.002 A 
ATOM      7  C8  UNL d   1       1.319  -1.034   0.122  0.00  0.00     0.006 A 
ENDROOT
BRANCH   1   8
ATOM      8  C1  UNL d   1      -1.197  -0.874   0.212  0.00  0.00     0.054 C 
ATOM      9  C   UNL d   1      -0.948   0.379   1.038  0.00  0.00     0.018 C 
ENDBRANCH   1   8
TORSDOF 1
ENDMDL
