MODEL 1
REMARK minimizedAffinity 10.6726236
REMARK minimizedRMSD -1
REMARK  1 active torsions:
REMARK  status: ('A' for Active; 'I' for Inactive)
REMARK    1  A    between atoms: C1_2  and  C2_3 
ROOT
ATOM      1  C2  UNL d   1      -2.854   2.129   3.764  0.00  0.00    -0.081 A 
ATOM      2  C3  UNL d   1      -2.594   1.285   4.850  0.00  0.00     0.006 A 
ATOM      3  C4  UNL d   1      -1.551   0.357   4.792  0.00  0.00     0.002 A 
ATOM      4  C5  UNL d   1      -0.747   0.264   3.651  0.00  0.00    -0.080 A 
ATOM      5  C6  UNL d   1       0.395  -0.706   3.587  0.00  0.00     0.076 C 
ATOM      6  C7  UNL d   1      -1.018   1.096   2.559  0.00  0.00     0.002 A 
ATOM      7  C8  UNL d   1      -2.061   2.023   2.617  0.00  0.00     0.006 A 
ENDROOT
BRANCH   1   8
ATOM      8  C1  UNL d   1      -3.937   3.175   3.848  0.00  0.00     0.054 C 
ATOM      9  C   UNL d   1      -4.887   2.896   5.004  0.00  0.00     0.018 C 
ENDBRANCH   1   8
TORSDOF 1
ENDMDL
