MODEL 1
REMARK minimizedAffinity 4.7948041
REMARK minimizedRMSD -1
REMARK  1 active torsions:
REMARK  status: ('A' for Active; 'I' for Inactive)
REMARK    1  A    between atoms: C1_2  and  C2_3 
ROOT
ATOM      1  C2  UNL d   1       1.604   4.080  -0.092  0.00  0.00    -0.081 A 
ATOM      2  C3  UNL d   1       1.517   3.682  -1.431  0.00  0.00     0.006 A 
ATOM      3  C4  UNL d   1       2.485   2.840  -1.984  0.00  0.00     0.002 A 
ATOM      4  C5  UNL d   1       3.550   2.375  -1.205  0.00  0.00    -0.080 A 
ATOM      5  C6  UNL d   1       4.579   1.446  -1.778  0.00  0.00     0.076 C 
ATOM      6  C7  UNL d   1       3.647   2.787   0.128  0.00  0.00     0.002 A 
ATOM      7  C8  UNL d   1       2.680   3.629   0.681  0.00  0.00     0.006 A 
ENDROOT
BRANCH   1   8
ATOM      8  C1  UNL d   1       0.527   4.936   0.525  0.00  0.00     0.054 C 
ATOM      9  C   UNL d   1      -0.793   4.185   0.614  0.00  0.00     0.018 C 
ENDBRANCH   1   8
TORSDOF 1
ENDMDL
