MODEL 1
REMARK minimizedAffinity 3.43574357
REMARK minimizedRMSD -1
REMARK  1 active torsions:
REMARK  status: ('A' for Active; 'I' for Inactive)
REMARK    1  A    between atoms: C1_2  and  C2_3 
ROOT
ATOM      1  C2  UNL d   1       3.893  -4.681  -0.208  0.00  0.00    -0.081 A 
ATOM      2  C3  UNL d   1       4.009  -3.286  -0.186  0.00  0.00     0.006 A 
ATOM      3  C4  UNL d   1       2.887  -2.486   0.044  0.00  0.00     0.002 A 
ATOM      4  C5  UNL d   1       1.634  -3.068   0.265  0.00  0.00    -0.080 A 
ATOM      5  C6  UNL d   1       0.427  -2.221   0.544  0.00  0.00     0.076 C 
ATOM      6  C7  UNL d   1       1.515  -4.461   0.226  0.00  0.00     0.002 A 
ATOM      7  C8  UNL d   1       2.636  -5.261  -0.006  0.00  0.00     0.006 A 
ENDROOT
BRANCH   1   8
ATOM      8  C1  UNL d   1       5.113  -5.548  -0.393  0.00  0.00     0.054 C 
ATOM      9  C   UNL d   1       5.679  -5.998   0.946  0.00  0.00     0.018 C 
ENDBRANCH   1   8
TORSDOF 1
ENDMDL
