MODEL 1
REMARK minimizedAffinity 16.0390759
REMARK minimizedRMSD -1
REMARK  2 active torsions:
REMARK  status: ('A' for Active; 'I' for Inactive)
REMARK    1  A    between atoms: C2'_3  and  C1'_4 
REMARK    2  A    between atoms: C1'_4  and  C1_5 
ROOT
ATOM      1  C1  I4B d   1       1.555  -5.549  -2.362  0.00  0.00    -0.075 A 
ATOM      2  C2  I4B d   1       2.299  -5.808  -1.238  0.00  0.00     0.003 A 
ATOM      3  C3  I4B d   1       1.660  -6.000   0.011  0.00  0.00     0.002 A 
ATOM      4  C4  I4B d   1       0.289  -5.875   0.100  0.00  0.00    -0.004 A 
ATOM      5  C5  I4B d   1      -0.466  -5.635  -1.045  0.00  0.00     0.002 A 
ATOM      6  C6  I4B d   1       0.170  -5.483  -2.286  0.00  0.00     0.003 A 
ENDROOT
BRANCH   1   7
ATOM      7  C1' I4B d   1       2.264  -5.319  -3.659  0.00  0.00     0.060 C 
BRANCH   7   8
ATOM      8  C2' I4B d   1       3.717  -5.022  -3.350  0.00  0.00    -0.013 C 
ATOM      9  C4' I4B d   1       4.632  -6.000  -4.039  0.00  0.00     0.013 C 
ATOM     10  C3' I4B d   1       4.004  -3.615  -3.782  0.00  0.00     0.013 C 
ENDBRANCH   7   8
ENDBRANCH   1   7
TORSDOF 2
ENDMDL
