MODEL 1
REMARK minimizedAffinity 17.8530827
REMARK minimizedRMSD -1
REMARK  2 active torsions:
REMARK  status: ('A' for Active; 'I' for Inactive)
REMARK    1  A    between atoms: C2'_3  and  C1'_4 
REMARK    2  A    between atoms: C1'_4  and  C1_5 
ROOT
ATOM      1  C1  I4B d   1      -5.307  -3.225  -4.985  0.00  0.00    -0.075 A 
ATOM      2  C2  I4B d   1      -4.453  -3.853  -4.113  0.00  0.00     0.003 A 
ATOM      3  C3  I4B d   1      -4.280  -5.257  -4.173  0.00  0.00     0.002 A 
ATOM      4  C4  I4B d   1      -5.013  -5.994  -5.080  0.00  0.00    -0.004 A 
ATOM      5  C5  I4B d   1      -5.860  -5.353  -5.978  0.00  0.00     0.002 A 
ATOM      6  C6  I4B d   1      -6.000  -3.958  -5.939  0.00  0.00     0.003 A 
ENDROOT
BRANCH   1   7
ATOM      7  C1' I4B d   1      -5.492  -1.744  -4.872  0.00  0.00     0.060 C 
BRANCH   7   8
ATOM      8  C2' I4B d   1      -4.836  -1.289  -3.584  0.00  0.00    -0.013 C 
ATOM      9  C4' I4B d   1      -4.289   0.108  -3.714  0.00  0.00     0.013 C 
ATOM     10  C3' I4B d   1      -5.860  -1.370  -2.490  0.00  0.00     0.013 C 
ENDBRANCH   7   8
ENDBRANCH   1   7
TORSDOF 2
ENDMDL
