MODEL 1
REMARK minimizedAffinity 9.7022438
REMARK minimizedRMSD -1
REMARK  2 active torsions:
REMARK  status: ('A' for Active; 'I' for Inactive)
REMARK    1  A    between atoms: C2'_3  and  C1'_4 
REMARK    2  A    between atoms: C1'_4  and  C1_5 
ROOT
ATOM      1  C1  I4B d   1      -4.851  -3.930  -4.116  0.00  0.00    -0.075 A 
ATOM      2  C2  I4B d   1      -5.851  -3.930  -5.056  0.00  0.00     0.003 A 
ATOM      3  C3  I4B d   1      -5.943  -4.981  -6.000  0.00  0.00     0.002 A 
ATOM      4  C4  I4B d   1      -4.990  -5.979  -6.000  0.00  0.00    -0.004 A 
ATOM      5  C5  I4B d   1      -3.990  -5.991  -5.032  0.00  0.00     0.002 A 
ATOM      6  C6  I4B d   1      -3.927  -4.966  -4.076  0.00  0.00     0.003 A 
ENDROOT
BRANCH   1   7
ATOM      7  C1' I4B d   1      -4.764  -2.787  -3.155  0.00  0.00     0.060 C 
BRANCH   7   8
ATOM      8  C2' I4B d   1      -5.946  -2.880  -2.211  0.00  0.00    -0.013 C 
ATOM      9  C4' I4B d   1      -5.850  -4.100  -1.334  0.00  0.00     0.013 C 
ATOM     10  C3' I4B d   1      -5.984  -1.625  -1.392  0.00  0.00     0.013 C 
ENDBRANCH   7   8
ENDBRANCH   1   7
TORSDOF 2
ENDMDL
