MODEL 1
REMARK minimizedAffinity 13.8885374
REMARK minimizedRMSD -1
REMARK  2 active torsions:
REMARK  status: ('A' for Active; 'I' for Inactive)
REMARK    1  A    between atoms: C2'_3  and  C1'_4 
REMARK    2  A    between atoms: C1'_4  and  C1_5 
ROOT
ATOM      1  C1  I4B d   1      -2.822   2.460  -0.584  0.00  0.00    -0.075 A 
ATOM      2  C2  I4B d   1      -3.829   3.276  -0.132  0.00  0.00     0.003 A 
ATOM      3  C3  I4B d   1      -3.870   3.672   1.227  0.00  0.00     0.002 A 
ATOM      4  C4  I4B d   1      -2.919   3.191   2.104  0.00  0.00    -0.004 A 
ATOM      5  C5  I4B d   1      -1.886   2.382   1.639  0.00  0.00     0.002 A 
ATOM      6  C6  I4B d   1      -1.830   2.024   0.284  0.00  0.00     0.003 A 
ENDROOT
BRANCH   1   7
ATOM      7  C1' I4B d   1      -2.828   2.034  -2.018  0.00  0.00     0.060 C 
BRANCH   7   8
ATOM      8  C2' I4B d   1      -4.254   1.685  -2.396  0.00  0.00    -0.013 C 
ATOM      9  C4' I4B d   1      -4.445   1.716  -3.889  0.00  0.00     0.013 C 
ATOM     10  C3' I4B d   1      -4.561   0.328  -1.838  0.00  0.00     0.013 C 
ENDBRANCH   7   8
ENDBRANCH   1   7
TORSDOF 2
ENDMDL
