MODEL 1
REMARK minimizedAffinity 2.67891121
REMARK minimizedRMSD -1
REMARK  2 active torsions:
REMARK  status: ('A' for Active; 'I' for Inactive)
REMARK    1  A    between atoms: C2'_3  and  C1'_4 
REMARK    2  A    between atoms: C1'_4  and  C1_5 
ROOT
ATOM      1  C1  I4B d   1       3.392  -1.058  -4.755  0.00  0.00    -0.075 A 
ATOM      2  C2  I4B d   1       4.660  -1.577  -4.844  0.00  0.00     0.003 A 
ATOM      3  C3  I4B d   1       5.695  -0.828  -5.452  0.00  0.00     0.002 A 
ATOM      4  C4  I4B d   1       5.410   0.407  -5.999  0.00  0.00    -0.004 A 
ATOM      5  C5  I4B d   1       4.130   0.941  -5.887  0.00  0.00     0.002 A 
ATOM      6  C6  I4B d   1       3.117   0.210  -5.250  0.00  0.00     0.003 A 
ENDROOT
BRANCH   1   7
ATOM      7  C1' I4B d   1       2.314  -1.891  -4.136  0.00  0.00     0.060 C 
BRANCH   7   8
ATOM      8  C2' I4B d   1       2.934  -2.696  -3.011  0.00  0.00    -0.013 C 
ATOM      9  C4' I4B d   1       1.957  -2.898  -1.883  0.00  0.00     0.013 C 
ATOM     10  C3' I4B d   1       3.388  -4.008  -3.577  0.00  0.00     0.013 C 
ENDBRANCH   7   8
ENDBRANCH   1   7
TORSDOF 2
ENDMDL
