MODEL 1
REMARK minimizedAffinity 14.2225475
REMARK minimizedRMSD -1
REMARK  2 active torsions:
REMARK  status: ('A' for Active; 'I' for Inactive)
REMARK    1  A    between atoms: C2'_3  and  C1'_4 
REMARK    2  A    between atoms: C1'_4  and  C1_5 
ROOT
ATOM      1  C1  I4B d   1       1.891  -1.528   2.792  0.00  0.00    -0.075 A 
ATOM      2  C2  I4B d   1       0.659  -1.702   2.213  0.00  0.00     0.003 A 
ATOM      3  C3  I4B d   1       0.175  -0.762   1.270  0.00  0.00     0.002 A 
ATOM      4  C4  I4B d   1       0.930   0.355   0.976  0.00  0.00    -0.004 A 
ATOM      5  C5  I4B d   1       2.189   0.518   1.547  0.00  0.00     0.002 A 
ATOM      6  C6  I4B d   1       2.678  -0.435   2.452  0.00  0.00     0.003 A 
ENDROOT
BRANCH   1   7
ATOM      7  C1' I4B d   1       2.356  -2.522   3.809  0.00  0.00     0.060 C 
BRANCH   7   8
ATOM      8  C2' I4B d   1       1.340  -2.550   4.933  0.00  0.00    -0.013 C 
ATOM      9  C4' I4B d   1       1.423  -3.837   5.710  0.00  0.00     0.013 C 
ATOM     10  C3' I4B d   1       1.596  -1.366   5.818  0.00  0.00     0.013 C 
ENDBRANCH   7   8
ENDBRANCH   1   7
TORSDOF 2
ENDMDL
