MODEL 1
REMARK minimizedAffinity 11.2605639
REMARK minimizedRMSD -1
REMARK  2 active torsions:
REMARK  status: ('A' for Active; 'I' for Inactive)
REMARK    1  A    between atoms: C2'_3  and  C1'_4 
REMARK    2  A    between atoms: C1'_4  and  C1_5 
ROOT
ATOM      1  C1  I4B d   1       1.686  -0.659   1.794  0.00  0.00    -0.075 A 
ATOM      2  C2  I4B d   1       1.235   0.512   2.350  0.00  0.00     0.003 A 
ATOM      3  C3  I4B d   1       1.557   1.755   1.752  0.00  0.00     0.002 A 
ATOM      4  C4  I4B d   1       2.367   1.783   0.636  0.00  0.00    -0.004 A 
ATOM      5  C5  I4B d   1       2.804   0.593   0.060  0.00  0.00     0.002 A 
ATOM      6  C6  I4B d   1       2.452  -0.636   0.636  0.00  0.00     0.003 A 
ENDROOT
BRANCH   1   7
ATOM      7  C1' I4B d   1       1.356  -1.952   2.471  0.00  0.00     0.060 C 
BRANCH   7   8
ATOM      8  C2' I4B d   1       2.125  -2.006   3.774  0.00  0.00    -0.013 C 
ATOM      9  C4' I4B d   1       1.345  -2.733   4.838  0.00  0.00     0.013 C 
ATOM     10  C3' I4B d   1       3.438  -2.682   3.509  0.00  0.00     0.013 C 
ENDBRANCH   7   8
ENDBRANCH   1   7
TORSDOF 2
ENDMDL
