MODEL 1
REMARK minimizedAffinity 4.19916916
REMARK minimizedRMSD -1
REMARK  2 active torsions:
REMARK  status: ('A' for Active; 'I' for Inactive)
REMARK    1  A    between atoms: C2'_3  and  C1'_4 
REMARK    2  A    between atoms: C1'_4  and  C1_5 
ROOT
ATOM      1  C1  I4B d   1       5.668  -3.127  -4.856  0.00  0.00    -0.075 A 
ATOM      2  C2  I4B d   1       5.398  -3.781  -3.680  0.00  0.00     0.003 A 
ATOM      3  C3  I4B d   1       5.440  -5.196  -3.625  0.00  0.00     0.002 A 
ATOM      4  C4  I4B d   1       5.704  -5.913  -4.774  0.00  0.00    -0.004 A 
ATOM      5  C5  I4B d   1       6.000  -5.248  -5.960  0.00  0.00     0.002 A 
ATOM      6  C6  I4B d   1       5.994  -3.846  -5.999  0.00  0.00     0.003 A 
ENDROOT
BRANCH   1   7
ATOM      7  C1' I4B d   1       5.583  -1.634  -4.887  0.00  0.00     0.060 C 
BRANCH   7   8
ATOM      8  C2' I4B d   1       4.144  -1.243  -4.623  0.00  0.00    -0.013 C 
ATOM      9  C4' I4B d   1       4.035  -0.342  -3.421  0.00  0.00     0.013 C 
ATOM     10  C3' I4B d   1       3.613  -0.570  -5.853  0.00  0.00     0.013 C 
ENDBRANCH   7   8
ENDBRANCH   1   7
TORSDOF 2
ENDMDL
