MODEL 1
REMARK minimizedAffinity 1.35074472
REMARK minimizedRMSD -1
REMARK  0 active torsions:
REMARK  status: ('A' for Active; 'I' for Inactive)
ROOT
ATOM      1  C   UNL d   1      -4.184   1.379  -2.889  0.00  0.00     0.077 C 
ATOM      2  C1  UNL d   1      -3.332   0.372  -2.177  0.00  0.00    -0.074 A 
ATOM      3  C2  UNL d   1      -3.063  -0.876  -2.750  0.00  0.00    -0.005 A 
ATOM      4  C3  UNL d   1      -2.260  -1.799  -2.080  0.00  0.00     0.006 A 
ATOM      5  C4  UNL d   1      -1.719  -1.485  -0.832  0.00  0.00    -0.005 A 
ATOM      6  C5  UNL d   1      -1.976  -0.242  -0.244  0.00  0.00    -0.074 A 
ATOM      7  C6  UNL d   1      -1.394   0.115   1.091  0.00  0.00     0.077 C 
ATOM      8  C7  UNL d   1      -2.778   0.683  -0.927  0.00  0.00    -0.001 A 
ENDROOT
TORSDOF 0
ENDMDL
