MODEL 1
REMARK minimizedAffinity 1.38509178
REMARK minimizedRMSD -1
REMARK  0 active torsions:
REMARK  status: ('A' for Active; 'I' for Inactive)
ROOT
ATOM      1  C   UNL d   1       1.520  -0.849   2.203  0.00  0.00     0.077 C 
ATOM      2  C1  UNL d   1       2.351  -1.435   3.306  0.00  0.00    -0.074 A 
ATOM      3  C2  UNL d   1       1.767  -1.832   4.513  0.00  0.00    -0.005 A 
ATOM      4  C3  UNL d   1       2.551  -2.384   5.526  0.00  0.00     0.006 A 
ATOM      5  C4  UNL d   1       3.925  -2.546   5.342  0.00  0.00    -0.005 A 
ATOM      6  C5  UNL d   1       4.526  -2.156   4.141  0.00  0.00    -0.074 A 
ATOM      7  C6  UNL d   1       6.000  -2.331   3.923  0.00  0.00     0.077 C 
ATOM      8  C7  UNL d   1       3.730  -1.608   3.126  0.00  0.00    -0.001 A 
ENDROOT
TORSDOF 0
ENDMDL
