MODEL 1
REMARK minimizedAffinity -0.73545891
REMARK minimizedRMSD -1
REMARK  0 active torsions:
REMARK  status: ('A' for Active; 'I' for Inactive)
ROOT
ATOM      1  C   UNL d   1       2.273   5.995  -1.500  0.00  0.00     0.077 C 
ATOM      2  C1  UNL d   1       3.577   5.999  -2.240  0.00  0.00    -0.074 A 
ATOM      3  C2  UNL d   1       4.794   5.987  -1.552  0.00  0.00    -0.005 A 
ATOM      4  C3  UNL d   1       5.999   5.982  -2.254  0.00  0.00     0.006 A 
ATOM      5  C4  UNL d   1       6.000   5.988  -3.649  0.00  0.00    -0.005 A 
ATOM      6  C5  UNL d   1       4.792   6.000  -4.355  0.00  0.00    -0.074 A 
ATOM      7  C6  UNL d   1       4.775   5.997  -5.855  0.00  0.00     0.077 C 
ATOM      8  C7  UNL d   1       3.585   5.998  -3.642  0.00  0.00    -0.001 A 
ENDROOT
TORSDOF 0
ENDMDL
