MODEL 1
REMARK minimizedAffinity 1.68841279
REMARK minimizedRMSD -1
REMARK  0 active torsions:
REMARK  status: ('A' for Active; 'I' for Inactive)
ROOT
ATOM      1  C   UNL d   1       3.375   0.583   2.250  0.00  0.00     0.077 C 
ATOM      2  C1  UNL d   1       3.414  -0.390   3.391  0.00  0.00    -0.074 A 
ATOM      3  C2  UNL d   1       2.248  -0.733   4.083  0.00  0.00    -0.005 A 
ATOM      4  C3  UNL d   1       2.297  -1.646   5.136  0.00  0.00     0.006 A 
ATOM      5  C4  UNL d   1       3.512  -2.225   5.507  0.00  0.00    -0.005 A 
ATOM      6  C5  UNL d   1       4.688  -1.894   4.827  0.00  0.00    -0.074 A 
ATOM      7  C6  UNL d   1       6.000  -2.514   5.207  0.00  0.00     0.077 C 
ATOM      8  C7  UNL d   1       4.629  -0.981   3.765  0.00  0.00    -0.001 A 
ENDROOT
TORSDOF 0
ENDMDL
