MODEL 1
REMARK minimizedAffinity 16.6870232
REMARK minimizedRMSD -1
REMARK  0 active torsions:
REMARK  status: ('A' for Active; 'I' for Inactive)
ROOT
ATOM      1  C   UNL d   1       4.732   5.759  -5.976  0.00  0.00     0.077 C 
ATOM      2  C1  UNL d   1       4.761   5.743  -4.477  0.00  0.00    -0.074 A 
ATOM      3  C2  UNL d   1       5.945   5.999  -3.778  0.00  0.00    -0.005 A 
ATOM      4  C3  UNL d   1       5.954   5.989  -2.383  0.00  0.00     0.006 A 
ATOM      5  C4  UNL d   1       4.781   5.725  -1.674  0.00  0.00    -0.005 A 
ATOM      6  C5  UNL d   1       3.588   5.467  -2.356  0.00  0.00    -0.074 A 
ATOM      7  C6  UNL d   1       2.317   5.190  -1.610  0.00  0.00     0.077 C 
ATOM      8  C7  UNL d   1       3.585   5.485  -3.758  0.00  0.00    -0.001 A 
ENDROOT
TORSDOF 0
ENDMDL
