MODEL 1
REMARK minimizedAffinity 3.83653092
REMARK minimizedRMSD -1
REMARK  0 active torsions:
REMARK  status: ('A' for Active; 'I' for Inactive)
ROOT
ATOM      1  C   UNL d   1       1.872  -0.751   4.519  0.00  0.00     0.077 C 
ATOM      2  C1  UNL d   1       2.098  -2.146   5.021  0.00  0.00    -0.074 A 
ATOM      3  C2  UNL d   1       3.390  -2.622   5.263  0.00  0.00    -0.005 A 
ATOM      4  C3  UNL d   1       3.584  -3.919   5.739  0.00  0.00     0.006 A 
ATOM      5  C4  UNL d   1       2.490  -4.751   5.977  0.00  0.00    -0.005 A 
ATOM      6  C5  UNL d   1       1.190  -4.292   5.741  0.00  0.00    -0.074 A 
ATOM      7  C6  UNL d   1       0.002  -5.171   6.000  0.00  0.00     0.077 C 
ATOM      8  C7  UNL d   1       1.003  -2.986   5.269  0.00  0.00    -0.001 A 
ENDROOT
TORSDOF 0
ENDMDL
