MODEL 1
REMARK minimizedAffinity 10.5213995
REMARK minimizedRMSD -1
REMARK  0 active torsions:
REMARK  status: ('A' for Active; 'I' for Inactive)
ROOT
ATOM      1  C   UNL d   1       2.530  -2.839   2.323  0.00  0.00     0.077 C 
ATOM      2  C1  UNL d   1       2.428  -1.381   2.658  0.00  0.00    -0.074 A 
ATOM      3  C2  UNL d   1       1.821  -0.956   3.844  0.00  0.00    -0.005 A 
ATOM      4  C3  UNL d   1       1.742   0.403   4.147  0.00  0.00     0.006 A 
ATOM      5  C4  UNL d   1       2.269   1.350   3.268  0.00  0.00    -0.005 A 
ATOM      6  C5  UNL d   1       2.881   0.945   2.078  0.00  0.00    -0.074 A 
ATOM      7  C6  UNL d   1       3.462   1.949   1.127  0.00  0.00     0.077 C 
ATOM      8  C7  UNL d   1       2.963  -0.423   1.784  0.00  0.00    -0.001 A 
ENDROOT
TORSDOF 0
ENDMDL
