MODEL 1
REMARK minimizedAffinity 1.89723921
REMARK minimizedRMSD -1
REMARK  0 active torsions:
REMARK  status: ('A' for Active; 'I' for Inactive)
ROOT
ATOM      1  C   UNL d   1       5.982  -2.528   5.115  0.00  0.00     0.077 C 
ATOM      2  C1  UNL d   1       4.552  -2.406   4.677  0.00  0.00    -0.074 A 
ATOM      3  C2  UNL d   1       3.508  -2.472   5.605  0.00  0.00    -0.005 A 
ATOM      4  C3  UNL d   1       2.184  -2.348   5.185  0.00  0.00     0.006 A 
ATOM      5  C4  UNL d   1       1.891  -2.157   3.834  0.00  0.00    -0.005 A 
ATOM      6  C5  UNL d   1       2.922  -2.088   2.891  0.00  0.00    -0.074 A 
ATOM      7  C6  UNL d   1       2.625  -1.874   1.437  0.00  0.00     0.077 C 
ATOM      8  C7  UNL d   1       4.250  -2.207   3.323  0.00  0.00    -0.001 A 
ENDROOT
TORSDOF 0
ENDMDL
