MODEL 1
REMARK minimizedAffinity -2.83402014
REMARK minimizedRMSD -1
REMARK  1 active torsions:
REMARK  status: ('A' for Active; 'I' for Inactive)
REMARK    1  A    between atoms: C1_2  and  C2_3 
ROOT
ATOM      1  C2  UNL d   1       1.304  -0.418  -1.086  0.00  0.00    -0.073 A 
ATOM      2  C3  UNL d   1       0.616  -1.336  -0.284  0.00  0.00    -0.002 A 
ATOM      3  C4  UNL d   1      -0.621  -1.000   0.269  0.00  0.00     0.004 A 
ATOM      4  C5  UNL d   1      -1.184   0.251   0.020  0.00  0.00    -0.004 A 
ATOM      5  C6  UNL d   1      -0.517   1.177  -0.788  0.00  0.00    -0.075 A 
ATOM      6  C7  UNL d   1      -1.109   2.529  -1.063  0.00  0.00     0.076 C 
ATOM      7  C8  UNL d   1       0.726   0.834  -1.337  0.00  0.00     0.001 A 
ENDROOT
BRANCH   1   8
ATOM      8  C1  UNL d   1       2.637  -0.779  -1.690  0.00  0.00     0.053 C 
ATOM      9  C   UNL d   1       2.884  -0.050  -3.001  0.00  0.00     0.018 C 
ENDBRANCH   1   8
TORSDOF 1
ENDMDL
