MODEL 1
REMARK minimizedAffinity -5.36259222
REMARK minimizedRMSD -1
REMARK  1 active torsions:
REMARK  status: ('A' for Active; 'I' for Inactive)
REMARK    1  A    between atoms: C1_2  and  C2_3 
ROOT
ATOM      1  C2  UNL d   1       0.792  -0.138  -0.386  0.00  0.00    -0.073 A 
ATOM      2  C3  UNL d   1       1.932  -0.946  -0.455  0.00  0.00    -0.002 A 
ATOM      3  C4  UNL d   1       2.918  -0.695  -1.409  0.00  0.00     0.004 A 
ATOM      4  C5  UNL d   1       2.778   0.370  -2.300  0.00  0.00    -0.004 A 
ATOM      5  C6  UNL d   1       1.651   1.196  -2.239  0.00  0.00    -0.075 A 
ATOM      6  C7  UNL d   1       1.484   2.344  -3.191  0.00  0.00     0.076 C 
ATOM      7  C8  UNL d   1       0.664   0.935  -1.279  0.00  0.00     0.001 A 
ENDROOT
BRANCH   1   8
ATOM      8  C1  UNL d   1      -0.273  -0.402   0.647  0.00  0.00     0.053 C 
ATOM      9  C   UNL d   1      -1.533   0.407   0.387  0.00  0.00     0.018 C 
ENDBRANCH   1   8
TORSDOF 1
ENDMDL
