MODEL 1
REMARK minimizedAffinity -5.86156607
REMARK minimizedRMSD -1
REMARK  1 active torsions:
REMARK  status: ('A' for Active; 'I' for Inactive)
REMARK    1  A    between atoms: C1_2  and  C2_3 
ROOT
ATOM      1  C2  UNL d   1       1.159   0.007  -0.238  0.00  0.00    -0.073 A 
ATOM      2  C3  UNL d   1       2.222  -0.808  -0.644  0.00  0.00    -0.002 A 
ATOM      3  C4  UNL d   1       2.946  -0.501  -1.797  0.00  0.00     0.004 A 
ATOM      4  C5  UNL d   1       2.618   0.625  -2.552  0.00  0.00    -0.004 A 
ATOM      5  C6  UNL d   1       1.567   1.458  -2.157  0.00  0.00    -0.075 A 
ATOM      6  C7  UNL d   1       1.201   2.672  -2.959  0.00  0.00     0.076 C 
ATOM      7  C8  UNL d   1       0.844   1.142  -0.999  0.00  0.00     0.001 A 
ENDROOT
BRANCH   1   8
ATOM      8  C1  UNL d   1       0.379  -0.317   1.010  0.00  0.00     0.053 C 
ATOM      9  C   UNL d   1      -0.885   0.520   1.125  0.00  0.00     0.018 C 
ENDBRANCH   1   8
TORSDOF 1
ENDMDL
