MODEL 1
REMARK minimizedAffinity -5.01060772
REMARK minimizedRMSD -1
REMARK  1 active torsions:
REMARK  status: ('A' for Active; 'I' for Inactive)
REMARK    1  A    between atoms: C1_2  and  C2_3 
ROOT
ATOM      1  C2  UNL d   1      -0.375   0.501  -0.155  0.00  0.00    -0.073 A 
ATOM      2  C3  UNL d   1      -0.605   1.616  -0.969  0.00  0.00    -0.002 A 
ATOM      3  C4  UNL d   1       0.386   2.069  -1.840  0.00  0.00     0.004 A 
ATOM      4  C5  UNL d   1       1.614   1.410  -1.910  0.00  0.00    -0.004 A 
ATOM      5  C6  UNL d   1       1.858   0.287  -1.113  0.00  0.00    -0.075 A 
ATOM      6  C7  UNL d   1       3.174  -0.432  -1.176  0.00  0.00     0.076 C 
ATOM      7  C8  UNL d   1       0.858  -0.161  -0.240  0.00  0.00     0.001 A 
ENDROOT
BRANCH   1   8
ATOM      8  C1  UNL d   1      -1.446   0.003   0.782  0.00  0.00     0.053 C 
ATOM      9  C   UNL d   1      -1.726   0.991   1.903  0.00  0.00     0.018 C 
ENDBRANCH   1   8
TORSDOF 1
ENDMDL
