MODEL 1
REMARK minimizedAffinity -6.26906013
REMARK minimizedRMSD -1
REMARK  1 active torsions:
REMARK  status: ('A' for Active; 'I' for Inactive)
REMARK    1  A    between atoms: C1_2  and  C2_3 
ROOT
ATOM      1  C2  UNL d   1       1.714   0.842  -1.868  0.00  0.00    -0.073 A 
ATOM      2  C3  UNL d   1       2.516  -0.304  -1.831  0.00  0.00    -0.002 A 
ATOM      3  C4  UNL d   1       2.233  -1.334  -0.933  0.00  0.00     0.004 A 
ATOM      4  C5  UNL d   1       1.144  -1.232  -0.068  0.00  0.00    -0.004 A 
ATOM      5  C6  UNL d   1       0.323  -0.100  -0.098  0.00  0.00    -0.075 A 
ATOM      6  C7  UNL d   1      -0.851   0.026   0.828  0.00  0.00     0.076 C 
ATOM      7  C8  UNL d   1       0.615   0.931  -1.001  0.00  0.00     0.001 A 
ENDROOT
BRANCH   1   8
ATOM      8  C1  UNL d   1       2.011   1.954  -2.840  0.00  0.00     0.053 C 
ATOM      9  C   UNL d   1       0.942   3.035  -2.814  0.00  0.00     0.018 C 
ENDBRANCH   1   8
TORSDOF 1
ENDMDL
