MODEL 1
REMARK minimizedAffinity 7.27413654
REMARK minimizedRMSD -1
REMARK  0 active torsions:
REMARK  status: ('A' for Active; 'I' for Inactive)
ROOT
ATOM      1  N1  IND d   1       0.029  -5.953  -5.865  0.00  0.00    -0.196 N 
ATOM      2  C2  IND d   1       1.354  -5.643  -6.000  0.00  0.00     0.054 A 
ATOM      3  C3  IND d   1       1.877  -5.287  -4.805  0.00  0.00    -0.031 A 
ATOM      4  C4  IND d   1       0.769  -5.242  -2.482  0.00  0.00     0.051 A 
ATOM      5  C5  IND d   1      -0.437  -5.408  -1.861  0.00  0.00    -0.031 A 
ATOM      6  C6  IND d   1      -1.572  -5.774  -2.556  0.00  0.00     0.015 A 
ATOM      7  C7  IND d   1      -1.540  -6.000  -3.903  0.00  0.00    -0.016 A 
ATOM      8  C8  IND d   1      -0.318  -5.825  -4.539  0.00  0.00    -0.047 A 
ATOM      9  C9  IND d   1       0.827  -5.413  -3.845  0.00  0.00    -0.096 A 
ATOM     10  HN1 IND d   1      -0.498  -6.188  -6.503  0.00  0.00     0.298 HD
ENDROOT
TORSDOF 0
ENDMDL
