MODEL 1
REMARK minimizedAffinity 5.67404032
REMARK minimizedRMSD -1
REMARK  0 active torsions:
REMARK  status: ('A' for Active; 'I' for Inactive)
ROOT
ATOM      1  N1  IND d   1       1.802  -6.000  -5.368  0.00  0.00    -0.196 N 
ATOM      2  C2  IND d   1       2.691  -5.971  -4.330  0.00  0.00     0.054 A 
ATOM      3  C3  IND d   1       2.033  -5.919  -3.150  0.00  0.00    -0.031 A 
ATOM      4  C4  IND d   1      -0.498  -5.975  -2.683  0.00  0.00     0.051 A 
ATOM      5  C5  IND d   1      -1.710  -5.962  -3.315  0.00  0.00    -0.031 A 
ATOM      6  C6  IND d   1      -1.815  -5.965  -4.691  0.00  0.00     0.015 A 
ATOM      7  C7  IND d   1      -0.708  -5.991  -5.490  0.00  0.00    -0.016 A 
ATOM      8  C8  IND d   1       0.525  -5.997  -4.852  0.00  0.00    -0.047 A 
ATOM      9  C9  IND d   1       0.639  -5.951  -3.457  0.00  0.00    -0.096 A 
ATOM     10  HN1 IND d   1       2.007  -6.017  -6.203  0.00  0.00     0.298 HD
ENDROOT
TORSDOF 0
ENDMDL
