MODEL 1
REMARK minimizedAffinity 4.61501503
REMARK minimizedRMSD -1
REMARK  0 active torsions:
REMARK  status: ('A' for Active; 'I' for Inactive)
ROOT
ATOM      1  N1  IND d   1      -0.000  -5.990  -5.980  0.00  0.00    -0.196 N 
ATOM      2  C2  IND d   1       1.319  -5.961  -5.624  0.00  0.00     0.054 A 
ATOM      3  C3  IND d   1       1.443  -5.922  -4.278  0.00  0.00    -0.031 A 
ATOM      4  C4  IND d   1      -0.384  -5.999  -2.465  0.00  0.00     0.051 A 
ATOM      5  C5  IND d   1      -1.741  -5.992  -2.303  0.00  0.00    -0.031 A 
ATOM      6  C6  IND d   1      -2.604  -5.987  -3.379  0.00  0.00     0.015 A 
ATOM      7  C7  IND d   1      -2.141  -6.000  -4.664  0.00  0.00    -0.016 A 
ATOM      8  C8  IND d   1      -0.764  -6.000  -4.833  0.00  0.00    -0.047 A 
ATOM      9  C9  IND d   1       0.118  -5.962  -3.745  0.00  0.00    -0.096 A 
ATOM     10  HN1 IND d   1      -0.302  -6.001  -6.785  0.00  0.00     0.298 HD
ENDROOT
TORSDOF 0
ENDMDL
