MODEL 1
REMARK minimizedAffinity 4.95217752
REMARK minimizedRMSD -1
REMARK  0 active torsions:
REMARK  status: ('A' for Active; 'I' for Inactive)
ROOT
ATOM      1  N1  IND d   1      -1.795  -6.000  -1.707  0.00  0.00    -0.196 N 
ATOM      2  C2  IND d   1      -2.978  -5.506  -2.182  0.00  0.00     0.054 A 
ATOM      3  C3  IND d   1      -2.788  -4.896  -3.373  0.00  0.00    -0.031 A 
ATOM      4  C4  IND d   1      -0.639  -4.677  -4.775  0.00  0.00     0.051 A 
ATOM      5  C5  IND d   1       0.702  -4.937  -4.738  0.00  0.00    -0.031 A 
ATOM      6  C6  IND d   1       1.291  -5.580  -3.668  0.00  0.00     0.015 A 
ATOM      7  C7  IND d   1       0.555  -5.999  -2.596  0.00  0.00    -0.016 A 
ATOM      8  C8  IND d   1      -0.806  -5.730  -2.627  0.00  0.00    -0.047 A 
ATOM      9  C9  IND d   1      -1.402  -5.040  -3.690  0.00  0.00    -0.096 A 
ATOM     10  HN1 IND d   1      -1.687  -6.409  -0.958  0.00  0.00     0.298 HD
ENDROOT
TORSDOF 0
ENDMDL
