MODEL 1
REMARK minimizedAffinity 12.9658651
REMARK minimizedRMSD -1
REMARK  0 active torsions:
REMARK  status: ('A' for Active; 'I' for Inactive)
ROOT
ATOM      1  N1  IND d   1      -0.919  -5.985  -5.776  0.00  0.00    -0.196 N 
ATOM      2  C2  IND d   1      -1.857  -5.982  -4.782  0.00  0.00     0.054 A 
ATOM      3  C3  IND d   1      -1.259  -5.995  -3.570  0.00  0.00    -0.031 A 
ATOM      4  C4  IND d   1       1.246  -5.922  -2.981  0.00  0.00     0.051 A 
ATOM      5  C5  IND d   1       2.488  -5.953  -3.552  0.00  0.00    -0.031 A 
ATOM      6  C6  IND d   1       2.661  -5.995  -4.920  0.00  0.00     0.015 A 
ATOM      7  C7  IND d   1       1.594  -5.995  -5.773  0.00  0.00    -0.016 A 
ATOM      8  C8  IND d   1       0.332  -5.971  -5.198  0.00  0.00    -0.047 A 
ATOM      9  C9  IND d   1       0.149  -5.971  -3.809  0.00  0.00    -0.096 A 
ATOM     10  HN1 IND d   1      -1.082  -5.995  -6.620  0.00  0.00     0.298 HD
ENDROOT
TORSDOF 0
ENDMDL
