MODEL 1
REMARK minimizedAffinity 6.14194441
REMARK minimizedRMSD -1
REMARK  0 active torsions:
REMARK  status: ('A' for Active; 'I' for Inactive)
ROOT
ATOM      1  N1  IND d   1      -2.499  -5.983  -3.732  0.00  0.00    -0.196 N 
ATOM      2  C2  IND d   1      -2.325  -5.981  -2.376  0.00  0.00     0.054 A 
ATOM      3  C3  IND d   1      -1.008  -6.000  -2.070  0.00  0.00    -0.031 A 
ATOM      4  C4  IND d   1       1.035  -5.931  -3.635  0.00  0.00     0.051 A 
ATOM      5  C5  IND d   1       1.381  -5.962  -4.957  0.00  0.00    -0.031 A 
ATOM      6  C6  IND d   1       0.432  -5.999  -5.959  0.00  0.00     0.015 A 
ATOM      7  C7  IND d   1      -0.904  -5.995  -5.674  0.00  0.00    -0.016 A 
ATOM      8  C8  IND d   1      -1.259  -5.971  -4.333  0.00  0.00    -0.047 A 
ATOM      9  C9  IND d   1      -0.300  -5.976  -3.311  0.00  0.00    -0.096 A 
ATOM     10  HN1 IND d   1      -3.255  -5.989  -4.140  0.00  0.00     0.298 HD
ENDROOT
TORSDOF 0
ENDMDL
