MODEL 1
REMARK minimizedAffinity 0.738342404
REMARK minimizedRMSD -1
REMARK  0 active torsions:
REMARK  status: ('A' for Active; 'I' for Inactive)
ROOT
ATOM      1  N1  IND d   1      -1.735  -6.000  -2.105  0.00  0.00    -0.196 N 
ATOM      2  C2  IND d   1      -3.069  -6.000  -2.403  0.00  0.00     0.054 A 
ATOM      3  C3  IND d   1      -3.251  -5.961  -3.742  0.00  0.00    -0.031 A 
ATOM      4  C4  IND d   1      -1.503  -5.995  -5.632  0.00  0.00     0.051 A 
ATOM      5  C5  IND d   1      -0.155  -5.957  -5.854  0.00  0.00    -0.031 A 
ATOM      6  C6  IND d   1       0.754  -5.935  -4.816  0.00  0.00     0.015 A 
ATOM      7  C7  IND d   1       0.347  -5.960  -3.512  0.00  0.00    -0.016 A 
ATOM      8  C8  IND d   1      -1.021  -5.991  -3.283  0.00  0.00    -0.047 A 
ATOM      9  C9  IND d   1      -1.950  -5.971  -4.332  0.00  0.00    -0.096 A 
ATOM     10  HN1 IND d   1      -1.398  -6.005  -1.314  0.00  0.00     0.298 HD
ENDROOT
TORSDOF 0
ENDMDL
