MODEL 1
REMARK minimizedAffinity -3.04248428
REMARK minimizedRMSD -1
REMARK  0 active torsions:
REMARK  status: ('A' for Active; 'I' for Inactive)
ROOT
ATOM      1  N1  IND d   1      -0.749  -5.997  -5.837  0.00  0.00    -0.196 N 
ATOM      2  C2  IND d   1       0.615  -5.993  -5.753  0.00  0.00     0.054 A 
ATOM      3  C3  IND d   1       1.006  -5.956  -4.459  0.00  0.00    -0.031 A 
ATOM      4  C4  IND d   1      -0.421  -6.000  -2.317  0.00  0.00     0.051 A 
ATOM      5  C5  IND d   1      -1.718  -5.967  -1.886  0.00  0.00    -0.031 A 
ATOM      6  C6  IND d   1      -2.779  -5.944  -2.767  0.00  0.00     0.015 A 
ATOM      7  C7  IND d   1      -2.583  -5.966  -4.119  0.00  0.00    -0.016 A 
ATOM      8  C8  IND d   1      -1.268  -5.992  -4.561  0.00  0.00    -0.047 A 
ATOM      9  C9  IND d   1      -0.186  -5.972  -3.671  0.00  0.00    -0.096 A 
ATOM     10  HN1 IND d   1      -1.207  -6.001  -6.565  0.00  0.00     0.298 HD
ENDROOT
TORSDOF 0
ENDMDL
