MODEL 1
REMARK minimizedAffinity 3.81635237
REMARK minimizedRMSD -1
REMARK  0 active torsions:
REMARK  status: ('A' for Active; 'I' for Inactive)
ROOT
ATOM      1  N1  IND d   1       1.535  -5.929  -3.987  0.00  0.00    -0.196 N 
ATOM      2  C2  IND d   1       1.320  -5.945  -5.337  0.00  0.00     0.054 A 
ATOM      3  C3  IND d   1      -0.005  -6.000  -5.602  0.00  0.00    -0.031 A 
ATOM      4  C4  IND d   1      -2.000  -5.968  -3.975  0.00  0.00     0.051 A 
ATOM      5  C5  IND d   1      -2.304  -5.995  -2.643  0.00  0.00    -0.031 A 
ATOM      6  C6  IND d   1      -1.324  -5.999  -1.671  0.00  0.00     0.015 A 
ATOM      7  C7  IND d   1       0.002  -5.964  -1.997  0.00  0.00    -0.016 A 
ATOM      8  C8  IND d   1       0.315  -5.944  -3.349  0.00  0.00    -0.047 A 
ATOM      9  C9  IND d   1      -0.674  -5.983  -4.340  0.00  0.00    -0.096 A 
ATOM     10  HN1 IND d   1       2.304  -5.912  -3.602  0.00  0.00     0.298 HD
ENDROOT
TORSDOF 0
ENDMDL
