MODEL 1
REMARK minimizedAffinity 12.009613
REMARK minimizedRMSD -1
REMARK  0 active torsions:
REMARK  status: ('A' for Active; 'I' for Inactive)
ROOT
ATOM      1  N1  IND d   1      -1.951  -5.932  -3.681  0.00  0.00    -0.196 N 
ATOM      2  C2  IND d   1      -2.363  -5.998  -4.983  0.00  0.00     0.054 A 
ATOM      3  C3  IND d   1      -1.297  -5.997  -5.814  0.00  0.00    -0.031 A 
ATOM      4  C4  IND d   1       1.215  -5.998  -5.253  0.00  0.00     0.051 A 
ATOM      5  C5  IND d   1       2.084  -5.906  -4.202  0.00  0.00    -0.031 A 
ATOM      6  C6  IND d   1       1.643  -5.820  -2.897  0.00  0.00     0.015 A 
ATOM      7  C7  IND d   1       0.312  -5.833  -2.592  0.00  0.00    -0.016 A 
ATOM      8  C8  IND d   1      -0.574  -5.919  -3.657  0.00  0.00    -0.047 A 
ATOM      9  C9  IND d   1      -0.133  -5.964  -4.986  0.00  0.00    -0.096 A 
ATOM     10  HN1 IND d   1      -2.465  -5.904  -2.992  0.00  0.00     0.298 HD
ENDROOT
TORSDOF 0
ENDMDL
