MODEL 1
REMARK minimizedAffinity 6.96888638
REMARK minimizedRMSD -1
REMARK  0 active torsions:
REMARK  status: ('A' for Active; 'I' for Inactive)
ROOT
ATOM      1  N1  IND d   1       5.529   0.091   1.875  0.00  0.00    -0.196 N 
ATOM      2  C2  IND d   1       5.184   0.121   3.197  0.00  0.00     0.054 A 
ATOM      3  C3  IND d   1       3.840   0.174   3.332  0.00  0.00    -0.031 A 
ATOM      4  C4  IND d   1       2.012   0.120   1.519  0.00  0.00     0.051 A 
ATOM      5  C5  IND d   1       1.838   0.133   0.164  0.00  0.00    -0.031 A 
ATOM      6  C6  IND d   1       2.908   0.129  -0.708  0.00  0.00     0.015 A 
ATOM      7  C7  IND d   1       4.196   0.101  -0.255  0.00  0.00    -0.016 A 
ATOM      8  C8  IND d   1       4.376   0.096   1.121  0.00  0.00    -0.047 A 
ATOM      9  C9  IND d   1       3.296   0.142   2.011  0.00  0.00    -0.096 A 
ATOM     10  HN1 IND d   1       6.331   0.073   1.566  0.00  0.00     0.298 HD
ENDROOT
TORSDOF 0
ENDMDL
