MODEL 1
REMARK minimizedAffinity 0.311478406
REMARK minimizedRMSD -1
REMARK  0 active torsions:
REMARK  status: ('A' for Active; 'I' for Inactive)
ROOT
ATOM      1  N1  IND d   1       1.808  -5.965  -3.862  0.00  0.00    -0.196 N 
ATOM      2  C2  IND d   1       2.126  -5.968  -5.191  0.00  0.00     0.054 A 
ATOM      3  C3  IND d   1       1.003  -5.997  -5.943  0.00  0.00    -0.031 A 
ATOM      4  C4  IND d   1      -1.462  -5.941  -5.205  0.00  0.00     0.051 A 
ATOM      5  C5  IND d   1      -2.254  -5.972  -4.092  0.00  0.00    -0.031 A 
ATOM      6  C6  IND d   1      -1.722  -6.000  -2.819  0.00  0.00     0.015 A 
ATOM      7  C7  IND d   1      -0.372  -5.986  -2.611  0.00  0.00    -0.016 A 
ATOM      8  C8  IND d   1       0.435  -5.962  -3.739  0.00  0.00    -0.047 A 
ATOM      9  C9  IND d   1      -0.099  -5.977  -5.034  0.00  0.00    -0.096 A 
ATOM     10  HN1 IND d   1       2.370  -5.965  -3.211  0.00  0.00     0.298 HD
ENDROOT
TORSDOF 0
ENDMDL
