MODEL 1
REMARK minimizedAffinity 8.58728409
REMARK minimizedRMSD -1
REMARK  0 active torsions:
REMARK  status: ('A' for Active; 'I' for Inactive)
ROOT
ATOM      1  N1  IND d   1      -0.506  -5.993  -2.603  0.00  0.00    -0.196 N 
ATOM      2  C2  IND d   1      -1.718  -5.986  -3.235  0.00  0.00     0.054 A 
ATOM      3  C3  IND d   1      -1.550  -5.949  -4.576  0.00  0.00    -0.031 A 
ATOM      4  C4  IND d   1       0.625  -5.998  -5.953  0.00  0.00     0.051 A 
ATOM      5  C5  IND d   1       1.985  -5.968  -5.820  0.00  0.00    -0.031 A 
ATOM      6  C6  IND d   1       2.596  -5.948  -4.583  0.00  0.00     0.015 A 
ATOM      7  C7  IND d   1       1.868  -5.968  -3.428  0.00  0.00    -0.016 A 
ATOM      8  C8  IND d   1       0.486  -5.991  -3.559  0.00  0.00    -0.047 A 
ATOM      9  C9  IND d   1      -0.141  -5.968  -4.811  0.00  0.00    -0.096 A 
ATOM     10  HN1 IND d   1      -0.384  -5.998  -1.752  0.00  0.00     0.298 HD
ENDROOT
TORSDOF 0
ENDMDL
