MODEL 1
REMARK minimizedAffinity -2.83391786
REMARK minimizedRMSD -1
REMARK  0 active torsions:
REMARK  status: ('A' for Active; 'I' for Inactive)
ROOT
ATOM      1  N1  IND d   1      -3.399  -5.748  -4.230  0.00  0.00    -0.196 N 
ATOM      2  C2  IND d   1      -3.584  -5.984  -2.896  0.00  0.00     0.054 A 
ATOM      3  C3  IND d   1      -2.396  -5.999  -2.251  0.00  0.00    -0.031 A 
ATOM      4  C4  IND d   1      -0.032  -5.559  -3.169  0.00  0.00     0.051 A 
ATOM      5  C5  IND d   1       0.647  -5.335  -4.334  0.00  0.00    -0.031 A 
ATOM      6  C6  IND d   1      -0.001  -5.232  -5.548  0.00  0.00     0.015 A 
ATOM      7  C7  IND d   1      -1.360  -5.339  -5.640  0.00  0.00    -0.016 A 
ATOM      8  C8  IND d   1      -2.052  -5.574  -4.461  0.00  0.00    -0.047 A 
ATOM      9  C9  IND d   1      -1.395  -5.721  -3.232  0.00  0.00    -0.096 A 
ATOM     10  HN1 IND d   1      -4.019  -5.714  -4.824  0.00  0.00     0.298 HD
ENDROOT
TORSDOF 0
ENDMDL
