MODEL 1
REMARK minimizedAffinity 12.6578932
REMARK minimizedRMSD -1
REMARK  0 active torsions:
REMARK  status: ('A' for Active; 'I' for Inactive)
ROOT
ATOM      1  N1  IND d   1      -0.830  -5.888  -3.309  0.00  0.00    -0.196 N 
ATOM      2  C2  IND d   1      -0.977  -5.969  -4.666  0.00  0.00     0.054 A 
ATOM      3  C3  IND d   1      -2.287  -5.999  -4.996  0.00  0.00    -0.031 A 
ATOM      4  C4  IND d   1      -4.361  -5.826  -3.480  0.00  0.00     0.051 A 
ATOM      5  C5  IND d   1      -4.733  -5.775  -2.166  0.00  0.00    -0.031 A 
ATOM      6  C6  IND d   1      -3.804  -5.756  -1.145  0.00  0.00     0.015 A 
ATOM      7  C7  IND d   1      -2.463  -5.776  -1.403  0.00  0.00    -0.016 A 
ATOM      8  C8  IND d   1      -2.081  -5.835  -2.735  0.00  0.00    -0.047 A 
ATOM      9  C9  IND d   1      -3.019  -5.898  -3.774  0.00  0.00    -0.096 A 
ATOM     10  HN1 IND d   1      -0.082  -5.874  -2.886  0.00  0.00     0.298 HD
ENDROOT
TORSDOF 0
ENDMDL
