MODEL 1
REMARK minimizedAffinity 2.86585903
REMARK minimizedRMSD -1
REMARK  0 active torsions:
REMARK  status: ('A' for Active; 'I' for Inactive)
ROOT
ATOM      1  N1  IND d   1       0.395   0.903   0.723  0.00  0.00    -0.196 N 
ATOM      2  C2  IND d   1       0.268   1.164  -0.612  0.00  0.00     0.054 A 
ATOM      3  C3  IND d   1       0.237   0.011  -1.317  0.00  0.00    -0.031 A 
ATOM      4  C4  IND d   1       0.277  -2.422  -0.474  0.00  0.00     0.051 A 
ATOM      5  C5  IND d   1       0.421  -3.165   0.664  0.00  0.00    -0.031 A 
ATOM      6  C6  IND d   1       0.564  -2.579   1.905  0.00  0.00     0.015 A 
ATOM      7  C7  IND d   1       0.557  -1.221   2.056  0.00  0.00    -0.016 A 
ATOM      8  C8  IND d   1       0.418  -0.463   0.902  0.00  0.00    -0.047 A 
ATOM      9  C9  IND d   1       0.315  -1.052  -0.365  0.00  0.00    -0.096 A 
ATOM     10  HN1 IND d   1       0.451   1.492   1.347  0.00  0.00     0.298 HD
ENDROOT
TORSDOF 0
ENDMDL
