MODEL 1
REMARK minimizedAffinity -5.33400488
REMARK minimizedRMSD -1
REMARK  2 active torsions:
REMARK  status: ('A' for Active; 'I' for Inactive)
REMARK    1  A    between atoms: C1_2  and  C2_3 
REMARK    2  A    between atoms: C2_3  and  C3_4 
ROOT
ATOM      1  C3  UNL d   1       0.242   0.591   0.375  0.00  0.00    -0.075 A 
ATOM      2  C4  UNL d   1      -0.389   1.812   0.654  0.00  0.00     0.002 A 
ATOM      3  C5  UNL d   1       0.362   2.934   1.006  0.00  0.00     0.002 A 
ATOM      4  C6  UNL d   1       1.750   2.847   1.094  0.00  0.00    -0.004 A 
ATOM      5  C7  UNL d   1       2.386   1.635   0.835  0.00  0.00     0.002 A 
ATOM      6  C8  UNL d   1       1.637   0.512   0.478  0.00  0.00     0.002 A 
ENDROOT
BRANCH   1   7
ATOM      7  C2  UNL d   1      -0.563  -0.619  -0.035  0.00  0.00     0.056 C 
BRANCH   7   8
ATOM      8  C1  UNL d   1       0.262  -1.904  -0.160  0.00  0.00     0.007 C 
ATOM      9  C   UNL d   1      -0.290  -2.873  -1.197  0.00  0.00     0.009 C 
ENDBRANCH   7   8
ENDBRANCH   1   7
TORSDOF 2
ENDMDL
