MODEL 1
REMARK minimizedAffinity -4.79218531
REMARK minimizedRMSD -1
REMARK  2 active torsions:
REMARK  status: ('A' for Active; 'I' for Inactive)
REMARK    1  A    between atoms: C1_2  and  C2_3 
REMARK    2  A    between atoms: C2_3  and  C3_4 
ROOT
ATOM      1  C3  UNL d   1      -0.131   0.039   0.145  0.00  0.00    -0.075 A 
ATOM      2  C4  UNL d   1       0.809   1.066  -0.028  0.00  0.00     0.002 A 
ATOM      3  C5  UNL d   1       0.434   2.401   0.121  0.00  0.00     0.002 A 
ATOM      4  C6  UNL d   1      -0.884   2.727   0.433  0.00  0.00    -0.004 A 
ATOM      5  C7  UNL d   1      -1.830   1.716   0.591  0.00  0.00     0.002 A 
ATOM      6  C8  UNL d   1      -1.456   0.379   0.447  0.00  0.00     0.002 A 
ENDROOT
BRANCH   1   7
ATOM      7  C2  UNL d   1       0.275  -1.410   0.015  0.00  0.00     0.056 C 
BRANCH   7   8
ATOM      8  C1  UNL d   1      -0.678  -2.251  -0.840  0.00  0.00     0.007 C 
ATOM      9  C   UNL d   1      -0.045  -2.750  -2.132  0.00  0.00     0.009 C 
ENDBRANCH   7   8
ENDBRANCH   1   7
TORSDOF 2
ENDMDL
