MODEL 1
REMARK minimizedAffinity -4.30894375
REMARK minimizedRMSD -1
REMARK  2 active torsions:
REMARK  status: ('A' for Active; 'I' for Inactive)
REMARK    1  A    between atoms: C1_2  and  C2_3 
REMARK    2  A    between atoms: C2_3  and  C3_4 
ROOT
ATOM      1  C3  UNL d   1      -0.300  -0.263   0.274  0.00  0.00    -0.075 A 
ATOM      2  C4  UNL d   1       0.642   0.767   0.412  0.00  0.00     0.002 A 
ATOM      3  C5  UNL d   1       0.231   2.099   0.467  0.00  0.00     0.002 A 
ATOM      4  C6  UNL d   1      -1.122   2.419   0.375  0.00  0.00    -0.004 A 
ATOM      5  C7  UNL d   1      -2.065   1.405   0.222  0.00  0.00     0.002 A 
ATOM      6  C8  UNL d   1      -1.657   0.071   0.171  0.00  0.00     0.002 A 
ENDROOT
BRANCH   1   7
ATOM      7  C2  UNL d   1       0.135  -1.709   0.243  0.00  0.00     0.056 C 
BRANCH   7   8
ATOM      8  C1  UNL d   1      -0.712  -2.596  -0.675  0.00  0.00     0.007 C 
ATOM      9  C   UNL d   1      -0.048  -2.878  -2.016  0.00  0.00     0.009 C 
ENDBRANCH   7   8
ENDBRANCH   1   7
TORSDOF 2
ENDMDL
