MODEL 1
REMARK minimizedAffinity -4.2221446
REMARK minimizedRMSD -1
REMARK  2 active torsions:
REMARK  status: ('A' for Active; 'I' for Inactive)
REMARK    1  A    between atoms: C1_2  and  C2_3 
REMARK    2  A    between atoms: C2_3  and  C3_4 
ROOT
ATOM      1  C3  UNL d   1      -0.139  -0.239   0.139  0.00  0.00    -0.075 A 
ATOM      2  C4  UNL d   1       0.882   0.722   0.180  0.00  0.00     0.002 A 
ATOM      3  C5  UNL d   1       0.591   2.053   0.477  0.00  0.00     0.002 A 
ATOM      4  C6  UNL d   1      -0.723   2.443   0.727  0.00  0.00    -0.004 A 
ATOM      5  C7  UNL d   1      -1.748   1.501   0.672  0.00  0.00     0.002 A 
ATOM      6  C8  UNL d   1      -1.458   0.167   0.379  0.00  0.00     0.002 A 
ENDROOT
BRANCH   1   7
ATOM      7  C2  UNL d   1       0.173  -1.687  -0.153  0.00  0.00     0.056 C 
BRANCH   7   8
ATOM      8  C1  UNL d   1      -0.917  -2.412  -0.949  0.00  0.00     0.007 C 
ATOM      9  C   UNL d   1      -0.461  -2.844  -2.336  0.00  0.00     0.009 C 
ENDBRANCH   7   8
ENDBRANCH   1   7
TORSDOF 2
ENDMDL
