MODEL 1
REMARK minimizedAffinity -1.71656311
REMARK minimizedRMSD -1
REMARK  2 active torsions:
REMARK  status: ('A' for Active; 'I' for Inactive)
REMARK    1  A    between atoms: C1_2  and  C2_3 
REMARK    2  A    between atoms: C2_3  and  C3_4 
ROOT
ATOM      1  C3  UNL d   1      -0.358  -0.566   0.078  0.00  0.00    -0.075 A 
ATOM      2  C4  UNL d   1      -1.507  -0.108   0.738  0.00  0.00     0.002 A 
ATOM      3  C5  UNL d   1      -1.660   1.245   1.038  0.00  0.00     0.002 A 
ATOM      4  C6  UNL d   1      -0.665   2.156   0.691  0.00  0.00    -0.004 A 
ATOM      5  C7  UNL d   1       0.489   1.710   0.050  0.00  0.00     0.002 A 
ATOM      6  C8  UNL d   1       0.643   0.357  -0.255  0.00  0.00     0.002 A 
ENDROOT
BRANCH   1   7
ATOM      7  C2  UNL d   1      -0.199  -2.025  -0.276  0.00  0.00     0.056 C 
BRANCH   7   8
ATOM      8  C1  UNL d   1       0.184  -2.275  -1.739  0.00  0.00     0.007 C 
ATOM      9  C   UNL d   1      -0.548  -3.458  -2.357  0.00  0.00     0.009 C 
ENDBRANCH   7   8
ENDBRANCH   1   7
TORSDOF 2
ENDMDL
