MODEL 1
REMARK minimizedAffinity -4.15163422
REMARK minimizedRMSD -1
REMARK  2 active torsions:
REMARK  status: ('A' for Active; 'I' for Inactive)
REMARK    1  A    between atoms: C1_2  and  C2_3 
REMARK    2  A    between atoms: C2_3  and  C3_4 
ROOT
ATOM      1  C3  UNL d   1       0.208  -0.157   0.067  0.00  0.00    -0.075 A 
ATOM      2  C4  UNL d   1       1.527   0.286   0.240  0.00  0.00     0.002 A 
ATOM      3  C5  UNL d   1       1.786   1.593   0.655  0.00  0.00     0.002 A 
ATOM      4  C6  UNL d   1       0.733   2.474   0.892  0.00  0.00    -0.004 A 
ATOM      5  C7  UNL d   1      -0.580   2.049   0.708  0.00  0.00     0.002 A 
ATOM      6  C8  UNL d   1      -0.843   0.741   0.297  0.00  0.00     0.002 A 
ENDROOT
BRANCH   1   7
ATOM      7  C2  UNL d   1      -0.081  -1.579  -0.353  0.00  0.00     0.056 C 
BRANCH   7   8
ATOM      8  C1  UNL d   1       0.311  -1.893  -1.801  0.00  0.00     0.007 C 
ATOM      9  C   UNL d   1      -0.504  -3.025  -2.411  0.00  0.00     0.009 C 
ENDBRANCH   7   8
ENDBRANCH   1   7
TORSDOF 2
ENDMDL
