MODEL 1
REMARK minimizedAffinity 0.309575915
REMARK minimizedRMSD -1
REMARK  2 active torsions:
REMARK  status: ('A' for Active; 'I' for Inactive)
REMARK    1  A    between atoms: C1_2  and  C2_3 
REMARK    2  A    between atoms: C2_3  and  C3_4 
ROOT
ATOM      1  C3  UNL d   1       0.997   1.239   0.947  0.00  0.00    -0.075 A 
ATOM      2  C4  UNL d   1       0.009   2.225   1.086  0.00  0.00     0.002 A 
ATOM      3  C5  UNL d   1      -1.327   1.934   0.808  0.00  0.00     0.002 A 
ATOM      4  C6  UNL d   1      -1.690   0.660   0.379  0.00  0.00    -0.004 A 
ATOM      5  C7  UNL d   1      -0.715  -0.323   0.221  0.00  0.00     0.002 A 
ATOM      6  C8  UNL d   1       0.621  -0.036   0.503  0.00  0.00     0.002 A 
ENDROOT
BRANCH   1   7
ATOM      7  C2  UNL d   1       2.440   1.540   1.274  0.00  0.00     0.056 C 
BRANCH   7   8
ATOM      8  C1  UNL d   1       2.664   2.926   1.888  0.00  0.00     0.007 C 
ATOM      9  C   UNL d   1       3.529   2.894   3.141  0.00  0.00     0.009 C 
ENDBRANCH   7   8
ENDBRANCH   1   7
TORSDOF 2
ENDMDL
