MODEL 1
REMARK minimizedAffinity -2.86431241
REMARK minimizedRMSD -1
REMARK  2 active torsions:
REMARK  status: ('A' for Active; 'I' for Inactive)
REMARK    1  A    between atoms: C1_2  and  C2_3 
REMARK    2  A    between atoms: C2_3  and  C3_4 
ROOT
ATOM      1  C3  UNL d   1       0.011   0.419   0.388  0.00  0.00    -0.075 A 
ATOM      2  C4  UNL d   1      -0.047  -0.972   0.552  0.00  0.00     0.002 A 
ATOM      3  C5  UNL d   1       1.123  -1.718   0.695  0.00  0.00     0.002 A 
ATOM      4  C6  UNL d   1       2.364  -1.085   0.664  0.00  0.00    -0.004 A 
ATOM      5  C7  UNL d   1       2.434   0.295   0.485  0.00  0.00     0.002 A 
ATOM      6  C8  UNL d   1       1.265   1.044   0.346  0.00  0.00     0.002 A 
ENDROOT
BRANCH   1   7
ATOM      7  C2  UNL d   1      -1.253   1.236   0.263  0.00  0.00     0.056 C 
BRANCH   7   8
ATOM      8  C1  UNL d   1      -2.526   0.480   0.659  0.00  0.00     0.007 C 
ATOM      9  C   UNL d   1      -3.799   1.136   0.142  0.00  0.00     0.009 C 
ENDBRANCH   7   8
ENDBRANCH   1   7
TORSDOF 2
ENDMDL
