MODEL 1
REMARK minimizedAffinity -2.28940344
REMARK minimizedRMSD -1
REMARK  2 active torsions:
REMARK  status: ('A' for Active; 'I' for Inactive)
REMARK    1  A    between atoms: C1_2  and  C2_3 
REMARK    2  A    between atoms: C2_3  and  C3_4 
ROOT
ATOM      1  C3  UNL d   1       0.127   1.065   0.334  0.00  0.00    -0.075 A 
ATOM      2  C4  UNL d   1      -0.802   0.017   0.400  0.00  0.00     0.002 A 
ATOM      3  C5  UNL d   1      -0.415  -1.291   0.107  0.00  0.00     0.002 A 
ATOM      4  C6  UNL d   1       0.898  -1.566  -0.265  0.00  0.00    -0.004 A 
ATOM      5  C7  UNL d   1       1.826  -0.530  -0.351  0.00  0.00     0.002 A 
ATOM      6  C8  UNL d   1       1.443   0.780  -0.054  0.00  0.00     0.002 A 
ENDROOT
BRANCH   1   7
ATOM      7  C2  UNL d   1      -0.277   2.479   0.679  0.00  0.00     0.056 C 
BRANCH   7   8
ATOM      8  C1  UNL d   1       0.885   3.477   0.683  0.00  0.00     0.007 C 
ATOM      9  C   UNL d   1       1.962   3.141   1.706  0.00  0.00     0.009 C 
ENDBRANCH   7   8
ENDBRANCH   1   7
TORSDOF 2
ENDMDL
