MODEL 1
REMARK minimizedAffinity -4.60968971
REMARK minimizedRMSD -1
REMARK  2 active torsions:
REMARK  status: ('A' for Active; 'I' for Inactive)
REMARK    1  A    between atoms: C1_2  and  C2_3 
REMARK    2  A    between atoms: C2_3  and  C3_4 
ROOT
ATOM      1  C3  UNL d   1       0.634   0.315   0.564  0.00  0.00    -0.075 A 
ATOM      2  C4  UNL d   1       1.869   0.913   0.850  0.00  0.00     0.002 A 
ATOM      3  C5  UNL d   1       1.953   2.285   1.093  0.00  0.00     0.002 A 
ATOM      4  C6  UNL d   1       0.807   3.075   1.043  0.00  0.00    -0.004 A 
ATOM      5  C7  UNL d   1      -0.423   2.494   0.744  0.00  0.00     0.002 A 
ATOM      6  C8  UNL d   1      -0.511   1.121   0.504  0.00  0.00     0.002 A 
ENDROOT
BRANCH   1   7
ATOM      7  C2  UNL d   1       0.532  -1.173   0.329  0.00  0.00     0.056 C 
BRANCH   7   8
ATOM      8  C1  UNL d   1      -0.773  -1.611  -0.345  0.00  0.00     0.007 C 
ATOM      9  C   UNL d   1      -0.635  -2.903  -1.139  0.00  0.00     0.009 C 
ENDBRANCH   7   8
ENDBRANCH   1   7
TORSDOF 2
ENDMDL
