MODEL 1
REMARK minimizedAffinity -3.17002082
REMARK minimizedRMSD -1
REMARK  2 active torsions:
REMARK  status: ('A' for Active; 'I' for Inactive)
REMARK    1  A    between atoms: C1_2  and  C2_3 
REMARK    2  A    between atoms: C2_3  and  C3_4 
ROOT
ATOM      1  C3  UNL d   1      -0.118   0.221   0.230  0.00  0.00    -0.075 A 
ATOM      2  C4  UNL d   1       0.974   0.897   0.794  0.00  0.00     0.002 A 
ATOM      3  C5  UNL d   1       0.916   2.273   1.020  0.00  0.00     0.002 A 
ATOM      4  C6  UNL d   1      -0.228   2.990   0.677  0.00  0.00    -0.004 A 
ATOM      5  C7  UNL d   1      -1.312   2.332   0.101  0.00  0.00     0.002 A 
ATOM      6  C8  UNL d   1      -1.259   0.955  -0.122  0.00  0.00     0.002 A 
ENDROOT
BRANCH   1   7
ATOM      7  C2  UNL d   1      -0.073  -1.272   0.010  0.00  0.00     0.056 C 
BRANCH   7   8
ATOM      8  C1  UNL d   1      -0.326  -1.697  -1.440  0.00  0.00     0.007 C 
ATOM      9  C   UNL d   1      -0.980  -3.067  -1.559  0.00  0.00     0.009 C 
ENDBRANCH   7   8
ENDBRANCH   1   7
TORSDOF 2
ENDMDL
