MODEL 1
REMARK minimizedAffinity -4.87886286
REMARK minimizedRMSD -1
REMARK  2 active torsions:
REMARK  status: ('A' for Active; 'I' for Inactive)
REMARK    1  A    between atoms: C1_2  and  C2_3 
REMARK    2  A    between atoms: C2_3  and  C3_4 
ROOT
ATOM      1  C3  UNL d   1      -0.580  -0.698   0.199  0.00  0.00    -0.075 A 
ATOM      2  C4  UNL d   1      -0.148   0.589  -0.152  0.00  0.00     0.002 A 
ATOM      3  C5  UNL d   1      -0.922   1.706   0.161  0.00  0.00     0.002 A 
ATOM      4  C6  UNL d   1      -2.140   1.552   0.819  0.00  0.00    -0.004 A 
ATOM      5  C7  UNL d   1      -2.587   0.276   1.158  0.00  0.00     0.002 A 
ATOM      6  C8  UNL d   1      -1.813  -0.843   0.850  0.00  0.00     0.002 A 
ENDROOT
BRANCH   1   7
ATOM      7  C2  UNL d   1       0.267  -1.909  -0.111  0.00  0.00     0.056 C 
BRANCH   7   8
ATOM      8  C1  UNL d   1      -0.352  -2.854  -1.146  0.00  0.00     0.007 C 
ATOM      9  C   UNL d   1      -0.272  -2.320  -2.570  0.00  0.00     0.009 C 
ENDBRANCH   7   8
ENDBRANCH   1   7
TORSDOF 2
ENDMDL
