MODEL 1
REMARK minimizedAffinity -3.21556282
REMARK minimizedRMSD -1
REMARK  2 active torsions:
REMARK  status: ('A' for Active; 'I' for Inactive)
REMARK    1  A    between atoms: C1_2  and  C2_3 
REMARK    2  A    between atoms: C2_3  and  C3_4 
ROOT
ATOM      1  C3  UNL d   1      -0.378  -1.290  -0.003  0.00  0.00    -0.075 A 
ATOM      2  C4  UNL d   1      -1.205  -1.733  -1.045  0.00  0.00     0.002 A 
ATOM      3  C5  UNL d   1      -1.022  -2.997  -1.606  0.00  0.00     0.002 A 
ATOM      4  C6  UNL d   1      -0.005  -3.828  -1.142  0.00  0.00    -0.004 A 
ATOM      5  C7  UNL d   1       0.833  -3.392  -0.118  0.00  0.00     0.002 A 
ATOM      6  C8  UNL d   1       0.649  -2.130   0.449  0.00  0.00     0.002 A 
ENDROOT
BRANCH   1   7
ATOM      7  C2  UNL d   1      -0.590   0.065   0.629  0.00  0.00     0.056 C 
BRANCH   7   8
ATOM      8  C1  UNL d   1      -1.771   0.847   0.046  0.00  0.00     0.007 C 
ATOM      9  C   UNL d   1      -1.467   2.325  -0.165  0.00  0.00     0.009 C 
ENDBRANCH   7   8
ENDBRANCH   1   7
TORSDOF 2
ENDMDL
