MODEL 1
REMARK minimizedAffinity 5.54547691
REMARK minimizedRMSD -1
REMARK  0 active torsions:
REMARK  status: ('A' for Active; 'I' for Inactive)
ROOT
ATOM      1  N1  IND d   1      -2.189   1.187   2.623  0.00  0.00    -0.196 N 
ATOM      2  C2  IND d   1      -2.727   2.359   2.171  0.00  0.00     0.054 A 
ATOM      3  C3  IND d   1      -1.822   3.037   1.430  0.00  0.00    -0.031 A 
ATOM      4  C4  IND d   1       0.566   2.363   0.745  0.00  0.00     0.051 A 
ATOM      5  C5  IND d   1       1.512   1.397   0.945  0.00  0.00    -0.031 A 
ATOM      6  C6  IND d   1       1.266   0.288   1.729  0.00  0.00     0.015 A 
ATOM      7  C7  IND d   1       0.057   0.097   2.335  0.00  0.00    -0.016 A 
ATOM      8  C8  IND d   1      -0.904   1.079   2.139  0.00  0.00    -0.047 A 
ATOM      9  C9  IND d   1      -0.646   2.228   1.379  0.00  0.00    -0.096 A 
ATOM     10  HN1 IND d   1      -2.586   0.613   3.125  0.00  0.00     0.298 HD
ENDROOT
TORSDOF 0
ENDMDL
