MODEL 1
REMARK minimizedAffinity 2.93344069
REMARK minimizedRMSD -1
REMARK  0 active torsions:
REMARK  status: ('A' for Active; 'I' for Inactive)
ROOT
ATOM      1  N1  IND d   1      -5.996   4.922   5.768  0.00  0.00    -0.196 N 
ATOM      2  C2  IND d   1      -5.893   5.856   4.776  0.00  0.00     0.054 A 
ATOM      3  C3  IND d   1      -5.232   5.343   3.714  0.00  0.00    -0.031 A 
ATOM      4  C4  IND d   1      -4.322   2.963   3.348  0.00  0.00     0.051 A 
ATOM      5  C5  IND d   1      -4.146   1.767   3.986  0.00  0.00    -0.031 A 
ATOM      6  C6  IND d   1      -4.590   1.556   5.276  0.00  0.00     0.015 A 
ATOM      7  C7  IND d   1      -5.239   2.535   5.974  0.00  0.00    -0.016 A 
ATOM      8  C8  IND d   1      -5.412   3.753   5.333  0.00  0.00    -0.047 A 
ATOM      9  C9  IND d   1      -4.927   3.986   4.040  0.00  0.00    -0.096 A 
ATOM     10  HN1 IND d   1      -6.364   5.044   6.536  0.00  0.00     0.298 HD
ENDROOT
TORSDOF 0
ENDMDL
