MODEL 1
REMARK minimizedAffinity 2.22311425
REMARK minimizedRMSD -1
REMARK  0 active torsions:
REMARK  status: ('A' for Active; 'I' for Inactive)
ROOT
ATOM      1  N1  IND d   1      -2.366  -0.298   2.476  0.00  0.00    -0.196 N 
ATOM      2  C2  IND d   1      -1.688  -1.483   2.409  0.00  0.00     0.054 A 
ATOM      3  C3  IND d   1      -0.427  -1.279   1.966  0.00  0.00    -0.031 A 
ATOM      4  C4  IND d   1       0.767   0.927   1.390  0.00  0.00     0.051 A 
ATOM      5  C5  IND d   1       0.547   2.270   1.262  0.00  0.00    -0.031 A 
ATOM      6  C6  IND d   1      -0.680   2.837   1.540  0.00  0.00     0.015 A 
ATOM      7  C7  IND d   1      -1.734   2.081   1.970  0.00  0.00    -0.016 A 
ATOM      8  C8  IND d   1      -1.515   0.716   2.094  0.00  0.00    -0.047 A 
ATOM      9  C9  IND d   1      -0.285   0.129   1.772  0.00  0.00    -0.096 A 
ATOM     10  HN1 IND d   1      -3.186  -0.202   2.716  0.00  0.00     0.298 HD
ENDROOT
TORSDOF 0
ENDMDL
