MODEL 1
REMARK minimizedAffinity -3.46569777
REMARK minimizedRMSD -1
REMARK  0 active torsions:
REMARK  status: ('A' for Active; 'I' for Inactive)
ROOT
ATOM      1  N1  IND d   1      -3.001   2.102   2.622  0.00  0.00    -0.196 N 
ATOM      2  C2  IND d   1      -3.505   1.019   3.287  0.00  0.00     0.054 A 
ATOM      3  C3  IND d   1      -2.657  -0.029   3.191  0.00  0.00    -0.031 A 
ATOM      4  C4  IND d   1      -0.338  -0.160   2.079  0.00  0.00     0.051 A 
ATOM      5  C5  IND d   1       0.531   0.565   1.313  0.00  0.00    -0.031 A 
ATOM      6  C6  IND d   1       0.264   1.866   0.940  0.00  0.00     0.015 A 
ATOM      7  C7  IND d   1      -0.883   2.497   1.329  0.00  0.00    -0.016 A 
ATOM      8  C8  IND d   1      -1.772   1.762   2.100  0.00  0.00    -0.047 A 
ATOM      9  C9  IND d   1      -1.526   0.428   2.447  0.00  0.00    -0.096 A 
ATOM     10  HN1 IND d   1      -3.387   2.866   2.543  0.00  0.00     0.298 HD
ENDROOT
TORSDOF 0
ENDMDL
