MODEL 1
REMARK minimizedAffinity 9.70661736
REMARK minimizedRMSD -1
REMARK  0 active torsions:
REMARK  status: ('A' for Active; 'I' for Inactive)
ROOT
ATOM      1  N1  IND d   1      -1.545   1.760   2.991  0.00  0.00    -0.196 N 
ATOM      2  C2  IND d   1      -1.859   2.915   2.331  0.00  0.00     0.054 A 
ATOM      3  C3  IND d   1      -1.023   3.101   1.285  0.00  0.00    -0.031 A 
ATOM      4  C4  IND d   1       0.866   1.586   0.411  0.00  0.00     0.051 A 
ATOM      5  C5  IND d   1       1.552   0.441   0.705  0.00  0.00    -0.031 A 
ATOM      6  C6  IND d   1       1.232  -0.341   1.797  0.00  0.00     0.015 A 
ATOM      7  C7  IND d   1       0.202  -0.010   2.632  0.00  0.00    -0.016 A 
ATOM      8  C8  IND d   1      -0.491   1.156   2.341  0.00  0.00    -0.047 A 
ATOM      9  C9  IND d   1      -0.144   1.975   1.259  0.00  0.00    -0.096 A 
ATOM     10  HN1 IND d   1      -1.939   1.461   3.694  0.00  0.00     0.298 HD
ENDROOT
TORSDOF 0
ENDMDL
