MODEL 1
REMARK minimizedAffinity 1.64076877
REMARK minimizedRMSD -1
REMARK  0 active torsions:
REMARK  status: ('A' for Active; 'I' for Inactive)
ROOT
ATOM      1  N1  IND d   1       0.831   2.531   1.298  0.00  0.00    -0.196 N 
ATOM      2  C2  IND d   1       0.173   3.643   0.851  0.00  0.00     0.054 A 
ATOM      3  C3  IND d   1      -1.164   3.458   0.920  0.00  0.00    -0.031 A 
ATOM      4  C4  IND d   1      -2.493   1.449   1.829  0.00  0.00     0.051 A 
ATOM      5  C5  IND d   1      -2.331   0.181   2.312  0.00  0.00    -0.031 A 
ATOM      6  C6  IND d   1      -1.083  -0.379   2.489  0.00  0.00     0.015 A 
ATOM      7  C7  IND d   1       0.057   0.316   2.197  0.00  0.00    -0.016 A 
ATOM      8  C8  IND d   1      -0.103   1.601   1.699  0.00  0.00    -0.047 A 
ATOM      9  C9  IND d   1      -1.369   2.159   1.478  0.00  0.00    -0.096 A 
ATOM     10  HN1 IND d   1       1.684   2.430   1.324  0.00  0.00     0.298 HD
ENDROOT
TORSDOF 0
ENDMDL
