MODEL 1
REMARK minimizedAffinity 8.57154465
REMARK minimizedRMSD -1
REMARK  0 active torsions:
REMARK  status: ('A' for Active; 'I' for Inactive)
ROOT
ATOM      1  N1  IND d   1      -2.025   1.265   1.834  0.00  0.00    -0.196 N 
ATOM      2  C2  IND d   1      -2.433   2.452   1.294  0.00  0.00     0.054 A 
ATOM      3  C3  IND d   1      -1.407   3.054   0.650  0.00  0.00    -0.031 A 
ATOM      4  C4  IND d   1       0.998   2.220   0.270  0.00  0.00     0.051 A 
ATOM      5  C5  IND d   1       1.853   1.207   0.604  0.00  0.00    -0.031 A 
ATOM      6  C6  IND d   1       1.450   0.139   1.378  0.00  0.00     0.015 A 
ATOM      7  C7  IND d   1       0.168   0.037   1.840  0.00  0.00    -0.016 A 
ATOM      8  C8  IND d   1      -0.701   1.067   1.509  0.00  0.00    -0.047 A 
ATOM      9  C9  IND d   1      -0.286   2.176   0.759  0.00  0.00    -0.096 A 
ATOM     10  HN1 IND d   1      -2.513   0.730   2.298  0.00  0.00     0.298 HD
ENDROOT
TORSDOF 0
ENDMDL
