MODEL 1
REMARK minimizedAffinity 1.13862395
REMARK minimizedRMSD -1
REMARK  0 active torsions:
REMARK  status: ('A' for Active; 'I' for Inactive)
ROOT
ATOM      1  N1  IND d   1       0.590   2.777   0.774  0.00  0.00    -0.196 N 
ATOM      2  C2  IND d   1       1.864   2.299   0.645  0.00  0.00     0.054 A 
ATOM      3  C3  IND d   1       1.888   0.964   0.859  0.00  0.00    -0.031 A 
ATOM      4  C4  IND d   1      -0.058  -0.653   1.333  0.00  0.00     0.051 A 
ATOM      5  C5  IND d   1      -1.403  -0.677   1.578  0.00  0.00    -0.031 A 
ATOM      6  C6  IND d   1      -2.168   0.471   1.564  0.00  0.00     0.015 A 
ATOM      7  C7  IND d   1      -1.616   1.691   1.292  0.00  0.00    -0.016 A 
ATOM      8  C8  IND d   1      -0.250   1.721   1.050  0.00  0.00    -0.047 A 
ATOM      9  C9  IND d   1       0.539   0.565   1.105  0.00  0.00    -0.096 A 
ATOM     10  HN1 IND d   1       0.353   3.600   0.695  0.00  0.00     0.298 HD
ENDROOT
TORSDOF 0
ENDMDL
