MODEL 1
REMARK minimizedAffinity 5.99098635
REMARK minimizedRMSD -1
REMARK  0 active torsions:
REMARK  status: ('A' for Active; 'I' for Inactive)
ROOT
ATOM      1  N1  IND d   1      -3.638  -2.867  -1.543  0.00  0.00    -0.196 N 
ATOM      2  C2  IND d   1      -3.693  -1.527  -1.275  0.00  0.00     0.054 A 
ATOM      3  C3  IND d   1      -2.648  -1.160  -0.498  0.00  0.00    -0.031 A 
ATOM      4  C4  IND d   1      -0.676  -2.571   0.365  0.00  0.00     0.051 A 
ATOM      5  C5  IND d   1      -0.208  -3.855   0.411  0.00  0.00    -0.031 A 
ATOM      6  C6  IND d   1      -0.872  -4.895  -0.207  0.00  0.00     0.015 A 
ATOM      7  C7  IND d   1      -2.027  -4.688  -0.907  0.00  0.00    -0.016 A 
ATOM      8  C8  IND d   1      -2.509  -3.387  -0.949  0.00  0.00    -0.047 A 
ATOM      9  C9  IND d   1      -1.862  -2.334  -0.288  0.00  0.00    -0.096 A 
ATOM     10  HN1 IND d   1      -4.212  -3.310  -2.004  0.00  0.00     0.298 HD
ENDROOT
TORSDOF 0
ENDMDL
