MODEL 1
REMARK minimizedAffinity 6.69910955
REMARK minimizedRMSD -1
REMARK  0 active torsions:
REMARK  status: ('A' for Active; 'I' for Inactive)
ROOT
ATOM      1  N1  IND d   1      -3.836  -3.222  -2.400  0.00  0.00    -0.196 N 
ATOM      2  C2  IND d   1      -3.750  -1.903  -2.053  0.00  0.00     0.054 A 
ATOM      3  C3  IND d   1      -2.935  -1.749  -0.985  0.00  0.00    -0.031 A 
ATOM      4  C4  IND d   1      -1.557  -3.512   0.287  0.00  0.00     0.051 A 
ATOM      5  C5  IND d   1      -1.336  -4.859   0.361  0.00  0.00    -0.031 A 
ATOM      6  C6  IND d   1      -1.948  -5.746  -0.501  0.00  0.00     0.015 A 
ATOM      7  C7  IND d   1      -2.798  -5.317  -1.480  0.00  0.00    -0.016 A 
ATOM      8  C8  IND d   1      -3.030  -3.951  -1.554  0.00  0.00    -0.047 A 
ATOM      9  C9  IND d   1      -2.445  -3.050  -0.655  0.00  0.00    -0.096 A 
ATOM     10  HN1 IND d   1      -4.313  -3.543  -3.040  0.00  0.00     0.298 HD
ENDROOT
TORSDOF 0
ENDMDL
