MODEL 1
REMARK minimizedAffinity 6.80713511
REMARK minimizedRMSD -1
REMARK  0 active torsions:
REMARK  status: ('A' for Active; 'I' for Inactive)
ROOT
ATOM      1  N1  IND d   1       0.637   1.064   1.246  0.00  0.00    -0.196 N 
ATOM      2  C2  IND d   1       0.488   2.410   1.055  0.00  0.00     0.054 A 
ATOM      3  C3  IND d   1      -0.741   2.808   1.453  0.00  0.00    -0.031 A 
ATOM      4  C4  IND d   1      -2.631   1.441   2.541  0.00  0.00     0.051 A 
ATOM      5  C5  IND d   1      -2.977   0.164   2.884  0.00  0.00    -0.031 A 
ATOM      6  C6  IND d   1      -2.117  -0.899   2.698  0.00  0.00     0.015 A 
ATOM      7  C7  IND d   1      -0.870  -0.723   2.169  0.00  0.00    -0.016 A 
ATOM      8  C8  IND d   1      -0.518   0.572   1.813  0.00  0.00    -0.047 A 
ATOM      9  C9  IND d   1      -1.402   1.648   1.960  0.00  0.00    -0.096 A 
ATOM     10  HN1 IND d   1       1.334   0.603   1.045  0.00  0.00     0.298 HD
ENDROOT
TORSDOF 0
ENDMDL
