MODEL 1
REMARK minimizedAffinity 4.72830057
REMARK minimizedRMSD -1
REMARK  0 active torsions:
REMARK  status: ('A' for Active; 'I' for Inactive)
ROOT
ATOM      1  N1  IND d   1      -2.831   2.781   2.103  0.00  0.00    -0.196 N 
ATOM      2  C2  IND d   1      -3.531   1.877   2.851  0.00  0.00     0.054 A 
ATOM      3  C3  IND d   1      -2.780   0.777   3.085  0.00  0.00    -0.031 A 
ATOM      4  C4  IND d   1      -0.340   0.292   2.421  0.00  0.00     0.051 A 
ATOM      5  C5  IND d   1       0.702   0.804   1.699  0.00  0.00    -0.031 A 
ATOM      6  C6  IND d   1       0.619   2.026   1.065  0.00  0.00     0.015 A 
ATOM      7  C7  IND d   1      -0.511   2.792   1.138  0.00  0.00    -0.016 A 
ATOM      8  C8  IND d   1      -1.573   2.272   1.864  0.00  0.00    -0.047 A 
ATOM      9  C9  IND d   1      -1.510   1.013   2.475  0.00  0.00    -0.096 A 
ATOM     10  HN1 IND d   1      -3.126   3.540   1.828  0.00  0.00     0.298 HD
ENDROOT
TORSDOF 0
ENDMDL
