MODEL 1
REMARK minimizedAffinity 12.038764
REMARK minimizedRMSD -1
REMARK  0 active torsions:
REMARK  status: ('A' for Active; 'I' for Inactive)
ROOT
ATOM      1  N1  IND d   1      -0.305  -2.843  -3.748  0.00  0.00    -0.196 N 
ATOM      2  C2  IND d   1       0.526  -3.805  -3.245  0.00  0.00     0.054 A 
ATOM      3  C3  IND d   1       0.174  -4.114  -1.977  0.00  0.00    -0.031 A 
ATOM      4  C4  IND d   1      -1.794  -3.238  -0.566  0.00  0.00     0.051 A 
ATOM      5  C5  IND d   1      -2.807  -2.321  -0.583  0.00  0.00    -0.031 A 
ATOM      6  C6  IND d   1      -3.045  -1.517  -1.679  0.00  0.00     0.015 A 
ATOM      7  C7  IND d   1      -2.282  -1.609  -2.808  0.00  0.00    -0.016 A 
ATOM      8  C8  IND d   1      -1.247  -2.533  -2.792  0.00  0.00    -0.047 A 
ATOM      9  C9  IND d   1      -0.974  -3.322  -1.667  0.00  0.00    -0.096 A 
ATOM     10  HN1 IND d   1      -0.248  -2.490  -4.530  0.00  0.00     0.298 HD
ENDROOT
TORSDOF 0
ENDMDL
