MODEL 1
REMARK minimizedAffinity 8.08206081
REMARK minimizedRMSD -1
REMARK  0 active torsions:
REMARK  status: ('A' for Active; 'I' for Inactive)
ROOT
ATOM      1  N1  IND d   1      -1.855   1.596   2.446  0.00  0.00    -0.196 N 
ATOM      2  C2  IND d   1      -2.059   2.869   1.991  0.00  0.00     0.054 A 
ATOM      3  C3  IND d   1      -0.972   3.308   1.317  0.00  0.00    -0.031 A 
ATOM      4  C4  IND d   1       1.212   2.067   0.753  0.00  0.00     0.051 A 
ATOM      5  C5  IND d   1       1.876   0.896   0.985  0.00  0.00    -0.031 A 
ATOM      6  C6  IND d   1       1.318  -0.124   1.728  0.00  0.00     0.015 A 
ATOM      7  C7  IND d   1       0.065  -0.014   2.260  0.00  0.00    -0.016 A 
ATOM      8  C8  IND d   1      -0.610   1.177   2.033  0.00  0.00    -0.047 A 
ATOM      9  C9  IND d   1      -0.032   2.232   1.315  0.00  0.00    -0.096 A 
ATOM     10  HN1 IND d   1      -2.412   1.135   2.912  0.00  0.00     0.298 HD
ENDROOT
TORSDOF 0
ENDMDL
