MODEL 1
REMARK minimizedAffinity 7.13457012
REMARK minimizedRMSD -1
REMARK  0 active torsions:
REMARK  status: ('A' for Active; 'I' for Inactive)
ROOT
ATOM      1  N1  IND d   1      -2.519   1.303   2.377  0.00  0.00    -0.196 N 
ATOM      2  C2  IND d   1      -2.694   2.605   1.998  0.00  0.00     0.054 A 
ATOM      3  C3  IND d   1      -1.542   3.110   1.504  0.00  0.00    -0.031 A 
ATOM      4  C4  IND d   1       0.725   1.949   1.130  0.00  0.00     0.051 A 
ATOM      5  C5  IND d   1       1.383   0.773   1.355  0.00  0.00    -0.031 A 
ATOM      6  C6  IND d   1       0.760  -0.310   1.942  0.00  0.00     0.015 A 
ATOM      7  C7  IND d   1      -0.553  -0.260   2.316  0.00  0.00    -0.016 A 
ATOM      8  C8  IND d   1      -1.222   0.936   2.096  0.00  0.00    -0.047 A 
ATOM      9  C9  IND d   1      -0.583   2.052   1.540  0.00  0.00    -0.096 A 
ATOM     10  HN1 IND d   1      -3.119   0.799   2.732  0.00  0.00     0.298 HD
ENDROOT
TORSDOF 0
ENDMDL
