MODEL 1
REMARK minimizedAffinity 3.68824959
REMARK minimizedRMSD -1
REMARK  0 active torsions:
REMARK  status: ('A' for Active; 'I' for Inactive)
ROOT
ATOM      1  N1  IND d   1      -2.984  -2.631  -3.562  0.00  0.00    -0.196 N 
ATOM      2  C2  IND d   1      -3.348  -1.321  -3.424  0.00  0.00     0.054 A 
ATOM      3  C3  IND d   1      -3.618  -1.042  -2.130  0.00  0.00    -0.031 A 
ATOM      4  C4  IND d   1      -3.430  -2.556  -0.056  0.00  0.00     0.051 A 
ATOM      5  C5  IND d   1      -3.172  -3.845   0.316  0.00  0.00    -0.031 A 
ATOM      6  C6  IND d   1      -2.829  -4.815  -0.604  0.00  0.00     0.015 A 
ATOM      7  C7  IND d   1      -2.719  -4.527  -1.935  0.00  0.00    -0.016 A 
ATOM      8  C8  IND d   1      -2.987  -3.221  -2.317  0.00  0.00    -0.047 A 
ATOM      9  C9  IND d   1      -3.377  -2.242  -1.394  0.00  0.00    -0.096 A 
ATOM     10  HN1 IND d   1      -2.786  -3.022  -4.302  0.00  0.00     0.298 HD
ENDROOT
TORSDOF 0
ENDMDL
