MODEL 1
REMARK minimizedAffinity 13.5484543
REMARK minimizedRMSD -1
REMARK  0 active torsions:
REMARK  status: ('A' for Active; 'I' for Inactive)
ROOT
ATOM      1  N1  IND d   1       5.525   5.268  -4.471  0.00  0.00    -0.196 N 
ATOM      2  C2  IND d   1       5.369   5.993  -5.619  0.00  0.00     0.054 A 
ATOM      3  C3  IND d   1       4.072   5.997  -6.000  0.00  0.00    -0.031 A 
ATOM      4  C4  IND d   1       2.021   4.966  -4.834  0.00  0.00     0.051 A 
ATOM      5  C5  IND d   1       1.668   4.177  -3.776  0.00  0.00    -0.031 A 
ATOM      6  C6  IND d   1       2.600   3.704  -2.875  0.00  0.00     0.015 A 
ATOM      7  C7  IND d   1       3.926   4.013  -2.994  0.00  0.00    -0.016 A 
ATOM      8  C8  IND d   1       4.289   4.809  -4.071  0.00  0.00    -0.047 A 
ATOM      9  C9  IND d   1       3.353   5.257  -5.012  0.00  0.00    -0.096 A 
ATOM     10  HN1 IND d   1       6.270   5.124  -4.066  0.00  0.00     0.298 HD
ENDROOT
TORSDOF 0
ENDMDL
