MODEL 1
REMARK minimizedAffinity -1.39594376
REMARK minimizedRMSD -1
REMARK  0 active torsions:
REMARK  status: ('A' for Active; 'I' for Inactive)
ROOT
ATOM      1  N1  IND d   1       1.326   2.555   1.060  0.00  0.00    -0.196 N 
ATOM      2  C2  IND d   1       0.488   3.630   0.945  0.00  0.00     0.054 A 
ATOM      3  C3  IND d   1      -0.802   3.226   0.978  0.00  0.00    -0.031 A 
ATOM      4  C4  IND d   1      -1.769   0.865   1.317  0.00  0.00     0.051 A 
ATOM      5  C5  IND d   1      -1.397  -0.445   1.431  0.00  0.00    -0.031 A 
ATOM      6  C6  IND d   1      -0.072  -0.830   1.430  0.00  0.00     0.015 A 
ATOM      7  C7  IND d   1       0.936   0.087   1.326  0.00  0.00    -0.016 A 
ATOM      8  C8  IND d   1       0.562   1.417   1.203  0.00  0.00    -0.047 A 
ATOM      9  C9  IND d   1      -0.782   1.810   1.160  0.00  0.00    -0.096 A 
ATOM     10  HN1 IND d   1       2.185   2.585   1.046  0.00  0.00     0.298 HD
ENDROOT
TORSDOF 0
ENDMDL
