MODEL 1
REMARK minimizedAffinity 3.32263303
REMARK minimizedRMSD -1
REMARK  0 active torsions:
REMARK  status: ('A' for Active; 'I' for Inactive)
ROOT
ATOM      1  C   UNL d   1      -1.854  -0.478   1.656  0.00  0.00     0.124 A 
ATOM      2  C1  UNL d   1      -0.655  -0.117   1.056  0.00  0.00     0.062 A 
ATOM      3  C2  UNL d   1       0.553  -0.376   1.696  0.00  0.00     0.162 A 
ATOM      4  C3  UNL d   1       0.570  -1.000   2.943  0.00  0.00    -0.034 A 
ATOM      5  C4  UNL d   1      -0.640  -1.360   3.540  0.00  0.00     0.162 A 
ATOM      6  C5  UNL d   1      -1.845  -1.099   2.897  0.00  0.00     0.062 A 
ATOM      7  F   UNL d   1      -3.002  -1.449   3.478  0.00  0.00    -0.097 F 
ATOM      8  F1  UNL d   1      -0.660  -1.962   4.739  0.00  0.00    -0.096 F 
ATOM      9  I   UNL d   1       2.375  -1.389   3.903  0.00  0.00    -0.060 I 
ATOM     10  F2  UNL d   1       1.696  -0.016   1.094  0.00  0.00    -0.096 F 
ATOM     11  F3  UNL d   1      -0.661   0.484  -0.142  0.00  0.00    -0.097 F 
ATOM     12  F4  UNL d   1      -3.016  -0.227   1.038  0.00  0.00    -0.092 F 
ENDROOT
TORSDOF 0
ENDMDL
