MODEL 1
REMARK minimizedAffinity 1.33276296
REMARK minimizedRMSD -1
REMARK  0 active torsions:
REMARK  status: ('A' for Active; 'I' for Inactive)
ROOT
ATOM      1  C   UNL d   1      -1.940  -0.053   0.139  0.00  0.00     0.124 A 
ATOM      2  C1  UNL d   1      -0.722  -0.579  -0.268  0.00  0.00     0.062 A 
ATOM      3  C2  UNL d   1       0.256  -0.891   0.673  0.00  0.00     0.162 A 
ATOM      4  C3  UNL d   1       0.018  -0.678   2.031  0.00  0.00    -0.034 A 
ATOM      5  C4  UNL d   1      -1.209  -0.148   2.432  0.00  0.00     0.162 A 
ATOM      6  C5  UNL d   1      -2.182   0.162   1.488  0.00  0.00     0.062 A 
ATOM      7  F   UNL d   1      -3.358   0.671   1.883  0.00  0.00    -0.097 F 
ATOM      8  F1  UNL d   1      -1.470   0.069   3.730  0.00  0.00    -0.096 F 
ATOM      9  I   UNL d   1       1.477  -1.144   3.441  0.00  0.00    -0.060 I 
ATOM     10  F2  UNL d   1       1.423  -1.399   0.251  0.00  0.00    -0.096 F 
ATOM     11  F3  UNL d   1      -0.484  -0.787  -1.571  0.00  0.00    -0.097 F 
ATOM     12  F4  UNL d   1      -2.878   0.247  -0.769  0.00  0.00    -0.092 F 
ENDROOT
TORSDOF 0
ENDMDL
