MODEL 1
REMARK minimizedAffinity 2.40954137
REMARK minimizedRMSD -1
REMARK  0 active torsions:
REMARK  status: ('A' for Active; 'I' for Inactive)
ROOT
ATOM      1  C   UNL d   1      -2.039  -0.143   0.526  0.00  0.00     0.124 A 
ATOM      2  C1  UNL d   1      -0.689  -0.354   0.281  0.00  0.00     0.062 A 
ATOM      3  C2  UNL d   1       0.169  -0.683   1.327  0.00  0.00     0.162 A 
ATOM      4  C3  UNL d   1      -0.321  -0.804   2.627  0.00  0.00    -0.034 A 
ATOM      5  C4  UNL d   1      -1.679  -0.589   2.866  0.00  0.00     0.162 A 
ATOM      6  C5  UNL d   1      -2.532  -0.261   1.817  0.00  0.00     0.062 A 
ATOM      7  F   UNL d   1      -3.836  -0.057   2.056  0.00  0.00    -0.097 F 
ATOM      8  F1  UNL d   1      -2.183  -0.697   4.104  0.00  0.00    -0.096 F 
ATOM      9  I   UNL d   1       0.959  -1.295   4.194  0.00  0.00    -0.060 I 
ATOM     10  F2  UNL d   1       1.469  -0.881   1.061  0.00  0.00    -0.096 F 
ATOM     11  F3  UNL d   1      -0.209  -0.240  -0.966  0.00  0.00    -0.097 F 
ATOM     12  F4  UNL d   1      -2.862   0.174  -0.482  0.00  0.00    -0.092 F 
ENDROOT
TORSDOF 0
ENDMDL
