MODEL 1
REMARK minimizedAffinity 4.28076935
REMARK minimizedRMSD -1
REMARK  0 active torsions:
REMARK  status: ('A' for Active; 'I' for Inactive)
ROOT
ATOM      1  C   UNL d   1      -1.818  -0.366  -0.050  0.00  0.00     0.124 A 
ATOM      2  C1  UNL d   1      -2.051  -0.013   1.272  0.00  0.00     0.062 A 
ATOM      3  C2  UNL d   1      -1.065  -0.211   2.234  0.00  0.00     0.162 A 
ATOM      4  C3  UNL d   1       0.165  -0.764   1.877  0.00  0.00    -0.034 A 
ATOM      5  C4  UNL d   1       0.392  -1.117   0.546  0.00  0.00     0.162 A 
ATOM      6  C5  UNL d   1      -0.597  -0.917  -0.411  0.00  0.00     0.062 A 
ATOM      7  F   UNL d   1      -0.370  -1.259  -1.688  0.00  0.00    -0.097 F 
ATOM      8  F1  UNL d   1       1.563  -1.651   0.169  0.00  0.00    -0.096 F 
ATOM      9  I   UNL d   1       1.643  -1.062   3.313  0.00  0.00    -0.060 I 
ATOM     10  F2  UNL d   1      -1.318   0.139   3.504  0.00  0.00    -0.096 F 
ATOM     11  F3  UNL d   1      -3.230   0.519   1.625  0.00  0.00    -0.097 F 
ATOM     12  F4  UNL d   1      -2.769  -0.175  -0.973  0.00  0.00    -0.092 F 
ENDROOT
TORSDOF 0
ENDMDL
