MODEL 1
REMARK minimizedAffinity 8.85655594
REMARK minimizedRMSD -1
REMARK  0 active torsions:
REMARK  status: ('A' for Active; 'I' for Inactive)
ROOT
ATOM      1  C   UNL d   1       0.522  -0.600   1.860  0.00  0.00     0.124 A 
ATOM      2  C1  UNL d   1       0.542  -0.809   0.488  0.00  0.00     0.062 A 
ATOM      3  C2  UNL d   1      -0.650  -0.881  -0.226  0.00  0.00     0.162 A 
ATOM      4  C3  UNL d   1      -1.873  -0.741   0.430  0.00  0.00    -0.034 A 
ATOM      5  C4  UNL d   1      -1.885  -0.532   1.810  0.00  0.00     0.162 A 
ATOM      6  C5  UNL d   1      -0.691  -0.461   2.520  0.00  0.00     0.062 A 
ATOM      7  F   UNL d   1      -0.712  -0.259   3.845  0.00  0.00    -0.097 F 
ATOM      8  F1  UNL d   1      -3.043  -0.394   2.473  0.00  0.00    -0.096 F 
ATOM      9  I   UNL d   1      -3.659  -0.847  -0.634  0.00  0.00    -0.060 I 
ATOM     10  F2  UNL d   1      -0.601  -1.084  -1.551  0.00  0.00    -0.096 F 
ATOM     11  F3  UNL d   1       1.713  -0.945  -0.151  0.00  0.00    -0.097 F 
ATOM     12  F4  UNL d   1       1.671  -0.533   2.545  0.00  0.00    -0.092 F 
ENDROOT
TORSDOF 0
ENDMDL
