MODEL 1
REMARK minimizedAffinity 4.30530977
REMARK minimizedRMSD -1
REMARK  0 active torsions:
REMARK  status: ('A' for Active; 'I' for Inactive)
ROOT
ATOM      1  C   UNL d   1      -1.467  -0.094   0.852  0.00  0.00     0.124 A 
ATOM      2  C1  UNL d   1      -0.352  -0.784   0.398  0.00  0.00     0.062 A 
ATOM      3  C2  UNL d   1       0.682  -1.098   1.275  0.00  0.00     0.162 A 
ATOM      4  C3  UNL d   1       0.606  -0.723   2.616  0.00  0.00    -0.034 A 
ATOM      5  C4  UNL d   1      -0.519  -0.028   3.065  0.00  0.00     0.162 A 
ATOM      6  C5  UNL d   1      -1.549   0.283   2.185  0.00  0.00     0.062 A 
ATOM      7  F   UNL d   1      -2.626   0.950   2.625  0.00  0.00    -0.097 F 
ATOM      8  F1  UNL d   1      -0.624   0.348   4.349  0.00  0.00    -0.096 F 
ATOM      9  I   UNL d   1       2.150  -1.190   3.931  0.00  0.00    -0.060 I 
ATOM     10  F2  UNL d   1       1.748  -1.766   0.809  0.00  0.00    -0.096 F 
ATOM     11  F3  UNL d   1      -0.269  -1.149  -0.890  0.00  0.00    -0.097 F 
ATOM     12  F4  UNL d   1      -2.460   0.207   0.006  0.00  0.00    -0.092 F 
ENDROOT
TORSDOF 0
ENDMDL
