MODEL 1
REMARK minimizedAffinity 2.12913585
REMARK minimizedRMSD -1
REMARK  0 active torsions:
REMARK  status: ('A' for Active; 'I' for Inactive)
ROOT
ATOM      1  C   UNL d   1       1.517  -1.037   3.204  0.00  0.00     0.124 A 
ATOM      2  C1  UNL d   1       1.054  -1.619   4.376  0.00  0.00     0.062 A 
ATOM      3  C2  UNL d   1      -0.307  -1.857   4.549  0.00  0.00     0.162 A 
ATOM      4  C3  UNL d   1      -1.214  -1.514   3.546  0.00  0.00    -0.034 A 
ATOM      5  C4  UNL d   1      -0.740  -0.928   2.371  0.00  0.00     0.162 A 
ATOM      6  C5  UNL d   1       0.620  -0.692   2.203  0.00  0.00     0.062 A 
ATOM      7  F   UNL d   1       1.066  -0.130   1.070  0.00  0.00    -0.097 F 
ATOM      8  F1  UNL d   1      -1.585  -0.586   1.387  0.00  0.00    -0.096 F 
ATOM      9  I   UNL d   1      -3.249  -1.867   3.801  0.00  0.00    -0.060 I 
ATOM     10  F2  UNL d   1      -0.727  -2.420   5.691  0.00  0.00    -0.096 F 
ATOM     11  F3  UNL d   1       1.918  -1.952   5.345  0.00  0.00    -0.097 F 
ATOM     12  F4  UNL d   1       2.827  -0.809   3.041  0.00  0.00    -0.092 F 
ENDROOT
TORSDOF 0
ENDMDL
