MODEL 1
REMARK minimizedAffinity 3.27126431
REMARK minimizedRMSD -1
REMARK  0 active torsions:
REMARK  status: ('A' for Active; 'I' for Inactive)
ROOT
ATOM      1  C   UNL d   1       1.227  -1.231   4.020  0.00  0.00     0.124 A 
ATOM      2  C1  UNL d   1      -0.132  -1.413   4.235  0.00  0.00     0.062 A 
ATOM      3  C2  UNL d   1      -1.042  -1.156   3.214  0.00  0.00     0.162 A 
ATOM      4  C3  UNL d   1      -0.597  -0.715   1.968  0.00  0.00    -0.034 A 
ATOM      5  C4  UNL d   1       0.772  -0.534   1.760  0.00  0.00     0.162 A 
ATOM      6  C5  UNL d   1       1.678  -0.792   2.784  0.00  0.00     0.062 A 
ATOM      7  F   UNL d   1       2.990  -0.615   2.574  0.00  0.00    -0.097 F 
ATOM      8  F1  UNL d   1       1.234  -0.111   0.574  0.00  0.00    -0.096 F 
ATOM      9  I   UNL d   1      -1.955  -0.330   0.439  0.00  0.00    -0.060 I 
ATOM     10  F2  UNL d   1      -2.350  -1.341   3.450  0.00  0.00    -0.096 F 
ATOM     11  F3  UNL d   1      -0.569  -1.837   5.430  0.00  0.00    -0.097 F 
ATOM     12  F4  UNL d   1       2.101  -1.478   5.005  0.00  0.00    -0.092 F 
ENDROOT
TORSDOF 0
ENDMDL
