MODEL 1
REMARK minimizedAffinity 5.19534016
REMARK minimizedRMSD -1
REMARK  0 active torsions:
REMARK  status: ('A' for Active; 'I' for Inactive)
ROOT
ATOM      1  C   UNL d   1      -2.077   0.123   0.256  0.00  0.00     0.124 A 
ATOM      2  C1  UNL d   1      -0.720   0.064  -0.029  0.00  0.00     0.062 A 
ATOM      3  C2  UNL d   1       0.186  -0.319   0.956  0.00  0.00     0.162 A 
ATOM      4  C3  UNL d   1      -0.262  -0.647   2.236  0.00  0.00    -0.034 A 
ATOM      5  C4  UNL d   1      -1.628  -0.584   2.515  0.00  0.00     0.162 A 
ATOM      6  C5  UNL d   1      -2.530  -0.200   1.528  0.00  0.00     0.062 A 
ATOM      7  F   UNL d   1      -3.841  -0.143   1.805  0.00  0.00    -0.097 F 
ATOM      8  F1  UNL d   1      -2.093  -0.892   3.735  0.00  0.00    -0.096 F 
ATOM      9  I   UNL d   1       1.089  -1.221   3.711  0.00  0.00    -0.060 I 
ATOM     10  F2  UNL d   1       1.492  -0.368   0.652  0.00  0.00    -0.096 F 
ATOM     11  F3  UNL d   1      -0.280   0.377  -1.256  0.00  0.00    -0.097 F 
ATOM     12  F4  UNL d   1      -2.947   0.493  -0.693  0.00  0.00    -0.092 F 
ENDROOT
TORSDOF 0
ENDMDL
