MODEL 1
REMARK minimizedAffinity 8.24400616
REMARK minimizedRMSD -1
REMARK  0 active torsions:
REMARK  status: ('A' for Active; 'I' for Inactive)
ROOT
ATOM      1  C   UNL d   1      -3.262   0.027  -0.385  0.00  0.00     0.124 A 
ATOM      2  C1  UNL d   1      -2.230  -0.654  -1.016  0.00  0.00     0.062 A 
ATOM      3  C2  UNL d   1      -0.975  -0.732  -0.420  0.00  0.00     0.162 A 
ATOM      4  C3  UNL d   1      -0.744  -0.128   0.816  0.00  0.00    -0.034 A 
ATOM      5  C4  UNL d   1      -1.786   0.556   1.444  0.00  0.00     0.162 A 
ATOM      6  C5  UNL d   1      -3.039   0.631   0.844  0.00  0.00     0.062 A 
ATOM      7  F   UNL d   1      -4.034   1.290   1.456  0.00  0.00    -0.097 F 
ATOM      8  F1  UNL d   1      -1.599   1.149   2.633  0.00  0.00    -0.096 F 
ATOM      9  I   UNL d   1       1.132  -0.242   1.711  0.00  0.00    -0.060 I 
ATOM     10  F2  UNL d   1       0.003  -1.397  -1.053  0.00  0.00    -0.096 F 
ATOM     11  F3  UNL d   1      -2.443  -1.238  -2.204  0.00  0.00    -0.097 F 
ATOM     12  F4  UNL d   1      -4.468   0.101  -0.961  0.00  0.00    -0.092 F 
ENDROOT
TORSDOF 0
ENDMDL
