MODEL 1
REMARK minimizedAffinity 4.46014595
REMARK minimizedRMSD -1
REMARK  0 active torsions:
REMARK  status: ('A' for Active; 'I' for Inactive)
ROOT
ATOM      1  C   UNL d   1      -1.786  -0.332   0.217  0.00  0.00     0.124 A 
ATOM      2  C1  UNL d   1      -0.489  -0.643  -0.168  0.00  0.00     0.062 A 
ATOM      3  C2  UNL d   1       0.482  -0.909   0.793  0.00  0.00     0.162 A 
ATOM      4  C3  UNL d   1       0.159  -0.866   2.150  0.00  0.00    -0.034 A 
ATOM      5  C4  UNL d   1      -1.147  -0.551   2.529  0.00  0.00     0.162 A 
ATOM      6  C5  UNL d   1      -2.113  -0.287   1.564  0.00  0.00     0.062 A 
ATOM      7  F   UNL d   1      -3.366   0.014   1.938  0.00  0.00    -0.097 F 
ATOM      8  F1  UNL d   1      -1.491  -0.501   3.824  0.00  0.00    -0.096 F 
ATOM      9  I   UNL d   1       1.608  -1.262   3.590  0.00  0.00    -0.060 I 
ATOM     10  F2  UNL d   1       1.727  -1.207   0.392  0.00  0.00    -0.096 F 
ATOM     11  F3  UNL d   1      -0.170  -0.687  -1.470  0.00  0.00    -0.097 F 
ATOM     12  F4  UNL d   1      -2.718  -0.076  -0.710  0.00  0.00    -0.092 F 
ENDROOT
TORSDOF 0
ENDMDL
