MODEL 1
REMARK minimizedAffinity 4.80135345
REMARK minimizedRMSD -1
REMARK  0 active torsions:
REMARK  status: ('A' for Active; 'I' for Inactive)
ROOT
ATOM      1  C   UNL d   1      -1.995  -1.152   3.733  0.00  0.00     0.124 A 
ATOM      2  C1  UNL d   1      -0.690  -1.535   4.009  0.00  0.00     0.062 A 
ATOM      3  C2  UNL d   1       0.340  -1.190   3.138  0.00  0.00     0.162 A 
ATOM      4  C3  UNL d   1       0.068  -0.457   1.982  0.00  0.00    -0.034 A 
ATOM      5  C4  UNL d   1      -1.248  -0.077   1.711  0.00  0.00     0.162 A 
ATOM      6  C5  UNL d   1      -2.273  -0.425   2.585  0.00  0.00     0.062 A 
ATOM      7  F   UNL d   1      -3.534  -0.055   2.317  0.00  0.00    -0.097 F 
ATOM      8  F1  UNL d   1      -1.545   0.627   0.609  0.00  0.00    -0.096 F 
ATOM      9  I   UNL d   1       1.604   0.060   0.677  0.00  0.00    -0.060 I 
ATOM     10  F2  UNL d   1       1.592  -1.572   3.429  0.00  0.00    -0.096 F 
ATOM     11  F3  UNL d   1      -0.419  -2.239   5.117  0.00  0.00    -0.097 F 
ATOM     12  F4  UNL d   1      -2.984  -1.486   4.573  0.00  0.00    -0.092 F 
ENDROOT
TORSDOF 0
ENDMDL
