MODEL 1
REMARK minimizedAffinity 12.5112286
REMARK minimizedRMSD -1
REMARK  0 active torsions:
REMARK  status: ('A' for Active; 'I' for Inactive)
ROOT
ATOM      1  C   UNL d   1      -3.253  -1.395   2.593  0.00  0.00     0.124 A 
ATOM      2  C1  UNL d   1      -2.123  -0.614   2.400  0.00  0.00     0.062 A 
ATOM      3  C2  UNL d   1      -1.605  -0.436   1.120  0.00  0.00     0.162 A 
ATOM      4  C3  UNL d   1      -2.217  -1.041   0.023  0.00  0.00    -0.034 A 
ATOM      5  C4  UNL d   1      -3.354  -1.827   0.225  0.00  0.00     0.162 A 
ATOM      6  C5  UNL d   1      -3.867  -2.001   1.506  0.00  0.00     0.062 A 
ATOM      7  F   UNL d   1      -4.960  -2.757   1.691  0.00  0.00    -0.097 F 
ATOM      8  F1  UNL d   1      -3.968  -2.423  -0.808  0.00  0.00    -0.096 F 
ATOM      9  I   UNL d   1      -1.446  -0.779  -1.892  0.00  0.00    -0.060 I 
ATOM     10  F2  UNL d   1      -0.511   0.324   0.963  0.00  0.00    -0.096 F 
ATOM     11  F3  UNL d   1      -1.527  -0.028   3.449  0.00  0.00    -0.097 F 
ATOM     12  F4  UNL d   1      -3.749  -1.565   3.826  0.00  0.00    -0.092 F 
ENDROOT
TORSDOF 0
ENDMDL
