MODEL 1
REMARK minimizedAffinity 2.14101195
REMARK minimizedRMSD -1
REMARK  0 active torsions:
REMARK  status: ('A' for Active; 'I' for Inactive)
ROOT
ATOM      1  C   UNL d   1      -2.093  -0.333   2.041  0.00  0.00     0.124 A 
ATOM      2  C1  UNL d   1      -1.837   0.071   0.738  0.00  0.00     0.062 A 
ATOM      3  C2  UNL d   1      -2.583  -0.449  -0.316  0.00  0.00     0.162 A 
ATOM      4  C3  UNL d   1      -3.593  -1.378  -0.071  0.00  0.00    -0.034 A 
ATOM      5  C4  UNL d   1      -3.845  -1.780   1.242  0.00  0.00     0.162 A 
ATOM      6  C5  UNL d   1      -3.097  -1.258   2.292  0.00  0.00     0.062 A 
ATOM      7  F   UNL d   1      -3.346  -1.649   3.550  0.00  0.00    -0.097 F 
ATOM      8  F1  UNL d   1      -4.810  -2.672   1.513  0.00  0.00    -0.096 F 
ATOM      9  I   UNL d   1      -4.711  -2.158  -1.644  0.00  0.00    -0.060 I 
ATOM     10  F2  UNL d   1      -2.313  -0.041  -1.565  0.00  0.00    -0.096 F 
ATOM     11  F3  UNL d   1      -0.867   0.964   0.493  0.00  0.00    -0.097 F 
ATOM     12  F4  UNL d   1      -1.373   0.169   3.053  0.00  0.00    -0.092 F 
ENDROOT
TORSDOF 0
ENDMDL
