MODEL 1
REMARK minimizedAffinity 17.6985321
REMARK minimizedRMSD -1
REMARK  0 active torsions:
REMARK  status: ('A' for Active; 'I' for Inactive)
ROOT
ATOM      1  N1  IND d   1       0.682  -0.134   1.368  0.00  0.00    -0.196 N 
ATOM      2  C2  IND d   1       1.255  -0.365   0.149  0.00  0.00     0.054 A 
ATOM      3  C3  IND d   1       0.319  -0.333  -0.825  0.00  0.00    -0.031 A 
ATOM      4  C4  IND d   1      -2.198   0.182  -0.657  0.00  0.00     0.051 A 
ATOM      5  C5  IND d   1      -3.191   0.420   0.252  0.00  0.00    -0.031 A 
ATOM      6  C6  IND d   1      -2.938   0.489   1.606  0.00  0.00     0.015 A 
ATOM      7  C7  IND d   1      -1.675   0.334   2.104  0.00  0.00    -0.016 A 
ATOM      8  C8  IND d   1      -0.666   0.085   1.184  0.00  0.00    -0.047 A 
ATOM      9  C9  IND d   1      -0.923  -0.028  -0.188  0.00  0.00    -0.096 A 
ATOM     10  HN1 IND d   1       1.094  -0.127   2.123  0.00  0.00     0.298 HD
ENDROOT
TORSDOF 0
ENDMDL
