MODEL 1
REMARK minimizedAffinity 9.14313698
REMARK minimizedRMSD -1
REMARK  0 active torsions:
REMARK  status: ('A' for Active; 'I' for Inactive)
ROOT
ATOM      1  N1  IND d   1      -2.198  -1.917   3.973  0.00  0.00    -0.196 N 
ATOM      2  C2  IND d   1      -3.548  -1.770   3.816  0.00  0.00     0.054 A 
ATOM      3  C3  IND d   1      -3.814  -0.796   2.916  0.00  0.00    -0.031 A 
ATOM      4  C4  IND d   1      -2.187   0.613   1.504  0.00  0.00     0.051 A 
ATOM      5  C5  IND d   1      -0.855   0.864   1.324  0.00  0.00    -0.031 A 
ATOM      6  C6  IND d   1       0.116   0.184   2.030  0.00  0.00     0.015 A 
ATOM      7  C7  IND d   1      -0.209  -0.783   2.938  0.00  0.00    -0.016 A 
ATOM      8  C8  IND d   1      -1.560  -1.035   3.129  0.00  0.00    -0.047 A 
ATOM      9  C9  IND d   1      -2.552  -0.319   2.446  0.00  0.00    -0.096 A 
ATOM     10  HN1 IND d   1      -1.813  -2.468   4.508  0.00  0.00     0.298 HD
ENDROOT
TORSDOF 0
ENDMDL
