MODEL 1
REMARK minimizedAffinity -1.58737493
REMARK minimizedRMSD -1
REMARK  0 active torsions:
REMARK  status: ('A' for Active; 'I' for Inactive)
ROOT
ATOM      1  N1  IND d   1       1.434   0.672  -4.118  0.00  0.00    -0.196 N 
ATOM      2  C2  IND d   1       0.352   0.042  -4.666  0.00  0.00     0.054 A 
ATOM      3  C3  IND d   1      -0.196  -0.814  -3.775  0.00  0.00    -0.031 A 
ATOM      4  C4  IND d   1       0.460  -1.267  -1.327  0.00  0.00     0.051 A 
ATOM      5  C5  IND d   1       1.406  -0.958  -0.390  0.00  0.00    -0.031 A 
ATOM      6  C6  IND d   1       2.429  -0.070  -0.653  0.00  0.00     0.015 A 
ATOM      7  C7  IND d   1       2.538   0.554  -1.864  0.00  0.00    -0.016 A 
ATOM      8  C8  IND d   1       1.583   0.237  -2.820  0.00  0.00    -0.047 A 
ATOM      9  C9  IND d   1       0.567  -0.695  -2.573  0.00  0.00    -0.096 A 
ATOM     10  HN1 IND d   1       1.938   1.243  -4.518  0.00  0.00     0.298 HD
ENDROOT
TORSDOF 0
ENDMDL
