MODEL 1
REMARK minimizedAffinity -2.9254899
REMARK minimizedRMSD -1
REMARK  0 active torsions:
REMARK  status: ('A' for Active; 'I' for Inactive)
ROOT
ATOM      1  N1  IND d   1      -0.090  -0.815  -3.647  0.00  0.00    -0.196 N 
ATOM      2  C2  IND d   1       0.338   0.045  -4.619  0.00  0.00     0.054 A 
ATOM      3  C3  IND d   1       1.424   0.732  -4.196  0.00  0.00    -0.031 A 
ATOM      4  C4  IND d   1       2.726   0.530  -1.984  0.00  0.00     0.051 A 
ATOM      5  C5  IND d   1       2.694  -0.094  -0.769  0.00  0.00    -0.031 A 
ATOM      6  C6  IND d   1       1.715  -1.011  -0.445  0.00  0.00     0.015 A 
ATOM      7  C7  IND d   1       0.733  -1.348  -1.333  0.00  0.00    -0.016 A 
ATOM      8  C8  IND d   1       0.757  -0.711  -2.565  0.00  0.00    -0.047 A 
ATOM      9  C9  IND d   1       1.724   0.252  -2.884  0.00  0.00    -0.096 A 
ATOM     10  HN1 IND d   1      -0.773  -1.333  -3.701  0.00  0.00     0.298 HD
ENDROOT
TORSDOF 0
ENDMDL
