MODEL 1
REMARK minimizedAffinity 9.46541023
REMARK minimizedRMSD -1
REMARK  0 active torsions:
REMARK  status: ('A' for Active; 'I' for Inactive)
ROOT
ATOM      1  N1  IND d   1       1.200  -0.738   2.779  0.00  0.00    -0.196 N 
ATOM      2  C2  IND d   1       0.825  -1.160   4.024  0.00  0.00     0.054 A 
ATOM      3  C3  IND d   1      -0.503  -0.982   4.201  0.00  0.00    -0.031 A 
ATOM      4  C4  IND d   1      -2.271  -0.109   2.546  0.00  0.00     0.051 A 
ATOM      5  C5  IND d   1      -2.404   0.433   1.299  0.00  0.00    -0.031 A 
ATOM      6  C6  IND d   1      -1.321   0.614   0.463  0.00  0.00     0.015 A 
ATOM      7  C7  IND d   1      -0.061   0.247   0.841  0.00  0.00    -0.016 A 
ATOM      8  C8  IND d   1       0.079  -0.297   2.110  0.00  0.00    -0.047 A 
ATOM      9  C9  IND d   1      -1.010  -0.444   2.978  0.00  0.00    -0.096 A 
ATOM     10  HN1 IND d   1       2.001  -0.746   2.466  0.00  0.00     0.298 HD
ENDROOT
TORSDOF 0
ENDMDL
