MODEL 1
REMARK minimizedAffinity 2.74962378
REMARK minimizedRMSD -1
REMARK  0 active torsions:
REMARK  status: ('A' for Active; 'I' for Inactive)
ROOT
ATOM      1  N1  IND d   1       1.079  -0.615  -0.299  0.00  0.00    -0.196 N 
ATOM      2  C2  IND d   1       1.743   0.098   0.660  0.00  0.00     0.054 A 
ATOM      3  C3  IND d   1       0.870   0.816   1.401  0.00  0.00    -0.031 A 
ATOM      4  C4  IND d   1      -1.701   0.894   1.280  0.00  0.00     0.051 A 
ATOM      5  C5  IND d   1      -2.759   0.442   0.543  0.00  0.00    -0.031 A 
ATOM      6  C6  IND d   1      -2.588  -0.406  -0.533  0.00  0.00     0.015 A 
ATOM      7  C7  IND d   1      -1.349  -0.843  -0.906  0.00  0.00    -0.016 A 
ATOM      8  C8  IND d   1      -0.272  -0.380  -0.164  0.00  0.00    -0.047 A 
ATOM      9  C9  IND d   1      -0.435   0.514   0.903  0.00  0.00    -0.096 A 
ATOM     10  HN1 IND d   1       1.443  -1.125  -0.888  0.00  0.00     0.298 HD
ENDROOT
TORSDOF 0
ENDMDL
