MODEL 1
REMARK minimizedAffinity 3.10965252
REMARK minimizedRMSD -1
REMARK  0 active torsions:
REMARK  status: ('A' for Active; 'I' for Inactive)
ROOT
ATOM      1  N1  IND d   1       5.766   5.403   3.003  0.00  0.00    -0.196 N 
ATOM      2  C2  IND d   1       5.998   6.000   1.796  0.00  0.00     0.054 A 
ATOM      3  C3  IND d   1       5.252   5.416   0.831  0.00  0.00    -0.031 A 
ATOM      4  C4  IND d   1       3.508   3.533   1.029  0.00  0.00     0.051 A 
ATOM      5  C5  IND d   1       2.976   2.646   1.923  0.00  0.00    -0.031 A 
ATOM      6  C6  IND d   1       3.353   2.635   3.251  0.00  0.00     0.015 A 
ATOM      7  C7  IND d   1       4.271   3.522   3.738  0.00  0.00    -0.016 A 
ATOM      8  C8  IND d   1       4.818   4.418   2.831  0.00  0.00    -0.047 A 
ATOM      9  C9  IND d   1       4.471   4.406   1.474  0.00  0.00    -0.096 A 
ATOM     10  HN1 IND d   1       6.148   5.608   3.746  0.00  0.00     0.298 HD
ENDROOT
TORSDOF 0
ENDMDL
