MODEL 1
REMARK minimizedAffinity 1.42175305
REMARK minimizedRMSD -1
REMARK  0 active torsions:
REMARK  status: ('A' for Active; 'I' for Inactive)
ROOT
ATOM      1  N1  IND d   1       0.918   0.442  -0.350  0.00  0.00    -0.196 N 
ATOM      2  C2  IND d   1       0.352   1.176  -1.354  0.00  0.00     0.054 A 
ATOM      3  C3  IND d   1      -0.984   1.275  -1.169  0.00  0.00    -0.031 A 
ATOM      4  C4  IND d   1      -2.436   0.396   0.767  0.00  0.00     0.051 A 
ATOM      5  C5  IND d   1      -2.374  -0.365   1.901  0.00  0.00    -0.031 A 
ATOM      6  C6  IND d   1      -1.187  -0.904   2.353  0.00  0.00     0.015 A 
ATOM      7  C7  IND d   1      -0.011  -0.693   1.691  0.00  0.00    -0.016 A 
ATOM      8  C8  IND d   1      -0.071   0.074   0.536  0.00  0.00    -0.047 A 
ATOM      9  C9  IND d   1      -1.279   0.589   0.049  0.00  0.00    -0.096 A 
ATOM     10  HN1 IND d   1       1.752   0.244  -0.282  0.00  0.00     0.298 HD
ENDROOT
TORSDOF 0
ENDMDL
