MODEL 1
REMARK minimizedAffinity 2.84318876
REMARK minimizedRMSD -1
REMARK  0 active torsions:
REMARK  status: ('A' for Active; 'I' for Inactive)
ROOT
ATOM      1  N1  IND d   1      -2.792  -0.295   1.594  0.00  0.00    -0.196 N 
ATOM      2  C2  IND d   1      -1.961   0.624   1.015  0.00  0.00     0.054 A 
ATOM      3  C3  IND d   1      -0.767   0.643   1.648  0.00  0.00    -0.031 A 
ATOM      4  C4  IND d   1       0.078  -0.820   3.591  0.00  0.00     0.051 A 
ATOM      5  C5  IND d   1      -0.333  -1.776   4.477  0.00  0.00    -0.031 A 
ATOM      6  C6  IND d   1      -1.609  -2.300   4.445  0.00  0.00     0.015 A 
ATOM      7  C7  IND d   1      -2.523  -1.893   3.514  0.00  0.00    -0.016 A 
ATOM      8  C8  IND d   1      -2.112  -0.918   2.617  0.00  0.00    -0.047 A 
ATOM      9  C9  IND d   1      -0.831  -0.352   2.672  0.00  0.00    -0.096 A 
ATOM     10  HN1 IND d   1      -3.603  -0.457   1.359  0.00  0.00     0.298 HD
ENDROOT
TORSDOF 0
ENDMDL
