MODEL 1
REMARK minimizedAffinity 4.03605461
REMARK minimizedRMSD -1
REMARK  2 active torsions:
REMARK  status: ('A' for Active; 'I' for Inactive)
REMARK    1  A    between atoms: C1_2  and  C2_3 
REMARK    2  A    between atoms: C2_3  and  C3_4 
ROOT
ATOM      1  C3  UNL d   1      -1.897  -3.326   0.190  0.00  0.00    -0.075 A 
ATOM      2  C4  UNL d   1      -1.902  -4.354   1.144  0.00  0.00     0.002 A 
ATOM      3  C5  UNL d   1      -1.724  -5.682   0.755  0.00  0.00     0.002 A 
ATOM      4  C6  UNL d   1      -1.549  -6.000  -0.590  0.00  0.00    -0.004 A 
ATOM      5  C7  UNL d   1      -1.558  -4.988  -1.548  0.00  0.00     0.002 A 
ATOM      6  C8  UNL d   1      -1.732  -3.658  -1.162  0.00  0.00     0.002 A 
ENDROOT
BRANCH   1   7
ATOM      7  C2  UNL d   1      -2.060  -1.884   0.607  0.00  0.00     0.056 C 
BRANCH   7   8
ATOM      8  C1  UNL d   1      -2.868  -1.695   1.895  0.00  0.00     0.007 C 
ATOM      9  C   UNL d   1      -2.045  -1.124   3.042  0.00  0.00     0.009 C 
ENDBRANCH   7   8
ENDBRANCH   1   7
TORSDOF 2
ENDMDL
