MODEL 1
REMARK minimizedAffinity 14.0790854
REMARK minimizedRMSD -1
REMARK  2 active torsions:
REMARK  status: ('A' for Active; 'I' for Inactive)
REMARK    1  A    between atoms: C1_2  and  C2_3 
REMARK    2  A    between atoms: C2_3  and  C3_4 
ROOT
ATOM      1  C3  UNL d   1      -5.881   4.774  -1.764  0.00  0.00    -0.075 A 
ATOM      2  C4  UNL d   1      -5.644   3.394  -1.695  0.00  0.00     0.002 A 
ATOM      3  C5  UNL d   1      -5.508   2.639  -2.860  0.00  0.00     0.002 A 
ATOM      4  C6  UNL d   1      -5.616   3.250  -4.107  0.00  0.00    -0.004 A 
ATOM      5  C7  UNL d   1      -5.867   4.618  -4.188  0.00  0.00     0.002 A 
ATOM      6  C8  UNL d   1      -6.000   5.377  -3.024  0.00  0.00     0.002 A 
ENDROOT
BRANCH   1   7
ATOM      7  C2  UNL d   1      -5.999   5.602  -0.507  0.00  0.00     0.056 C 
BRANCH   7   8
ATOM      8  C1  UNL d   1      -5.888   4.790   0.787  0.00  0.00     0.007 C 
ATOM      9  C   UNL d   1      -5.504   5.635   1.995  0.00  0.00     0.009 C 
ENDBRANCH   7   8
ENDBRANCH   1   7
TORSDOF 2
ENDMDL
