MODEL 1
REMARK minimizedAffinity 16.4814205
REMARK minimizedRMSD -1
REMARK  2 active torsions:
REMARK  status: ('A' for Active; 'I' for Inactive)
REMARK    1  A    between atoms: C1_2  and  C2_3 
REMARK    2  A    between atoms: C2_3  and  C3_4 
ROOT
ATOM      1  C3  UNL d   1      -3.501  -0.917  -1.085  0.00  0.00    -0.075 A 
ATOM      2  C4  UNL d   1      -3.732   0.291  -0.412  0.00  0.00     0.002 A 
ATOM      3  C5  UNL d   1      -4.976   0.918  -0.488  0.00  0.00     0.002 A 
ATOM      4  C6  UNL d   1      -6.000   0.352  -1.245  0.00  0.00    -0.004 A 
ATOM      5  C7  UNL d   1      -5.776  -0.839  -1.932  0.00  0.00     0.002 A 
ATOM      6  C8  UNL d   1      -4.534  -1.471  -1.854  0.00  0.00     0.002 A 
ENDROOT
BRANCH   1   7
ATOM      7  C2  UNL d   1      -2.167  -1.616  -0.983  0.00  0.00     0.056 C 
BRANCH   7   8
ATOM      8  C1  UNL d   1      -1.297  -1.486  -2.238  0.00  0.00     0.007 C 
ATOM      9  C   UNL d   1      -1.296  -2.741  -3.100  0.00  0.00     0.009 C 
ENDBRANCH   7   8
ENDBRANCH   1   7
TORSDOF 2
ENDMDL
