MODEL 1
REMARK minimizedAffinity 6.61229277
REMARK minimizedRMSD -1
REMARK  2 active torsions:
REMARK  status: ('A' for Active; 'I' for Inactive)
REMARK    1  A    between atoms: C1_2  and  C2_3 
REMARK    2  A    between atoms: C2_3  and  C3_4 
ROOT
ATOM      1  C3  UNL d   1       0.309  -1.343   5.293  0.00  0.00    -0.075 A 
ATOM      2  C4  UNL d   1       1.626  -1.787   5.481  0.00  0.00     0.002 A 
ATOM      3  C5  UNL d   1       1.884  -3.113   5.827  0.00  0.00     0.002 A 
ATOM      4  C6  UNL d   1       0.831  -4.009   5.999  0.00  0.00    -0.004 A 
ATOM      5  C7  UNL d   1      -0.482  -3.575   5.831  0.00  0.00     0.002 A 
ATOM      6  C8  UNL d   1      -0.743  -2.249   5.480  0.00  0.00     0.002 A 
ENDROOT
BRANCH   1   7
ATOM      7  C2  UNL d   1       0.024   0.084   4.890  0.00  0.00     0.056 C 
BRANCH   7   8
ATOM      8  C1  UNL d   1       0.305   1.111   5.991  0.00  0.00     0.007 C 
ATOM      9  C   UNL d   1       1.137   2.293   5.512  0.00  0.00     0.009 C 
ENDBRANCH   7   8
ENDBRANCH   1   7
TORSDOF 2
ENDMDL
