MODEL 1
REMARK minimizedAffinity 12.162138
REMARK minimizedRMSD -1
REMARK  0 active torsions:
REMARK  status: ('A' for Active; 'I' for Inactive)
ROOT
ATOM      1  C   UNL d   1       0.927  -0.559   3.672  0.00  0.00     0.023 A 
ATOM      2  C1  UNL d   1       0.084  -0.918   4.724  0.00  0.00     0.003 A 
ATOM      3  C2  UNL d   1      -1.161  -1.491   4.457  0.00  0.00     0.048 A 
ATOM      4  C3  UNL d   1      -1.556  -1.704   3.137  0.00  0.00     0.023 A 
ATOM      5  C4  UNL d   1      -0.715  -1.347   2.082  0.00  0.00     0.048 A 
ATOM      6  C5  UNL d   1       0.528  -0.773   2.353  0.00  0.00     0.003 A 
ATOM      7  I   UNL d   1      -3.409  -2.557   2.738  0.00  0.00    -0.146 I 
ENDROOT
TORSDOF 0
ENDMDL
