MODEL 1
REMARK minimizedAffinity 5.56962681
REMARK minimizedRMSD -1
REMARK  0 active torsions:
REMARK  status: ('A' for Active; 'I' for Inactive)
ROOT
ATOM      1  C   UNL d   1      -0.634  -2.092   4.437  0.00  0.00     0.023 A 
ATOM      2  C1  UNL d   1       0.045  -3.301   4.279  0.00  0.00     0.003 A 
ATOM      3  C2  UNL d   1       0.766  -3.550   3.109  0.00  0.00     0.048 A 
ATOM      4  C3  UNL d   1       0.804  -2.586   2.102  0.00  0.00     0.023 A 
ATOM      5  C4  UNL d   1       0.127  -1.375   2.257  0.00  0.00     0.048 A 
ATOM      6  C5  UNL d   1      -0.593  -1.131   3.428  0.00  0.00     0.003 A 
ATOM      7  I   UNL d   1       1.876  -2.955   0.360  0.00  0.00    -0.146 I 
ENDROOT
TORSDOF 0
ENDMDL
