MODEL 1
REMARK minimizedAffinity 15.7769842
REMARK minimizedRMSD -1
REMARK  0 active torsions:
REMARK  status: ('A' for Active; 'I' for Inactive)
ROOT
ATOM      1  C   UNL d   1       0.150  -1.918   0.807  0.00  0.00     0.023 A 
ATOM      2  C1  UNL d   1      -0.276  -2.023   2.131  0.00  0.00     0.003 A 
ATOM      3  C2  UNL d   1      -0.035  -3.194   2.853  0.00  0.00     0.048 A 
ATOM      4  C3  UNL d   1       0.634  -4.256   2.244  0.00  0.00     0.023 A 
ATOM      5  C4  UNL d   1       1.063  -4.155   0.920  0.00  0.00     0.048 A 
ATOM      6  C5  UNL d   1       0.818  -2.982   0.202  0.00  0.00     0.003 A 
ATOM      7  I   UNL d   1       0.994  -6.000   3.316  0.00  0.00    -0.146 I 
ENDROOT
TORSDOF 0
ENDMDL
