MODEL 1
REMARK minimizedAffinity 16.4559116
REMARK minimizedRMSD -1
REMARK  0 active torsions:
REMARK  status: ('A' for Active; 'I' for Inactive)
ROOT
ATOM      1  C   UNL d   1       2.954  -0.391   1.700  0.00  0.00     0.023 A 
ATOM      2  C1  UNL d   1       1.645  -0.621   1.275  0.00  0.00     0.003 A 
ATOM      3  C2  UNL d   1       0.982   0.335   0.502  0.00  0.00     0.048 A 
ATOM      4  C3  UNL d   1       1.635   1.518   0.157  0.00  0.00     0.023 A 
ATOM      5  C4  UNL d   1       2.944   1.752   0.579  0.00  0.00     0.048 A 
ATOM      6  C5  UNL d   1       3.603   0.794   1.352  0.00  0.00     0.003 A 
ATOM      7  I   UNL d   1       0.651   2.942  -0.994  0.00  0.00    -0.146 I 
ENDROOT
TORSDOF 0
ENDMDL
