MODEL 1
REMARK minimizedAffinity 11.8710794
REMARK minimizedRMSD -1
REMARK  0 active torsions:
REMARK  status: ('A' for Active; 'I' for Inactive)
ROOT
ATOM      1  C   UNL d   1       1.964   3.557   0.715  0.00  0.00     0.023 A 
ATOM      2  C1  UNL d   1       1.321   4.656   0.144  0.00  0.00     0.003 A 
ATOM      3  C2  UNL d   1       0.315   4.462  -0.804  0.00  0.00     0.048 A 
ATOM      4  C3  UNL d   1      -0.046   3.167  -1.175  0.00  0.00     0.023 A 
ATOM      5  C4  UNL d   1       0.594   2.065  -0.605  0.00  0.00     0.048 A 
ATOM      6  C5  UNL d   1       1.600   2.263   0.341  0.00  0.00     0.003 A 
ATOM      7  I   UNL d   1      -1.544   2.876  -2.586  0.00  0.00    -0.146 I 
ENDROOT
TORSDOF 0
ENDMDL
