MODEL 1
REMARK minimizedAffinity 10.9404888
REMARK minimizedRMSD -1
REMARK  0 active torsions:
REMARK  status: ('A' for Active; 'I' for Inactive)
ROOT
ATOM      1  C   UNL d   1      -1.264  -1.964   2.599  0.00  0.00     0.023 A 
ATOM      2  C1  UNL d   1      -0.661  -2.046   1.344  0.00  0.00     0.003 A 
ATOM      3  C2  UNL d   1       0.466  -1.273   1.057  0.00  0.00     0.048 A 
ATOM      4  C3  UNL d   1       0.985  -0.420   2.030  0.00  0.00     0.023 A 
ATOM      5  C4  UNL d   1       0.386  -0.335   3.288  0.00  0.00     0.048 A 
ATOM      6  C5  UNL d   1      -0.741  -1.110   3.570  0.00  0.00     0.003 A 
ATOM      7  I   UNL d   1       2.662   0.732   1.605  0.00  0.00    -0.146 I 
ENDROOT
TORSDOF 0
ENDMDL
