MODEL 1
REMARK minimizedAffinity 15.5689335
REMARK minimizedRMSD -1
REMARK  0 active torsions:
REMARK  status: ('A' for Active; 'I' for Inactive)
ROOT
ATOM      1  C   UNL d   1       5.477  -0.489  -2.953  0.00  0.00     0.023 A 
ATOM      2  C1  UNL d   1       5.429   0.833  -2.510  0.00  0.00     0.003 A 
ATOM      3  C2  UNL d   1       4.793   1.145  -1.306  0.00  0.00     0.048 A 
ATOM      4  C3  UNL d   1       4.209   0.129  -0.550  0.00  0.00     0.023 A 
ATOM      5  C4  UNL d   1       4.256  -1.195  -0.989  0.00  0.00     0.048 A 
ATOM      6  C5  UNL d   1       4.892  -1.502  -2.193  0.00  0.00     0.003 A 
ATOM      7  I   UNL d   1       3.262   0.590   1.242  0.00  0.00    -0.146 I 
ENDROOT
TORSDOF 0
ENDMDL
