MODEL 1
REMARK minimizedAffinity 12.8619356
REMARK minimizedRMSD -1
REMARK  0 active torsions:
REMARK  status: ('A' for Active; 'I' for Inactive)
ROOT
ATOM      1  C   UNL d   1      -0.013  -1.239   1.682  0.00  0.00     0.023 A 
ATOM      2  C1  UNL d   1       0.940  -1.911   0.917  0.00  0.00     0.003 A 
ATOM      3  C2  UNL d   1       1.275  -3.233   1.219  0.00  0.00     0.048 A 
ATOM      4  C3  UNL d   1       0.652  -3.877   2.287  0.00  0.00     0.023 A 
ATOM      5  C4  UNL d   1      -0.303  -3.209   3.055  0.00  0.00     0.048 A 
ATOM      6  C5  UNL d   1      -0.634  -1.887   2.750  0.00  0.00     0.003 A 
ATOM      7  I   UNL d   1       1.148  -5.844   2.739  0.00  0.00    -0.146 I 
ENDROOT
TORSDOF 0
ENDMDL
