MODEL 1
REMARK minimizedAffinity 11.8461905
REMARK minimizedRMSD -1
REMARK  0 active torsions:
REMARK  status: ('A' for Active; 'I' for Inactive)
ROOT
ATOM      1  C   UNL d   1       0.607  -1.088   2.476  0.00  0.00     0.023 A 
ATOM      2  C1  UNL d   1      -0.451  -0.450   3.124  0.00  0.00     0.003 A 
ATOM      3  C2  UNL d   1      -1.688  -1.089   3.239  0.00  0.00     0.048 A 
ATOM      4  C3  UNL d   1      -1.859  -2.366   2.705  0.00  0.00     0.023 A 
ATOM      5  C4  UNL d   1      -0.803  -3.008   2.057  0.00  0.00     0.048 A 
ATOM      6  C5  UNL d   1       0.432  -2.366   1.944  0.00  0.00     0.003 A 
ATOM      7  I   UNL d   1      -3.698  -3.318   2.875  0.00  0.00    -0.146 I 
ENDROOT
TORSDOF 0
ENDMDL
