MODEL 1
REMARK minimizedAffinity 10.7925224
REMARK minimizedRMSD -1
REMARK  0 active torsions:
REMARK  status: ('A' for Active; 'I' for Inactive)
ROOT
ATOM      1  C   UNL d   1      -1.973   5.289  -2.620  0.00  0.00     0.023 A 
ATOM      2  C1  UNL d   1      -3.119   5.655  -1.914  0.00  0.00     0.003 A 
ATOM      3  C2  UNL d   1      -4.216   4.791  -1.865  0.00  0.00     0.048 A 
ATOM      4  C3  UNL d   1      -4.159   3.563  -2.523  0.00  0.00     0.023 A 
ATOM      5  C4  UNL d   1      -3.014   3.193  -3.230  0.00  0.00     0.048 A 
ATOM      6  C5  UNL d   1      -1.920   4.060  -3.278  0.00  0.00     0.003 A 
ATOM      7  I   UNL d   1      -5.789   2.277  -2.451  0.00  0.00    -0.146 I 
ENDROOT
TORSDOF 0
ENDMDL
