MODEL 1
REMARK minimizedAffinity 9.99314499
REMARK minimizedRMSD -1
REMARK  0 active torsions:
REMARK  status: ('A' for Active; 'I' for Inactive)
ROOT
ATOM      1  C   UNL d   1      -0.082  -5.424  -4.710  0.00  0.00     0.023 A 
ATOM      2  C1  UNL d   1       0.798  -5.998  -5.628  0.00  0.00     0.003 A 
ATOM      3  C2  UNL d   1       1.962  -5.322  -5.999  0.00  0.00     0.048 A 
ATOM      4  C3  UNL d   1       2.240  -4.071  -5.448  0.00  0.00     0.023 A 
ATOM      5  C4  UNL d   1       1.363  -3.492  -4.530  0.00  0.00     0.048 A 
ATOM      6  C5  UNL d   1       0.200  -4.172  -4.162  0.00  0.00     0.003 A 
ATOM      7  I   UNL d   1       3.972  -3.062  -5.999  0.00  0.00    -0.146 I 
ENDROOT
TORSDOF 0
ENDMDL
