MODEL 1
REMARK minimizedAffinity 11.5616074
REMARK minimizedRMSD -1
REMARK  0 active torsions:
REMARK  status: ('A' for Active; 'I' for Inactive)
ROOT
ATOM      1  C   UNL d   1      -0.548  -2.487   2.537  0.00  0.00     0.023 A 
ATOM      2  C1  UNL d   1      -0.568  -1.235   3.151  0.00  0.00     0.003 A 
ATOM      3  C2  UNL d   1       0.382  -0.272   2.806  0.00  0.00     0.048 A 
ATOM      4  C3  UNL d   1       1.349  -0.567   1.846  0.00  0.00     0.023 A 
ATOM      5  C4  UNL d   1       1.372  -1.819   1.228  0.00  0.00     0.048 A 
ATOM      6  C5  UNL d   1       0.421  -2.779   1.577  0.00  0.00     0.003 A 
ATOM      7  I   UNL d   1       2.765   0.865   1.331  0.00  0.00    -0.146 I 
ENDROOT
TORSDOF 0
ENDMDL
