MODEL 1
REMARK minimizedAffinity 14.5727043
REMARK minimizedRMSD -1
REMARK  0 active torsions:
REMARK  status: ('A' for Active; 'I' for Inactive)
ROOT
ATOM      1  C   UNL d   1      -3.482   4.860  -1.694  0.00  0.00     0.023 A 
ATOM      2  C1  UNL d   1      -2.922   6.000  -2.272  0.00  0.00     0.003 A 
ATOM      3  C2  UNL d   1      -2.278   5.913  -3.508  0.00  0.00     0.048 A 
ATOM      4  C3  UNL d   1      -2.197   4.683  -4.161  0.00  0.00     0.023 A 
ATOM      5  C4  UNL d   1      -2.756   3.540  -3.586  0.00  0.00     0.048 A 
ATOM      6  C5  UNL d   1      -3.399   3.632  -2.350  0.00  0.00     0.003 A 
ATOM      7  I   UNL d   1      -1.238   4.551  -6.000  0.00  0.00    -0.146 I 
ENDROOT
TORSDOF 0
ENDMDL
