MODEL 1
REMARK minimizedAffinity 4.45973635
REMARK minimizedRMSD -1
REMARK  0 active torsions:
REMARK  status: ('A' for Active; 'I' for Inactive)
ROOT
ATOM      1  C   UNL d   1      -4.085  -4.169   3.683  0.00  0.00     0.023 A 
ATOM      2  C1  UNL d   1      -3.665  -3.270   2.703  0.00  0.00     0.003 A 
ATOM      3  C2  UNL d   1      -3.720  -3.628   1.355  0.00  0.00     0.048 A 
ATOM      4  C3  UNL d   1      -4.197  -4.887   0.992  0.00  0.00     0.023 A 
ATOM      5  C4  UNL d   1      -4.620  -5.790   1.969  0.00  0.00     0.048 A 
ATOM      6  C5  UNL d   1      -4.562  -5.428   3.316  0.00  0.00     0.003 A 
ATOM      7  I   UNL d   1      -4.280  -5.422  -1.014  0.00  0.00    -0.146 I 
ENDROOT
TORSDOF 0
ENDMDL
