MODEL 1
REMARK minimizedAffinity -0.974262953
REMARK minimizedRMSD -1
REMARK  0 active torsions:
REMARK  status: ('A' for Active; 'I' for Inactive)
ROOT
ATOM      1  C   UNL d   1      -4.699  -4.958   2.430  0.00  0.00     0.023 A 
ATOM      2  C1  UNL d   1      -5.835  -4.520   1.749  0.00  0.00     0.003 A 
ATOM      3  C2  UNL d   1      -5.996  -4.818   0.394  0.00  0.00     0.048 A 
ATOM      4  C3  UNL d   1      -5.018  -5.555  -0.273  0.00  0.00     0.023 A 
ATOM      5  C4  UNL d   1      -3.880  -5.995   0.405  0.00  0.00     0.048 A 
ATOM      6  C5  UNL d   1      -3.723  -5.694   1.759  0.00  0.00     0.003 A 
ATOM      7  I   UNL d   1      -5.257  -5.999  -2.289  0.00  0.00    -0.146 I 
ENDROOT
TORSDOF 0
ENDMDL
