MODEL 1
REMARK minimizedAffinity -5.02060843
REMARK minimizedRMSD -1
REMARK  1 active torsions:
REMARK  status: ('A' for Active; 'I' for Inactive)
REMARK    1  A    between atoms: N_2  and  C1_3 
ROOT
ATOM      1  C1  UNL d   1      -1.003   1.846   0.578  0.00  0.00     0.143 A 
ATOM      2  C2  UNL d   1      -0.525   0.797  -0.214  0.00  0.00    -0.057 A 
ATOM      3  C3  UNL d   1      -0.304  -0.477   0.324  0.00  0.00     0.033 A 
ATOM      4  C4  UNL d   1      -0.531  -0.716   1.675  0.00  0.00    -0.042 A 
ATOM      5  C5  UNL d   1      -0.982   0.318   2.487  0.00  0.00     0.033 A 
ATOM      6  C6  UNL d   1      -1.208   1.586   1.942  0.00  0.00    -0.057 A 
ENDROOT
BRANCH   1   7
ATOM      7  N   UNL d   1      -1.150   3.159   0.124  0.00  0.00    -0.732 N 
ATOM      8  C   UNL d   1      -0.161   3.751  -0.753  0.00  0.00     0.284 C 
ATOM      9  H3  UNL d   1      -2.111   3.379  -0.126  0.00  0.00     0.395 HD
ENDBRANCH   1   7
TORSDOF 1
ENDMDL
