MODEL 1
REMARK minimizedAffinity -4.84147882
REMARK minimizedRMSD -1
REMARK  1 active torsions:
REMARK  status: ('A' for Active; 'I' for Inactive)
REMARK    1  A    between atoms: N_2  and  C1_3 
ROOT
ATOM      1  C1  UNL d   1      -0.118   0.800   0.392  0.00  0.00     0.143 A 
ATOM      2  C2  UNL d   1      -0.756   0.548   1.611  0.00  0.00    -0.057 A 
ATOM      3  C3  UNL d   1      -1.706   1.436   2.130  0.00  0.00     0.033 A 
ATOM      4  C4  UNL d   1      -2.014   2.610   1.451  0.00  0.00    -0.042 A 
ATOM      5  C5  UNL d   1      -1.373   2.893   0.250  0.00  0.00     0.033 A 
ATOM      6  C6  UNL d   1      -0.430   1.999  -0.267  0.00  0.00    -0.057 A 
ENDROOT
BRANCH   1   7
ATOM      7  N   UNL d   1       0.907   0.005  -0.128  0.00  0.00    -0.732 N 
ATOM      8  C   UNL d   1       0.604  -1.233  -0.813  0.00  0.00     0.284 C 
ATOM      9  H3  UNL d   1       1.640   0.556  -0.569  0.00  0.00     0.395 HD
ENDBRANCH   1   7
TORSDOF 1
ENDMDL
