MODEL 1
REMARK minimizedAffinity -3.10092974
REMARK minimizedRMSD -1
REMARK  1 active torsions:
REMARK  status: ('A' for Active; 'I' for Inactive)
REMARK    1  A    between atoms: N_2  and  C1_3 
ROOT
ATOM      1  C1  UNL d   1      -0.526   0.281   0.579  0.00  0.00     0.143 A 
ATOM      2  C2  UNL d   1      -0.037   1.353  -0.175  0.00  0.00    -0.057 A 
ATOM      3  C3  UNL d   1       0.779   1.142  -1.293  0.00  0.00     0.033 A 
ATOM      4  C4  UNL d   1       1.146  -0.148  -1.660  0.00  0.00    -0.042 A 
ATOM      5  C5  UNL d   1       0.692  -1.228  -0.911  0.00  0.00     0.033 A 
ATOM      6  C6  UNL d   1      -0.129  -1.011   0.201  0.00  0.00    -0.057 A 
ENDROOT
BRANCH   1   7
ATOM      7  N   UNL d   1      -1.260   0.430   1.758  0.00  0.00    -0.732 N 
ATOM      8  C   UNL d   1      -1.615   1.747   2.244  0.00  0.00     0.284 C 
ATOM      9  H3  UNL d   1      -2.005  -0.258   1.842  0.00  0.00     0.395 HD
ENDBRANCH   1   7
TORSDOF 1
ENDMDL
