MODEL 1
REMARK minimizedAffinity -3.81867361
REMARK minimizedRMSD -1
REMARK  1 active torsions:
REMARK  status: ('A' for Active; 'I' for Inactive)
REMARK    1  A    between atoms: N_2  and  C1_3 
ROOT
ATOM      1  C1  UNL d   1      -0.166  -0.645  -0.594  0.00  0.00     0.143 A 
ATOM      2  C2  UNL d   1      -0.641   0.552  -1.140  0.00  0.00    -0.057 A 
ATOM      3  C3  UNL d   1      -1.143   1.573  -0.324  0.00  0.00     0.033 A 
ATOM      4  C4  UNL d   1      -1.207   1.402   1.055  0.00  0.00    -0.042 A 
ATOM      5  C5  UNL d   1      -0.764   0.210   1.617  0.00  0.00     0.033 A 
ATOM      6  C6  UNL d   1      -0.257  -0.803   0.798  0.00  0.00    -0.057 A 
ENDROOT
BRANCH   1   7
ATOM      7  N   UNL d   1       0.254  -1.736  -1.359  0.00  0.00    -0.732 N 
ATOM      8  C   UNL d   1      -0.537  -2.198  -2.480  0.00  0.00     0.284 C 
ATOM      9  H3  UNL d   1       1.256  -1.726  -1.533  0.00  0.00     0.395 HD
ENDBRANCH   1   7
TORSDOF 1
ENDMDL
