MODEL 1
REMARK minimizedAffinity -1.99357259
REMARK minimizedRMSD -1
REMARK  1 active torsions:
REMARK  status: ('A' for Active; 'I' for Inactive)
REMARK    1  A    between atoms: N_2  and  C1_3 
ROOT
ATOM      1  C1  UNL d   1       0.435  -1.557  -1.002  0.00  0.00     0.143 A 
ATOM      2  C2  UNL d   1       1.501  -2.342  -0.551  0.00  0.00    -0.057 A 
ATOM      3  C3  UNL d   1       1.919  -3.476  -1.259  0.00  0.00     0.033 A 
ATOM      4  C4  UNL d   1       1.256  -3.861  -2.420  0.00  0.00    -0.042 A 
ATOM      5  C5  UNL d   1       0.178  -3.110  -2.873  0.00  0.00     0.033 A 
ATOM      6  C6  UNL d   1      -0.230  -1.976  -2.165  0.00  0.00    -0.057 A 
ENDROOT
BRANCH   1   7
ATOM      7  N   UNL d   1      -0.091  -0.476  -0.291  0.00  0.00    -0.732 N 
ATOM      8  C   UNL d   1       0.029  -0.413   1.150  0.00  0.00     0.284 C 
ATOM      9  H3  UNL d   1       0.070   0.413  -0.760  0.00  0.00     0.395 HD
ENDBRANCH   1   7
TORSDOF 1
ENDMDL
