MODEL 1
REMARK minimizedAffinity -4.5344553
REMARK minimizedRMSD -1
REMARK  1 active torsions:
REMARK  status: ('A' for Active; 'I' for Inactive)
REMARK    1  A    between atoms: N_2  and  C1_3 
ROOT
ATOM      1  C1  UNL d   1       0.313   0.377   0.407  0.00  0.00     0.143 A 
ATOM      2  C2  UNL d   1      -0.366  -0.385   1.365  0.00  0.00    -0.057 A 
ATOM      3  C3  UNL d   1      -1.495   0.116   2.023  0.00  0.00     0.033 A 
ATOM      4  C4  UNL d   1      -1.951   1.403   1.756  0.00  0.00    -0.042 A 
ATOM      5  C5  UNL d   1      -1.277   2.187   0.826  0.00  0.00     0.033 A 
ATOM      6  C6  UNL d   1      -0.154   1.679   0.167  0.00  0.00    -0.057 A 
ENDROOT
BRANCH   1   7
ATOM      7  N   UNL d   1       1.499  -0.027  -0.210  0.00  0.00    -0.732 N 
ATOM      8  C   UNL d   1       1.741  -1.424  -0.499  0.00  0.00     0.284 C 
ATOM      9  H3  UNL d   1       1.786   0.607  -0.952  0.00  0.00     0.395 HD
ENDBRANCH   1   7
TORSDOF 1
ENDMDL
