MODEL 1
REMARK minimizedAffinity -3.49202323
REMARK minimizedRMSD -1
REMARK  1 active torsions:
REMARK  status: ('A' for Active; 'I' for Inactive)
REMARK    1  A    between atoms: N_2  and  C1_3 
ROOT
ATOM      1  C1  UNL d   1      -0.156  -0.988  -0.282  0.00  0.00     0.143 A 
ATOM      2  C2  UNL d   1      -0.308  -1.974  -1.263  0.00  0.00    -0.057 A 
ATOM      3  C3  UNL d   1       0.752  -2.328  -2.107  0.00  0.00     0.033 A 
ATOM      4  C4  UNL d   1       1.978  -1.679  -2.003  0.00  0.00    -0.042 A 
ATOM      5  C5  UNL d   1       2.144  -0.679  -1.052  0.00  0.00     0.033 A 
ATOM      6  C6  UNL d   1       1.084  -0.335  -0.208  0.00  0.00    -0.057 A 
ENDROOT
BRANCH   1   7
ATOM      7  N   UNL d   1      -1.200  -0.523   0.522  0.00  0.00    -0.732 N 
ATOM      8  C   UNL d   1      -0.929   0.310   1.673  0.00  0.00     0.284 C 
ATOM      9  H3  UNL d   1      -2.008  -0.230  -0.022  0.00  0.00     0.395 HD
ENDBRANCH   1   7
TORSDOF 1
ENDMDL
