MODEL 1
REMARK minimizedAffinity 6.72884178
REMARK minimizedRMSD -1
REMARK  0 active torsions:
REMARK  status: ('A' for Active; 'I' for Inactive)
ROOT
ATOM      1  C   UNL d   1       2.371  -5.359   2.224  0.00  0.00     0.023 A 
ATOM      2  C1  UNL d   1       1.333  -5.999   2.901  0.00  0.00     0.003 A 
ATOM      3  C2  UNL d   1       0.008  -5.784   2.515  0.00  0.00     0.048 A 
ATOM      4  C3  UNL d   1      -0.271  -4.929   1.450  0.00  0.00     0.023 A 
ATOM      5  C4  UNL d   1       0.764  -4.286   0.769  0.00  0.00     0.048 A 
ATOM      6  C5  UNL d   1       2.087  -4.504   1.159  0.00  0.00     0.003 A 
ATOM      7  I   UNL d   1      -2.242  -4.607   0.873  0.00  0.00    -0.146 I 
ENDROOT
TORSDOF 0
ENDMDL
