MODEL 1
REMARK minimizedAffinity 2.25991058
REMARK minimizedRMSD -1
REMARK  0 active torsions:
REMARK  status: ('A' for Active; 'I' for Inactive)
ROOT
ATOM      1  C   UNL d   1       0.207  -4.979   2.200  0.00  0.00     0.023 A 
ATOM      2  C1  UNL d   1       1.080  -4.549   1.201  0.00  0.00     0.003 A 
ATOM      3  C2  UNL d   1       2.443  -4.841   1.289  0.00  0.00     0.048 A 
ATOM      4  C3  UNL d   1       2.926  -5.564   2.379  0.00  0.00     0.023 A 
ATOM      5  C4  UNL d   1       2.056  -5.998   3.381  0.00  0.00     0.048 A 
ATOM      6  C5  UNL d   1       0.694  -5.703   3.288  0.00  0.00     0.003 A 
ATOM      7  I   UNL d   1       4.953  -6.000   2.513  0.00  0.00    -0.146 I 
ENDROOT
TORSDOF 0
ENDMDL
