MODEL 1
REMARK minimizedAffinity 15.3321934
REMARK minimizedRMSD -1
REMARK  0 active torsions:
REMARK  status: ('A' for Active; 'I' for Inactive)
ROOT
ATOM      1  C   UNL d   1       3.063  -1.400  -4.870  0.00  0.00     0.023 A 
ATOM      2  C1  UNL d   1       4.064  -1.091  -5.792  0.00  0.00     0.003 A 
ATOM      3  C2  UNL d   1       4.440   0.238  -5.996  0.00  0.00     0.048 A 
ATOM      4  C3  UNL d   1       3.811   1.253  -5.275  0.00  0.00     0.023 A 
ATOM      5  C4  UNL d   1       2.810   0.948  -4.352  0.00  0.00     0.048 A 
ATOM      6  C5  UNL d   1       2.437  -0.382  -4.151  0.00  0.00     0.003 A 
ATOM      7  I   UNL d   1       4.369   3.232  -5.577  0.00  0.00    -0.146 I 
ENDROOT
TORSDOF 0
ENDMDL
