MODEL 1
REMARK minimizedAffinity -2.66067433
REMARK minimizedRMSD -1
REMARK  0 active torsions:
REMARK  status: ('A' for Active; 'I' for Inactive)
ROOT
ATOM      1  C   UNL d   1       4.066  -4.695   1.452  0.00  0.00     0.023 A 
ATOM      2  C1  UNL d   1       3.438  -5.649   2.253  0.00  0.00     0.003 A 
ATOM      3  C2  UNL d   1       3.991  -6.000   3.486  0.00  0.00     0.048 A 
ATOM      4  C3  UNL d   1       5.172  -5.393   3.912  0.00  0.00     0.023 A 
ATOM      5  C4  UNL d   1       5.804  -4.438   3.114  0.00  0.00     0.048 A 
ATOM      6  C5  UNL d   1       5.247  -4.091   1.881  0.00  0.00     0.003 A 
ATOM      7  I   UNL d   1       5.997  -5.914   5.747  0.00  0.00    -0.146 I 
ENDROOT
TORSDOF 0
ENDMDL
