MODEL 1
REMARK minimizedAffinity -0.78332895
REMARK minimizedRMSD -1
REMARK  0 active torsions:
REMARK  status: ('A' for Active; 'I' for Inactive)
ROOT
ATOM      1  C   UNL d   1       1.260  -5.204   1.834  0.00  0.00     0.023 A 
ATOM      2  C1  UNL d   1       2.389  -4.865   1.089  0.00  0.00     0.003 A 
ATOM      3  C2  UNL d   1       3.665  -5.091   1.611  0.00  0.00     0.048 A 
ATOM      4  C3  UNL d   1       3.803  -5.657   2.878  0.00  0.00     0.023 A 
ATOM      5  C4  UNL d   1       2.676  -5.999   3.626  0.00  0.00     0.048 A 
ATOM      6  C5  UNL d   1       1.403  -5.770   3.101  0.00  0.00     0.003 A 
ATOM      7  I   UNL d   1       5.701  -5.994   3.656  0.00  0.00    -0.146 I 
ENDROOT
TORSDOF 0
ENDMDL
