MODEL 1
REMARK minimizedAffinity -0.0204549246
REMARK minimizedRMSD -1
REMARK  0 active torsions:
REMARK  status: ('A' for Active; 'I' for Inactive)
ROOT
ATOM      1  C   UNL d   1       5.900  -5.881   4.009  0.00  0.00     0.023 A 
ATOM      2  C1  UNL d   1       5.969  -4.758   3.185  0.00  0.00     0.003 A 
ATOM      3  C2  UNL d   1       5.997  -3.479   3.745  0.00  0.00     0.048 A 
ATOM      4  C3  UNL d   1       5.956  -3.331   5.131  0.00  0.00     0.023 A 
ATOM      5  C4  UNL d   1       5.888  -4.452   5.960  0.00  0.00     0.048 A 
ATOM      6  C5  UNL d   1       5.859  -5.728   5.395  0.00  0.00     0.003 A 
ATOM      7  I   UNL d   1       5.998  -1.429   5.968  0.00  0.00    -0.146 I 
ENDROOT
TORSDOF 0
ENDMDL
