MODEL 1
REMARK minimizedAffinity -2.52881384
REMARK minimizedRMSD -1
REMARK  0 active torsions:
REMARK  status: ('A' for Active; 'I' for Inactive)
ROOT
ATOM      1  C   UNL d   1       4.152  -5.250   1.324  0.00  0.00     0.023 A 
ATOM      2  C1  UNL d   1       3.266  -5.784   2.259  0.00  0.00     0.003 A 
ATOM      3  C2  UNL d   1       3.683  -6.000   3.574  0.00  0.00     0.048 A 
ATOM      4  C3  UNL d   1       4.987  -5.678   3.948  0.00  0.00     0.023 A 
ATOM      5  C4  UNL d   1       5.877  -5.143   3.016  0.00  0.00     0.048 A 
ATOM      6  C5  UNL d   1       5.456  -4.929   1.702  0.00  0.00     0.003 A 
ATOM      7  I   UNL d   1       5.610  -5.999   5.904  0.00  0.00    -0.146 I 
ENDROOT
TORSDOF 0
ENDMDL
