MODEL 1
REMARK minimizedAffinity 1.74831617
REMARK minimizedRMSD -1
REMARK  0 active torsions:
REMARK  status: ('A' for Active; 'I' for Inactive)
ROOT
ATOM      1  C   UNL d   1      -4.947  -2.311   1.133  0.00  0.00     0.023 A 
ATOM      2  C1  UNL d   1      -5.240  -3.425   1.920  0.00  0.00     0.003 A 
ATOM      3  C2  UNL d   1      -4.985  -3.398   3.292  0.00  0.00     0.048 A 
ATOM      4  C3  UNL d   1      -4.438  -2.254   3.872  0.00  0.00     0.023 A 
ATOM      5  C4  UNL d   1      -4.145  -1.136   3.089  0.00  0.00     0.048 A 
ATOM      6  C5  UNL d   1      -4.401  -1.168   1.717  0.00  0.00     0.003 A 
ATOM      7  I   UNL d   1      -4.058  -2.212   5.915  0.00  0.00    -0.146 I 
ENDROOT
TORSDOF 0
ENDMDL
