MODEL 1
REMARK minimizedAffinity 0.481338829
REMARK minimizedRMSD -1
REMARK  0 active torsions:
REMARK  status: ('A' for Active; 'I' for Inactive)
ROOT
ATOM      1  C   UNL d   1      -5.877   4.856   3.090  0.00  0.00     0.023 A 
ATOM      2  C1  UNL d   1      -4.618   4.496   2.612  0.00  0.00     0.003 A 
ATOM      3  C2  UNL d   1      -3.473   4.824   3.341  0.00  0.00     0.048 A 
ATOM      4  C3  UNL d   1      -3.595   5.511   4.548  0.00  0.00     0.023 A 
ATOM      5  C4  UNL d   1      -4.853   5.873   5.031  0.00  0.00     0.048 A 
ATOM      6  C5  UNL d   1      -5.995   5.544   4.298  0.00  0.00     0.003 A 
ATOM      7  I   UNL d   1      -1.892   6.000   5.635  0.00  0.00    -0.146 I 
ENDROOT
TORSDOF 0
ENDMDL
