MODEL 1
REMARK minimizedAffinity -1.64941192
REMARK minimizedRMSD -1
REMARK  0 active torsions:
REMARK  status: ('A' for Active; 'I' for Inactive)
ROOT
ATOM      1  C   UNL d   1      -0.877  -5.608   2.346  0.00  0.00     0.023 A 
ATOM      2  C1  UNL d   1      -0.332  -5.208   1.126  0.00  0.00     0.003 A 
ATOM      3  C2  UNL d   1       1.053  -5.194   0.949  0.00  0.00     0.048 A 
ATOM      4  C3  UNL d   1       1.888  -5.583   1.996  0.00  0.00     0.023 A 
ATOM      5  C4  UNL d   1       1.348  -5.985   3.218  0.00  0.00     0.048 A 
ATOM      6  C5  UNL d   1      -0.038  -5.996   3.391  0.00  0.00     0.003 A 
ATOM      7  I   UNL d   1       3.950  -5.563   1.734  0.00  0.00    -0.146 I 
ENDROOT
TORSDOF 0
ENDMDL
