MODEL 1
REMARK minimizedAffinity 0.0487220064
REMARK minimizedRMSD -1
REMARK  0 active torsions:
REMARK  status: ('A' for Active; 'I' for Inactive)
ROOT
ATOM      1  C   UNL d   1      -6.000  -4.238   0.798  0.00  0.00     0.023 A 
ATOM      2  C1  UNL d   1      -4.837  -3.497   0.589  0.00  0.00     0.003 A 
ATOM      3  C2  UNL d   1      -3.603  -4.001   1.006  0.00  0.00     0.048 A 
ATOM      4  C3  UNL d   1      -3.539  -5.246   1.630  0.00  0.00     0.023 A 
ATOM      5  C4  UNL d   1      -4.700  -5.991   1.840  0.00  0.00     0.048 A 
ATOM      6  C5  UNL d   1      -5.932  -5.483   1.423  0.00  0.00     0.003 A 
ATOM      7  I   UNL d   1      -1.703  -5.997   2.251  0.00  0.00    -0.146 I 
ENDROOT
TORSDOF 0
ENDMDL
