MODEL 1
REMARK minimizedAffinity 5.36677074
REMARK minimizedRMSD -1
REMARK  0 active torsions:
REMARK  status: ('A' for Active; 'I' for Inactive)
ROOT
ATOM      1  C   UNL d   1      -2.678   0.711   0.614  0.00  0.00     0.023 A 
ATOM      2  C1  UNL d   1      -3.127   1.397   1.743  0.00  0.00     0.003 A 
ATOM      3  C2  UNL d   1      -2.207   1.943   2.640  0.00  0.00     0.048 A 
ATOM      4  C3  UNL d   1      -0.840   1.802   2.402  0.00  0.00     0.023 A 
ATOM      5  C4  UNL d   1      -0.387   1.118   1.273  0.00  0.00     0.048 A 
ATOM      6  C5  UNL d   1      -1.310   0.572   0.379  0.00  0.00     0.003 A 
ATOM      7  I   UNL d   1       0.530   2.615   3.736  0.00  0.00    -0.146 I 
ENDROOT
TORSDOF 0
ENDMDL
