MODEL 1
REMARK minimizedAffinity 10.8717241
REMARK minimizedRMSD -1
REMARK  0 active torsions:
REMARK  status: ('A' for Active; 'I' for Inactive)
ROOT
ATOM      1  C   UNL d   1      -2.773   0.982   1.135  0.00  0.00     0.023 A 
ATOM      2  C1  UNL d   1      -2.893   1.836   2.231  0.00  0.00     0.003 A 
ATOM      3  C2  UNL d   1      -1.750   2.346   2.850  0.00  0.00     0.048 A 
ATOM      4  C3  UNL d   1      -0.489   1.998   2.366  0.00  0.00     0.023 A 
ATOM      5  C4  UNL d   1      -0.364   1.144   1.269  0.00  0.00     0.048 A 
ATOM      6  C5  UNL d   1      -1.510   0.637   0.654  0.00  0.00     0.003 A 
ATOM      7  I   UNL d   1       1.214   2.755   3.286  0.00  0.00    -0.146 I 
ENDROOT
TORSDOF 0
ENDMDL
