MODEL 1
REMARK minimizedAffinity 7.63060331
REMARK minimizedRMSD -1
REMARK  0 active torsions:
REMARK  status: ('A' for Active; 'I' for Inactive)
ROOT
ATOM      1  C   UNL d   1      -5.922  -0.998   4.053  0.00  0.00     0.023 A 
ATOM      2  C1  UNL d   1      -5.888   0.125   3.225  0.00  0.00     0.003 A 
ATOM      3  C2  UNL d   1      -5.909   1.405   3.782  0.00  0.00     0.048 A 
ATOM      4  C3  UNL d   1      -5.963   1.556   5.167  0.00  0.00     0.023 A 
ATOM      5  C4  UNL d   1      -5.997   0.436   5.999  0.00  0.00     0.048 A 
ATOM      6  C5  UNL d   1      -5.977  -0.843   5.438  0.00  0.00     0.003 A 
ATOM      7  I   UNL d   1      -5.994   3.460   5.998  0.00  0.00    -0.146 I 
ENDROOT
TORSDOF 0
ENDMDL
