MODEL 1
REMARK minimizedAffinity 5.27195597
REMARK minimizedRMSD -1
REMARK  0 active torsions:
REMARK  status: ('A' for Active; 'I' for Inactive)
ROOT
ATOM      1  C   UNL d   1      -2.909  -2.594   0.033  0.00  0.00     0.023 A 
ATOM      2  C1  UNL d   1      -1.596  -2.260   0.365  0.00  0.00     0.003 A 
ATOM      3  C2  UNL d   1      -0.730  -3.236   0.863  0.00  0.00     0.048 A 
ATOM      4  C3  UNL d   1      -1.184  -4.544   1.026  0.00  0.00     0.023 A 
ATOM      5  C4  UNL d   1      -2.497  -4.883   0.694  0.00  0.00     0.048 A 
ATOM      6  C5  UNL d   1      -3.359  -3.904   0.197  0.00  0.00     0.003 A 
ATOM      7  I   UNL d   1       0.102  -5.999   1.767  0.00  0.00    -0.146 I 
ENDROOT
TORSDOF 0
ENDMDL
