MODEL 1
REMARK minimizedAffinity 4.83907795
REMARK minimizedRMSD -1
REMARK  0 active torsions:
REMARK  status: ('A' for Active; 'I' for Inactive)
ROOT
ATOM      1  C   UNL d   1       1.251   0.437   1.983  0.00  0.00     0.023 A 
ATOM      2  C1  UNL d   1       0.626   1.384   1.173  0.00  0.00     0.003 A 
ATOM      3  C2  UNL d   1      -0.705   1.208   0.790  0.00  0.00     0.048 A 
ATOM      4  C3  UNL d   1      -1.405   0.082   1.222  0.00  0.00     0.023 A 
ATOM      5  C4  UNL d   1      -0.784  -0.868   2.034  0.00  0.00     0.048 A 
ATOM      6  C5  UNL d   1       0.547  -0.688   2.413  0.00  0.00     0.003 A 
ATOM      7  I   UNL d   1      -3.387  -0.182   0.653  0.00  0.00    -0.146 I 
ENDROOT
TORSDOF 0
ENDMDL
