MODEL 1
REMARK minimizedAffinity 5.60224009
REMARK minimizedRMSD -1
REMARK  0 active torsions:
REMARK  status: ('A' for Active; 'I' for Inactive)
ROOT
ATOM      1  C   UNL d   1      -5.984   1.664   5.841  0.00  0.00     0.023 A 
ATOM      2  C1  UNL d   1      -5.972   2.271   4.585  0.00  0.00     0.003 A 
ATOM      3  C2  UNL d   1      -5.967   1.487   3.430  0.00  0.00     0.048 A 
ATOM      4  C3  UNL d   1      -5.974   0.097   3.537  0.00  0.00     0.023 A 
ATOM      5  C4  UNL d   1      -5.987  -0.515   4.792  0.00  0.00     0.048 A 
ATOM      6  C5  UNL d   1      -5.991   0.273   5.945  0.00  0.00     0.003 A 
ATOM      7  I   UNL d   1      -5.966  -1.072   1.819  0.00  0.00    -0.146 I 
ENDROOT
TORSDOF 0
ENDMDL
