MODEL 1
REMARK minimizedAffinity 6.96382523
REMARK minimizedRMSD -1
REMARK  0 active torsions:
REMARK  status: ('A' for Active; 'I' for Inactive)
ROOT
ATOM      1  C   UNL d   1       5.453   5.158  -0.714  0.00  0.00     0.023 A 
ATOM      2  C1  UNL d   1       4.191   5.349  -0.152  0.00  0.00     0.003 A 
ATOM      3  C2  UNL d   1       3.472   4.258   0.340  0.00  0.00     0.048 A 
ATOM      4  C3  UNL d   1       4.022   2.978   0.269  0.00  0.00     0.023 A 
ATOM      5  C4  UNL d   1       5.286   2.783  -0.292  0.00  0.00     0.048 A 
ATOM      6  C5  UNL d   1       6.000   3.877  -0.784  0.00  0.00     0.003 A 
ATOM      7  I   UNL d   1       2.955   1.352   1.001  0.00  0.00    -0.146 I 
ENDROOT
TORSDOF 0
ENDMDL
