MODEL 1
REMARK minimizedAffinity 11.6914721
REMARK minimizedRMSD -1
REMARK  2 active torsions:
REMARK  status: ('A' for Active; 'I' for Inactive)
REMARK    1  A    between atoms: C1_2  and  C2_3 
REMARK    2  A    between atoms: C2_3  and  C3_4 
ROOT
ATOM      1  C3  UNL d   1      -3.080   1.742  -3.232  0.00  0.00    -0.075 A 
ATOM      2  C4  UNL d   1      -2.611   0.466  -3.575  0.00  0.00     0.002 A 
ATOM      3  C5  UNL d   1      -2.019  -0.354  -2.613  0.00  0.00     0.002 A 
ATOM      4  C6  UNL d   1      -1.881   0.094  -1.302  0.00  0.00    -0.004 A 
ATOM      5  C7  UNL d   1      -2.329   1.367  -0.953  0.00  0.00     0.002 A 
ATOM      6  C8  UNL d   1      -2.925   2.187  -1.912  0.00  0.00     0.002 A 
ENDROOT
BRANCH   1   7
ATOM      7  C2  UNL d   1      -3.748   2.622  -4.261  0.00  0.00     0.056 C 
BRANCH   7   8
ATOM      8  C1  UNL d   1      -5.272   2.702  -4.119  0.00  0.00     0.007 C 
ATOM      9  C   UNL d   1      -5.836   4.073  -4.468  0.00  0.00     0.009 C 
ENDBRANCH   7   8
ENDBRANCH   1   7
TORSDOF 2
ENDMDL
