MODEL 1
REMARK minimizedAffinity 1.81685865
REMARK minimizedRMSD -1
REMARK  2 active torsions:
REMARK  status: ('A' for Active; 'I' for Inactive)
REMARK    1  A    between atoms: C1_2  and  C2_3 
REMARK    2  A    between atoms: C2_3  and  C3_4 
ROOT
ATOM      1  C3  UNL d   1       3.210   0.375   1.343  0.00  0.00    -0.075 A 
ATOM      2  C4  UNL d   1       2.333   0.890   0.379  0.00  0.00     0.002 A 
ATOM      3  C5  UNL d   1       1.287   1.735   0.752  0.00  0.00     0.002 A 
ATOM      4  C6  UNL d   1       1.099   2.066   2.092  0.00  0.00    -0.004 A 
ATOM      5  C7  UNL d   1       1.955   1.547   3.061  0.00  0.00     0.002 A 
ATOM      6  C8  UNL d   1       3.005   0.704   2.690  0.00  0.00     0.002 A 
ENDROOT
BRANCH   1   7
ATOM      7  C2  UNL d   1       4.362  -0.517   0.943  0.00  0.00     0.056 C 
BRANCH   7   8
ATOM      8  C1  UNL d   1       4.576  -1.715   1.873  0.00  0.00     0.007 C 
ATOM      9  C   UNL d   1       6.000  -2.253   1.841  0.00  0.00     0.009 C 
ENDBRANCH   7   8
ENDBRANCH   1   7
TORSDOF 2
ENDMDL
