MODEL 1
REMARK minimizedAffinity 1.45553327
REMARK minimizedRMSD -1
REMARK  2 active torsions:
REMARK  status: ('A' for Active; 'I' for Inactive)
REMARK    1  A    between atoms: C1_2  and  C2_3 
REMARK    2  A    between atoms: C2_3  and  C3_4 
ROOT
ATOM      1  C3  UNL d   1       4.417  -4.826   1.783  0.00  0.00    -0.075 A 
ATOM      2  C4  UNL d   1       5.639  -4.163   1.597  0.00  0.00     0.002 A 
ATOM      3  C5  UNL d   1       5.999  -3.096   2.421  0.00  0.00     0.002 A 
ATOM      4  C6  UNL d   1       5.140  -2.672   3.432  0.00  0.00    -0.004 A 
ATOM      5  C7  UNL d   1       3.916  -3.312   3.615  0.00  0.00     0.002 A 
ATOM      6  C8  UNL d   1       3.555  -4.383   2.795  0.00  0.00     0.002 A 
ENDROOT
BRANCH   1   7
ATOM      7  C2  UNL d   1       4.035  -6.000   0.914  0.00  0.00     0.056 C 
BRANCH   7   8
ATOM      8  C1  UNL d   1       2.634  -5.893   0.302  0.00  0.00     0.007 C 
ATOM      9  C   UNL d   1       2.632  -6.000  -1.217  0.00  0.00     0.009 C 
ENDBRANCH   7   8
ENDBRANCH   1   7
TORSDOF 2
ENDMDL
