MODEL 1
REMARK minimizedAffinity 14.264431
REMARK minimizedRMSD -1
REMARK  2 active torsions:
REMARK  status: ('A' for Active; 'I' for Inactive)
REMARK    1  A    between atoms: C1_2  and  C2_3 
REMARK    2  A    between atoms: C2_3  and  C3_4 
ROOT
ATOM      1  C3  UNL d   1      -2.667   1.812  -1.811  0.00  0.00    -0.075 A 
ATOM      2  C4  UNL d   1      -3.352   2.156  -2.986  0.00  0.00     0.002 A 
ATOM      3  C5  UNL d   1      -3.698   1.175  -3.916  0.00  0.00     0.002 A 
ATOM      4  C6  UNL d   1      -3.357  -0.157  -3.689  0.00  0.00    -0.004 A 
ATOM      5  C7  UNL d   1      -2.663  -0.507  -2.533  0.00  0.00     0.002 A 
ATOM      6  C8  UNL d   1      -2.319   0.472  -1.598  0.00  0.00     0.002 A 
ENDROOT
BRANCH   1   7
ATOM      7  C2  UNL d   1      -2.315   2.864  -0.787  0.00  0.00     0.056 C 
BRANCH   7   8
ATOM      8  C1  UNL d   1      -2.001   2.301   0.603  0.00  0.00     0.007 C 
ATOM      9  C   UNL d   1      -2.674   3.073   1.730  0.00  0.00     0.009 C 
ENDBRANCH   7   8
ENDBRANCH   1   7
TORSDOF 2
ENDMDL
