MODEL 1
REMARK minimizedAffinity -1.24448156
REMARK minimizedRMSD -1
REMARK  0 active torsions:
REMARK  status: ('A' for Active; 'I' for Inactive)
ROOT
ATOM      1  C   UNL d   1      -0.494   0.386   2.756  0.00  0.00     0.023 A 
ATOM      2  C1  UNL d   1       0.791   0.017   2.361  0.00  0.00     0.003 A 
ATOM      3  C2  UNL d   1       1.099  -0.104   1.004  0.00  0.00     0.048 A 
ATOM      4  C3  UNL d   1       0.115   0.147   0.047  0.00  0.00     0.023 A 
ATOM      5  C4  UNL d   1      -1.172   0.518   0.438  0.00  0.00     0.048 A 
ATOM      6  C5  UNL d   1      -1.475   0.637   1.796  0.00  0.00     0.003 A 
ATOM      7  I   UNL d   1       0.570  -0.033  -1.973  0.00  0.00    -0.146 I 
ENDROOT
TORSDOF 0
ENDMDL
