MODEL 1
REMARK minimizedAffinity -4.24596357
REMARK minimizedRMSD -1
REMARK  0 active torsions:
REMARK  status: ('A' for Active; 'I' for Inactive)
ROOT
ATOM      1  C   UNL d   1      -2.925   0.873   2.139  0.00  0.00     0.023 A 
ATOM      2  C1  UNL d   1      -1.898   0.653   3.057  0.00  0.00     0.003 A 
ATOM      3  C2  UNL d   1      -0.611   0.352   2.609  0.00  0.00     0.048 A 
ATOM      4  C3  UNL d   1      -0.356   0.273   1.240  0.00  0.00     0.023 A 
ATOM      5  C4  UNL d   1      -1.380   0.494   0.317  0.00  0.00     0.048 A 
ATOM      6  C5  UNL d   1      -2.666   0.794   0.770  0.00  0.00     0.003 A 
ATOM      7  I   UNL d   1       1.559  -0.175   0.570  0.00  0.00    -0.146 I 
ENDROOT
TORSDOF 0
ENDMDL
