MODEL 1
REMARK minimizedAffinity -2.71942258
REMARK minimizedRMSD -1
REMARK  0 active torsions:
REMARK  status: ('A' for Active; 'I' for Inactive)
ROOT
ATOM      1  C   UNL d   1      -0.505   0.346   3.041  0.00  0.00     0.023 A 
ATOM      2  C1  UNL d   1      -1.539   0.561   2.128  0.00  0.00     0.003 A 
ATOM      3  C2  UNL d   1      -1.304   0.417   0.759  0.00  0.00     0.048 A 
ATOM      4  C3  UNL d   1      -0.035   0.057   0.309  0.00  0.00     0.023 A 
ATOM      5  C4  UNL d   1       1.002  -0.160   1.218  0.00  0.00     0.048 A 
ATOM      6  C5  UNL d   1       0.763  -0.014   2.586  0.00  0.00     0.003 A 
ATOM      7  I   UNL d   1       0.316  -0.158  -1.728  0.00  0.00    -0.146 I 
ENDROOT
TORSDOF 0
ENDMDL
