MODEL 1
REMARK minimizedAffinity 1.49730885
REMARK minimizedRMSD -1
REMARK  0 active torsions:
REMARK  status: ('A' for Active; 'I' for Inactive)
ROOT
ATOM      1  C   UNL d   1      -1.042   0.425   0.943  0.00  0.00     0.023 A 
ATOM      2  C1  UNL d   1       0.287   0.021   1.070  0.00  0.00     0.003 A 
ATOM      3  C2  UNL d   1       1.033  -0.297  -0.067  0.00  0.00     0.048 A 
ATOM      4  C3  UNL d   1       0.445  -0.208  -1.328  0.00  0.00     0.023 A 
ATOM      5  C4  UNL d   1      -0.884   0.197  -1.460  0.00  0.00     0.048 A 
ATOM      6  C5  UNL d   1      -1.627   0.513  -0.321  0.00  0.00     0.003 A 
ATOM      7  I   UNL d   1       1.554  -0.680  -3.021  0.00  0.00    -0.146 I 
ENDROOT
TORSDOF 0
ENDMDL
