MODEL 1
REMARK minimizedAffinity -1.45117724
REMARK minimizedRMSD -1
REMARK  0 active torsions:
REMARK  status: ('A' for Active; 'I' for Inactive)
ROOT
ATOM      1  C   UNL d   1      -0.493   0.174   1.548  0.00  0.00     0.023 A 
ATOM      2  C1  UNL d   1      -1.438   0.361   0.538  0.00  0.00     0.003 A 
ATOM      3  C2  UNL d   1      -1.136   0.004  -0.777  0.00  0.00     0.048 A 
ATOM      4  C3  UNL d   1       0.112  -0.541  -1.077  0.00  0.00     0.023 A 
ATOM      5  C4  UNL d   1       1.060  -0.730  -0.070  0.00  0.00     0.048 A 
ATOM      6  C5  UNL d   1       0.754  -0.371   1.244  0.00  0.00     0.003 A 
ATOM      7  I   UNL d   1       0.564  -1.074  -3.034  0.00  0.00    -0.146 I 
ENDROOT
TORSDOF 0
ENDMDL
