MODEL 1
REMARK minimizedAffinity -2.64527321
REMARK minimizedRMSD -1
REMARK  0 active torsions:
REMARK  status: ('A' for Active; 'I' for Inactive)
ROOT
ATOM      1  C   UNL d   1       1.504  -1.700  -4.040  0.00  0.00     0.023 A 
ATOM      2  C1  UNL d   1       1.521  -2.533  -2.921  0.00  0.00     0.003 A 
ATOM      3  C2  UNL d   1       1.276  -2.005  -1.652  0.00  0.00     0.048 A 
ATOM      4  C3  UNL d   1       1.014  -0.643  -1.508  0.00  0.00     0.023 A 
ATOM      5  C4  UNL d   1       0.995   0.195  -2.625  0.00  0.00     0.048 A 
ATOM      6  C5  UNL d   1       1.241  -0.338  -3.892  0.00  0.00     0.003 A 
ATOM      7  I   UNL d   1       0.649   0.146   0.380  0.00  0.00    -0.146 I 
ENDROOT
TORSDOF 0
ENDMDL
