MODEL 1
REMARK minimizedAffinity -0.697127998
REMARK minimizedRMSD -1
REMARK  0 active torsions:
REMARK  status: ('A' for Active; 'I' for Inactive)
ROOT
ATOM      1  C   UNL d   1       0.758  -0.807  -2.127  0.00  0.00     0.023 A 
ATOM      2  C1  UNL d   1       0.719  -1.836  -1.187  0.00  0.00     0.003 A 
ATOM      3  C2  UNL d   1       0.493  -1.545   0.160  0.00  0.00     0.048 A 
ATOM      4  C3  UNL d   1       0.304  -0.222   0.559  0.00  0.00     0.023 A 
ATOM      5  C4  UNL d   1       0.341   0.811  -0.379  0.00  0.00     0.048 A 
ATOM      6  C5  UNL d   1       0.569   0.515  -1.724  0.00  0.00     0.003 A 
ATOM      7  I   UNL d   1      -0.033   0.214   2.563  0.00  0.00    -0.146 I 
ENDROOT
TORSDOF 0
ENDMDL
