MODEL 1
REMARK minimizedAffinity -1.58815622
REMARK minimizedRMSD -1
REMARK  0 active torsions:
REMARK  status: ('A' for Active; 'I' for Inactive)
ROOT
ATOM      1  C   UNL d   1      -0.659  -0.305  -3.697  0.00  0.00     0.023 A 
ATOM      2  C1  UNL d   1       0.475  -1.035  -3.339  0.00  0.00     0.003 A 
ATOM      3  C2  UNL d   1       1.016  -0.905  -2.058  0.00  0.00     0.048 A 
ATOM      4  C3  UNL d   1       0.416  -0.045  -1.139  0.00  0.00     0.023 A 
ATOM      5  C4  UNL d   1      -0.719   0.687  -1.492  0.00  0.00     0.048 A 
ATOM      6  C5  UNL d   1      -1.255   0.554  -2.774  0.00  0.00     0.003 A 
ATOM      7  I   UNL d   1       1.219   0.150   0.768  0.00  0.00    -0.146 I 
ENDROOT
TORSDOF 0
ENDMDL
