MODEL 1
REMARK minimizedAffinity -1.19191539
REMARK minimizedRMSD -1
REMARK  0 active torsions:
REMARK  status: ('A' for Active; 'I' for Inactive)
ROOT
ATOM      1  C   UNL d   1       1.885  -0.167   1.614  0.00  0.00     0.023 A 
ATOM      2  C1  UNL d   1       1.241  -0.171   0.377  0.00  0.00     0.003 A 
ATOM      3  C2  UNL d   1      -0.134   0.064   0.303  0.00  0.00     0.048 A 
ATOM      4  C3  UNL d   1      -0.858   0.303   1.470  0.00  0.00     0.023 A 
ATOM      5  C4  UNL d   1      -0.218   0.309   2.711  0.00  0.00     0.048 A 
ATOM      6  C5  UNL d   1       1.157   0.073   2.780  0.00  0.00     0.003 A 
ATOM      7  I   UNL d   1      -2.904   0.654   1.363  0.00  0.00    -0.146 I 
ENDROOT
TORSDOF 0
ENDMDL
