MODEL 1
REMARK minimizedAffinity -2.45195556
REMARK minimizedRMSD -1
REMARK  0 active torsions:
REMARK  status: ('A' for Active; 'I' for Inactive)
ROOT
ATOM      1  C   UNL d   1       1.235  -0.094   0.683  0.00  0.00     0.023 A 
ATOM      2  C1  UNL d   1       1.024  -0.000   2.059  0.00  0.00     0.003 A 
ATOM      3  C2  UNL d   1      -0.227   0.378   2.551  0.00  0.00     0.048 A 
ATOM      4  C3  UNL d   1      -1.263   0.659   1.662  0.00  0.00     0.023 A 
ATOM      5  C4  UNL d   1      -1.057   0.566   0.284  0.00  0.00     0.048 A 
ATOM      6  C5  UNL d   1       0.195   0.189  -0.203  0.00  0.00     0.003 A 
ATOM      7  I   UNL d   1      -3.126   1.221   2.392  0.00  0.00    -0.146 I 
ENDROOT
TORSDOF 0
ENDMDL
