MODEL 1
REMARK minimizedAffinity -1.80599177
REMARK minimizedRMSD -1
REMARK  0 active torsions:
REMARK  status: ('A' for Active; 'I' for Inactive)
ROOT
ATOM      1  C   UNL d   1      -1.965   1.057   2.671  0.00  0.00     0.023 A 
ATOM      2  C1  UNL d   1      -0.598   0.786   2.719  0.00  0.00     0.003 A 
ATOM      3  C2  UNL d   1       0.086   0.430   1.555  0.00  0.00     0.048 A 
ATOM      4  C3  UNL d   1      -0.604   0.347   0.346  0.00  0.00     0.023 A 
ATOM      5  C4  UNL d   1      -1.972   0.617   0.293  0.00  0.00     0.048 A 
ATOM      6  C5  UNL d   1      -2.652   0.972   1.460  0.00  0.00     0.003 A 
ATOM      7  I   UNL d   1       0.412  -0.183  -1.388  0.00  0.00    -0.146 I 
ENDROOT
TORSDOF 0
ENDMDL
