MODEL 1
REMARK minimizedAffinity -0.022223996
REMARK minimizedRMSD -1
REMARK  0 active torsions:
REMARK  status: ('A' for Active; 'I' for Inactive)
ROOT
ATOM      1  C   UNL d   1      -0.189   0.453   1.421  0.00  0.00     0.023 A 
ATOM      2  C1  UNL d   1       1.151   0.117   1.224  0.00  0.00     0.003 A 
ATOM      3  C2  UNL d   1       1.617  -0.173  -0.060  0.00  0.00     0.048 A 
ATOM      4  C3  UNL d   1       0.740  -0.123  -1.142  0.00  0.00     0.023 A 
ATOM      5  C4  UNL d   1      -0.601   0.214  -0.950  0.00  0.00     0.048 A 
ATOM      6  C5  UNL d   1      -1.063   0.502   0.336  0.00  0.00     0.003 A 
ATOM      7  I   UNL d   1       1.432  -0.554  -3.054  0.00  0.00    -0.146 I 
ENDROOT
TORSDOF 0
ENDMDL
