MODEL 1
REMARK minimizedAffinity -3.75858903
REMARK minimizedRMSD -1
REMARK  0 active torsions:
REMARK  status: ('A' for Active; 'I' for Inactive)
ROOT
ATOM      1  C   UNL d   1       0.782   0.081   0.862  0.00  0.00     0.023 A 
ATOM      2  C1  UNL d   1       1.125  -1.233   0.547  0.00  0.00     0.003 A 
ATOM      3  C2  UNL d   1       1.118  -1.659  -0.783  0.00  0.00     0.048 A 
ATOM      4  C3  UNL d   1       0.768  -0.764  -1.793  0.00  0.00     0.023 A 
ATOM      5  C4  UNL d   1       0.424   0.553  -1.483  0.00  0.00     0.048 A 
ATOM      6  C5  UNL d   1       0.432   0.973  -0.152  0.00  0.00     0.003 A 
ATOM      7  I   UNL d   1       0.756  -1.395  -3.773  0.00  0.00    -0.146 I 
ENDROOT
TORSDOF 0
ENDMDL
