MODEL 1
REMARK minimizedAffinity -1.20852327
REMARK minimizedRMSD -1
REMARK  0 active torsions:
REMARK  status: ('A' for Active; 'I' for Inactive)
ROOT
ATOM      1  C   UNL d   1      -1.310   0.514   2.336  0.00  0.00     0.023 A 
ATOM      2  C1  UNL d   1       0.074   0.342   2.340  0.00  0.00     0.003 A 
ATOM      3  C2  UNL d   1       0.749   0.074   1.147  0.00  0.00     0.048 A 
ATOM      4  C3  UNL d   1       0.033  -0.018  -0.046  0.00  0.00     0.023 A 
ATOM      5  C4  UNL d   1      -1.352   0.155  -0.055  0.00  0.00     0.048 A 
ATOM      6  C5  UNL d   1      -2.022   0.421   1.140  0.00  0.00     0.003 A 
ATOM      7  I   UNL d   1       1.035  -0.415  -1.823  0.00  0.00    -0.146 I 
ENDROOT
TORSDOF 0
ENDMDL
