MODEL 1
REMARK minimizedAffinity -4.46024561
REMARK minimizedRMSD -1
REMARK  0 active torsions:
REMARK  status: ('A' for Active; 'I' for Inactive)
ROOT
ATOM      1  C   UNL d   1       0.823  -0.030   1.419  0.00  0.00     0.023 A 
ATOM      2  C1  UNL d   1       0.231   0.834   0.499  0.00  0.00     0.003 A 
ATOM      3  C2  UNL d   1       0.123   0.462  -0.843  0.00  0.00     0.048 A 
ATOM      4  C3  UNL d   1       0.610  -0.778  -1.257  0.00  0.00     0.023 A 
ATOM      5  C4  UNL d   1       1.202  -1.647  -0.339  0.00  0.00     0.048 A 
ATOM      6  C5  UNL d   1       1.308  -1.270   1.001  0.00  0.00     0.003 A 
ATOM      7  I   UNL d   1       0.451  -1.335  -3.253  0.00  0.00    -0.146 I 
ENDROOT
TORSDOF 0
ENDMDL
