MODEL 1
REMARK minimizedAffinity -1.59726882
REMARK minimizedRMSD -1
REMARK  0 active torsions:
REMARK  status: ('A' for Active; 'I' for Inactive)
ROOT
ATOM      1  C   UNL d   1       1.046  -0.270   2.058  0.00  0.00     0.023 A 
ATOM      2  C1  UNL d   1       0.758   0.930   1.407  0.00  0.00     0.003 A 
ATOM      3  C2  UNL d   1       0.675   0.968   0.014  0.00  0.00     0.048 A 
ATOM      4  C3  UNL d   1       0.881  -0.198  -0.723  0.00  0.00     0.023 A 
ATOM      5  C4  UNL d   1       1.169  -1.401  -0.076  0.00  0.00     0.048 A 
ATOM      6  C5  UNL d   1       1.251  -1.434   1.317  0.00  0.00     0.003 A 
ATOM      7  I   UNL d   1       0.759  -0.144  -2.797  0.00  0.00    -0.146 I 
ENDROOT
TORSDOF 0
ENDMDL
