MODEL 1
REMARK minimizedAffinity -4.85151291
REMARK minimizedRMSD -1
REMARK  0 active torsions:
REMARK  status: ('A' for Active; 'I' for Inactive)
ROOT
ATOM      1  N1  IND d   1       0.237  -0.263  -1.108  0.00  0.00    -0.196 N 
ATOM      2  C2  IND d   1       0.819  -1.129  -0.225  0.00  0.00     0.054 A 
ATOM      3  C3  IND d   1       0.758  -0.631   1.031  0.00  0.00    -0.031 A 
ATOM      4  C4  IND d   1      -0.343   1.535   1.880  0.00  0.00     0.051 A 
ATOM      5  C5  IND d   1      -0.970   2.668   1.442  0.00  0.00    -0.031 A 
ATOM      6  C6  IND d   1      -1.234   2.885   0.105  0.00  0.00     0.015 A 
ATOM      7  C7  IND d   1      -0.890   1.968  -0.847  0.00  0.00    -0.016 A 
ATOM      8  C8  IND d   1      -0.247   0.819  -0.407  0.00  0.00    -0.047 A 
ATOM      9  C9  IND d   1       0.061   0.613   0.944  0.00  0.00    -0.096 A 
ATOM     10  HN1 IND d   1       0.182  -0.376  -1.959  0.00  0.00     0.298 HD
ENDROOT
TORSDOF 0
ENDMDL
