MODEL 1
REMARK minimizedAffinity -1.22111917
REMARK minimizedRMSD -1
REMARK  0 active torsions:
REMARK  status: ('A' for Active; 'I' for Inactive)
ROOT
ATOM      1  N1  IND d   1       0.152   0.709  -2.026  0.00  0.00    -0.196 N 
ATOM      2  C2  IND d   1       0.570  -0.592  -1.976  0.00  0.00     0.054 A 
ATOM      3  C3  IND d   1       0.683  -1.001  -0.693  0.00  0.00    -0.031 A 
ATOM      4  C4  IND d   1       0.138   0.265   1.482  0.00  0.00     0.051 A 
ATOM      5  C5  IND d   1      -0.240   1.493   1.947  0.00  0.00    -0.031 A 
ATOM      6  C6  IND d   1      -0.516   2.542   1.095  0.00  0.00     0.015 A 
ATOM      7  C7  IND d   1      -0.433   2.399  -0.261  0.00  0.00    -0.016 A 
ATOM      8  C8  IND d   1      -0.043   1.156  -0.737  0.00  0.00    -0.047 A 
ATOM      9  C9  IND d   1       0.279   0.099   0.124  0.00  0.00    -0.096 A 
ATOM     10  HN1 IND d   1       0.030   1.170  -2.741  0.00  0.00     0.298 HD
ENDROOT
TORSDOF 0
ENDMDL
