MODEL 1
REMARK minimizedAffinity -2.29584265
REMARK minimizedRMSD -1
REMARK  0 active torsions:
REMARK  status: ('A' for Active; 'I' for Inactive)
ROOT
ATOM      1  N1  IND d   1       0.341   1.432  -2.010  0.00  0.00    -0.196 N 
ATOM      2  C2  IND d   1      -0.104   2.718  -1.885  0.00  0.00     0.054 A 
ATOM      3  C3  IND d   1      -0.346   3.008  -0.587  0.00  0.00    -0.031 A 
ATOM      4  C4  IND d   1       0.018   1.558   1.508  0.00  0.00     0.051 A 
ATOM      5  C5  IND d   1       0.375   0.297   1.897  0.00  0.00    -0.031 A 
ATOM      6  C6  IND d   1       0.749  -0.668   0.985  0.00  0.00     0.015 A 
ATOM      7  C7  IND d   1       0.792  -0.405  -0.355  0.00  0.00    -0.016 A 
ATOM      8  C8  IND d   1       0.423   0.872  -0.754  0.00  0.00    -0.047 A 
ATOM      9  C9  IND d   1       0.002   1.844   0.164  0.00  0.00    -0.096 A 
ATOM     10  HN1 IND d   1       0.538   1.038  -2.749  0.00  0.00     0.298 HD
ENDROOT
TORSDOF 0
ENDMDL
