MODEL 1
REMARK minimizedAffinity -3.3952961
REMARK minimizedRMSD -1
REMARK  0 active torsions:
REMARK  status: ('A' for Active; 'I' for Inactive)
ROOT
ATOM      1  N1  IND d   1      -0.967  -0.178  -2.017  0.00  0.00    -0.196 N 
ATOM      2  C2  IND d   1       0.020   0.487  -1.345  0.00  0.00     0.054 A 
ATOM      3  C3  IND d   1       0.768  -0.382  -0.629  0.00  0.00    -0.031 A 
ATOM      4  C4  IND d   1       0.614  -2.948  -0.493  0.00  0.00     0.051 A 
ATOM      5  C5  IND d   1      -0.150  -4.004  -0.903  0.00  0.00    -0.031 A 
ATOM      6  C6  IND d   1      -1.246  -3.836  -1.725  0.00  0.00     0.015 A 
ATOM      7  C7  IND d   1      -1.614  -2.601  -2.177  0.00  0.00    -0.016 A 
ATOM      8  C8  IND d   1      -0.845  -1.525  -1.757  0.00  0.00    -0.047 A 
ATOM      9  C9  IND d   1       0.243  -1.685  -0.890  0.00  0.00    -0.096 A 
ATOM     10  HN1 IND d   1      -1.565   0.185  -2.518  0.00  0.00     0.298 HD
ENDROOT
TORSDOF 0
ENDMDL
