MODEL 1
REMARK minimizedAffinity -0.914099514
REMARK minimizedRMSD -1
REMARK  0 active torsions:
REMARK  status: ('A' for Active; 'I' for Inactive)
ROOT
ATOM      1  N1  IND d   1       0.233   0.281  -1.652  0.00  0.00    -0.196 N 
ATOM      2  C2  IND d   1       0.680  -0.973  -1.340  0.00  0.00     0.054 A 
ATOM      3  C3  IND d   1       0.734  -1.133   0.001  0.00  0.00    -0.031 A 
ATOM      4  C4  IND d   1       0.039   0.493   1.872  0.00  0.00     0.051 A 
ATOM      5  C5  IND d   1      -0.395   1.771   2.082  0.00  0.00    -0.031 A 
ATOM      6  C6  IND d   1      -0.650   2.635   1.036  0.00  0.00     0.015 A 
ATOM      7  C7  IND d   1      -0.490   2.247  -0.264  0.00  0.00    -0.016 A 
ATOM      8  C8  IND d   1      -0.043   0.952  -0.480  0.00  0.00    -0.047 A 
ATOM      9  C9  IND d   1       0.258   0.084   0.578  0.00  0.00    -0.096 A 
ATOM     10  HN1 IND d   1       0.139   0.598  -2.446  0.00  0.00     0.298 HD
ENDROOT
TORSDOF 0
ENDMDL
