MODEL 1
REMARK minimizedAffinity -1.79444313
REMARK minimizedRMSD -1
REMARK  0 active torsions:
REMARK  status: ('A' for Active; 'I' for Inactive)
ROOT
ATOM      1  N1  IND d   1       0.162   0.102  -1.651  0.00  0.00    -0.196 N 
ATOM      2  C2  IND d   1       0.746  -0.722  -0.730  0.00  0.00     0.054 A 
ATOM      3  C3  IND d   1       0.758  -0.133   0.487  0.00  0.00    -0.031 A 
ATOM      4  C4  IND d   1      -0.218   2.134   1.216  0.00  0.00     0.051 A 
ATOM      5  C5  IND d   1      -0.817   3.259   0.722  0.00  0.00    -0.031 A 
ATOM      6  C6  IND d   1      -1.129   3.390  -0.616  0.00  0.00     0.015 A 
ATOM      7  C7  IND d   1      -0.863   2.393  -1.511  0.00  0.00    -0.016 A 
ATOM      8  C8  IND d   1      -0.248   1.252  -1.013  0.00  0.00    -0.047 A 
ATOM      9  C9  IND d   1       0.109   1.131   0.336  0.00  0.00    -0.096 A 
ATOM     10  HN1 IND d   1       0.066  -0.069  -2.489  0.00  0.00     0.298 HD
ENDROOT
TORSDOF 0
ENDMDL
