MODEL 1
REMARK minimizedAffinity -0.833485305
REMARK minimizedRMSD -1
REMARK  0 active torsions:
REMARK  status: ('A' for Active; 'I' for Inactive)
ROOT
ATOM      1  N1  IND d   1      -0.769  -0.676  -1.293  0.00  0.00    -0.196 N 
ATOM      2  C2  IND d   1       0.326  -0.150  -0.667  0.00  0.00     0.054 A 
ATOM      3  C3  IND d   1       1.175  -1.135  -0.297  0.00  0.00    -0.031 A 
ATOM      4  C4  IND d   1       1.016  -3.672  -0.709  0.00  0.00     0.051 A 
ATOM      5  C5  IND d   1       0.181  -4.632  -1.209  0.00  0.00    -0.031 A 
ATOM      6  C6  IND d   1      -1.037  -4.316  -1.775  0.00  0.00     0.015 A 
ATOM      7  C7  IND d   1      -1.462  -3.021  -1.875  0.00  0.00    -0.016 A 
ATOM      8  C8  IND d   1      -0.620  -2.044  -1.362  0.00  0.00    -0.047 A 
ATOM      9  C9  IND d   1       0.598  -2.362  -0.748  0.00  0.00    -0.096 A 
ATOM     10  HN1 IND d   1      -1.439  -0.229  -1.593  0.00  0.00     0.298 HD
ENDROOT
TORSDOF 0
ENDMDL
