MODEL 1
REMARK minimizedAffinity -4.05557585
REMARK minimizedRMSD -1
REMARK  0 active torsions:
REMARK  status: ('A' for Active; 'I' for Inactive)
ROOT
ATOM      1  N1  IND d   1       0.551   0.636  -1.768  0.00  0.00    -0.196 N 
ATOM      2  C2  IND d   1       0.866  -0.641  -1.396  0.00  0.00     0.054 A 
ATOM      3  C3  IND d   1       0.480  -0.867  -0.120  0.00  0.00    -0.031 A 
ATOM      4  C4  IND d   1      -0.776   0.682   1.508  0.00  0.00     0.051 A 
ATOM      5  C5  IND d   1      -1.248   1.958   1.633  0.00  0.00    -0.031 A 
ATOM      6  C6  IND d   1      -1.145   2.877   0.608  0.00  0.00     0.015 A 
ATOM      7  C7  IND d   1      -0.573   2.549  -0.588  0.00  0.00    -0.016 A 
ATOM      8  C8  IND d   1      -0.087   1.255  -0.716  0.00  0.00    -0.047 A 
ATOM      9  C9  IND d   1      -0.151   0.331   0.335  0.00  0.00    -0.096 A 
ATOM     10  HN1 IND d   1       0.722   0.992  -2.532  0.00  0.00     0.298 HD
ENDROOT
TORSDOF 0
ENDMDL
