MODEL 1
REMARK minimizedAffinity -4.88388014
REMARK minimizedRMSD -1
REMARK  0 active torsions:
REMARK  status: ('A' for Active; 'I' for Inactive)
ROOT
ATOM      1  N1  IND d   1      -0.397  -0.096  -0.566  0.00  0.00    -0.196 N 
ATOM      2  C2  IND d   1       0.110  -0.919   0.401  0.00  0.00     0.054 A 
ATOM      3  C3  IND d   1       0.268  -0.241   1.560  0.00  0.00    -0.031 A 
ATOM      4  C4  IND d   1      -0.334   2.198   2.123  0.00  0.00     0.051 A 
ATOM      5  C5  IND d   1      -0.790   3.354   1.554  0.00  0.00    -0.031 A 
ATOM      6  C6  IND d   1      -1.147   3.420   0.223  0.00  0.00     0.015 A 
ATOM      7  C7  IND d   1      -1.073   2.324  -0.590  0.00  0.00    -0.016 A 
ATOM      8  C8  IND d   1      -0.604   1.150  -0.017  0.00  0.00    -0.047 A 
ATOM      9  C9  IND d   1      -0.200   1.088   1.323  0.00  0.00    -0.096 A 
ATOM     10  HN1 IND d   1      -0.558  -0.319  -1.381  0.00  0.00     0.298 HD
ENDROOT
TORSDOF 0
ENDMDL
