MODEL 1
REMARK minimizedAffinity -6.02086306
REMARK minimizedRMSD -1
REMARK  0 active torsions:
REMARK  status: ('A' for Active; 'I' for Inactive)
ROOT
ATOM      1  N1  IND d   1       0.675   0.291  -1.069  0.00  0.00    -0.196 N 
ATOM      2  C2  IND d   1       1.261  -0.530  -0.147  0.00  0.00     0.054 A 
ATOM      3  C3  IND d   1       0.936  -0.138   1.105  0.00  0.00    -0.031 A 
ATOM      4  C4  IND d   1      -0.625   1.760   1.872  0.00  0.00     0.051 A 
ATOM      5  C5  IND d   1      -1.364   2.806   1.395  0.00  0.00    -0.031 A 
ATOM      6  C6  IND d   1      -1.465   3.071   0.044  0.00  0.00     0.015 A 
ATOM      7  C7  IND d   1      -0.838   2.289  -0.884  0.00  0.00    -0.016 A 
ATOM      8  C8  IND d   1      -0.081   1.230  -0.403  0.00  0.00    -0.047 A 
ATOM      9  C9  IND d   1       0.060   0.982   0.969  0.00  0.00    -0.096 A 
ATOM     10  HN1 IND d   1       0.763   0.231  -1.923  0.00  0.00     0.298 HD
ENDROOT
TORSDOF 0
ENDMDL
