MODEL 1
REMARK minimizedAffinity -0.559952557
REMARK minimizedRMSD -1
REMARK  1 active torsions:
REMARK  status: ('A' for Active; 'I' for Inactive)
REMARK    1  A    between atoms: C1_2  and  C2_3 
ROOT
ATOM      1  C2  UNL d   1       1.309  -0.962   0.233  0.00  0.00    -0.077 A 
ATOM      2  C3  UNL d   1       0.616   0.176  -0.200  0.00  0.00     0.002 A 
ATOM      3  C4  UNL d   1      -0.347   0.771   0.618  0.00  0.00     0.002 A 
ATOM      4  C5  UNL d   1      -0.622   0.236   1.875  0.00  0.00    -0.004 A 
ATOM      5  C6  UNL d   1       0.061  -0.897   2.314  0.00  0.00     0.002 A 
ATOM      6  C7  UNL d   1       1.023  -1.493   1.497  0.00  0.00     0.002 A 
ENDROOT
BRANCH   1   7
ATOM      7  C1  UNL d   1       2.383  -1.576  -0.627  0.00  0.00     0.055 C 
ATOM      8  C   UNL d   1       3.161  -2.640   0.134  0.00  0.00     0.019 C 
ENDBRANCH   1   7
TORSDOF 1
ENDMDL
