MODEL 1
REMARK minimizedAffinity -1.76359689
REMARK minimizedRMSD -1
REMARK  1 active torsions:
REMARK  status: ('A' for Active; 'I' for Inactive)
REMARK    1  A    between atoms: C1_2  and  C2_3 
ROOT
ATOM      1  C2  UNL d   1       0.269  -0.713   0.103  0.00  0.00    -0.077 A 
ATOM      2  C3  UNL d   1      -0.692   0.224   0.508  0.00  0.00     0.002 A 
ATOM      3  C4  UNL d   1      -1.024   0.358   1.857  0.00  0.00     0.002 A 
ATOM      4  C5  UNL d   1      -0.396  -0.439   2.813  0.00  0.00    -0.004 A 
ATOM      5  C6  UNL d   1       0.560  -1.375   2.420  0.00  0.00     0.002 A 
ATOM      6  C7  UNL d   1       0.891  -1.511   1.071  0.00  0.00     0.002 A 
ENDROOT
BRANCH   1   7
ATOM      7  C1  UNL d   1       0.664  -0.824  -1.347  0.00  0.00     0.055 C 
ATOM      8  C   UNL d   1       2.002  -1.532  -1.503  0.00  0.00     0.019 C 
ENDBRANCH   1   7
TORSDOF 1
ENDMDL
