MODEL 1
REMARK minimizedAffinity -0.446811825
REMARK minimizedRMSD -1
REMARK  1 active torsions:
REMARK  status: ('A' for Active; 'I' for Inactive)
REMARK    1  A    between atoms: C1_2  and  C2_3 
ROOT
ATOM      1  C2  UNL d   1      -0.347   1.429  -1.206  0.00  0.00    -0.077 A 
ATOM      2  C3  UNL d   1      -1.411   1.249  -0.311  0.00  0.00     0.002 A 
ATOM      3  C4  UNL d   1      -1.400   0.187   0.595  0.00  0.00     0.002 A 
ATOM      4  C5  UNL d   1      -0.326  -0.700   0.618  0.00  0.00    -0.004 A 
ATOM      5  C6  UNL d   1       0.736  -0.531  -0.269  0.00  0.00     0.002 A 
ATOM      6  C7  UNL d   1       0.726   0.529  -1.176  0.00  0.00     0.002 A 
ENDROOT
BRANCH   1   7
ATOM      7  C1  UNL d   1      -0.333   2.602  -2.150  0.00  0.00     0.055 C 
ATOM      8  C   UNL d   1      -1.726   2.894  -2.691  0.00  0.00     0.019 C 
ENDBRANCH   1   7
TORSDOF 1
ENDMDL
