MODEL 1
REMARK minimizedAffinity -3.70576143
REMARK minimizedRMSD -1
REMARK  1 active torsions:
REMARK  status: ('A' for Active; 'I' for Inactive)
REMARK    1  A    between atoms: C1_2  and  C2_3 
ROOT
ATOM      1  C2  UNL d   1      -0.309   0.188  -0.503  0.00  0.00    -0.077 A 
ATOM      2  C3  UNL d   1       0.724  -0.759  -0.518  0.00  0.00     0.002 A 
ATOM      3  C4  UNL d   1       1.110  -1.402   0.659  0.00  0.00     0.002 A 
ATOM      4  C5  UNL d   1       0.466  -1.107   1.859  0.00  0.00    -0.004 A 
ATOM      5  C6  UNL d   1      -0.561  -0.165   1.885  0.00  0.00     0.002 A 
ATOM      6  C7  UNL d   1      -0.947   0.480   0.709  0.00  0.00     0.002 A 
ENDROOT
BRANCH   1   7
ATOM      7  C1  UNL d   1      -0.760   0.846  -1.781  0.00  0.00     0.055 C 
ATOM      8  C   UNL d   1      -0.102   2.206  -1.966  0.00  0.00     0.019 C 
ENDBRANCH   1   7
TORSDOF 1
ENDMDL
