MODEL 1
REMARK minimizedAffinity -1.2654953
REMARK minimizedRMSD -1
REMARK  1 active torsions:
REMARK  status: ('A' for Active; 'I' for Inactive)
REMARK    1  A    between atoms: C1_2  and  C2_3 
ROOT
ATOM      1  C2  UNL d   1      -1.066   1.499  -1.423  0.00  0.00    -0.077 A 
ATOM      2  C3  UNL d   1      -1.472   1.290  -0.097  0.00  0.00     0.002 A 
ATOM      3  C4  UNL d   1      -0.865   0.301   0.679  0.00  0.00     0.002 A 
ATOM      4  C5  UNL d   1       0.152  -0.485   0.140  0.00  0.00    -0.004 A 
ATOM      5  C6  UNL d   1       0.561  -0.286  -1.178  0.00  0.00     0.002 A 
ATOM      6  C7  UNL d   1      -0.045   0.702  -1.956  0.00  0.00     0.002 A 
ENDROOT
BRANCH   1   7
ATOM      7  C1  UNL d   1      -1.685   2.598  -2.247  0.00  0.00     0.055 C 
ATOM      8  C   UNL d   1      -0.644   3.626  -2.669  0.00  0.00     0.019 C 
ENDBRANCH   1   7
TORSDOF 1
ENDMDL
