MODEL 1
REMARK minimizedAffinity -3.06117344
REMARK minimizedRMSD -1
REMARK  1 active torsions:
REMARK  status: ('A' for Active; 'I' for Inactive)
REMARK    1  A    between atoms: C1_2  and  C2_3 
ROOT
ATOM      1  C2  UNL d   1       0.160  -0.635   0.610  0.00  0.00    -0.077 A 
ATOM      2  C3  UNL d   1       0.137  -1.005   1.962  0.00  0.00     0.002 A 
ATOM      3  C4  UNL d   1       1.109  -1.867   2.475  0.00  0.00     0.002 A 
ATOM      4  C5  UNL d   1       2.113  -2.361   1.644  0.00  0.00    -0.004 A 
ATOM      5  C6  UNL d   1       2.143  -2.000   0.298  0.00  0.00     0.002 A 
ATOM      6  C7  UNL d   1       1.172  -1.141  -0.217  0.00  0.00     0.002 A 
ENDROOT
BRANCH   1   7
ATOM      7  C1  UNL d   1      -0.858   0.332   0.066  0.00  0.00     0.055 C 
ATOM      8  C   UNL d   1      -0.600   0.640  -1.402  0.00  0.00     0.019 C 
ENDBRANCH   1   7
TORSDOF 1
ENDMDL
