MODEL 1
REMARK minimizedAffinity -5.807827
REMARK minimizedRMSD -1
REMARK  1 active torsions:
REMARK  status: ('A' for Active; 'I' for Inactive)
REMARK    1  A    between atoms: C1_2  and  C2_3 
ROOT
ATOM      1  C2  UNL d   1       0.606  -0.264   0.407  0.00  0.00    -0.077 A 
ATOM      2  C3  UNL d   1       1.925  -0.723   0.289  0.00  0.00     0.002 A 
ATOM      3  C4  UNL d   1       2.587  -1.261   1.395  0.00  0.00     0.002 A 
ATOM      4  C5  UNL d   1       1.937  -1.349   2.624  0.00  0.00    -0.004 A 
ATOM      5  C6  UNL d   1       0.625  -0.893   2.751  0.00  0.00     0.002 A 
ATOM      6  C7  UNL d   1      -0.038  -0.354   1.648  0.00  0.00     0.002 A 
ENDROOT
BRANCH   1   7
ATOM      7  C1  UNL d   1      -0.127   0.271  -0.796  0.00  0.00     0.055 C 
ATOM      8  C   UNL d   1       0.280  -0.465  -2.064  0.00  0.00     0.019 C 
ENDBRANCH   1   7
TORSDOF 1
ENDMDL
