MODEL 1
REMARK minimizedAffinity 1.71550262
REMARK minimizedRMSD -1
REMARK  1 active torsions:
REMARK  status: ('A' for Active; 'I' for Inactive)
REMARK    1  A    between atoms: C1_2  and  C2_3 
ROOT
ATOM      1  C2  UNL d   1      -1.771   0.818  -0.639  0.00  0.00    -0.077 A 
ATOM      2  C3  UNL d   1      -1.472  -0.539  -0.456  0.00  0.00     0.002 A 
ATOM      3  C4  UNL d   1      -1.081  -1.013   0.798  0.00  0.00     0.002 A 
ATOM      4  C5  UNL d   1      -0.990  -0.138   1.878  0.00  0.00    -0.004 A 
ATOM      5  C6  UNL d   1      -1.283   1.214   1.705  0.00  0.00     0.002 A 
ATOM      6  C7  UNL d   1      -1.673   1.690   0.453  0.00  0.00     0.002 A 
ENDROOT
BRANCH   1   7
ATOM      7  C1  UNL d   1      -2.241   1.322  -1.979  0.00  0.00     0.055 C 
ATOM      8  C   UNL d   1      -1.841   2.774  -2.195  0.00  0.00     0.019 C 
ENDBRANCH   1   7
TORSDOF 1
ENDMDL
