MODEL 1
REMARK minimizedAffinity -5.04448128
REMARK minimizedRMSD -1
REMARK  1 active torsions:
REMARK  status: ('A' for Active; 'I' for Inactive)
REMARK    1  A    between atoms: C1_2  and  C2_3 
ROOT
ATOM      1  C2  UNL d   1       0.761  -0.419   0.468  0.00  0.00    -0.077 A 
ATOM      2  C3  UNL d   1       1.806  -1.247   0.035  0.00  0.00     0.002 A 
ATOM      3  C4  UNL d   1       2.540  -1.999   0.954  0.00  0.00     0.002 A 
ATOM      4  C5  UNL d   1       2.234  -1.933   2.312  0.00  0.00    -0.004 A 
ATOM      5  C6  UNL d   1       1.199  -1.111   2.754  0.00  0.00     0.002 A 
ATOM      6  C7  UNL d   1       0.465  -0.358   1.836  0.00  0.00     0.002 A 
ENDROOT
BRANCH   1   7
ATOM      7  C1  UNL d   1      -0.064   0.354  -0.527  0.00  0.00     0.055 C 
ATOM      8  C   UNL d   1      -0.662  -0.564  -1.582  0.00  0.00     0.019 C 
ENDBRANCH   1   7
TORSDOF 1
ENDMDL
