MODEL 1
REMARK minimizedAffinity -3.70940828
REMARK minimizedRMSD -1
REMARK  1 active torsions:
REMARK  status: ('A' for Active; 'I' for Inactive)
REMARK    1  A    between atoms: N_2  and  C1_3 
ROOT
ATOM      1  C1  UNL d   1      -0.143  -0.159  -0.533  0.00  0.00     0.143 A 
ATOM      2  C2  UNL d   1       0.033  -1.446  -1.050  0.00  0.00    -0.057 A 
ATOM      3  C3  UNL d   1       0.534  -1.647  -2.342  0.00  0.00     0.033 A 
ATOM      4  C4  UNL d   1       0.841  -0.560  -3.153  0.00  0.00    -0.042 A 
ATOM      5  C5  UNL d   1       0.650   0.730  -2.668  0.00  0.00     0.033 A 
ATOM      6  C6  UNL d   1       0.156   0.924  -1.375  0.00  0.00    -0.057 A 
ENDROOT
BRANCH   1   7
ATOM      7  N   UNL d   1      -0.729   0.108   0.707  0.00  0.00    -0.732 N 
ATOM      8  C   UNL d   1      -2.078   0.625   0.788  0.00  0.00     0.284 C 
ATOM      9  H3  UNL d   1      -0.516  -0.607   1.399  0.00  0.00     0.395 HD
ENDBRANCH   1   7
TORSDOF 1
ENDMDL
