MODEL 1
REMARK minimizedAffinity -0.904118419
REMARK minimizedRMSD -1
REMARK  1 active torsions:
REMARK  status: ('A' for Active; 'I' for Inactive)
REMARK    1  A    between atoms: N_2  and  C1_3 
ROOT
ATOM      1  C1  UNL d   1       0.155  -0.324  -1.571  0.00  0.00     0.143 A 
ATOM      2  C2  UNL d   1      -0.435  -0.567  -2.816  0.00  0.00    -0.057 A 
ATOM      3  C3  UNL d   1       0.243  -0.284  -4.008  0.00  0.00     0.033 A 
ATOM      4  C4  UNL d   1       1.515   0.276  -3.976  0.00  0.00    -0.042 A 
ATOM      5  C5  UNL d   1       2.111   0.549  -2.750  0.00  0.00     0.033 A 
ATOM      6  C6  UNL d   1       1.433   0.258  -1.563  0.00  0.00    -0.057 A 
ENDROOT
BRANCH   1   7
ATOM      7  N   UNL d   1      -0.505  -0.492  -0.351  0.00  0.00    -0.732 N 
ATOM      8  C   UNL d   1      -1.816   0.080  -0.138  0.00  0.00     0.284 C 
ATOM      9  H3  UNL d   1      -0.395  -1.432   0.023  0.00  0.00     0.395 HD
ENDBRANCH   1   7
TORSDOF 1
ENDMDL
