MODEL 1
REMARK minimizedAffinity -4.22942972
REMARK minimizedRMSD -1
REMARK  1 active torsions:
REMARK  status: ('A' for Active; 'I' for Inactive)
REMARK    1  A    between atoms: N_2  and  C1_3 
ROOT
ATOM      1  C1  UNL d   1      -0.314  -0.610  -0.166  0.00  0.00     0.143 A 
ATOM      2  C2  UNL d   1       0.179  -0.274   1.100  0.00  0.00    -0.057 A 
ATOM      3  C3  UNL d   1      -0.652   0.286   2.077  0.00  0.00     0.033 A 
ATOM      4  C4  UNL d   1      -1.989   0.548   1.795  0.00  0.00    -0.042 A 
ATOM      5  C5  UNL d   1      -2.494   0.245   0.536  0.00  0.00     0.033 A 
ATOM      6  C6  UNL d   1      -1.661  -0.320  -0.434  0.00  0.00    -0.057 A 
ENDROOT
BRANCH   1   7
ATOM      7  N   UNL d   1       0.485  -1.079  -1.212  0.00  0.00    -0.732 N 
ATOM      8  C   UNL d   1       0.723  -0.260  -2.381  0.00  0.00     0.284 C 
ATOM      9  H3  UNL d   1       1.307  -1.578  -0.880  0.00  0.00     0.395 HD
ENDBRANCH   1   7
TORSDOF 1
ENDMDL
