MODEL 1
REMARK minimizedAffinity -3.81225061
REMARK minimizedRMSD -1
REMARK  1 active torsions:
REMARK  status: ('A' for Active; 'I' for Inactive)
REMARK    1  A    between atoms: N_2  and  C1_3 
ROOT
ATOM      1  C1  UNL d   1      -0.010  -0.489   0.381  0.00  0.00     0.143 A 
ATOM      2  C2  UNL d   1      -1.145   0.012   1.027  0.00  0.00    -0.057 A 
ATOM      3  C3  UNL d   1      -1.166   0.204   2.414  0.00  0.00     0.033 A 
ATOM      4  C4  UNL d   1      -0.058  -0.131   3.185  0.00  0.00    -0.042 A 
ATOM      5  C5  UNL d   1       1.072  -0.654   2.568  0.00  0.00     0.033 A 
ATOM      6  C6  UNL d   1       1.090  -0.837   1.182  0.00  0.00    -0.057 A 
ENDROOT
BRANCH   1   7
ATOM      7  N   UNL d   1       0.039  -0.795  -0.981  0.00  0.00    -0.732 N 
ATOM      8  C   UNL d   1       0.333   0.233  -1.957  0.00  0.00     0.284 C 
ATOM      9  H3  UNL d   1       0.497  -1.685  -1.164  0.00  0.00     0.395 HD
ENDBRANCH   1   7
TORSDOF 1
ENDMDL
