MODEL 1
REMARK minimizedAffinity 30.788332
REMARK minimizedRMSD -1
REMARK  0 active torsions:
REMARK  status: ('A' for Active; 'I' for Inactive)
ROOT
ATOM      1  C   UNL d   1      -0.993   4.404  -1.543  0.00  0.00     0.124 A 
ATOM      2  C1  UNL d   1      -2.180   4.057  -2.173  0.00  0.00     0.062 A 
ATOM      3  C2  UNL d   1      -2.738   2.798  -1.971  0.00  0.00     0.162 A 
ATOM      4  C3  UNL d   1      -2.110   1.876  -1.134  0.00  0.00    -0.034 A 
ATOM      5  C4  UNL d   1      -0.916   2.231  -0.504  0.00  0.00     0.162 A 
ATOM      6  C5  UNL d   1      -0.362   3.491  -0.710  0.00  0.00     0.062 A 
ATOM      7  F   UNL d   1       0.785   3.824  -0.100  0.00  0.00    -0.097 F 
ATOM      8  F1  UNL d   1      -0.286   1.369   0.307  0.00  0.00    -0.096 F 
ATOM      9  I   UNL d   1      -2.942  -0.007  -0.829  0.00  0.00    -0.060 I 
ATOM     10  F2  UNL d   1      -3.886   2.490  -2.593  0.00  0.00    -0.096 F 
ATOM     11  F3  UNL d   1      -2.791   4.937  -2.980  0.00  0.00    -0.097 F 
ATOM     12  F4  UNL d   1      -0.458   5.615  -1.740  0.00  0.00    -0.092 F 
ENDROOT
TORSDOF 0
ENDMDL
