MODEL 1
REMARK minimizedAffinity 12.0524454
REMARK minimizedRMSD -1
REMARK  0 active torsions:
REMARK  status: ('A' for Active; 'I' for Inactive)
ROOT
ATOM      1  C   UNL d   1      -2.631  -1.079  -2.222  0.00  0.00     0.124 A 
ATOM      2  C1  UNL d   1      -1.268  -0.995  -1.971  0.00  0.00     0.062 A 
ATOM      3  C2  UNL d   1      -0.703   0.212  -1.572  0.00  0.00     0.162 A 
ATOM      4  C3  UNL d   1      -1.500   1.347  -1.420  0.00  0.00    -0.034 A 
ATOM      5  C4  UNL d   1      -2.869   1.255  -1.675  0.00  0.00     0.162 A 
ATOM      6  C5  UNL d   1      -3.430   0.046  -2.074  0.00  0.00     0.062 A 
ATOM      7  F   UNL d   1      -4.746  -0.033  -2.316  0.00  0.00    -0.097 F 
ATOM      8  F1  UNL d   1      -3.665   2.327  -1.539  0.00  0.00    -0.096 F 
ATOM      9  I   UNL d   1      -0.658   3.155  -0.824  0.00  0.00    -0.060 I 
ATOM     10  F2  UNL d   1       0.617   0.264  -1.336  0.00  0.00    -0.096 F 
ATOM     11  F3  UNL d   1      -0.494  -2.080  -2.114  0.00  0.00    -0.097 F 
ATOM     12  F4  UNL d   1      -3.172  -2.242  -2.606  0.00  0.00    -0.092 F 
ENDROOT
TORSDOF 0
ENDMDL
