MODEL 1
REMARK minimizedAffinity 9.94326591
REMARK minimizedRMSD -1
REMARK  0 active torsions:
REMARK  status: ('A' for Active; 'I' for Inactive)
ROOT
ATOM      1  C   UNL d   1       0.600   2.976   0.667  0.00  0.00     0.124 A 
ATOM      2  C1  UNL d   1      -0.167   2.704  -0.457  0.00  0.00     0.062 A 
ATOM      3  C2  UNL d   1      -1.333   1.951  -0.343  0.00  0.00     0.162 A 
ATOM      4  C3  UNL d   1      -1.739   1.467   0.900  0.00  0.00    -0.034 A 
ATOM      5  C4  UNL d   1      -0.962   1.744   2.026  0.00  0.00     0.162 A 
ATOM      6  C5  UNL d   1       0.202   2.496   1.907  0.00  0.00     0.062 A 
ATOM      7  F   UNL d   1       0.942   2.758   2.994  0.00  0.00    -0.097 F 
ATOM      8  F1  UNL d   1      -1.324   1.293   3.236  0.00  0.00    -0.096 F 
ATOM      9  I   UNL d   1      -3.482   0.341   1.074  0.00  0.00    -0.060 I 
ATOM     10  F2  UNL d   1      -2.055   1.704  -1.446  0.00  0.00    -0.096 F 
ATOM     11  F3  UNL d   1       0.216   3.165  -1.656  0.00  0.00    -0.097 F 
ATOM     12  F4  UNL d   1       1.722   3.699   0.555  0.00  0.00    -0.092 F 
ENDROOT
TORSDOF 0
ENDMDL
