MODEL 1
REMARK minimizedAffinity 2.90222287
REMARK minimizedRMSD -1
REMARK  0 active torsions:
REMARK  status: ('A' for Active; 'I' for Inactive)
ROOT
ATOM      1  C   UNL d   1      -3.252   1.259  -1.254  0.00  0.00     0.124 A 
ATOM      2  C1  UNL d   1      -1.993   1.830  -1.380  0.00  0.00     0.062 A 
ATOM      3  C2  UNL d   1      -0.854   1.032  -1.318  0.00  0.00     0.162 A 
ATOM      4  C3  UNL d   1      -0.968  -0.345  -1.131  0.00  0.00    -0.034 A 
ATOM      5  C4  UNL d   1      -2.238  -0.912  -1.004  0.00  0.00     0.162 A 
ATOM      6  C5  UNL d   1      -3.373  -0.111  -1.066  0.00  0.00     0.062 A 
ATOM      7  F   UNL d   1      -4.589  -0.664  -0.944  0.00  0.00    -0.097 F 
ATOM      8  F1  UNL d   1      -2.384  -2.233  -0.822  0.00  0.00    -0.096 F 
ATOM      9  I   UNL d   1       0.733  -1.541  -1.038  0.00  0.00    -0.060 I 
ATOM     10  F2  UNL d   1       0.350   1.611  -1.443  0.00  0.00    -0.096 F 
ATOM     11  F3  UNL d   1      -1.873   3.153  -1.561  0.00  0.00    -0.097 F 
ATOM     12  F4  UNL d   1      -4.346   2.029  -1.313  0.00  0.00    -0.092 F 
ENDROOT
TORSDOF 0
ENDMDL
