MODEL 1
REMARK minimizedAffinity 13.8938389
REMARK minimizedRMSD -1
REMARK  0 active torsions:
REMARK  status: ('A' for Active; 'I' for Inactive)
ROOT
ATOM      1  C   UNL d   1      -3.029  -0.503  -1.063  0.00  0.00     0.124 A 
ATOM      2  C1  UNL d   1      -4.019   0.457  -1.223  0.00  0.00     0.062 A 
ATOM      3  C2  UNL d   1      -3.678   1.768  -1.541  0.00  0.00     0.162 A 
ATOM      4  C3  UNL d   1      -2.340   2.127  -1.703  0.00  0.00    -0.034 A 
ATOM      5  C4  UNL d   1      -1.350   1.157  -1.540  0.00  0.00     0.162 A 
ATOM      6  C5  UNL d   1      -1.696  -0.152  -1.222  0.00  0.00     0.062 A 
ATOM      7  F   UNL d   1      -0.738  -1.078  -1.068  0.00  0.00    -0.097 F 
ATOM      8  F1  UNL d   1      -0.053   1.468  -1.688  0.00  0.00    -0.096 F 
ATOM      9  I   UNL d   1      -1.825   4.087  -2.179  0.00  0.00    -0.060 I 
ATOM     10  F2  UNL d   1      -4.655   2.675  -1.690  0.00  0.00    -0.096 F 
ATOM     11  F3  UNL d   1      -5.308   0.121  -1.070  0.00  0.00    -0.097 F 
ATOM     12  F4  UNL d   1      -3.361  -1.764  -0.756  0.00  0.00    -0.092 F 
ENDROOT
TORSDOF 0
ENDMDL
