MODEL 1
REMARK minimizedAffinity 17.1421814
REMARK minimizedRMSD -1
REMARK  0 active torsions:
REMARK  status: ('A' for Active; 'I' for Inactive)
ROOT
ATOM      1  C   UNL d   1       0.012   3.025   1.989  0.00  0.00     0.124 A 
ATOM      2  C1  UNL d   1      -0.770   1.945   2.377  0.00  0.00     0.062 A 
ATOM      3  C2  UNL d   1      -1.681   1.386   1.486  0.00  0.00     0.162 A 
ATOM      4  C3  UNL d   1      -1.816   1.905   0.198  0.00  0.00    -0.034 A 
ATOM      5  C4  UNL d   1      -1.028   2.992  -0.184  0.00  0.00     0.162 A 
ATOM      6  C5  UNL d   1      -0.118   3.547   0.710  0.00  0.00     0.062 A 
ATOM      7  F   UNL d   1       0.636   4.591   0.334  0.00  0.00    -0.097 F 
ATOM      8  F1  UNL d   1      -1.132   3.515  -1.414  0.00  0.00    -0.096 F 
ATOM      9  I   UNL d   1      -3.178   1.071  -1.136  0.00  0.00    -0.060 I 
ATOM     10  F2  UNL d   1      -2.423   0.343   1.887  0.00  0.00    -0.096 F 
ATOM     11  F3  UNL d   1      -0.647   1.440   3.613  0.00  0.00    -0.097 F 
ATOM     12  F4  UNL d   1       0.887   3.562   2.849  0.00  0.00    -0.092 F 
ENDROOT
TORSDOF 0
ENDMDL
