MODEL 1
REMARK minimizedAffinity 16.6944618
REMARK minimizedRMSD -1
REMARK  0 active torsions:
REMARK  status: ('A' for Active; 'I' for Inactive)
ROOT
ATOM      1  C   UNL d   1       1.147   3.479   2.692  0.00  0.00     0.124 A 
ATOM      2  C1  UNL d   1       0.327   2.456   3.148  0.00  0.00     0.062 A 
ATOM      3  C2  UNL d   1      -0.627   1.896   2.305  0.00  0.00     0.162 A 
ATOM      4  C3  UNL d   1      -0.767   2.357   0.996  0.00  0.00    -0.034 A 
ATOM      5  C4  UNL d   1       0.060   3.387   0.545  0.00  0.00     0.162 A 
ATOM      6  C5  UNL d   1       1.013   3.943   1.392  0.00  0.00     0.062 A 
ATOM      7  F   UNL d   1       1.804   4.932   0.950  0.00  0.00    -0.097 F 
ATOM      8  F1  UNL d   1      -0.048   3.854  -0.708  0.00  0.00    -0.096 F 
ATOM      9  I   UNL d   1      -2.194   1.521  -0.269  0.00  0.00    -0.060 I 
ATOM     10  F2  UNL d   1      -1.406   0.908   2.772  0.00  0.00    -0.096 F 
ATOM     11  F3  UNL d   1       0.455   2.006   4.405  0.00  0.00    -0.097 F 
ATOM     12  F4  UNL d   1       2.064   4.017   3.507  0.00  0.00    -0.092 F 
ENDROOT
TORSDOF 0
ENDMDL
