MODEL 1
REMARK minimizedAffinity 0.672834575
REMARK minimizedRMSD -1
REMARK  1 active torsions:
REMARK  status: ('A' for Active; 'I' for Inactive)
REMARK    1  A    between atoms: C1_2  and  C2_3 
ROOT
ATOM      1  C2  UNL d   1       4.263   3.822   4.308  0.00  0.00    -0.077 A 
ATOM      2  C3  UNL d   1       4.844   3.831   5.584  0.00  0.00     0.002 A 
ATOM      3  C4  UNL d   1       5.619   4.915   6.000  0.00  0.00     0.002 A 
ATOM      4  C5  UNL d   1       5.817   6.000   5.148  0.00  0.00    -0.004 A 
ATOM      5  C6  UNL d   1       5.245   6.000   3.877  0.00  0.00     0.002 A 
ATOM      6  C7  UNL d   1       4.471   4.916   3.459  0.00  0.00     0.002 A 
ENDROOT
BRANCH   1   7
ATOM      7  C1  UNL d   1       3.387   2.676   3.876  0.00  0.00     0.055 C 
ATOM      8  C   UNL d   1       1.918   3.073   3.873  0.00  0.00     0.019 C 
ENDBRANCH   1   7
TORSDOF 1
ENDMDL
