MODEL 1
REMARK minimizedAffinity 5.60259771
REMARK minimizedRMSD -1
REMARK  1 active torsions:
REMARK  status: ('A' for Active; 'I' for Inactive)
REMARK    1  A    between atoms: C1_2  and  C2_3 
ROOT
ATOM      1  C2  UNL d   1      -5.718   1.971  -0.783  0.00  0.00    -0.077 A 
ATOM      2  C3  UNL d   1      -5.996   1.873  -2.153  0.00  0.00     0.002 A 
ATOM      3  C4  UNL d   1      -5.999   3.016  -2.956  0.00  0.00     0.002 A 
ATOM      4  C5  UNL d   1      -5.722   4.262  -2.399  0.00  0.00    -0.004 A 
ATOM      5  C6  UNL d   1      -5.446   4.370  -1.036  0.00  0.00     0.002 A 
ATOM      6  C7  UNL d   1      -5.444   3.230  -0.232  0.00  0.00     0.002 A 
ENDROOT
BRANCH   1   7
ATOM      7  C1  UNL d   1      -5.666   0.734   0.076  0.00  0.00     0.055 C 
ATOM      8  C   UNL d   1      -4.289   0.087   0.030  0.00  0.00     0.019 C 
ENDBRANCH   1   7
TORSDOF 1
ENDMDL
