MODEL 1
REMARK minimizedAffinity 14.018837
REMARK minimizedRMSD -1
REMARK  1 active torsions:
REMARK  status: ('A' for Active; 'I' for Inactive)
REMARK    1  A    between atoms: C1_2  and  C2_3 
ROOT
ATOM      1  C2  UNL d   1       4.364   5.340   0.429  0.00  0.00    -0.077 A 
ATOM      2  C3  UNL d   1       4.858   6.000   1.564  0.00  0.00     0.002 A 
ATOM      3  C4  UNL d   1       4.404   5.651   2.837  0.00  0.00     0.002 A 
ATOM      4  C5  UNL d   1       3.457   4.640   2.988  0.00  0.00    -0.004 A 
ATOM      5  C6  UNL d   1       2.959   3.979   1.866  0.00  0.00     0.002 A 
ATOM      6  C7  UNL d   1       3.410   4.327   0.593  0.00  0.00     0.002 A 
ENDROOT
BRANCH   1   7
ATOM      7  C1  UNL d   1       4.889   5.681  -0.941  0.00  0.00     0.055 C 
ATOM      8  C   UNL d   1       5.999   4.729  -1.361  0.00  0.00     0.019 C 
ENDBRANCH   1   7
TORSDOF 1
ENDMDL
