MODEL 1
REMARK minimizedAffinity 3.64946723
REMARK minimizedRMSD -1
REMARK  1 active torsions:
REMARK  status: ('A' for Active; 'I' for Inactive)
REMARK    1  A    between atoms: C1_2  and  C2_3 
ROOT
ATOM      1  C2  UNL d   1       2.613  -0.281   0.626  0.00  0.00    -0.077 A 
ATOM      2  C3  UNL d   1       2.202  -0.481  -0.699  0.00  0.00     0.002 A 
ATOM      3  C4  UNL d   1       1.600  -1.682  -1.079  0.00  0.00     0.002 A 
ATOM      4  C5  UNL d   1       1.399  -2.690  -0.139  0.00  0.00    -0.004 A 
ATOM      5  C6  UNL d   1       1.805  -2.502   1.182  0.00  0.00     0.002 A 
ATOM      6  C7  UNL d   1       2.409  -1.303   1.563  0.00  0.00     0.002 A 
ENDROOT
BRANCH   1   7
ATOM      7  C1  UNL d   1       3.218   1.032   1.049  0.00  0.00     0.055 C 
ATOM      8  C   UNL d   1       2.145   2.025   1.472  0.00  0.00     0.019 C 
ENDBRANCH   1   7
TORSDOF 1
ENDMDL
