MODEL 1
REMARK minimizedAffinity 5.65460491
REMARK minimizedRMSD -1
REMARK  1 active torsions:
REMARK  status: ('A' for Active; 'I' for Inactive)
REMARK    1  A    between atoms: C1_2  and  C2_3 
ROOT
ATOM      1  C2  UNL d   1       3.008   0.905  -0.381  0.00  0.00    -0.077 A 
ATOM      2  C3  UNL d   1       3.769   0.735  -1.546  0.00  0.00     0.002 A 
ATOM      3  C4  UNL d   1       4.780   1.643  -1.868  0.00  0.00     0.002 A 
ATOM      4  C5  UNL d   1       5.041   2.725  -1.029  0.00  0.00    -0.004 A 
ATOM      5  C6  UNL d   1       4.287   2.904   0.131  0.00  0.00     0.002 A 
ATOM      6  C7  UNL d   1       3.276   1.998   0.454  0.00  0.00     0.002 A 
ENDROOT
BRANCH   1   7
ATOM      7  C1  UNL d   1       1.950  -0.100  -0.007  0.00  0.00     0.055 C 
ATOM      8  C   UNL d   1       2.380  -1.515  -0.366  0.00  0.00     0.019 C 
ENDBRANCH   1   7
TORSDOF 1
ENDMDL
