MODEL 1
REMARK minimizedAffinity 9.24244404
REMARK minimizedRMSD -1
REMARK  1 active torsions:
REMARK  status: ('A' for Active; 'I' for Inactive)
REMARK    1  A    between atoms: C1_2  and  C2_3 
ROOT
ATOM      1  C2  UNL d   1       4.699   0.379   0.383  0.00  0.00    -0.077 A 
ATOM      2  C3  UNL d   1       3.592  -0.420   0.700  0.00  0.00     0.002 A 
ATOM      3  C4  UNL d   1       2.401  -0.294  -0.018  0.00  0.00     0.002 A 
ATOM      4  C5  UNL d   1       2.308   0.626  -1.060  0.00  0.00    -0.004 A 
ATOM      5  C6  UNL d   1       3.403   1.427  -1.382  0.00  0.00     0.002 A 
ATOM      6  C7  UNL d   1       4.594   1.303  -0.664  0.00  0.00     0.002 A 
ENDROOT
BRANCH   1   7
ATOM      7  C1  UNL d   1       6.000   0.210   1.124  0.00  0.00     0.055 C 
ATOM      8  C   UNL d   1       5.998  -1.060   1.962  0.00  0.00     0.019 C 
ENDBRANCH   1   7
TORSDOF 1
ENDMDL
