MODEL 1
REMARK minimizedAffinity -3.92118478
REMARK minimizedRMSD -1
REMARK  0 active torsions:
REMARK  status: ('A' for Active; 'I' for Inactive)
ROOT
ATOM      1  O1  BZF d   1       4.321   1.863  -2.376  0.00  0.00    -0.204 OA
ATOM      2  C2  BZF d   1       4.258   2.650  -1.242  0.00  0.00     0.174 A 
ATOM      3  C3  BZF d   1       3.552   2.034  -0.271  0.00  0.00    -0.012 A 
ATOM      4  C3A BZF d   1       3.228   0.746  -0.801  0.00  0.00    -0.107 A 
ATOM      5  C4  BZF d   1       2.551  -0.331  -0.304  0.00  0.00     0.055 A 
ATOM      6  C5  BZF d   1       2.345  -1.410  -1.104  0.00  0.00    -0.016 A 
ATOM      7  C6  BZF d   1       2.798  -1.444  -2.407  0.00  0.00     0.022 A 
ATOM      8  C7  BZF d   1       3.479  -0.402  -2.943  0.00  0.00     0.029 A 
ATOM      9  C7A BZF d   1       3.716   0.676  -2.126  0.00  0.00     0.058 A 
ENDROOT
TORSDOF 0
ENDMDL
