MODEL 1
REMARK minimizedAffinity 5.3971014
REMARK minimizedRMSD -1
REMARK  0 active torsions:
REMARK  status: ('A' for Active; 'I' for Inactive)
ROOT
ATOM      1  O1  BZF d   1      -5.999   2.102   1.686  0.00  0.00    -0.204 OA
ATOM      2  C2  BZF d   1      -5.437   3.350   1.499  0.00  0.00     0.174 A 
ATOM      3  C3  BZF d   1      -4.712   3.383   0.362  0.00  0.00    -0.012 A 
ATOM      4  C3A BZF d   1      -4.905   2.101  -0.244  0.00  0.00    -0.107 A 
ATOM      5  C4  BZF d   1      -4.455   1.532  -1.401  0.00  0.00     0.055 A 
ATOM      6  C5  BZF d   1      -4.767   0.236  -1.665  0.00  0.00    -0.016 A 
ATOM      7  C6  BZF d   1      -5.522  -0.521  -0.793  0.00  0.00     0.022 A 
ATOM      8  C7  BZF d   1      -5.995   0.001   0.365  0.00  0.00     0.029 A 
ATOM      9  C7A BZF d   1      -5.709   1.320   0.618  0.00  0.00     0.058 A 
ENDROOT
TORSDOF 0
ENDMDL
