MODEL 1
REMARK minimizedAffinity 1.60593462
REMARK minimizedRMSD -1
REMARK  0 active torsions:
REMARK  status: ('A' for Active; 'I' for Inactive)
ROOT
ATOM      1  O1  BZF d   1      -5.733   1.614  -1.416  0.00  0.00    -0.204 OA
ATOM      2  C2  BZF d   1      -5.435   0.747  -0.382  0.00  0.00     0.174 A 
ATOM      3  C3  BZF d   1      -4.446  -0.098  -0.738  0.00  0.00    -0.012 A 
ATOM      4  C3A BZF d   1      -4.041   0.324  -2.044  0.00  0.00    -0.107 A 
ATOM      5  C4  BZF d   1      -3.088  -0.114  -2.918  0.00  0.00     0.055 A 
ATOM      6  C5  BZF d   1      -2.998   0.469  -4.143  0.00  0.00    -0.016 A 
ATOM      7  C6  BZF d   1      -3.847   1.486  -4.527  0.00  0.00     0.022 A 
ATOM      8  C7  BZF d   1      -4.804   1.958  -3.692  0.00  0.00     0.029 A 
ATOM      9  C7A BZF d   1      -4.876   1.393  -2.441  0.00  0.00     0.058 A 
ENDROOT
TORSDOF 0
ENDMDL
