MODEL 1
REMARK minimizedAffinity 7.53044224
REMARK minimizedRMSD -1
REMARK  0 active torsions:
REMARK  status: ('A' for Active; 'I' for Inactive)
ROOT
ATOM      1  O1  BZF d   1      -3.822   0.721  -4.324  0.00  0.00    -0.204 OA
ATOM      2  C2  BZF d   1      -3.341   2.001  -4.523  0.00  0.00     0.174 A 
ATOM      3  C3  BZF d   1      -3.827   2.845  -3.590  0.00  0.00    -0.012 A 
ATOM      4  C3A BZF d   1      -4.590   2.024  -2.701  0.00  0.00    -0.107 A 
ATOM      5  C4  BZF d   1      -5.304   2.281  -1.566  0.00  0.00     0.055 A 
ATOM      6  C5  BZF d   1      -5.994   1.270  -0.976  0.00  0.00    -0.016 A 
ATOM      7  C6  BZF d   1      -5.996  -0.008  -1.496  0.00  0.00     0.022 A 
ATOM      8  C7  BZF d   1      -5.298  -0.312  -2.617  0.00  0.00     0.029 A 
ATOM      9  C7A BZF d   1      -4.573   0.700  -3.197  0.00  0.00     0.058 A 
ENDROOT
TORSDOF 0
ENDMDL
