MODEL 1
REMARK minimizedAffinity 2.57828999
REMARK minimizedRMSD -1
REMARK  0 active torsions:
REMARK  status: ('A' for Active; 'I' for Inactive)
ROOT
ATOM      1  O1  BZF d   1      -3.307   0.753  -5.044  0.00  0.00    -0.204 OA
ATOM      2  C2  BZF d   1      -2.293  -0.001  -4.486  0.00  0.00     0.174 A 
ATOM      3  C3  BZF d   1      -2.456  -0.109  -3.152  0.00  0.00    -0.012 A 
ATOM      4  C3A BZF d   1      -3.696   0.545  -2.870  0.00  0.00    -0.107 A 
ATOM      5  C4  BZF d   1      -4.408   0.756  -1.723  0.00  0.00     0.055 A 
ATOM      6  C5  BZF d   1      -5.546   1.495  -1.779  0.00  0.00    -0.016 A 
ATOM      7  C6  BZF d   1      -6.000   2.043  -2.961  0.00  0.00     0.022 A 
ATOM      8  C7  BZF d   1      -5.331   1.857  -4.125  0.00  0.00     0.029 A 
ATOM      9  C7A BZF d   1      -4.198   1.082  -4.078  0.00  0.00     0.058 A 
ENDROOT
TORSDOF 0
ENDMDL
