MODEL 1
REMARK minimizedAffinity 6.51812315
REMARK minimizedRMSD -1
REMARK  0 active torsions:
REMARK  status: ('A' for Active; 'I' for Inactive)
ROOT
ATOM      1  O1  BZF d   1      -2.573   0.978  -2.326  0.00  0.00    -0.204 OA
ATOM      2  C2  BZF d   1      -1.876  -0.030  -2.964  0.00  0.00     0.174 A 
ATOM      3  C3  BZF d   1      -2.622  -0.583  -3.942  0.00  0.00    -0.012 A 
ATOM      4  C3A BZF d   1      -3.828   0.187  -3.975  0.00  0.00    -0.107 A 
ATOM      5  C4  BZF d   1      -4.954   0.134  -4.746  0.00  0.00     0.055 A 
ATOM      6  C5  BZF d   1      -5.981   0.983  -4.474  0.00  0.00    -0.016 A 
ATOM      7  C6  BZF d   1      -5.917   1.891  -3.437  0.00  0.00     0.022 A 
ATOM      8  C7  BZF d   1      -4.819   1.983  -2.649  0.00  0.00     0.029 A 
ATOM      9  C7A BZF d   1      -3.767   1.150  -2.942  0.00  0.00     0.058 A 
ENDROOT
TORSDOF 0
ENDMDL
