MODEL 1
REMARK minimizedAffinity 0.636801004
REMARK minimizedRMSD -1
REMARK  0 active torsions:
REMARK  status: ('A' for Active; 'I' for Inactive)
ROOT
ATOM      1  O1  BZF d   1      -2.133   1.991  -3.369  0.00  0.00    -0.204 OA
ATOM      2  C2  BZF d   1      -2.252   3.368  -3.363  0.00  0.00     0.174 A 
ATOM      3  C3  BZF d   1      -3.539   3.737  -3.531  0.00  0.00    -0.012 A 
ATOM      4  C3A BZF d   1      -4.281   2.514  -3.557  0.00  0.00    -0.107 A 
ATOM      5  C4  BZF d   1      -5.609   2.224  -3.683  0.00  0.00     0.055 A 
ATOM      6  C5  BZF d   1      -5.999   0.924  -3.745  0.00  0.00    -0.016 A 
ATOM      7  C6  BZF d   1      -5.088  -0.111  -3.688  0.00  0.00     0.022 A 
ATOM      8  C7  BZF d   1      -3.760   0.127  -3.559  0.00  0.00     0.029 A 
ATOM      9  C7A BZF d   1      -3.366   1.439  -3.463  0.00  0.00     0.058 A 
ENDROOT
TORSDOF 0
ENDMDL
