MODEL 1
REMARK minimizedAffinity 13.7348909
REMARK minimizedRMSD -1
REMARK  0 active torsions:
REMARK  status: ('A' for Active; 'I' for Inactive)
ROOT
ATOM      1  O1  BZF d   1      -1.827  -4.524  -2.515  0.00  0.00    -0.204 OA
ATOM      2  C2  BZF d   1      -2.246  -5.333  -1.477  0.00  0.00     0.174 A 
ATOM      3  C3  BZF d   1      -3.371  -5.997  -1.812  0.00  0.00    -0.012 A 
ATOM      4  C3A BZF d   1      -3.623  -5.646  -3.176  0.00  0.00    -0.107 A 
ATOM      5  C4  BZF d   1      -4.590  -6.000  -4.073  0.00  0.00     0.055 A 
ATOM      6  C5  BZF d   1      -4.593  -5.423  -5.303  0.00  0.00    -0.016 A 
ATOM      7  C6  BZF d   1      -3.648  -4.486  -5.668  0.00  0.00     0.022 A 
ATOM      8  C7  BZF d   1      -2.666  -4.107  -4.814  0.00  0.00     0.029 A 
ATOM      9  C7A BZF d   1      -2.641  -4.713  -3.581  0.00  0.00     0.058 A 
ENDROOT
TORSDOF 0
ENDMDL
