MODEL 1
REMARK minimizedAffinity 3.53684783
REMARK minimizedRMSD -1
REMARK  0 active torsions:
REMARK  status: ('A' for Active; 'I' for Inactive)
ROOT
ATOM      1  O1  BZF d   1      -0.552   0.545  -1.114  0.00  0.00    -0.204 OA
ATOM      2  C2  BZF d   1       0.506   1.306  -0.656  0.00  0.00     0.174 A 
ATOM      3  C3  BZF d   1       1.538   0.518  -0.290  0.00  0.00    -0.012 A 
ATOM      4  C3A BZF d   1       1.132  -0.813  -0.623  0.00  0.00    -0.107 A 
ATOM      5  C4  BZF d   1       1.735  -2.033  -0.513  0.00  0.00     0.055 A 
ATOM      6  C5  BZF d   1       1.038  -3.147  -0.861  0.00  0.00    -0.016 A 
ATOM      7  C6  BZF d   1      -0.262  -3.078  -1.317  0.00  0.00     0.022 A 
ATOM      8  C7  BZF d   1      -0.900  -1.890  -1.447  0.00  0.00     0.029 A 
ATOM      9  C7A BZF d   1      -0.188  -0.759  -1.128  0.00  0.00     0.058 A 
ENDROOT
TORSDOF 0
ENDMDL
