MODEL 1
REMARK minimizedAffinity -1.6590693
REMARK minimizedRMSD -1
REMARK  0 active torsions:
REMARK  status: ('A' for Active; 'I' for Inactive)
ROOT
ATOM      1  C   UNL d   1       1.476   1.635   0.251  0.00  0.00     0.020 A 
ATOM      2  C1  UNL d   1       2.475   0.748   0.648  0.00  0.00     0.020 A 
ATOM      3  C2  UNL d   1       2.190  -0.614   0.773  0.00  0.00     0.034 A 
ATOM      4  C3  UNL d   1       0.903  -1.091   0.501  0.00  0.00     0.017 A 
ATOM      5  C4  UNL d   1      -0.099  -0.200   0.103  0.00  0.00     0.017 A 
ATOM      6  C5  UNL d   1       0.191   1.163  -0.021  0.00  0.00     0.034 A 
ATOM      7 Cl   UNL d   1      -1.711  -0.714  -0.250  0.00  0.00    -0.070 Cl
ATOM      8 Cl1  UNL d   1       0.622  -2.787   0.676  0.00  0.00    -0.070 Cl
ENDROOT
TORSDOF 0
ENDMDL
