MODEL 1
REMARK minimizedAffinity -4.34015226
REMARK minimizedRMSD -1
REMARK  0 active torsions:
REMARK  status: ('A' for Active; 'I' for Inactive)
ROOT
ATOM      1  C   UNL d   1       0.711   2.096  -0.354  0.00  0.00     0.020 A 
ATOM      2  C1  UNL d   1      -0.550   1.502  -0.337  0.00  0.00     0.020 A 
ATOM      3  C2  UNL d   1      -0.711   0.220   0.193  0.00  0.00     0.034 A 
ATOM      4  C3  UNL d   1       0.391  -0.471   0.709  0.00  0.00     0.017 A 
ATOM      5  C4  UNL d   1       1.656   0.126   0.691  0.00  0.00     0.017 A 
ATOM      6  C5  UNL d   1       1.812   1.410   0.159  0.00  0.00     0.034 A 
ATOM      7 Cl   UNL d   1       3.063  -0.665   1.310  0.00  0.00    -0.070 Cl
ATOM      8 Cl1  UNL d   1       0.119  -2.053   1.350  0.00  0.00    -0.070 Cl
ENDROOT
TORSDOF 0
ENDMDL
