MODEL 1
REMARK minimizedAffinity -5.34182501
REMARK minimizedRMSD -1
REMARK  0 active torsions:
REMARK  status: ('A' for Active; 'I' for Inactive)
ROOT
ATOM      1  C   UNL d   1       3.213  -0.342   1.511  0.00  0.00     0.020 A 
ATOM      2  C1  UNL d   1       2.764   0.707   0.710  0.00  0.00     0.020 A 
ATOM      3  C2  UNL d   1       1.449   0.712   0.239  0.00  0.00     0.034 A 
ATOM      4  C3  UNL d   1       0.579  -0.334   0.568  0.00  0.00     0.017 A 
ATOM      5  C4  UNL d   1       1.032  -1.387   1.371  0.00  0.00     0.017 A 
ATOM      6  C5  UNL d   1       2.349  -1.387   1.840  0.00  0.00     0.034 A 
ATOM      7 Cl   UNL d   1       0.017  -2.713   1.819  0.00  0.00    -0.070 Cl
ATOM      8 Cl1  UNL d   1      -1.033  -0.263  -0.049  0.00  0.00    -0.070 Cl
ENDROOT
TORSDOF 0
ENDMDL
