MODEL 1
REMARK minimizedAffinity -4.50321198
REMARK minimizedRMSD -1
REMARK  0 active torsions:
REMARK  status: ('A' for Active; 'I' for Inactive)
ROOT
ATOM      1  C   UNL d   1      -1.337  -0.513   0.296  0.00  0.00     0.020 A 
ATOM      2  C1  UNL d   1      -0.519  -1.570   0.692  0.00  0.00     0.020 A 
ATOM      3  C2  UNL d   1       0.861  -1.383   0.798  0.00  0.00     0.034 A 
ATOM      4  C3  UNL d   1       1.427  -0.137   0.508  0.00  0.00     0.017 A 
ATOM      5  C4  UNL d   1       0.605   0.924   0.111  0.00  0.00     0.017 A 
ATOM      6  C5  UNL d   1      -0.776   0.732   0.006  0.00  0.00     0.034 A 
ATOM      7 Cl   UNL d   1       1.230   2.491  -0.264  0.00  0.00    -0.070 Cl
ATOM      8 Cl1  UNL d   1       3.141   0.023   0.660  0.00  0.00    -0.070 Cl
ENDROOT
TORSDOF 0
ENDMDL
