MODEL 1
REMARK minimizedAffinity -5.07342815
REMARK minimizedRMSD -1
REMARK  0 active torsions:
REMARK  status: ('A' for Active; 'I' for Inactive)
ROOT
ATOM      1  C   UNL d   1       3.019  -2.222   1.422  0.00  0.00     0.020 A 
ATOM      2  C1  UNL d   1       3.584  -1.003   1.049  0.00  0.00     0.020 A 
ATOM      3  C2  UNL d   1       2.764   0.096   0.786  0.00  0.00     0.034 A 
ATOM      4  C3  UNL d   1       1.373  -0.022   0.895  0.00  0.00     0.017 A 
ATOM      5  C4  UNL d   1       0.807  -1.246   1.269  0.00  0.00     0.017 A 
ATOM      6  C5  UNL d   1       1.633  -2.343   1.531  0.00  0.00     0.034 A 
ATOM      7 Cl   UNL d   1      -0.900  -1.468   1.424  0.00  0.00    -0.070 Cl
ATOM      8 Cl1  UNL d   1       0.419   1.378   0.555  0.00  0.00    -0.070 Cl
ENDROOT
TORSDOF 0
ENDMDL
