MODEL 1
REMARK minimizedAffinity -4.56592131
REMARK minimizedRMSD -1
REMARK  0 active torsions:
REMARK  status: ('A' for Active; 'I' for Inactive)
ROOT
ATOM      1  C   UNL d   1       0.400   0.137  -0.038  0.00  0.00     0.020 A 
ATOM      2  C1  UNL d   1       1.212  -0.466  -0.997  0.00  0.00     0.020 A 
ATOM      3  C2  UNL d   1       0.711  -0.724  -2.275  0.00  0.00     0.034 A 
ATOM      4  C3  UNL d   1      -0.607  -0.379  -2.596  0.00  0.00     0.017 A 
ATOM      5  C4  UNL d   1      -1.422   0.227  -1.632  0.00  0.00     0.017 A 
ATOM      6  C5  UNL d   1      -0.914   0.482  -0.355  0.00  0.00     0.034 A 
ATOM      7 Cl   UNL d   1      -3.058   0.681  -1.955  0.00  0.00    -0.070 Cl
ATOM      8 Cl1  UNL d   1      -1.161  -0.726  -4.195  0.00  0.00    -0.070 Cl
ENDROOT
TORSDOF 0
ENDMDL
