MODEL 1
REMARK minimizedAffinity -4.03039742
REMARK minimizedRMSD -1
REMARK  0 active torsions:
REMARK  status: ('A' for Active; 'I' for Inactive)
ROOT
ATOM      1  C2' OXE d   1       3.763  -0.590   1.134  0.00  0.00     0.078 C 
ATOM      2  C1' OXE d   1       2.128  -2.443   2.466  0.00  0.00     0.078 C 
ATOM      3  C1  OXE d   1       1.456  -1.406   1.601  0.00  0.00    -0.078 A 
ATOM      4  C2  OXE d   1       2.260  -0.475   0.990  0.00  0.00    -0.078 A 
ATOM      5  C3  OXE d   1       1.697   0.470   0.138  0.00  0.00     0.003 A 
ATOM      6  C4  OXE d   1       0.306   0.577   0.019  0.00  0.00    -0.002 A 
ATOM      7  C5  OXE d   1      -0.534  -0.337   0.664  0.00  0.00    -0.002 A 
ATOM      8  C6  OXE d   1       0.026  -1.359   1.423  0.00  0.00     0.003 A 
ENDROOT
TORSDOF 0
ENDMDL
