MODEL 1
REMARK minimizedAffinity -4.73851442
REMARK minimizedRMSD -1
REMARK  0 active torsions:
REMARK  status: ('A' for Active; 'I' for Inactive)
ROOT
ATOM      1  C2' OXE d   1      -3.279   2.751  -3.095  0.00  0.00     0.078 C 
ATOM      2  C1' OXE d   1      -2.024   0.359  -3.859  0.00  0.00     0.078 C 
ATOM      3  C1  OXE d   1      -1.984   0.740  -2.400  0.00  0.00    -0.078 A 
ATOM      4  C2  OXE d   1      -2.560   1.935  -2.042  0.00  0.00    -0.078 A 
ATOM      5  C3  OXE d   1      -2.599   2.308  -0.702  0.00  0.00     0.003 A 
ATOM      6  C4  OXE d   1      -1.923   1.552   0.264  0.00  0.00    -0.002 A 
ATOM      7  C5  OXE d   1      -1.295   0.352  -0.085  0.00  0.00    -0.002 A 
ATOM      8  C6  OXE d   1      -1.353  -0.089  -1.403  0.00  0.00     0.003 A 
ENDROOT
TORSDOF 0
ENDMDL
