MODEL 1
REMARK minimizedAffinity 3.27899051
REMARK minimizedRMSD -1
REMARK  0 active torsions:
REMARK  status: ('A' for Active; 'I' for Inactive)
ROOT
ATOM      1  C2' OXE d   1       0.253  -2.758   0.757  0.00  0.00     0.078 C 
ATOM      2  C1' OXE d   1       2.429  -1.098   0.135  0.00  0.00     0.078 C 
ATOM      3  C1  OXE d   1       1.065  -0.463   0.232  0.00  0.00    -0.078 A 
ATOM      4  C2  OXE d   1      -0.001  -1.290   0.491  0.00  0.00    -0.078 A 
ATOM      5  C3  OXE d   1      -1.273  -0.747   0.645  0.00  0.00     0.003 A 
ATOM      6  C4  OXE d   1      -1.501   0.610   0.388  0.00  0.00    -0.002 A 
ATOM      7  C5  OXE d   1      -0.435   1.463   0.084  0.00  0.00    -0.002 A 
ATOM      8  C6  OXE d   1       0.858   0.952   0.044  0.00  0.00     0.003 A 
ENDROOT
TORSDOF 0
ENDMDL
