MODEL 1
REMARK minimizedAffinity -1.65836287
REMARK minimizedRMSD -1
REMARK  0 active torsions:
REMARK  status: ('A' for Active; 'I' for Inactive)
ROOT
ATOM      1  C2' OXE d   1      -2.400   0.172  -3.643  0.00  0.00     0.078 C 
ATOM      2  C1' OXE d   1      -3.789  -1.466  -1.834  0.00  0.00     0.078 C 
ATOM      3  C1  OXE d   1      -2.507  -0.825  -1.363  0.00  0.00    -0.078 A 
ATOM      4  C2  OXE d   1      -1.810  -0.064  -2.270  0.00  0.00    -0.078 A 
ATOM      5  C3  OXE d   1      -0.650   0.594  -1.871  0.00  0.00     0.003 A 
ATOM      6  C4  OXE d   1      -0.105   0.363  -0.602  0.00  0.00    -0.002 A 
ATOM      7  C5  OXE d   1      -0.778  -0.441   0.324  0.00  0.00    -0.002 A 
ATOM      8  C6  OXE d   1      -1.999  -1.007  -0.026  0.00  0.00     0.003 A 
ENDROOT
TORSDOF 0
ENDMDL
