MODEL 1
REMARK minimizedAffinity -1.56469631
REMARK minimizedRMSD -1
REMARK  0 active torsions:
REMARK  status: ('A' for Active; 'I' for Inactive)
ROOT
ATOM      1  C2' OXE d   1       0.975  -2.635   0.706  0.00  0.00     0.078 C 
ATOM      2  C1' OXE d   1       3.158  -0.894   0.419  0.00  0.00     0.078 C 
ATOM      3  C1  OXE d   1       1.773  -0.315   0.274  0.00  0.00    -0.078 A 
ATOM      4  C2  OXE d   1       0.712  -1.184   0.370  0.00  0.00    -0.078 A 
ATOM      5  C3  OXE d   1      -0.589  -0.693   0.298  0.00  0.00     0.003 A 
ATOM      6  C4  OXE d   1      -0.824   0.649  -0.024  0.00  0.00    -0.002 A 
ATOM      7  C5  OXE d   1       0.244   1.542  -0.165  0.00  0.00    -0.002 A 
ATOM      8  C6  OXE d   1       1.544   1.086   0.023  0.00  0.00     0.003 A 
ENDROOT
TORSDOF 0
ENDMDL
