MODEL 1
REMARK minimizedAffinity -4.59847641
REMARK minimizedRMSD -1
REMARK  0 active torsions:
REMARK  status: ('A' for Active; 'I' for Inactive)
ROOT
ATOM      1  C2' OXE d   1       0.559   2.028   0.959  0.00  0.00     0.078 C 
ATOM      2  C1' OXE d   1      -0.499  -0.114  -0.515  0.00  0.00     0.078 C 
ATOM      3  C1  OXE d   1       0.872  -0.286   0.091  0.00  0.00    -0.078 A 
ATOM      4  C2  OXE d   1       1.401   0.785   0.770  0.00  0.00    -0.078 A 
ATOM      5  C3  OXE d   1       2.639   0.661   1.395  0.00  0.00     0.003 A 
ATOM      6  C4  OXE d   1       3.416  -0.489   1.207  0.00  0.00    -0.002 A 
ATOM      7  C5  OXE d   1       2.912  -1.576   0.485  0.00  0.00    -0.002 A 
ATOM      8  C6  OXE d   1       1.627  -1.507  -0.043  0.00  0.00     0.003 A 
ENDROOT
TORSDOF 0
ENDMDL
