MODEL 1
REMARK minimizedAffinity 0.43996191
REMARK minimizedRMSD -1
REMARK  0 active torsions:
REMARK  status: ('A' for Active; 'I' for Inactive)
ROOT
ATOM      1  C2' OXE d   1       0.575  -2.764   1.097  0.00  0.00     0.078 C 
ATOM      2  C1' OXE d   1       2.533  -0.958   0.209  0.00  0.00     0.078 C 
ATOM      3  C1  OXE d   1       1.097  -0.498   0.201  0.00  0.00    -0.078 A 
ATOM      4  C2  OXE d   1       0.141  -1.404   0.593  0.00  0.00    -0.078 A 
ATOM      5  C3  OXE d   1      -1.194  -1.014   0.656  0.00  0.00     0.003 A 
ATOM      6  C4  OXE d   1      -1.589   0.242   0.178  0.00  0.00    -0.002 A 
ATOM      7  C5  OXE d   1      -0.635   1.165  -0.262  0.00  0.00    -0.002 A 
ATOM      8  C6  OXE d   1       0.713   0.827  -0.218  0.00  0.00     0.003 A 
ENDROOT
TORSDOF 0
ENDMDL
