MODEL 1
REMARK minimizedAffinity -1.48274982
REMARK minimizedRMSD -1
REMARK  1 active torsions:
REMARK  status: ('A' for Active; 'I' for Inactive)
REMARK    1  A    between atoms: C1_2  and  C2_3 
ROOT
ATOM      1  C2  UNL d   1      -0.094   0.791  -0.564  0.00  0.00    -0.073 A 
ATOM      2  C3  UNL d   1      -1.032   1.639   0.034  0.00  0.00    -0.002 A 
ATOM      3  C4  UNL d   1      -2.069   1.111   0.805  0.00  0.00     0.004 A 
ATOM      4  C5  UNL d   1      -2.174  -0.267   0.990  0.00  0.00    -0.004 A 
ATOM      5  C6  UNL d   1      -1.239  -1.130   0.409  0.00  0.00    -0.075 A 
ATOM      6  C7  UNL d   1      -1.339  -2.616   0.597  0.00  0.00     0.076 C 
ATOM      7  C8  UNL d   1      -0.202  -0.592  -0.365  0.00  0.00     0.001 A 
ENDROOT
BRANCH   1   8
ATOM      8  C1  UNL d   1       1.031   1.358  -1.392  0.00  0.00     0.053 C 
ATOM      9  C   UNL d   1       0.523   2.058  -2.642  0.00  0.00     0.018 C 
ENDBRANCH   1   8
TORSDOF 1
ENDMDL
