MODEL 1
REMARK minimizedAffinity -3.53566051
REMARK minimizedRMSD -1
REMARK  1 active torsions:
REMARK  status: ('A' for Active; 'I' for Inactive)
REMARK    1  A    between atoms: C1_2  and  C2_3 
ROOT
ATOM      1  C2  UNL d   1       0.637   2.245  -1.877  0.00  0.00    -0.073 A 
ATOM      2  C3  UNL d   1      -0.213   2.892  -2.781  0.00  0.00    -0.002 A 
ATOM      3  C4  UNL d   1       0.235   3.213  -4.063  0.00  0.00     0.004 A 
ATOM      4  C5  UNL d   1       1.532   2.884  -4.457  0.00  0.00    -0.004 A 
ATOM      5  C6  UNL d   1       2.392   2.226  -3.571  0.00  0.00    -0.075 A 
ATOM      6  C7  UNL d   1       3.791   1.867  -3.978  0.00  0.00     0.076 C 
ATOM      7  C8  UNL d   1       1.936   1.910  -2.284  0.00  0.00     0.001 A 
ENDROOT
BRANCH   1   8
ATOM      8  C1  UNL d   1       0.156   1.891  -0.493  0.00  0.00     0.053 C 
ATOM      9  C   UNL d   1      -0.192   0.416  -0.370  0.00  0.00     0.018 C 
ENDBRANCH   1   8
TORSDOF 1
ENDMDL
