MODEL 1
REMARK minimizedAffinity -4.14549494
REMARK minimizedRMSD -1
REMARK  1 active torsions:
REMARK  status: ('A' for Active; 'I' for Inactive)
REMARK    1  A    between atoms: C1_2  and  C2_3 
ROOT
ATOM      1  C2  UNL d   1       0.884   1.568  -0.456  0.00  0.00    -0.073 A 
ATOM      2  C3  UNL d   1       2.094   1.761   0.221  0.00  0.00    -0.002 A 
ATOM      3  C4  UNL d   1       3.202   2.279  -0.451  0.00  0.00     0.004 A 
ATOM      4  C5  UNL d   1       3.110   2.617  -1.801  0.00  0.00    -0.004 A 
ATOM      5  C6  UNL d   1       1.906   2.442  -2.491  0.00  0.00    -0.075 A 
ATOM      6  C7  UNL d   1       1.791   2.798  -3.945  0.00  0.00     0.076 C 
ATOM      7  C8  UNL d   1       0.798   1.919  -1.811  0.00  0.00     0.001 A 
ENDROOT
BRANCH   1   8
ATOM      8  C1  UNL d   1      -0.317   1.014   0.267  0.00  0.00     0.053 C 
ATOM      9  C   UNL d   1      -0.260  -0.500   0.391  0.00  0.00     0.018 C 
ENDBRANCH   1   8
TORSDOF 1
ENDMDL
