MODEL 1
REMARK minimizedAffinity -0.052112557
REMARK minimizedRMSD -1
REMARK  1 active torsions:
REMARK  status: ('A' for Active; 'I' for Inactive)
REMARK    1  A    between atoms: C1_2  and  C2_3 
ROOT
ATOM      1  C2  UNL d   1       0.739   0.463   0.162  0.00  0.00    -0.073 A 
ATOM      2  C3  UNL d   1       1.361  -0.789   0.233  0.00  0.00    -0.002 A 
ATOM      3  C4  UNL d   1       2.648  -0.908   0.760  0.00  0.00     0.004 A 
ATOM      4  C5  UNL d   1       3.322   0.220   1.227  0.00  0.00    -0.004 A 
ATOM      5  C6  UNL d   1       2.712   1.478   1.176  0.00  0.00    -0.075 A 
ATOM      6  C7  UNL d   1       3.425   2.701   1.673  0.00  0.00     0.076 C 
ATOM      7  C8  UNL d   1       1.421   1.589   0.643  0.00  0.00     0.001 A 
ENDROOT
BRANCH   1   8
ATOM      8  C1  UNL d   1      -0.653   0.595  -0.400  0.00  0.00     0.053 C 
ATOM      9  C   UNL d   1      -1.719   0.280   0.637  0.00  0.00     0.018 C 
ENDBRANCH   1   8
TORSDOF 1
ENDMDL
