MODEL 1
REMARK minimizedAffinity -3.3735075
REMARK minimizedRMSD -1
REMARK  1 active torsions:
REMARK  status: ('A' for Active; 'I' for Inactive)
REMARK    1  A    between atoms: C1_2  and  C2_3 
ROOT
ATOM      1  C2  UNL d   1       1.040   1.661  -1.704  0.00  0.00    -0.073 A 
ATOM      2  C3  UNL d   1       0.186   2.154  -2.697  0.00  0.00    -0.002 A 
ATOM      3  C4  UNL d   1       0.703   2.603  -3.913  0.00  0.00     0.004 A 
ATOM      4  C5  UNL d   1       2.076   2.558  -4.151  0.00  0.00    -0.004 A 
ATOM      5  C6  UNL d   1       2.945   2.057  -3.176  0.00  0.00    -0.075 A 
ATOM      6  C7  UNL d   1       4.425   2.003  -3.416  0.00  0.00     0.076 C 
ATOM      7  C8  UNL d   1       2.418   1.611  -1.956  0.00  0.00     0.001 A 
ENDROOT
BRANCH   1   8
ATOM      8  C1  UNL d   1       0.485   1.169  -0.392  0.00  0.00     0.053 C 
ATOM      9  C   UNL d   1       0.117  -0.305  -0.446  0.00  0.00     0.018 C 
ENDBRANCH   1   8
TORSDOF 1
ENDMDL
