MODEL 1
REMARK minimizedAffinity -0.294575214
REMARK minimizedRMSD -1
REMARK  1 active torsions:
REMARK  status: ('A' for Active; 'I' for Inactive)
REMARK    1  A    between atoms: C1_2  and  C2_3 
ROOT
ATOM      1  C2  UNL d   1       1.335   0.500   0.334  0.00  0.00    -0.073 A 
ATOM      2  C3  UNL d   1       1.337   1.857   0.679  0.00  0.00    -0.002 A 
ATOM      3  C4  UNL d   1       2.434   2.415   1.338  0.00  0.00     0.004 A 
ATOM      4  C5  UNL d   1       3.540   1.626   1.652  0.00  0.00    -0.004 A 
ATOM      5  C6  UNL d   1       3.562   0.271   1.305  0.00  0.00    -0.075 A 
ATOM      6  C7  UNL d   1       4.744  -0.592   1.637  0.00  0.00     0.076 C 
ATOM      7  C8  UNL d   1       2.456  -0.283   0.645  0.00  0.00     0.001 A 
ENDROOT
BRANCH   1   8
ATOM      8  C1  UNL d   1       0.157  -0.105  -0.384  0.00  0.00     0.053 C 
ATOM      9  C   UNL d   1      -1.087  -0.139   0.490  0.00  0.00     0.018 C 
ENDBRANCH   1   8
TORSDOF 1
ENDMDL
