MODEL 1
REMARK minimizedAffinity -1.89937329
REMARK minimizedRMSD -1
REMARK  1 active torsions:
REMARK  status: ('A' for Active; 'I' for Inactive)
REMARK    1  A    between atoms: C1_2  and  C2_3 
ROOT
ATOM      1  C2  UNL d   1       0.494   0.662   0.219  0.00  0.00    -0.073 A 
ATOM      2  C3  UNL d   1      -0.474   1.631   0.506  0.00  0.00    -0.002 A 
ATOM      3  C4  UNL d   1      -1.802   1.259   0.720  0.00  0.00     0.004 A 
ATOM      4  C5  UNL d   1      -2.173  -0.084   0.657  0.00  0.00    -0.004 A 
ATOM      5  C6  UNL d   1      -1.218  -1.068   0.383  0.00  0.00    -0.075 A 
ATOM      6  C7  UNL d   1      -1.602  -2.517   0.308  0.00  0.00     0.076 C 
ATOM      7  C8  UNL d   1       0.113  -0.686   0.166  0.00  0.00     0.001 A 
ENDROOT
BRANCH   1   8
ATOM      8  C1  UNL d   1       1.930   1.059  -0.007  0.00  0.00     0.053 C 
ATOM      9  C   UNL d   1       2.737   1.037   1.282  0.00  0.00     0.018 C 
ENDBRANCH   1   8
TORSDOF 1
ENDMDL
