MODEL 1
REMARK minimizedAffinity -4.21922112
REMARK minimizedRMSD -1
REMARK  1 active torsions:
REMARK  status: ('A' for Active; 'I' for Inactive)
REMARK    1  A    between atoms: N_2  and  C1_3 
ROOT
ATOM      1  C1  UNL d   1      -0.728  -0.099   0.647  0.00  0.00     0.143 A 
ATOM      2  C2  UNL d   1      -1.569  -0.033   1.763  0.00  0.00    -0.057 A 
ATOM      3  C3  UNL d   1      -1.851   1.187   2.388  0.00  0.00     0.033 A 
ATOM      4  C4  UNL d   1      -1.272   2.364   1.925  0.00  0.00    -0.042 A 
ATOM      5  C5  UNL d   1      -0.413   2.319   0.832  0.00  0.00     0.033 A 
ATOM      6  C6  UNL d   1      -0.140   1.098   0.207  0.00  0.00    -0.057 A 
ENDROOT
BRANCH   1   7
ATOM      7  N   UNL d   1      -0.330  -1.294   0.041  0.00  0.00    -0.732 N 
ATOM      8  C   UNL d   1       1.052  -1.507  -0.332  0.00  0.00     0.284 C 
ATOM      9  H3  UNL d   1      -0.779  -2.107   0.456  0.00  0.00     0.395 HD
ENDBRANCH   1   7
TORSDOF 1
ENDMDL
