MODEL 1
REMARK minimizedAffinity -2.45053434
REMARK minimizedRMSD -1
REMARK  1 active torsions:
REMARK  status: ('A' for Active; 'I' for Inactive)
REMARK    1  A    between atoms: N_2  and  C1_3 
ROOT
ATOM      1  C1  UNL d   1      -1.762   0.578   2.009  0.00  0.00     0.143 A 
ATOM      2  C2  UNL d   1      -1.133   0.209   0.815  0.00  0.00    -0.057 A 
ATOM      3  C3  UNL d   1      -0.273   1.087   0.145  0.00  0.00     0.033 A 
ATOM      4  C4  UNL d   1      -0.050   2.367   0.643  0.00  0.00    -0.042 A 
ATOM      5  C5  UNL d   1      -0.684   2.765   1.814  0.00  0.00     0.033 A 
ATOM      6  C6  UNL d   1      -1.536   1.880   2.483  0.00  0.00    -0.057 A 
ENDROOT
BRANCH   1   7
ATOM      7  N   UNL d   1      -2.704  -0.214   2.669  0.00  0.00    -0.732 N 
ATOM      8  C   UNL d   1      -2.327  -0.996   3.827  0.00  0.00     0.284 C 
ATOM      9  H3  UNL d   1      -3.607   0.246   2.755  0.00  0.00     0.395 HD
ENDBRANCH   1   7
TORSDOF 1
ENDMDL
