MODEL 1
REMARK minimizedAffinity -3.99343371
REMARK minimizedRMSD -1
REMARK  1 active torsions:
REMARK  status: ('A' for Active; 'I' for Inactive)
REMARK    1  A    between atoms: N_2  and  C1_3 
ROOT
ATOM      1  C1  UNL d   1      -0.190   0.653   0.696  0.00  0.00     0.143 A 
ATOM      2  C2  UNL d   1       0.426  -0.565   0.388  0.00  0.00    -0.057 A 
ATOM      3  C3  UNL d   1       1.244  -0.700  -0.740  0.00  0.00     0.033 A 
ATOM      4  C4  UNL d   1       1.438   0.377  -1.599  0.00  0.00    -0.042 A 
ATOM      5  C5  UNL d   1       0.816   1.590  -1.326  0.00  0.00     0.033 A 
ATOM      6  C6  UNL d   1       0.005   1.720  -0.195  0.00  0.00    -0.057 A 
ENDROOT
BRANCH   1   7
ATOM      7  N   UNL d   1      -1.094   0.823   1.748  0.00  0.00    -0.732 N 
ATOM      8  C   UNL d   1      -0.981   1.957   2.640  0.00  0.00     0.284 C 
ATOM      9  H3  UNL d   1      -2.049   0.599   1.479  0.00  0.00     0.395 HD
ENDBRANCH   1   7
TORSDOF 1
ENDMDL
