MODEL 1
REMARK minimizedAffinity -4.50521755
REMARK minimizedRMSD -1
REMARK  1 active torsions:
REMARK  status: ('A' for Active; 'I' for Inactive)
REMARK    1  A    between atoms: N_2  and  C1_3 
ROOT
ATOM      1  C1  UNL d   1      -1.257   0.887   1.334  0.00  0.00     0.143 A 
ATOM      2  C2  UNL d   1      -2.200   1.470   0.481  0.00  0.00    -0.057 A 
ATOM      3  C3  UNL d   1      -1.871   1.820  -0.834  0.00  0.00     0.033 A 
ATOM      4  C4  UNL d   1      -0.581   1.619  -1.312  0.00  0.00    -0.042 A 
ATOM      5  C5  UNL d   1       0.380   1.063  -0.474  0.00  0.00     0.033 A 
ATOM      6  C6  UNL d   1       0.044   0.710   0.836  0.00  0.00    -0.057 A 
ENDROOT
BRANCH   1   7
ATOM      7  N   UNL d   1      -1.495   0.607   2.682  0.00  0.00    -0.732 N 
ATOM      8  C   UNL d   1      -1.739   1.678   3.625  0.00  0.00     0.284 C 
ATOM      9  H3  UNL d   1      -2.095  -0.205   2.810  0.00  0.00     0.395 HD
ENDBRANCH   1   7
TORSDOF 1
ENDMDL
