MODEL 1
REMARK minimizedAffinity -3.90428662
REMARK minimizedRMSD -1
REMARK  1 active torsions:
REMARK  status: ('A' for Active; 'I' for Inactive)
REMARK    1  A    between atoms: N_2  and  C1_3 
ROOT
ATOM      1  C1  UNL d   1      -1.567   0.259   1.222  0.00  0.00     0.143 A 
ATOM      2  C2  UNL d   1      -1.009   1.363   0.568  0.00  0.00    -0.057 A 
ATOM      3  C3  UNL d   1       0.003   1.207  -0.387  0.00  0.00     0.033 A 
ATOM      4  C4  UNL d   1       0.496  -0.059  -0.685  0.00  0.00    -0.042 A 
ATOM      5  C5  UNL d   1      -0.026  -1.169  -0.030  0.00  0.00     0.033 A 
ATOM      6  C6  UNL d   1      -1.041  -1.007   0.918  0.00  0.00    -0.057 A 
ENDROOT
BRANCH   1   7
ATOM      7  N   UNL d   1      -2.505   0.357   2.252  0.00  0.00    -0.732 N 
ATOM      8  C   UNL d   1      -2.094   0.721   3.591  0.00  0.00     0.284 C 
ATOM      9  H3  UNL d   1      -3.370   0.798   1.949  0.00  0.00     0.395 HD
ENDBRANCH   1   7
TORSDOF 1
ENDMDL
