MODEL 1
REMARK minimizedAffinity -4.57516289
REMARK minimizedRMSD -1
REMARK  1 active torsions:
REMARK  status: ('A' for Active; 'I' for Inactive)
REMARK    1  A    between atoms: N_2  and  C1_3 
ROOT
ATOM      1  C1  UNL d   1      -0.915   0.142   0.532  0.00  0.00     0.143 A 
ATOM      2  C2  UNL d   1      -1.701  -0.031   1.677  0.00  0.00    -0.057 A 
ATOM      3  C3  UNL d   1      -2.067   1.058   2.478  0.00  0.00     0.033 A 
ATOM      4  C4  UNL d   1      -1.629   2.340   2.162  0.00  0.00    -0.042 A 
ATOM      5  C5  UNL d   1      -0.827   2.532   1.042  0.00  0.00     0.033 A 
ATOM      6  C6  UNL d   1      -0.470   1.442   0.243  0.00  0.00    -0.057 A 
ENDROOT
BRANCH   1   7
ATOM      7  N   UNL d   1      -0.436  -0.912  -0.249  0.00  0.00    -0.732 N 
ATOM      8  C   UNL d   1       0.941  -1.342  -0.141  0.00  0.00     0.284 C 
ATOM      9  H3  UNL d   1      -1.105  -1.675  -0.324  0.00  0.00     0.395 HD
ENDBRANCH   1   7
TORSDOF 1
ENDMDL
