MODEL 1
REMARK minimizedAffinity -3.98648143
REMARK minimizedRMSD -1
REMARK  1 active torsions:
REMARK  status: ('A' for Active; 'I' for Inactive)
REMARK    1  A    between atoms: N_2  and  C1_3 
ROOT
ATOM      1  C1  UNL d   1      -0.787   2.129   0.116  0.00  0.00     0.143 A 
ATOM      2  C2  UNL d   1      -0.703   2.799   1.341  0.00  0.00    -0.057 A 
ATOM      3  C3  UNL d   1      -1.222   2.237   2.513  0.00  0.00     0.033 A 
ATOM      4  C4  UNL d   1      -1.861   1.002   2.476  0.00  0.00    -0.042 A 
ATOM      5  C5  UNL d   1      -1.978   0.329   1.265  0.00  0.00     0.033 A 
ATOM      6  C6  UNL d   1      -1.452   0.893   0.099  0.00  0.00    -0.057 A 
ENDROOT
BRANCH   1   7
ATOM      7  N   UNL d   1      -0.379   2.679  -1.102  0.00  0.00    -0.732 N 
ATOM      8  C   UNL d   1       0.806   2.188  -1.773  0.00  0.00     0.284 C 
ATOM      9  H3  UNL d   1      -1.161   2.867  -1.725  0.00  0.00     0.395 HD
ENDBRANCH   1   7
TORSDOF 1
ENDMDL
