MODEL 1
REMARK minimizedAffinity -2.22942209
REMARK minimizedRMSD -1
REMARK  1 active torsions:
REMARK  status: ('A' for Active; 'I' for Inactive)
REMARK    1  A    between atoms: N_2  and  C1_3 
ROOT
ATOM      1  C1  UNL d   1       0.035  -0.179  -0.139  0.00  0.00     0.143 A 
ATOM      2  C2  UNL d   1      -0.536  -1.374   0.311  0.00  0.00    -0.057 A 
ATOM      3  C3  UNL d   1      -0.016  -2.616  -0.072  0.00  0.00     0.033 A 
ATOM      4  C4  UNL d   1       1.070  -2.685  -0.938  0.00  0.00    -0.042 A 
ATOM      5  C5  UNL d   1       1.638  -1.511  -1.418  0.00  0.00     0.033 A 
ATOM      6  C6  UNL d   1       1.118  -0.273  -1.027  0.00  0.00    -0.057 A 
ENDROOT
BRANCH   1   7
ATOM      7  N   UNL d   1      -0.497   1.086   0.127  0.00  0.00    -0.732 N 
ATOM      8  C   UNL d   1      -0.373   2.155  -0.840  0.00  0.00     0.284 C 
ATOM      9  H3  UNL d   1      -1.407   1.037   0.579  0.00  0.00     0.395 HD
ENDBRANCH   1   7
TORSDOF 1
ENDMDL
