MODEL 1
REMARK minimizedAffinity -1.65403962
REMARK minimizedRMSD -1
REMARK  1 active torsions:
REMARK  status: ('A' for Active; 'I' for Inactive)
REMARK    1  A    between atoms: N_2  and  C1_3 
ROOT
ATOM      1  C1  UNL d   1      -0.259   1.597   1.135  0.00  0.00     0.143 A 
ATOM      2  C2  UNL d   1      -0.570   1.903   2.465  0.00  0.00    -0.057 A 
ATOM      3  C3  UNL d   1      -1.312   1.020   3.258  0.00  0.00     0.033 A 
ATOM      4  C4  UNL d   1      -1.783  -0.175   2.725  0.00  0.00    -0.042 A 
ATOM      5  C5  UNL d   1      -1.508  -0.488   1.399  0.00  0.00     0.033 A 
ATOM      6  C6  UNL d   1      -0.760   0.394   0.613  0.00  0.00    -0.057 A 
ENDROOT
BRANCH   1   7
ATOM      7  N   UNL d   1       0.390   2.478   0.266  0.00  0.00    -0.732 N 
ATOM      8  C   UNL d   1      -0.047   2.615  -1.107  0.00  0.00     0.284 C 
ATOM      9  H3  UNL d   1       0.633   3.358   0.715  0.00  0.00     0.395 HD
ENDBRANCH   1   7
TORSDOF 1
ENDMDL
