MODEL 1
REMARK minimizedAffinity -4.69051933
REMARK minimizedRMSD -1
REMARK  1 active torsions:
REMARK  status: ('A' for Active; 'I' for Inactive)
REMARK    1  A    between atoms: N_2  and  C1_3 
ROOT
ATOM      1  C1  UNL d   1       0.280  -0.046   0.398  0.00  0.00     0.143 A 
ATOM      2  C2  UNL d   1       0.193  -1.402   0.064  0.00  0.00    -0.057 A 
ATOM      3  C3  UNL d   1       1.234  -2.052  -0.608  0.00  0.00     0.033 A 
ATOM      4  C4  UNL d   1       2.373  -1.348  -0.986  0.00  0.00    -0.042 A 
ATOM      5  C5  UNL d   1       2.470   0.006  -0.687  0.00  0.00     0.033 A 
ATOM      6  C6  UNL d   1       1.430   0.648  -0.009  0.00  0.00    -0.057 A 
ENDROOT
BRANCH   1   7
ATOM      7  N   UNL d   1      -0.763   0.680   0.979  0.00  0.00    -0.732 N 
ATOM      8  C   UNL d   1      -1.598   1.544   0.172  0.00  0.00     0.284 C 
ATOM      9  H3  UNL d   1      -1.273   0.140   1.674  0.00  0.00     0.395 HD
ENDBRANCH   1   7
TORSDOF 1
ENDMDL
