MODEL 1
REMARK minimizedAffinity 4.17887592
REMARK minimizedRMSD -1
REMARK  0 active torsions:
REMARK  status: ('A' for Active; 'I' for Inactive)
ROOT
ATOM      1  C2' OXE d   1      -0.563  -0.747   2.876  0.00  0.00     0.078 C 
ATOM      2  C1' OXE d   1      -2.832   0.254   1.562  0.00  0.00     0.078 C 
ATOM      3  C1  OXE d   1      -1.643  -0.130   0.718  0.00  0.00    -0.078 A 
ATOM      4  C2  OXE d   1      -0.520  -0.575   1.373  0.00  0.00    -0.078 A 
ATOM      5  C3  OXE d   1       0.585  -0.995   0.639  0.00  0.00     0.003 A 
ATOM      6  C4  OXE d   1       0.620  -0.823  -0.750  0.00  0.00    -0.002 A 
ATOM      7  C5  OXE d   1      -0.498  -0.335  -1.434  0.00  0.00    -0.002 A 
ATOM      8  C6  OXE d   1      -1.651  -0.024  -0.720  0.00  0.00     0.003 A 
ENDROOT
TORSDOF 0
ENDMDL
