MODEL 1
REMARK minimizedAffinity 2.87176561
REMARK minimizedRMSD -1
REMARK  0 active torsions:
REMARK  status: ('A' for Active; 'I' for Inactive)
ROOT
ATOM      1  C2' OXE d   1      -1.367  -1.579   2.572  0.00  0.00     0.078 C 
ATOM      2  C1' OXE d   1       0.605  -0.691   0.782  0.00  0.00     0.078 C 
ATOM      3  C1  OXE d   1       0.804  -2.035   1.438  0.00  0.00    -0.078 A 
ATOM      4  C2  OXE d   1      -0.142  -2.440   2.348  0.00  0.00    -0.078 A 
ATOM      5  C3  OXE d   1      -0.035  -3.695   2.941  0.00  0.00     0.003 A 
ATOM      6  C4  OXE d   1       1.105  -4.481   2.736  0.00  0.00    -0.002 A 
ATOM      7  C5  OXE d   1       2.101  -4.069   1.844  0.00  0.00    -0.002 A 
ATOM      8  C6  OXE d   1       1.945  -2.870   1.156  0.00  0.00     0.003 A 
ENDROOT
TORSDOF 0
ENDMDL
