MODEL 1
REMARK minimizedAffinity -2.19424582
REMARK minimizedRMSD -1
REMARK  0 active torsions:
REMARK  status: ('A' for Active; 'I' for Inactive)
ROOT
ATOM      1  C2' OXE d   1      -1.400  -2.304   3.470  0.00  0.00     0.078 C 
ATOM      2  C1' OXE d   1      -0.277  -0.676   1.477  0.00  0.00     0.078 C 
ATOM      3  C1  OXE d   1       0.368  -2.014   1.739  0.00  0.00    -0.078 A 
ATOM      4  C2  OXE d   1      -0.160  -2.784   2.747  0.00  0.00    -0.078 A 
ATOM      5  C3  OXE d   1       0.363  -4.050   2.993  0.00  0.00     0.003 A 
ATOM      6  C4  OXE d   1       1.516  -4.483   2.327  0.00  0.00    -0.002 A 
ATOM      7  C5  OXE d   1       2.093  -3.697   1.324  0.00  0.00    -0.002 A 
ATOM      8  C6  OXE d   1       1.507  -2.481   0.989  0.00  0.00     0.003 A 
ENDROOT
TORSDOF 0
ENDMDL
