MODEL 1
REMARK minimizedAffinity 5.71109772
REMARK minimizedRMSD -1
REMARK  0 active torsions:
REMARK  status: ('A' for Active; 'I' for Inactive)
ROOT
ATOM      1  C2' OXE d   1       0.416  -0.531  -0.670  0.00  0.00     0.078 C 
ATOM      2  C1' OXE d   1      -1.527   0.249   1.200  0.00  0.00     0.078 C 
ATOM      3  C1  OXE d   1      -0.656  -0.934   1.542  0.00  0.00    -0.078 A 
ATOM      4  C2  OXE d   1       0.260  -1.337   0.601  0.00  0.00    -0.078 A 
ATOM      5  C3  OXE d   1       1.126  -2.389   0.888  0.00  0.00     0.003 A 
ATOM      6  C4  OXE d   1       0.969  -3.136   2.062  0.00  0.00    -0.002 A 
ATOM      7  C5  OXE d   1       0.015  -2.766   3.017  0.00  0.00    -0.002 A 
ATOM      8  C6  OXE d   1      -0.775  -1.644   2.791  0.00  0.00     0.003 A 
ENDROOT
TORSDOF 0
ENDMDL
