MODEL 1
REMARK minimizedAffinity -0.511677742
REMARK minimizedRMSD -1
REMARK  0 active torsions:
REMARK  status: ('A' for Active; 'I' for Inactive)
ROOT
ATOM      1  C2' OXE d   1      -1.084  -0.399   1.899  0.00  0.00     0.078 C 
ATOM      2  C1' OXE d   1       0.219  -0.762  -0.561  0.00  0.00     0.078 C 
ATOM      3  C1  OXE d   1       0.697  -1.576   0.615  0.00  0.00    -0.078 A 
ATOM      4  C2  OXE d   1       0.085  -1.358   1.826  0.00  0.00    -0.078 A 
ATOM      5  C3  OXE d   1       0.451  -2.121   2.931  0.00  0.00     0.003 A 
ATOM      6  C4  OXE d   1       1.539  -2.998   2.857  0.00  0.00    -0.002 A 
ATOM      7  C5  OXE d   1       2.203  -3.206   1.643  0.00  0.00    -0.002 A 
ATOM      8  C6  OXE d   1       1.767  -2.536   0.505  0.00  0.00     0.003 A 
ENDROOT
TORSDOF 0
ENDMDL
