MODEL 1
REMARK minimizedAffinity 2.57630181
REMARK minimizedRMSD -1
REMARK  0 active torsions:
REMARK  status: ('A' for Active; 'I' for Inactive)
ROOT
ATOM      1  C2' OXE d   1      -0.550  -2.298   3.031  0.00  0.00     0.078 C 
ATOM      2  C1' OXE d   1      -3.124  -2.096   1.929  0.00  0.00     0.078 C 
ATOM      3  C1  OXE d   1      -2.098  -1.072   1.513  0.00  0.00    -0.078 A 
ATOM      4  C2  OXE d   1      -0.854  -1.151   2.092  0.00  0.00    -0.078 A 
ATOM      5  C3  OXE d   1       0.146  -0.264   1.702  0.00  0.00     0.003 A 
ATOM      6  C4  OXE d   1      -0.147   0.800   0.841  0.00  0.00    -0.002 A 
ATOM      7  C5  OXE d   1      -1.418   0.922   0.270  0.00  0.00    -0.002 A 
ATOM      8  C6  OXE d   1      -2.390  -0.028   0.561  0.00  0.00     0.003 A 
ENDROOT
TORSDOF 0
ENDMDL
