MODEL 1
REMARK minimizedAffinity -3.98647404
REMARK minimizedRMSD -1
REMARK  0 active torsions:
REMARK  status: ('A' for Active; 'I' for Inactive)
ROOT
ATOM      1  C1  BNZ d   1       0.235  -0.444  -3.048  0.00  0.00     0.000 A 
ATOM      2  C2  BNZ d   1      -0.581  -0.294  -1.959  0.00  0.00     0.000 A 
ATOM      3  C3  BNZ d   1      -0.077   0.125  -0.759  0.00  0.00     0.000 A 
ATOM      4  C4  BNZ d   1       1.247   0.353  -0.639  0.00  0.00     0.000 A 
ATOM      5  C5  BNZ d   1       2.084   0.196  -1.726  0.00  0.00     0.000 A 
ATOM      6  C6  BNZ d   1       1.567  -0.187  -2.942  0.00  0.00     0.000 A 
ENDROOT
TORSDOF 0
ENDMDL
