MODEL 1
REMARK minimizedAffinity 3.5187993
REMARK minimizedRMSD -1
REMARK  0 active torsions:
REMARK  status: ('A' for Active; 'I' for Inactive)
ROOT
ATOM      1  C1  BNZ d   1       2.698  -0.313  -2.265  0.00  0.00     0.000 A 
ATOM      2  C2  BNZ d   1       3.130   0.678  -1.424  0.00  0.00     0.000 A 
ATOM      3  C3  BNZ d   1       2.351   1.773  -1.174  0.00  0.00     0.000 A 
ATOM      4  C4  BNZ d   1       1.160   1.895  -1.795  0.00  0.00     0.000 A 
ATOM      5  C5  BNZ d   1       0.715   0.909  -2.653  0.00  0.00     0.000 A 
ATOM      6  C6  BNZ d   1       1.485  -0.210  -2.872  0.00  0.00     0.000 A 
ENDROOT
TORSDOF 0
ENDMDL
