MODEL 1
REMARK minimizedAffinity -3.61158085
REMARK minimizedRMSD -1
REMARK  0 active torsions:
REMARK  status: ('A' for Active; 'I' for Inactive)
ROOT
ATOM      1  C1  BNZ d   1       1.138   0.024  -1.885  0.00  0.00     0.000 A 
ATOM      2  C2  BNZ d   1       0.278  -0.754  -1.155  0.00  0.00     0.000 A 
ATOM      3  C3  BNZ d   1      -0.121  -0.372   0.095  0.00  0.00     0.000 A 
ATOM      4  C4  BNZ d   1       0.371   0.765   0.630  0.00  0.00     0.000 A 
ATOM      5  C5  BNZ d   1       1.246   1.554  -0.090  0.00  0.00     0.000 A 
ATOM      6  C6  BNZ d   1       1.615   1.187  -1.363  0.00  0.00     0.000 A 
ENDROOT
TORSDOF 0
ENDMDL
