MODEL 1
REMARK minimizedAffinity -4.79801941
REMARK minimizedRMSD -1
REMARK  0 active torsions:
REMARK  status: ('A' for Active; 'I' for Inactive)
ROOT
ATOM      1  C1  BNZ d   1      -0.003   0.655  -0.057  0.00  0.00     0.000 A 
ATOM      2  C2  BNZ d   1       0.751   1.547  -0.772  0.00  0.00     0.000 A 
ATOM      3  C3  BNZ d   1       1.414   1.155  -1.901  0.00  0.00     0.000 A 
ATOM      4  C4  BNZ d   1       1.356  -0.134  -2.291  0.00  0.00     0.000 A 
ATOM      5  C5  BNZ d   1       0.608  -1.048  -1.575  0.00  0.00     0.000 A 
ATOM      6  C6  BNZ d   1      -0.090  -0.641  -0.461  0.00  0.00     0.000 A 
ENDROOT
TORSDOF 0
ENDMDL
