MODEL 1
REMARK minimizedAffinity -4.68688011
REMARK minimizedRMSD -1
REMARK  0 active torsions:
REMARK  status: ('A' for Active; 'I' for Inactive)
ROOT
ATOM      1  C1  BNZ d   1      -0.468  -0.499  -0.328  0.00  0.00     0.000 A 
ATOM      2  C2  BNZ d   1       0.162  -0.766  -1.514  0.00  0.00     0.000 A 
ATOM      3  C3  BNZ d   1       1.094   0.096  -2.021  0.00  0.00     0.000 A 
ATOM      4  C4  BNZ d   1       1.365   1.241  -1.362  0.00  0.00     0.000 A 
ATOM      5  C5  BNZ d   1       0.732   1.529  -0.170  0.00  0.00     0.000 A 
ATOM      6  C6  BNZ d   1      -0.178   0.640   0.357  0.00  0.00     0.000 A 
ENDROOT
TORSDOF 0
ENDMDL
