MODEL 1
REMARK minimizedAffinity -4.28821468
REMARK minimizedRMSD -1
REMARK  0 active torsions:
REMARK  status: ('A' for Active; 'I' for Inactive)
ROOT
ATOM      1  C1  BNZ d   1       0.386   0.819  -0.017  0.00  0.00     0.000 A 
ATOM      2  C2  BNZ d   1       1.063   0.573  -1.181  0.00  0.00     0.000 A 
ATOM      3  C3  BNZ d   1       1.199  -0.701  -1.656  0.00  0.00     0.000 A 
ATOM      4  C4  BNZ d   1       0.692  -1.730  -0.947  0.00  0.00     0.000 A 
ATOM      5  C5  BNZ d   1       0.014  -1.500   0.233  0.00  0.00     0.000 A 
ATOM      6  C6  BNZ d   1      -0.154  -0.212   0.689  0.00  0.00     0.000 A 
ENDROOT
TORSDOF 0
ENDMDL
