MODEL 1
REMARK minimizedAffinity -5.34523582
REMARK minimizedRMSD -1
REMARK  0 active torsions:
REMARK  status: ('A' for Active; 'I' for Inactive)
ROOT
ATOM      1  C1  BNZ d   1       0.031  -0.743  -0.601  0.00  0.00     0.000 A 
ATOM      2  C2  BNZ d   1       0.063   0.523  -0.080  0.00  0.00     0.000 A 
ATOM      3  C3  BNZ d   1       0.753   1.522  -0.708  0.00  0.00     0.000 A 
ATOM      4  C4  BNZ d   1       1.444   1.244  -1.833  0.00  0.00     0.000 A 
ATOM      5  C5  BNZ d   1       1.429  -0.029  -2.366  0.00  0.00     0.000 A 
ATOM      6  C6  BNZ d   1       0.701  -1.023  -1.752  0.00  0.00     0.000 A 
ENDROOT
TORSDOF 0
ENDMDL
