MODEL 1
REMARK minimizedAffinity -2.74538898
REMARK minimizedRMSD -1
REMARK  0 active torsions:
REMARK  status: ('A' for Active; 'I' for Inactive)
ROOT
ATOM      1  C1  BNZ d   1       0.289  -0.771  -0.199  0.00  0.00     0.000 A 
ATOM      2  C2  BNZ d   1       1.118  -1.115  -1.234  0.00  0.00     0.000 A 
ATOM      3  C3  BNZ d   1       1.700  -0.155  -2.014  0.00  0.00     0.000 A 
ATOM      4  C4  BNZ d   1       1.420   1.144  -1.785  0.00  0.00     0.000 A 
ATOM      5  C5  BNZ d   1       0.579   1.507  -0.752  0.00  0.00     0.000 A 
ATOM      6  C6  BNZ d   1       0.026   0.539   0.056  0.00  0.00     0.000 A 
ENDROOT
TORSDOF 0
ENDMDL
