MODEL 1
REMARK minimizedAffinity -4.36284113
REMARK minimizedRMSD -1
REMARK  0 active torsions:
REMARK  status: ('A' for Active; 'I' for Inactive)
ROOT
ATOM      1  C1  BNZ d   1       0.741  -0.815  -1.857  0.00  0.00     0.000 A 
ATOM      2  C2  BNZ d   1       1.688   0.119  -2.184  0.00  0.00     0.000 A 
ATOM      3  C3  BNZ d   1       1.917   1.196  -1.373  0.00  0.00     0.000 A 
ATOM      4  C4  BNZ d   1       1.173   1.358  -0.260  0.00  0.00     0.000 A 
ATOM      5  C5  BNZ d   1       0.208   0.430   0.077  0.00  0.00     0.000 A 
ATOM      6  C6  BNZ d   1       0.007  -0.673  -0.720  0.00  0.00     0.000 A 
ENDROOT
TORSDOF 0
ENDMDL
