MODEL 1
REMARK minimizedAffinity -4.11957455
REMARK minimizedRMSD -1
REMARK  0 active torsions:
REMARK  status: ('A' for Active; 'I' for Inactive)
ROOT
ATOM      1  C1  BNZ d   1       1.484   0.906  -0.942  0.00  0.00     0.000 A 
ATOM      2  C2  BNZ d   1       0.643   0.106  -0.215  0.00  0.00     0.000 A 
ATOM      3  C3  BNZ d   1      -0.247  -0.723  -0.838  0.00  0.00     0.000 A 
ATOM      4  C4  BNZ d   1      -0.323  -0.723  -2.185  0.00  0.00     0.000 A 
ATOM      5  C5  BNZ d   1       0.512   0.085  -2.932  0.00  0.00     0.000 A 
ATOM      6  C6  BNZ d   1       1.434   0.889  -2.302  0.00  0.00     0.000 A 
ENDROOT
TORSDOF 0
ENDMDL
