MODEL 1
REMARK minimizedAffinity -3.40809536
REMARK minimizedRMSD -1
REMARK  0 active torsions:
REMARK  status: ('A' for Active; 'I' for Inactive)
ROOT
ATOM      1  C1  BNZ d   1       0.420  -0.732  -1.762  0.00  0.00     0.000 A 
ATOM      2  C2  BNZ d   1      -0.267  -0.501  -0.600  0.00  0.00     0.000 A 
ATOM      3  C3  BNZ d   1       0.141   0.468   0.273  0.00  0.00     0.000 A 
ATOM      4  C4  BNZ d   1       1.256   1.177   0.004  0.00  0.00     0.000 A 
ATOM      5  C5  BNZ d   1       1.965   0.949  -1.159  0.00  0.00     0.000 A 
ATOM      6  C6  BNZ d   1       1.529  -0.000  -2.055  0.00  0.00     0.000 A 
ENDROOT
TORSDOF 0
ENDMDL
