MODEL 1
REMARK minimizedAffinity -2.62186718
REMARK minimizedRMSD -1
REMARK  0 active torsions:
REMARK  status: ('A' for Active; 'I' for Inactive)
ROOT
ATOM      1  C1  BNZ d   1      -4.350   3.348  -5.998  0.00  0.00     0.000 A 
ATOM      2  C2  BNZ d   1      -3.378   4.312  -5.999  0.00  0.00     0.000 A 
ATOM      3  C3  BNZ d   1      -3.706   5.637  -5.941  0.00  0.00     0.000 A 
ATOM      4  C4  BNZ d   1      -5.005   5.998  -5.922  0.00  0.00     0.000 A 
ATOM      5  C5  BNZ d   1      -5.998   5.038  -5.929  0.00  0.00     0.000 A 
ATOM      6  C6  BNZ d   1      -5.663   3.704  -5.949  0.00  0.00     0.000 A 
ENDROOT
TORSDOF 0
ENDMDL
