MODEL 1
REMARK minimizedAffinity -3.03987002
REMARK minimizedRMSD -1
REMARK  0 active torsions:
REMARK  status: ('A' for Active; 'I' for Inactive)
ROOT
ATOM      1  C1  BNZ d   1      -3.710   2.126   2.582  0.00  0.00     0.000 A 
ATOM      2  C2  BNZ d   1      -4.562   1.334   1.859  0.00  0.00     0.000 A 
ATOM      3  C3  BNZ d   1      -4.238   0.038   1.570  0.00  0.00     0.000 A 
ATOM      4  C4  BNZ d   1      -3.046  -0.452   1.969  0.00  0.00     0.000 A 
ATOM      5  C5  BNZ d   1      -2.172   0.337   2.691  0.00  0.00     0.000 A 
ATOM      6  C6  BNZ d   1      -2.519   1.629   3.013  0.00  0.00     0.000 A 
ENDROOT
TORSDOF 0
ENDMDL
