MODEL 1
REMARK minimizedAffinity 0.763738871
REMARK minimizedRMSD -1
REMARK  0 active torsions:
REMARK  status: ('A' for Active; 'I' for Inactive)
ROOT
ATOM      1  C1  BNZ d   1      -3.926   5.702  -5.998  0.00  0.00     0.000 A 
ATOM      2  C2  BNZ d   1      -5.182   5.156  -6.000  0.00  0.00     0.000 A 
ATOM      3  C3  BNZ d   1      -5.363   3.814  -5.810  0.00  0.00     0.000 A 
ATOM      4  C4  BNZ d   1      -4.287   3.015  -5.660  0.00  0.00     0.000 A 
ATOM      5  C5  BNZ d   1      -3.013   3.549  -5.665  0.00  0.00     0.000 A 
ATOM      6  C6  BNZ d   1      -2.837   4.905  -5.818  0.00  0.00     0.000 A 
ENDROOT
TORSDOF 0
ENDMDL
