MODEL 1
REMARK minimizedAffinity 6.14296484
REMARK minimizedRMSD -1
REMARK  0 active torsions:
REMARK  status: ('A' for Active; 'I' for Inactive)
ROOT
ATOM      1  C1  BNZ d   1       3.339  -1.137  -0.498  0.00  0.00     0.000 A 
ATOM      2  C2  BNZ d   1       2.028  -1.448  -0.738  0.00  0.00     0.000 A 
ATOM      3  C3  BNZ d   1       1.189  -0.542  -1.323  0.00  0.00     0.000 A 
ATOM      4  C4  BNZ d   1       1.651   0.688  -1.630  0.00  0.00     0.000 A 
ATOM      5  C5  BNZ d   1       2.968   1.020  -1.385  0.00  0.00     0.000 A 
ATOM      6  C6  BNZ d   1       3.820   0.092  -0.832  0.00  0.00     0.000 A 
ENDROOT
TORSDOF 0
ENDMDL
