MODEL 1
REMARK minimizedAffinity 2.68373752
REMARK minimizedRMSD -1
REMARK  0 active torsions:
REMARK  status: ('A' for Active; 'I' for Inactive)
ROOT
ATOM      1  C1  BNZ d   1       5.978  -2.568   4.837  0.00  0.00     0.000 A 
ATOM      2  C2  BNZ d   1       5.347  -2.976   3.693  0.00  0.00     0.000 A 
ATOM      3  C3  BNZ d   1       4.520  -4.065   3.700  0.00  0.00     0.000 A 
ATOM      4  C4  BNZ d   1       4.358  -4.766   4.840  0.00  0.00     0.000 A 
ATOM      5  C5  BNZ d   1       4.995  -4.373   6.000  0.00  0.00     0.000 A 
ATOM      6  C6  BNZ d   1       5.796  -3.254   5.998  0.00  0.00     0.000 A 
ENDROOT
TORSDOF 0
ENDMDL
