MODEL 1
REMARK minimizedAffinity 7.98446846
REMARK minimizedRMSD -1
REMARK  0 active torsions:
REMARK  status: ('A' for Active; 'I' for Inactive)
ROOT
ATOM      1  C1  BNZ d   1      -5.991  -0.833  -4.309  0.00  0.00     0.000 A 
ATOM      2  C2  BNZ d   1      -5.234  -1.839  -3.772  0.00  0.00     0.000 A 
ATOM      3  C3  BNZ d   1      -4.488  -1.629  -2.646  0.00  0.00     0.000 A 
ATOM      4  C4  BNZ d   1      -4.468  -0.404  -2.083  0.00  0.00     0.000 A 
ATOM      5  C5  BNZ d   1      -5.219   0.624  -2.619  0.00  0.00     0.000 A 
ATOM      6  C6  BNZ d   1      -5.999   0.398  -3.729  0.00  0.00     0.000 A 
ENDROOT
TORSDOF 0
ENDMDL
