MODEL 1
REMARK minimizedAffinity -0.521184027
REMARK minimizedRMSD -1
REMARK  0 active torsions:
REMARK  status: ('A' for Active; 'I' for Inactive)
ROOT
ATOM      1  C1  BNZ d   1       3.792  -2.833   0.148  0.00  0.00     0.000 A 
ATOM      2  C2  BNZ d   1       3.156  -1.688  -0.252  0.00  0.00     0.000 A 
ATOM      3  C3  BNZ d   1       3.862  -0.541  -0.487  0.00  0.00     0.000 A 
ATOM      4  C4  BNZ d   1       5.195  -0.530  -0.284  0.00  0.00     0.000 A 
ATOM      5  C5  BNZ d   1       5.849  -1.674   0.128  0.00  0.00     0.000 A 
ATOM      6  C6  BNZ d   1       5.141  -2.837   0.326  0.00  0.00     0.000 A 
ENDROOT
TORSDOF 0
ENDMDL
