MODEL 1
REMARK minimizedAffinity -1.95123935
REMARK minimizedRMSD -1
REMARK  0 active torsions:
REMARK  status: ('A' for Active; 'I' for Inactive)
ROOT
ATOM      1  C1  BNZ d   1       2.117  -1.758   0.270  0.00  0.00     0.000 A 
ATOM      2  C2  BNZ d   1       2.932  -2.830   0.025  0.00  0.00     0.000 A 
ATOM      3  C3  BNZ d   1       3.026  -3.858   0.922  0.00  0.00     0.000 A 
ATOM      4  C4  BNZ d   1       2.337  -3.792   2.080  0.00  0.00     0.000 A 
ATOM      5  C5  BNZ d   1       1.518  -2.713   2.346  0.00  0.00     0.000 A 
ATOM      6  C6  BNZ d   1       1.396  -1.699   1.423  0.00  0.00     0.000 A 
ENDROOT
TORSDOF 0
ENDMDL
