MODEL 1
REMARK minimizedAffinity 2.89293599
REMARK minimizedRMSD -1
REMARK  0 active torsions:
REMARK  status: ('A' for Active; 'I' for Inactive)
ROOT
ATOM      1  C1  BNZ d   1       5.068  -4.571   4.835  0.00  0.00     0.000 A 
ATOM      2  C2  BNZ d   1       5.443  -3.935   5.989  0.00  0.00     0.000 A 
ATOM      3  C3  BNZ d   1       5.802  -2.616   5.976  0.00  0.00     0.000 A 
ATOM      4  C4  BNZ d   1       5.825  -1.947   4.806  0.00  0.00     0.000 A 
ATOM      5  C5  BNZ d   1       5.460  -2.576   3.633  0.00  0.00     0.000 A 
ATOM      6  C6  BNZ d   1       5.061  -3.893   3.655  0.00  0.00     0.000 A 
ENDROOT
TORSDOF 0
ENDMDL
