MODEL 1
REMARK minimizedAffinity -0.261790574
REMARK minimizedRMSD -1
REMARK  0 active torsions:
REMARK  status: ('A' for Active; 'I' for Inactive)
ROOT
ATOM      1  C1  BNZ d   1       1.303   3.617   4.119  0.00  0.00     0.000 A 
ATOM      2  C2  BNZ d   1       0.758   4.804   4.532  0.00  0.00     0.000 A 
ATOM      3  C3  BNZ d   1       1.328   5.995   4.182  0.00  0.00     0.000 A 
ATOM      4  C4  BNZ d   1       2.463   5.998   3.454  0.00  0.00     0.000 A 
ATOM      5  C5  BNZ d   1       3.030   4.810   3.038  0.00  0.00     0.000 A 
ATOM      6  C6  BNZ d   1       2.431   3.614   3.360  0.00  0.00     0.000 A 
ENDROOT
TORSDOF 0
ENDMDL
