MODEL 1
REMARK minimizedAffinity -1.49108434
REMARK minimizedRMSD -1
REMARK  0 active torsions:
REMARK  status: ('A' for Active; 'I' for Inactive)
ROOT
ATOM      1  C1  BNZ d   1       1.273  -2.658   1.268  0.00  0.00     0.000 A 
ATOM      2  C2  BNZ d   1       0.477  -1.810   1.991  0.00  0.00     0.000 A 
ATOM      3  C3  BNZ d   1      -0.204  -2.255   3.089  0.00  0.00     0.000 A 
ATOM      4  C4  BNZ d   1      -0.121  -3.555   3.439  0.00  0.00     0.000 A 
ATOM      5  C5  BNZ d   1       0.670  -4.424   2.715  0.00  0.00     0.000 A 
ATOM      6  C6  BNZ d   1       1.385  -3.964   1.633  0.00  0.00     0.000 A 
ENDROOT
TORSDOF 0
ENDMDL
