MODEL 1
REMARK minimizedAffinity 1.0999577
REMARK minimizedRMSD -1
REMARK  0 active torsions:
REMARK  status: ('A' for Active; 'I' for Inactive)
ROOT
ATOM      1  C1  BNZ d   1       2.318   1.170  -2.130  0.00  0.00     0.000 A 
ATOM      2  C2  BNZ d   1       1.467   0.099  -2.058  0.00  0.00     0.000 A 
ATOM      3  C3  BNZ d   1       1.589  -0.826  -1.060  0.00  0.00     0.000 A 
ATOM      4  C4  BNZ d   1       2.585  -0.702  -0.159  0.00  0.00     0.000 A 
ATOM      5  C5  BNZ d   1       3.457   0.367  -0.223  0.00  0.00     0.000 A 
ATOM      6  C6  BNZ d   1       3.307   1.318  -1.207  0.00  0.00     0.000 A 
ENDROOT
TORSDOF 0
ENDMDL
