MODEL 1
REMARK minimizedAffinity 8.71774006
REMARK minimizedRMSD -1
REMARK  1 active torsions:
REMARK  status: ('A' for Active; 'I' for Inactive)
REMARK    1  A    between atoms: N_2  and  C1_3 
ROOT
ATOM      1  C1  UNL d   1      -1.769   2.562   1.711  0.00  0.00     0.143 A 
ATOM      2  C2  UNL d   1      -1.980   1.847   0.527  0.00  0.00    -0.057 A 
ATOM      3  C3  UNL d   1      -0.963   1.074  -0.045  0.00  0.00     0.033 A 
ATOM      4  C4  UNL d   1       0.297   1.026   0.542  0.00  0.00    -0.042 A 
ATOM      5  C5  UNL d   1       0.537   1.749   1.705  0.00  0.00     0.033 A 
ATOM      6  C6  UNL d   1      -0.485   2.514   2.276  0.00  0.00    -0.057 A 
ENDROOT
BRANCH   1   7
ATOM      7  N   UNL d   1      -2.709   3.427   2.276  0.00  0.00    -0.732 N 
ATOM      8  C   UNL d   1      -2.978   4.717   1.677  0.00  0.00     0.284 C 
ATOM      9  H3  UNL d   1      -3.540   2.938   2.601  0.00  0.00     0.395 HD
ENDBRANCH   1   7
TORSDOF 1
ENDMDL
