MODEL 1
REMARK minimizedAffinity 8.5031805
REMARK minimizedRMSD -1
REMARK  1 active torsions:
REMARK  status: ('A' for Active; 'I' for Inactive)
REMARK    1  A    between atoms: N_2  and  C1_3 
ROOT
ATOM      1  C1  UNL d   1      -1.846   2.972   0.643  0.00  0.00     0.143 A 
ATOM      2  C2  UNL d   1      -1.888   3.277  -0.722  0.00  0.00    -0.057 A 
ATOM      3  C3  UNL d   1      -0.790   3.030  -1.555  0.00  0.00     0.033 A 
ATOM      4  C4  UNL d   1       0.384   2.499  -1.029  0.00  0.00    -0.042 A 
ATOM      5  C5  UNL d   1       0.457   2.212   0.329  0.00  0.00     0.033 A 
ATOM      6  C6  UNL d   1      -0.645   2.455   1.154  0.00  0.00    -0.057 A 
ENDROOT
BRANCH   1   7
ATOM      7  N   UNL d   1      -2.869   3.286   1.542  0.00  0.00    -0.732 N 
ATOM      8  C   UNL d   1      -3.586   4.538   1.435  0.00  0.00     0.284 C 
ATOM      9  H3  UNL d   1      -3.460   2.485   1.751  0.00  0.00     0.395 HD
ENDBRANCH   1   7
TORSDOF 1
ENDMDL
