MODEL 1
REMARK minimizedAffinity 11.0415211
REMARK minimizedRMSD -1
REMARK  1 active torsions:
REMARK  status: ('A' for Active; 'I' for Inactive)
REMARK    1  A    between atoms: N_2  and  C1_3 
ROOT
ATOM      1  C1  UNL d   1      -1.500   1.775  -2.018  0.00  0.00     0.143 A 
ATOM      2  C2  UNL d   1      -2.381   2.023  -3.076  0.00  0.00    -0.057 A 
ATOM      3  C3  UNL d   1      -3.700   1.554  -3.047  0.00  0.00     0.033 A 
ATOM      4  C4  UNL d   1      -4.154   0.801  -1.969  0.00  0.00    -0.042 A 
ATOM      5  C5  UNL d   1      -3.288   0.522  -0.918  0.00  0.00     0.033 A 
ATOM      6  C6  UNL d   1      -1.974   0.998  -0.949  0.00  0.00    -0.057 A 
ENDROOT
BRANCH   1   7
ATOM      7  N   UNL d   1      -0.149   2.130  -2.031  0.00  0.00    -0.732 N 
ATOM      8  C   UNL d   1       0.248   3.521  -2.095  0.00  0.00     0.284 C 
ATOM      9  H3  UNL d   1       0.407   1.569  -1.390  0.00  0.00     0.395 HD
ENDBRANCH   1   7
TORSDOF 1
ENDMDL
