MODEL 1
REMARK minimizedAffinity 3.94419289
REMARK minimizedRMSD -1
REMARK  1 active torsions:
REMARK  status: ('A' for Active; 'I' for Inactive)
REMARK    1  A    between atoms: N_2  and  C1_3 
ROOT
ATOM      1  C1  UNL d   1      -0.938   1.307  -0.966  0.00  0.00     0.143 A 
ATOM      2  C2  UNL d   1      -2.281   0.924  -1.053  0.00  0.00    -0.057 A 
ATOM      3  C3  UNL d   1      -2.643  -0.415  -1.245  0.00  0.00     0.033 A 
ATOM      4  C4  UNL d   1      -1.664  -1.393  -1.383  0.00  0.00    -0.042 A 
ATOM      5  C5  UNL d   1      -0.323  -1.032  -1.326  0.00  0.00     0.033 A 
ATOM      6  C6  UNL d   1       0.032   0.306  -1.127  0.00  0.00    -0.057 A 
ENDROOT
BRANCH   1   7
ATOM      7  N   UNL d   1      -0.512   2.635  -0.875  0.00  0.00    -0.732 N 
ATOM      8  C   UNL d   1      -0.130   3.200   0.401  0.00  0.00     0.284 C 
ATOM      9  H3  UNL d   1       0.095   2.902  -1.646  0.00  0.00     0.395 HD
ENDBRANCH   1   7
TORSDOF 1
ENDMDL
