MODEL 1
REMARK minimizedAffinity 8.90674686
REMARK minimizedRMSD -1
REMARK  1 active torsions:
REMARK  status: ('A' for Active; 'I' for Inactive)
REMARK    1  A    between atoms: N_2  and  C1_3 
ROOT
ATOM      1  C1  UNL d   1       0.766   0.409   3.195  0.00  0.00     0.143 A 
ATOM      2  C2  UNL d   1      -0.507   0.956   3.004  0.00  0.00    -0.057 A 
ATOM      3  C3  UNL d   1      -0.671   2.279   2.576  0.00  0.00     0.033 A 
ATOM      4  C4  UNL d   1       0.438   3.090   2.359  0.00  0.00    -0.042 A 
ATOM      5  C5  UNL d   1       1.713   2.574   2.567  0.00  0.00     0.033 A 
ATOM      6  C6  UNL d   1       1.871   1.250   2.988  0.00  0.00    -0.057 A 
ENDROOT
BRANCH   1   7
ATOM      7  N   UNL d   1       0.994  -0.868   3.713  0.00  0.00    -0.732 N 
ATOM      8  C   UNL d   1       0.397  -1.271   4.969  0.00  0.00     0.284 C 
ATOM      9  H3  UNL d   1       0.976  -1.588   2.995  0.00  0.00     0.395 HD
ENDBRANCH   1   7
TORSDOF 1
ENDMDL
