MODEL 1
REMARK minimizedAffinity 3.56786299
REMARK minimizedRMSD -1
REMARK  1 active torsions:
REMARK  status: ('A' for Active; 'I' for Inactive)
REMARK    1  A    between atoms: C1_2  and  C2_3 
ROOT
ATOM      1  C2  UNL d   1      -1.111  -2.478   0.157  0.00  0.00    -0.077 A 
ATOM      2  C3  UNL d   1      -2.409  -2.031  -0.130  0.00  0.00     0.002 A 
ATOM      3  C4  UNL d   1      -3.456  -2.943  -0.268  0.00  0.00     0.002 A 
ATOM      4  C5  UNL d   1      -3.218  -4.308  -0.116  0.00  0.00    -0.004 A 
ATOM      5  C6  UNL d   1      -1.931  -4.763   0.167  0.00  0.00     0.002 A 
ATOM      6  C7  UNL d   1      -0.882  -3.852   0.304  0.00  0.00     0.002 A 
ENDROOT
BRANCH   1   7
ATOM      7  C1  UNL d   1       0.010  -1.491   0.354  0.00  0.00     0.055 C 
ATOM      8  C   UNL d   1       0.049  -0.466  -0.770  0.00  0.00     0.019 C 
ENDBRANCH   1   7
TORSDOF 1
ENDMDL
