MODEL 1
REMARK minimizedAffinity 2.7229898
REMARK minimizedRMSD -1
REMARK  1 active torsions:
REMARK  status: ('A' for Active; 'I' for Inactive)
REMARK    1  A    between atoms: C1_2  and  C2_3 
ROOT
ATOM      1  C2  UNL d   1       5.359   1.267   4.965  0.00  0.00    -0.077 A 
ATOM      2  C3  UNL d   1       4.874   1.149   3.655  0.00  0.00     0.002 A 
ATOM      3  C4  UNL d   1       4.950   2.229   2.773  0.00  0.00     0.002 A 
ATOM      4  C5  UNL d   1       5.514   3.432   3.191  0.00  0.00    -0.004 A 
ATOM      5  C6  UNL d   1       5.997   3.561   4.492  0.00  0.00     0.002 A 
ATOM      6  C7  UNL d   1       5.921   2.483   5.375  0.00  0.00     0.002 A 
ENDROOT
BRANCH   1   7
ATOM      7  C1  UNL d   1       5.322   0.088   5.902  0.00  0.00     0.055 C 
ATOM      8  C   UNL d   1       5.634  -1.210   5.171  0.00  0.00     0.019 C 
ENDBRANCH   1   7
TORSDOF 1
ENDMDL
