MODEL 1
REMARK minimizedAffinity 1.65338719
REMARK minimizedRMSD -1
REMARK  1 active torsions:
REMARK  status: ('A' for Active; 'I' for Inactive)
REMARK    1  A    between atoms: C1_2  and  C2_3 
ROOT
ATOM      1  C2  UNL d   1       3.942   5.312  -0.752  0.00  0.00    -0.077 A 
ATOM      2  C3  UNL d   1       4.197   5.953   0.468  0.00  0.00     0.002 A 
ATOM      3  C4  UNL d   1       3.925   5.307   1.676  0.00  0.00     0.002 A 
ATOM      4  C5  UNL d   1       3.400   4.017   1.675  0.00  0.00    -0.004 A 
ATOM      5  C6  UNL d   1       3.140   3.371   0.467  0.00  0.00     0.002 A 
ATOM      6  C7  UNL d   1       3.411   4.016  -0.741  0.00  0.00     0.002 A 
ENDROOT
BRANCH   1   7
ATOM      7  C1  UNL d   1       4.281   5.988  -2.055  0.00  0.00     0.055 C 
ATOM      8  C   UNL d   1       5.783   5.997  -2.299  0.00  0.00     0.019 C 
ENDBRANCH   1   7
TORSDOF 1
ENDMDL
