MODEL 1
REMARK minimizedAffinity 3.52080297
REMARK minimizedRMSD -1
REMARK  1 active torsions:
REMARK  status: ('A' for Active; 'I' for Inactive)
REMARK    1  A    between atoms: C1_2  and  C2_3 
ROOT
ATOM      1  C2  UNL d   1       5.357  -1.900   3.253  0.00  0.00    -0.077 A 
ATOM      2  C3  UNL d   1       5.903  -0.952   4.130  0.00  0.00     0.002 A 
ATOM      3  C4  UNL d   1       5.999  -1.226   5.495  0.00  0.00     0.002 A 
ATOM      4  C5  UNL d   1       5.556  -2.448   5.996  0.00  0.00    -0.004 A 
ATOM      5  C6  UNL d   1       5.009  -3.397   5.133  0.00  0.00     0.002 A 
ATOM      6  C7  UNL d   1       4.911  -3.124   3.767  0.00  0.00     0.002 A 
ENDROOT
BRANCH   1   7
ATOM      7  C1  UNL d   1       5.297  -1.626   1.773  0.00  0.00     0.055 C 
ATOM      8  C   UNL d   1       3.908  -1.169   1.350  0.00  0.00     0.019 C 
ENDBRANCH   1   7
TORSDOF 1
ENDMDL
