MODEL 1
REMARK minimizedAffinity 0.863550901
REMARK minimizedRMSD -1
REMARK  1 active torsions:
REMARK  status: ('A' for Active; 'I' for Inactive)
REMARK    1  A    between atoms: C1_2  and  C2_3 
ROOT
ATOM      1  C2  UNL d   1      -0.852  -2.273  -0.644  0.00  0.00    -0.077 A 
ATOM      2  C3  UNL d   1      -1.096  -3.629  -0.899  0.00  0.00     0.002 A 
ATOM      3  C4  UNL d   1      -2.362  -4.055  -1.305  0.00  0.00     0.002 A 
ATOM      4  C5  UNL d   1      -3.393  -3.131  -1.463  0.00  0.00    -0.004 A 
ATOM      5  C6  UNL d   1      -3.160  -1.780  -1.210  0.00  0.00     0.002 A 
ATOM      6  C7  UNL d   1      -1.896  -1.352  -0.803  0.00  0.00     0.002 A 
ENDROOT
BRANCH   1   7
ATOM      7  C1  UNL d   1       0.526  -1.805  -0.254  0.00  0.00     0.055 C 
ATOM      8  C   UNL d   1       1.605  -2.599  -0.976  0.00  0.00     0.019 C 
ENDBRANCH   1   7
TORSDOF 1
ENDMDL
