MODEL 1
REMARK minimizedAffinity 7.89415741
REMARK minimizedRMSD -1
REMARK  1 active torsions:
REMARK  status: ('A' for Active; 'I' for Inactive)
REMARK    1  A    between atoms: C1_2  and  C2_3 
ROOT
ATOM      1  C2  UNL d   1       1.817   2.321  -0.010  0.00  0.00    -0.077 A 
ATOM      2  C3  UNL d   1       0.619   2.967   0.329  0.00  0.00     0.002 A 
ATOM      3  C4  UNL d   1      -0.610   2.368   0.049  0.00  0.00     0.002 A 
ATOM      4  C5  UNL d   1      -0.654   1.119  -0.567  0.00  0.00    -0.004 A 
ATOM      5  C6  UNL d   1       0.531   0.470  -0.910  0.00  0.00     0.002 A 
ATOM      6  C7  UNL d   1       1.761   1.068  -0.632  0.00  0.00     0.002 A 
ENDROOT
BRANCH   1   7
ATOM      7  C1  UNL d   1       3.144   2.944   0.336  0.00  0.00     0.055 C 
ATOM      8  C   UNL d   1       3.610   3.897  -0.755  0.00  0.00     0.019 C 
ENDBRANCH   1   7
TORSDOF 1
ENDMDL
