MODEL 1
REMARK minimizedAffinity -2.77312231
REMARK minimizedRMSD -1
REMARK  1 active torsions:
REMARK  status: ('A' for Active; 'I' for Inactive)
REMARK    1  A    between atoms: C1_2  and  C2_3 
ROOT
ATOM      1  C2  UNL d   1       4.800   4.632   1.458  0.00  0.00    -0.077 A 
ATOM      2  C3  UNL d   1       5.295   3.500   2.120  0.00  0.00     0.002 A 
ATOM      3  C4  UNL d   1       5.879   3.620   3.383  0.00  0.00     0.002 A 
ATOM      4  C5  UNL d   1       5.968   4.868   3.995  0.00  0.00    -0.004 A 
ATOM      5  C6  UNL d   1       5.480   6.000   3.344  0.00  0.00     0.002 A 
ATOM      6  C7  UNL d   1       4.898   5.883   2.081  0.00  0.00     0.002 A 
ENDROOT
BRANCH   1   7
ATOM      7  C1  UNL d   1       4.126   4.498   0.117  0.00  0.00     0.055 C 
ATOM      8  C   UNL d   1       3.315   3.213   0.031  0.00  0.00     0.019 C 
ENDBRANCH   1   7
TORSDOF 1
ENDMDL
