MODEL 1
REMARK minimizedAffinity 1.99374568
REMARK minimizedRMSD -1
REMARK  1 active torsions:
REMARK  status: ('A' for Active; 'I' for Inactive)
REMARK    1  A    between atoms: C1_2  and  C2_3 
ROOT
ATOM      1  C2  UNL d   1       5.965   0.363   4.901  0.00  0.00    -0.077 A 
ATOM      2  C3  UNL d   1       5.999   1.270   5.970  0.00  0.00     0.002 A 
ATOM      3  C4  UNL d   1       5.988   2.646   5.728  0.00  0.00     0.002 A 
ATOM      4  C5  UNL d   1       5.940   3.125   4.421  0.00  0.00    -0.004 A 
ATOM      5  C6  UNL d   1       5.909   2.230   3.352  0.00  0.00     0.002 A 
ATOM      6  C7  UNL d   1       5.920   0.856   3.591  0.00  0.00     0.002 A 
ENDROOT
BRANCH   1   7
ATOM      7  C1  UNL d   1       5.927  -1.121   5.161  0.00  0.00     0.055 C 
ATOM      8  C   UNL d   1       4.715  -1.505   5.998  0.00  0.00     0.019 C 
ENDBRANCH   1   7
TORSDOF 1
ENDMDL
