MODEL 1
REMARK minimizedAffinity -0.0168727487
REMARK minimizedRMSD -1
REMARK  1 active torsions:
REMARK  status: ('A' for Active; 'I' for Inactive)
REMARK    1  A    between atoms: C1_2  and  C2_3 
ROOT
ATOM      1  C2  UNL d   1      -0.763  -3.385  -0.522  0.00  0.00    -0.077 A 
ATOM      2  C3  UNL d   1      -1.085  -4.735  -0.325  0.00  0.00     0.002 A 
ATOM      3  C4  UNL d   1      -2.371  -5.202  -0.605  0.00  0.00     0.002 A 
ATOM      4  C5  UNL d   1      -3.342  -4.328  -1.089  0.00  0.00    -0.004 A 
ATOM      5  C6  UNL d   1      -3.031  -2.983  -1.287  0.00  0.00     0.002 A 
ATOM      6  C7  UNL d   1      -1.747  -2.514  -1.006  0.00  0.00     0.002 A 
ENDROOT
BRANCH   1   7
ATOM      7  C1  UNL d   1       0.637  -2.889  -0.267  0.00  0.00     0.055 C 
ATOM      8  C   UNL d   1       0.697  -1.369  -0.282  0.00  0.00     0.019 C 
ENDBRANCH   1   7
TORSDOF 1
ENDMDL
