MODEL 1
REMARK minimizedAffinity -4.02034521
REMARK minimizedRMSD -1
REMARK  1 active torsions:
REMARK  status: ('A' for Active; 'I' for Inactive)
REMARK    1  A    between atoms: C1_2  and  C2_3 
ROOT
ATOM      1  C2  UNL d   1       5.508   0.499   3.594  0.00  0.00    -0.077 A 
ATOM      2  C3  UNL d   1       5.348   0.715   4.970  0.00  0.00     0.002 A 
ATOM      3  C4  UNL d   1       5.385  -0.358   5.863  0.00  0.00     0.002 A 
ATOM      4  C5  UNL d   1       5.587  -1.653   5.390  0.00  0.00    -0.004 A 
ATOM      5  C6  UNL d   1       5.745  -1.878   4.023  0.00  0.00     0.002 A 
ATOM      6  C7  UNL d   1       5.707  -0.807   3.129  0.00  0.00     0.002 A 
ENDROOT
BRANCH   1   7
ATOM      7  C1  UNL d   1       5.517   1.661   2.635  0.00  0.00     0.055 C 
ATOM      8  C   UNL d   1       5.715   2.981   3.367  0.00  0.00     0.019 C 
ENDBRANCH   1   7
TORSDOF 1
ENDMDL
