MODEL 1
REMARK minimizedAffinity -4.35414886
REMARK minimizedRMSD -1
REMARK  1 active torsions:
REMARK  status: ('A' for Active; 'I' for Inactive)
REMARK    1  A    between atoms: C1_2  and  C2_3 
ROOT
ATOM      1  C2  UNL d   1       1.814  -0.306  -3.209  0.00  0.00    -0.077 A 
ATOM      2  C3  UNL d   1       1.130  -0.019  -2.020  0.00  0.00     0.002 A 
ATOM      3  C4  UNL d   1       1.015  -0.987  -1.020  0.00  0.00     0.002 A 
ATOM      4  C5  UNL d   1       1.586  -2.245  -1.197  0.00  0.00    -0.004 A 
ATOM      5  C6  UNL d   1       2.267  -2.541  -2.378  0.00  0.00     0.002 A 
ATOM      6  C7  UNL d   1       2.382  -1.575  -3.379  0.00  0.00     0.002 A 
ENDROOT
BRANCH   1   7
ATOM      7  C1  UNL d   1       1.981   0.752  -4.268  0.00  0.00     0.055 C 
ATOM      8  C   UNL d   1       3.019   0.342  -5.303  0.00  0.00     0.019 C 
ENDBRANCH   1   7
TORSDOF 1
ENDMDL
