MODEL 1
REMARK minimizedAffinity 2.16542697
REMARK minimizedRMSD -1
REMARK  1 active torsions:
REMARK  status: ('A' for Active; 'I' for Inactive)
REMARK    1  A    between atoms: C1_2  and  C2_3 
ROOT
ATOM      1  C2  UNL d   1       4.257   4.894   0.400  0.00  0.00    -0.077 A 
ATOM      2  C3  UNL d   1       3.919   5.997   1.197  0.00  0.00     0.002 A 
ATOM      3  C4  UNL d   1       4.199   5.993   2.565  0.00  0.00     0.002 A 
ATOM      4  C5  UNL d   1       4.823   4.891   3.146  0.00  0.00    -0.004 A 
ATOM      5  C6  UNL d   1       5.162   3.788   2.362  0.00  0.00     0.002 A 
ATOM      6  C7  UNL d   1       4.881   3.791   0.995  0.00  0.00     0.002 A 
ENDROOT
BRANCH   1   7
ATOM      7  C1  UNL d   1       4.001   4.917  -1.084  0.00  0.00     0.055 C 
ATOM      8  C   UNL d   1       5.260   5.278  -1.859  0.00  0.00     0.019 C 
ENDBRANCH   1   7
TORSDOF 1
ENDMDL
