MODEL 1
REMARK minimizedAffinity -3.19859457
REMARK minimizedRMSD -1
REMARK  0 active torsions:
REMARK  status: ('A' for Active; 'I' for Inactive)
ROOT
ATOM      1  C1  BNZ d   1       1.888  -0.717  -0.156  0.00  0.00     0.000 A 
ATOM      2  C2  BNZ d   1       3.068  -0.663  -0.850  0.00  0.00     0.000 A 
ATOM      3  C3  BNZ d   1       3.706   0.529  -1.052  0.00  0.00     0.000 A 
ATOM      4  C4  BNZ d   1       3.145   1.668  -0.597  0.00  0.00     0.000 A 
ATOM      5  C5  BNZ d   1       1.951   1.630   0.096  0.00  0.00     0.000 A 
ATOM      6  C6  BNZ d   1       1.331   0.425   0.332  0.00  0.00     0.000 A 
ENDROOT
TORSDOF 0
ENDMDL
