MODEL 1
REMARK minimizedAffinity -5.1729064
REMARK minimizedRMSD -1
REMARK  0 active torsions:
REMARK  status: ('A' for Active; 'I' for Inactive)
ROOT
ATOM      1  C1  BNZ d   1       1.665  -0.918  -0.733  0.00  0.00     0.000 A 
ATOM      2  C2  BNZ d   1       2.847  -0.804  -1.415  0.00  0.00     0.000 A 
ATOM      3  C3  BNZ d   1       3.535   0.377  -1.430  0.00  0.00     0.000 A 
ATOM      4  C4  BNZ d   1       3.021   1.452  -0.798  0.00  0.00     0.000 A 
ATOM      5  C5  BNZ d   1       1.826   1.355  -0.114  0.00  0.00     0.000 A 
ATOM      6  C6  BNZ d   1       1.155   0.155  -0.069  0.00  0.00     0.000 A 
ENDROOT
TORSDOF 0
ENDMDL
