MODEL 1
REMARK minimizedAffinity 1.02516842
REMARK minimizedRMSD -1
REMARK  0 active torsions:
REMARK  status: ('A' for Active; 'I' for Inactive)
ROOT
ATOM      1  C1  BNZ d   1       2.870   0.895   0.917  0.00  0.00     0.000 A 
ATOM      2  C2  BNZ d   1       1.902  -0.032   0.637  0.00  0.00     0.000 A 
ATOM      3  C3  BNZ d   1       1.721  -0.493  -0.637  0.00  0.00     0.000 A 
ATOM      4  C4  BNZ d   1       2.481   0.002  -1.635  0.00  0.00     0.000 A 
ATOM      5  C5  BNZ d   1       3.455   0.944  -1.371  0.00  0.00     0.000 A 
ATOM      6  C6  BNZ d   1       3.661   1.377  -0.081  0.00  0.00     0.000 A 
ENDROOT
TORSDOF 0
ENDMDL
