MODEL 1
REMARK minimizedAffinity -3.14615917
REMARK minimizedRMSD -1
REMARK  0 active torsions:
REMARK  status: ('A' for Active; 'I' for Inactive)
ROOT
ATOM      1  C1  BNZ d   1       1.754  -0.625  -0.161  0.00  0.00     0.000 A 
ATOM      2  C2  BNZ d   1       1.461   0.604   0.366  0.00  0.00     0.000 A 
ATOM      3  C3  BNZ d   1       2.208   1.702   0.039  0.00  0.00     0.000 A 
ATOM      4  C4  BNZ d   1       3.269   1.561  -0.782  0.00  0.00     0.000 A 
ATOM      5  C5  BNZ d   1       3.583   0.326  -1.313  0.00  0.00     0.000 A 
ATOM      6  C6  BNZ d   1       2.805  -0.769  -1.012  0.00  0.00     0.000 A 
ENDROOT
TORSDOF 0
ENDMDL
