MODEL 1
REMARK minimizedAffinity 2.45175576
REMARK minimizedRMSD -1
REMARK  0 active torsions:
REMARK  status: ('A' for Active; 'I' for Inactive)
ROOT
ATOM      1  C1  BNZ d   1       3.656   3.074  -0.179  0.00  0.00     0.000 A 
ATOM      2  C2  BNZ d   1       2.439   2.486   0.037  0.00  0.00     0.000 A 
ATOM      3  C3  BNZ d   1       2.238   1.165  -0.253  0.00  0.00     0.000 A 
ATOM      4  C4  BNZ d   1       3.242   0.446  -0.796  0.00  0.00     0.000 A 
ATOM      5  C5  BNZ d   1       4.472   1.027  -1.029  0.00  0.00     0.000 A 
ATOM      6  C6  BNZ d   1       4.682   2.347  -0.699  0.00  0.00     0.000 A 
ENDROOT
TORSDOF 0
ENDMDL
