MODEL 1
REMARK minimizedAffinity -0.745045483
REMARK minimizedRMSD -1
REMARK  0 active torsions:
REMARK  status: ('A' for Active; 'I' for Inactive)
ROOT
ATOM      1  C1  BNZ d   1       1.090   0.877  -0.271  0.00  0.00     0.000 A 
ATOM      2  C2  BNZ d   1       2.152   1.730  -0.416  0.00  0.00     0.000 A 
ATOM      3  C3  BNZ d   1       3.385   1.259  -0.771  0.00  0.00     0.000 A 
ATOM      4  C4  BNZ d   1       3.564  -0.067  -0.942  0.00  0.00     0.000 A 
ATOM      5  C5  BNZ d   1       2.506  -0.940  -0.791  0.00  0.00     0.000 A 
ATOM      6  C6  BNZ d   1       1.257  -0.459  -0.472  0.00  0.00     0.000 A 
ENDROOT
TORSDOF 0
ENDMDL
