MODEL 1
REMARK minimizedAffinity 2.41100836
REMARK minimizedRMSD -1
REMARK  0 active torsions:
REMARK  status: ('A' for Active; 'I' for Inactive)
ROOT
ATOM      1  C1  BNZ d   1       5.065   2.045  -1.887  0.00  0.00     0.000 A 
ATOM      2  C2  BNZ d   1       3.745   1.869  -2.207  0.00  0.00     0.000 A 
ATOM      3  C3  BNZ d   1       2.929   1.108  -1.419  0.00  0.00     0.000 A 
ATOM      4  C4  BNZ d   1       3.442   0.490  -0.335  0.00  0.00     0.000 A 
ATOM      5  C5  BNZ d   1       4.773   0.649  -0.005  0.00  0.00     0.000 A 
ATOM      6  C6  BNZ d   1       5.583   1.448  -0.779  0.00  0.00     0.000 A 
ENDROOT
TORSDOF 0
ENDMDL
