MODEL 1
REMARK minimizedAffinity 0.732596636
REMARK minimizedRMSD -1
REMARK  0 active torsions:
REMARK  status: ('A' for Active; 'I' for Inactive)
ROOT
ATOM      1  C1  BNZ d   1       1.707  -1.805   0.570  0.00  0.00     0.000 A 
ATOM      2  C2  BNZ d   1       2.163  -0.514   0.546  0.00  0.00     0.000 A 
ATOM      3  C3  BNZ d   1       2.471   0.098  -0.637  0.00  0.00     0.000 A 
ATOM      4  C4  BNZ d   1       2.361  -0.594  -1.789  0.00  0.00     0.000 A 
ATOM      5  C5  BNZ d   1       1.912  -1.899  -1.781  0.00  0.00     0.000 A 
ATOM      6  C6  BNZ d   1       1.565  -2.499  -0.592  0.00  0.00     0.000 A 
ENDROOT
TORSDOF 0
ENDMDL
