MODEL 1
REMARK minimizedAffinity 0.575453579
REMARK minimizedRMSD -1
REMARK  0 active torsions:
REMARK  status: ('A' for Active; 'I' for Inactive)
ROOT
ATOM      1  C1  BNZ d   1       2.653   1.501  -0.661  0.00  0.00     0.000 A 
ATOM      2  C2  BNZ d   1       3.381   0.559  -1.338  0.00  0.00     0.000 A 
ATOM      3  C3  BNZ d   1       2.961  -0.740  -1.396  0.00  0.00     0.000 A 
ATOM      4  C4  BNZ d   1       1.837  -1.104  -0.746  0.00  0.00     0.000 A 
ATOM      5  C5  BNZ d   1       1.098  -0.168  -0.051  0.00  0.00     0.000 A 
ATOM      6  C6  BNZ d   1       1.502   1.147  -0.027  0.00  0.00     0.000 A 
ENDROOT
TORSDOF 0
ENDMDL
