MODEL 1
REMARK minimizedAffinity 5.89083481
REMARK minimizedRMSD -1
REMARK  0 active torsions:
REMARK  status: ('A' for Active; 'I' for Inactive)
ROOT
ATOM      1  C1  BNZ d   1      -0.700  -5.031   5.997  0.00  0.00     0.000 A 
ATOM      2  C2  BNZ d   1       0.663  -4.908   5.993  0.00  0.00     0.000 A 
ATOM      3  C3  BNZ d   1       1.258  -3.718   5.678  0.00  0.00     0.000 A 
ATOM      4  C4  BNZ d   1       0.490  -2.665   5.329  0.00  0.00     0.000 A 
ATOM      5  C5  BNZ d   1      -0.886  -2.776   5.319  0.00  0.00     0.000 A 
ATOM      6  C6  BNZ d   1      -1.482  -3.965   5.674  0.00  0.00     0.000 A 
ENDROOT
TORSDOF 0
ENDMDL
