MODEL 1
REMARK minimizedAffinity -2.5897522
REMARK minimizedRMSD -1
REMARK  0 active torsions:
REMARK  status: ('A' for Active; 'I' for Inactive)
ROOT
ATOM      1  C1  BNZ d   1       2.289  -1.033  -0.793  0.00  0.00     0.000 A 
ATOM      2  C2  BNZ d   1       3.532  -0.790  -1.315  0.00  0.00     0.000 A 
ATOM      3  C3  BNZ d   1       4.046   0.477  -1.338  0.00  0.00     0.000 A 
ATOM      4  C4  BNZ d   1       3.302   1.503  -0.878  0.00  0.00     0.000 A 
ATOM      5  C5  BNZ d   1       2.043   1.275  -0.358  0.00  0.00     0.000 A 
ATOM      6  C6  BNZ d   1       1.545  -0.006  -0.300  0.00  0.00     0.000 A 
ENDROOT
TORSDOF 0
ENDMDL
