MODEL 1
REMARK minimizedAffinity 10.4970951
REMARK minimizedRMSD -1
REMARK  2 active torsions:
REMARK  status: ('A' for Active; 'I' for Inactive)
REMARK    1  A    between atoms: C1_2  and  C2_3 
REMARK    2  A    between atoms: C2_3  and  C3_4 
ROOT
ATOM      1  C3  UNL d   1       1.939   1.695   2.084  0.00  0.00    -0.075 A 
ATOM      2  C4  UNL d   1       2.627   0.487   2.269  0.00  0.00     0.002 A 
ATOM      3  C5  UNL d   1       2.983  -0.301   1.173  0.00  0.00     0.002 A 
ATOM      4  C6  UNL d   1       2.646   0.103  -0.117  0.00  0.00    -0.004 A 
ATOM      5  C7  UNL d   1       1.948   1.293  -0.311  0.00  0.00     0.002 A 
ATOM      6  C8  UNL d   1       1.595   2.085   0.782  0.00  0.00     0.002 A 
ENDROOT
BRANCH   1   7
ATOM      7  C2  UNL d   1       1.578   2.567   3.262  0.00  0.00     0.056 C 
BRANCH   7   8
ATOM      8  C1  UNL d   1       2.082   4.009   3.149  0.00  0.00     0.007 C 
ATOM      9  C   UNL d   1       3.579   4.103   2.890  0.00  0.00     0.009 C 
ENDBRANCH   7   8
ENDBRANCH   1   7
TORSDOF 2
ENDMDL
