MODEL 1
REMARK minimizedAffinity 2.89151239
REMARK minimizedRMSD -1
REMARK  2 active torsions:
REMARK  status: ('A' for Active; 'I' for Inactive)
REMARK    1  A    between atoms: C1_2  and  C2_3 
REMARK    2  A    between atoms: C2_3  and  C3_4 
ROOT
ATOM      1  C3  UNL d   1       0.601   0.983   2.752  0.00  0.00    -0.075 A 
ATOM      2  C4  UNL d   1      -0.624   1.660   2.656  0.00  0.00     0.002 A 
ATOM      3  C5  UNL d   1      -0.902   2.467   1.552  0.00  0.00     0.002 A 
ATOM      4  C6  UNL d   1       0.041   2.614   0.538  0.00  0.00    -0.004 A 
ATOM      5  C7  UNL d   1       1.267   1.959   0.631  0.00  0.00     0.002 A 
ATOM      6  C8  UNL d   1       1.547   1.148   1.732  0.00  0.00     0.002 A 
ENDROOT
BRANCH   1   7
ATOM      7  C2  UNL d   1       0.897   0.086   3.930  0.00  0.00     0.056 C 
BRANCH   7   8
ATOM      8  C1  UNL d   1       0.365  -1.343   3.775  0.00  0.00     0.007 C 
ATOM      9  C   UNL d   1       1.469  -2.386   3.665  0.00  0.00     0.009 C 
ENDBRANCH   7   8
ENDBRANCH   1   7
TORSDOF 2
ENDMDL
