MODEL 1
REMARK minimizedAffinity 8.03833103
REMARK minimizedRMSD -1
REMARK  2 active torsions:
REMARK  status: ('A' for Active; 'I' for Inactive)
REMARK    1  A    between atoms: C1_2  and  C2_3 
REMARK    2  A    between atoms: C2_3  and  C3_4 
ROOT
ATOM      1  C3  UNL d   1       0.512   1.544  -0.415  0.00  0.00    -0.075 A 
ATOM      2  C4  UNL d   1      -0.655   1.471   0.358  0.00  0.00     0.002 A 
ATOM      3  C5  UNL d   1      -1.112   2.588   1.059  0.00  0.00     0.002 A 
ATOM      4  C6  UNL d   1      -0.403   3.786   1.004  0.00  0.00    -0.004 A 
ATOM      5  C7  UNL d   1       0.768   3.865   0.252  0.00  0.00     0.002 A 
ATOM      6  C8  UNL d   1       1.224   2.750  -0.453  0.00  0.00     0.002 A 
ENDROOT
BRANCH   1   7
ATOM      7  C2  UNL d   1       0.995   0.347  -1.199  0.00  0.00     0.056 C 
BRANCH   7   8
ATOM      8  C1  UNL d   1       1.966  -0.554  -0.428  0.00  0.00     0.007 C 
ATOM      9  C   UNL d   1       1.856  -2.023  -0.814  0.00  0.00     0.009 C 
ENDBRANCH   7   8
ENDBRANCH   1   7
TORSDOF 2
ENDMDL
