MODEL 1
REMARK minimizedAffinity 11.0865259
REMARK minimizedRMSD -1
REMARK  2 active torsions:
REMARK  status: ('A' for Active; 'I' for Inactive)
REMARK    1  A    between atoms: C1_2  and  C2_3 
REMARK    2  A    between atoms: C2_3  and  C3_4 
ROOT
ATOM      1  C3  UNL d   1       4.771   5.203   3.605  0.00  0.00    -0.075 A 
ATOM      2  C4  UNL d   1       5.222   5.814   4.785  0.00  0.00     0.002 A 
ATOM      3  C5  UNL d   1       5.319   5.083   5.969  0.00  0.00     0.002 A 
ATOM      4  C6  UNL d   1       4.959   3.738   5.992  0.00  0.00    -0.004 A 
ATOM      5  C7  UNL d   1       4.494   3.124   4.831  0.00  0.00     0.002 A 
ATOM      6  C8  UNL d   1       4.399   3.852   3.643  0.00  0.00     0.002 A 
ENDROOT
BRANCH   1   7
ATOM      7  C2  UNL d   1       4.691   5.981   2.314  0.00  0.00     0.056 C 
BRANCH   7   8
ATOM      8  C1  UNL d   1       5.999   6.000   1.515  0.00  0.00     0.007 C 
ATOM      9  C   UNL d   1       5.830   5.534   0.075  0.00  0.00     0.009 C 
ENDBRANCH   7   8
ENDBRANCH   1   7
TORSDOF 2
ENDMDL
