MODEL 1
REMARK minimizedAffinity 4.63642502
REMARK minimizedRMSD -1
REMARK  2 active torsions:
REMARK  status: ('A' for Active; 'I' for Inactive)
REMARK    1  A    between atoms: C1_2  and  C2_3 
REMARK    2  A    between atoms: C2_3  and  C3_4 
ROOT
ATOM      1  C3  UNL d   1       2.086   0.494   0.596  0.00  0.00    -0.075 A 
ATOM      2  C4  UNL d   1       2.602   0.316   1.887  0.00  0.00     0.002 A 
ATOM      3  C5  UNL d   1       3.203  -0.890   2.249  0.00  0.00     0.002 A 
ATOM      4  C6  UNL d   1       3.287  -1.934   1.330  0.00  0.00    -0.004 A 
ATOM      5  C7  UNL d   1       2.763  -1.773   0.049  0.00  0.00     0.002 A 
ATOM      6  C8  UNL d   1       2.165  -0.566  -0.317  0.00  0.00     0.002 A 
ENDROOT
BRANCH   1   7
ATOM      7  C2  UNL d   1       1.461   1.807   0.188  0.00  0.00     0.056 C 
BRANCH   7   8
ATOM      8  C1  UNL d   1       0.001   1.690  -0.262  0.00  0.00     0.007 C 
ATOM      9  C   UNL d   1      -0.992   1.782   0.889  0.00  0.00     0.009 C 
ENDBRANCH   7   8
ENDBRANCH   1   7
TORSDOF 2
ENDMDL
