MODEL 1
REMARK minimizedAffinity 0.120696686
REMARK minimizedRMSD -1
REMARK  2 active torsions:
REMARK  status: ('A' for Active; 'I' for Inactive)
REMARK    1  A    between atoms: C1_2  and  C2_3 
REMARK    2  A    between atoms: C2_3  and  C3_4 
ROOT
ATOM      1  C3  UNL d   1       1.130   0.740  -0.249  0.00  0.00    -0.075 A 
ATOM      2  C4  UNL d   1       1.429  -0.552  -0.705  0.00  0.00     0.002 A 
ATOM      3  C5  UNL d   1       2.622  -1.175  -0.336  0.00  0.00     0.002 A 
ATOM      4  C6  UNL d   1       3.533  -0.512   0.482  0.00  0.00    -0.004 A 
ATOM      5  C7  UNL d   1       3.254   0.778   0.928  0.00  0.00     0.002 A 
ATOM      6  C8  UNL d   1       2.060   1.402   0.564  0.00  0.00     0.002 A 
ENDROOT
BRANCH   1   7
ATOM      7  C2  UNL d   1      -0.172   1.409  -0.620  0.00  0.00     0.056 C 
BRANCH   7   8
ATOM      8  C1  UNL d   1      -0.969   0.666  -1.697  0.00  0.00     0.007 C 
ATOM      9  C   UNL d   1      -2.373   0.283  -1.248  0.00  0.00     0.009 C 
ENDBRANCH   7   8
ENDBRANCH   1   7
TORSDOF 2
ENDMDL
