MODEL 1
REMARK minimizedAffinity -5.84354353
REMARK minimizedRMSD -1
REMARK  0 active torsions:
REMARK  status: ('A' for Active; 'I' for Inactive)
ROOT
ATOM      1  N1  IND d   1       0.879  -0.749   0.196  0.00  0.00    -0.196 N 
ATOM      2  C2  IND d   1      -0.469  -0.619   0.380  0.00  0.00     0.054 A 
ATOM      3  C3  IND d   1      -0.808   0.687   0.466  0.00  0.00    -0.031 A 
ATOM      4  C4  IND d   1       0.673   2.780   0.231  0.00  0.00     0.051 A 
ATOM      5  C5  IND d   1       1.976   3.167   0.091  0.00  0.00    -0.031 A 
ATOM      6  C6  IND d   1       3.001   2.251  -0.027  0.00  0.00     0.015 A 
ATOM      7  C7  IND d   1       2.758   0.906  -0.020  0.00  0.00    -0.016 A 
ATOM      8  C8  IND d   1       1.437   0.509   0.129  0.00  0.00    -0.047 A 
ATOM      9  C9  IND d   1       0.397   1.435   0.292  0.00  0.00    -0.096 A 
ATOM     10  HN1 IND d   1       1.307  -1.492   0.132  0.00  0.00     0.298 HD
ENDROOT
TORSDOF 0
ENDMDL
