MODEL 1
REMARK minimizedAffinity -4.52590179
REMARK minimizedRMSD -1
REMARK  0 active torsions:
REMARK  status: ('A' for Active; 'I' for Inactive)
ROOT
ATOM      1  N1  IND d   1       0.880  -0.933  -0.195  0.00  0.00    -0.196 N 
ATOM      2  C2  IND d   1      -0.412  -1.359  -0.064  0.00  0.00     0.054 A 
ATOM      3  C3  IND d   1      -1.205  -0.342   0.340  0.00  0.00    -0.031 A 
ATOM      4  C4  IND d   1      -0.613   2.130   0.748  0.00  0.00     0.051 A 
ATOM      5  C5  IND d   1       0.448   2.991   0.792  0.00  0.00    -0.031 A 
ATOM      6  C6  IND d   1       1.733   2.580   0.501  0.00  0.00     0.015 A 
ATOM      7  C7  IND d   1       2.004   1.289   0.143  0.00  0.00    -0.016 A 
ATOM      8  C8  IND d   1       0.930   0.411   0.103  0.00  0.00    -0.047 A 
ATOM      9  C9  IND d   1      -0.369   0.813   0.439  0.00  0.00    -0.096 A 
ATOM     10  HN1 IND d   1       1.549  -1.421  -0.425  0.00  0.00     0.298 HD
ENDROOT
TORSDOF 0
ENDMDL
