MODEL 1
REMARK minimizedAffinity -3.98816013
REMARK minimizedRMSD -1
REMARK  0 active torsions:
REMARK  status: ('A' for Active; 'I' for Inactive)
ROOT
ATOM      1  N1  IND d   1       2.403   0.823   0.487  0.00  0.00    -0.196 N 
ATOM      2  C2  IND d   1       3.190   1.922   0.688  0.00  0.00     0.054 A 
ATOM      3  C3  IND d   1       2.435   3.043   0.711  0.00  0.00    -0.031 A 
ATOM      4  C4  IND d   1      -0.121   3.297   0.539  0.00  0.00     0.051 A 
ATOM      5  C5  IND d   1      -1.262   2.580   0.312  0.00  0.00    -0.031 A 
ATOM      6  C6  IND d   1      -1.239   1.212   0.130  0.00  0.00     0.015 A 
ATOM      7  C7  IND d   1      -0.071   0.506   0.181  0.00  0.00    -0.016 A 
ATOM      8  C8  IND d   1       1.091   1.232   0.405  0.00  0.00    -0.047 A 
ATOM      9  C9  IND d   1       1.079   2.626   0.547  0.00  0.00    -0.096 A 
ATOM     10  HN1 IND d   1       2.682   0.012   0.422  0.00  0.00     0.298 HD
ENDROOT
TORSDOF 0
ENDMDL
