MODEL 1
REMARK minimizedAffinity -5.16958141
REMARK minimizedRMSD -1
REMARK  0 active torsions:
REMARK  status: ('A' for Active; 'I' for Inactive)
ROOT
ATOM      1  N1  IND d   1       0.568  -0.220   0.382  0.00  0.00    -0.196 N 
ATOM      2  C2  IND d   1      -0.751  -0.548   0.241  0.00  0.00     0.054 A 
ATOM      3  C3  IND d   1      -1.503   0.569   0.118  0.00  0.00    -0.031 A 
ATOM      4  C4  IND d   1      -0.766   3.034   0.019  0.00  0.00     0.051 A 
ATOM      5  C5  IND d   1       0.335   3.835   0.142  0.00  0.00    -0.031 A 
ATOM      6  C6  IND d   1       1.596   3.314   0.352  0.00  0.00     0.015 A 
ATOM      7  C7  IND d   1       1.805   1.967   0.437  0.00  0.00    -0.016 A 
ATOM      8  C8  IND d   1       0.689   1.151   0.320  0.00  0.00    -0.047 A 
ATOM      9  C9  IND d   1      -0.599   1.675   0.149  0.00  0.00    -0.096 A 
ATOM     10  HN1 IND d   1       1.214  -0.777   0.491  0.00  0.00     0.298 HD
ENDROOT
TORSDOF 0
ENDMDL
