MODEL 1
REMARK minimizedAffinity -3.15592861
REMARK minimizedRMSD -1
REMARK  0 active torsions:
REMARK  status: ('A' for Active; 'I' for Inactive)
ROOT
ATOM      1  N1  IND d   1      -1.013   0.168   1.279  0.00  0.00    -0.196 N 
ATOM      2  C2  IND d   1      -0.377  -0.924   0.757  0.00  0.00     0.054 A 
ATOM      3  C3  IND d   1       0.525  -0.542  -0.174  0.00  0.00    -0.031 A 
ATOM      4  C4  IND d   1       1.195   1.827  -0.929  0.00  0.00     0.051 A 
ATOM      5  C5  IND d   1       0.866   3.143  -0.765  0.00  0.00    -0.031 A 
ATOM      6  C6  IND d   1      -0.125   3.543   0.108  0.00  0.00     0.015 A 
ATOM      7  C7  IND d   1      -0.818   2.639   0.862  0.00  0.00    -0.016 A 
ATOM      8  C8  IND d   1      -0.491   1.301   0.693  0.00  0.00    -0.047 A 
ATOM      9  C9  IND d   1       0.484   0.885  -0.223  0.00  0.00    -0.096 A 
ATOM     10  HN1 IND d   1      -1.635   0.151   1.872  0.00  0.00     0.298 HD
ENDROOT
TORSDOF 0
ENDMDL
