MODEL 1
REMARK minimizedAffinity -2.72256351
REMARK minimizedRMSD -1
REMARK  0 active torsions:
REMARK  status: ('A' for Active; 'I' for Inactive)
ROOT
ATOM      1  N1  IND d   1      -1.357   0.276   1.006  0.00  0.00    -0.196 N 
ATOM      2  C2  IND d   1      -0.871  -0.897   0.498  0.00  0.00     0.054 A 
ATOM      3  C3  IND d   1       0.301  -0.683  -0.140  0.00  0.00    -0.031 A 
ATOM      4  C4  IND d   1       1.657   1.492  -0.385  0.00  0.00     0.051 A 
ATOM      5  C5  IND d   1       1.602   2.831  -0.120  0.00  0.00    -0.031 A 
ATOM      6  C6  IND d   1       0.537   3.399   0.549  0.00  0.00     0.015 A 
ATOM      7  C7  IND d   1      -0.511   2.642   0.991  0.00  0.00    -0.016 A 
ATOM      8  C8  IND d   1      -0.462   1.283   0.718  0.00  0.00    -0.047 A 
ATOM      9  C9  IND d   1       0.596   0.708   0.001  0.00  0.00    -0.096 A 
ATOM     10  HN1 IND d   1      -2.097   0.369   1.433  0.00  0.00     0.298 HD
ENDROOT
TORSDOF 0
ENDMDL
