MODEL 1
REMARK minimizedAffinity -5.66601658
REMARK minimizedRMSD -1
REMARK  0 active torsions:
REMARK  status: ('A' for Active; 'I' for Inactive)
ROOT
ATOM      1  N1  IND d   1       0.252  -0.141   0.114  0.00  0.00    -0.196 N 
ATOM      2  C2  IND d   1      -1.079  -0.066  -0.184  0.00  0.00     0.054 A 
ATOM      3  C3  IND d   1      -1.499   1.219  -0.138  0.00  0.00    -0.031 A 
ATOM      4  C4  IND d   1      -0.150   3.366   0.305  0.00  0.00     0.051 A 
ATOM      5  C5  IND d   1       1.095   3.801   0.663  0.00  0.00    -0.031 A 
ATOM      6  C6  IND d   1       2.145   2.927   0.857  0.00  0.00     0.015 A 
ATOM      7  C7  IND d   1       1.991   1.580   0.689  0.00  0.00    -0.016 A 
ATOM      8  C8  IND d   1       0.726   1.134   0.333  0.00  0.00    -0.047 A 
ATOM      9  C9  IND d   1      -0.354   2.012   0.176  0.00  0.00    -0.096 A 
ATOM     10  HN1 IND d   1       0.717  -0.864   0.158  0.00  0.00     0.298 HD
ENDROOT
TORSDOF 0
ENDMDL
