MODEL 1
REMARK minimizedAffinity -3.97941375
REMARK minimizedRMSD -1
REMARK  0 active torsions:
REMARK  status: ('A' for Active; 'I' for Inactive)
ROOT
ATOM      1  N1  IND d   1      -0.977   2.475   0.858  0.00  0.00    -0.196 N 
ATOM      2  C2  IND d   1       0.168   2.980   0.309  0.00  0.00     0.054 A 
ATOM      3  C3  IND d   1       0.917   1.985  -0.216  0.00  0.00    -0.031 A 
ATOM      4  C4  IND d   1       0.408  -0.534  -0.377  0.00  0.00     0.051 A 
ATOM      5  C5  IND d   1      -0.500  -1.476   0.016  0.00  0.00    -0.031 A 
ATOM      6  C6  IND d   1      -1.639  -1.143   0.721  0.00  0.00     0.015 A 
ATOM      7  C7  IND d   1      -1.917   0.153   1.052  0.00  0.00    -0.016 A 
ATOM      8  C8  IND d   1      -0.994   1.112   0.661  0.00  0.00    -0.047 A 
ATOM      9  C9  IND d   1       0.184   0.774  -0.018  0.00  0.00    -0.096 A 
ATOM     10  HN1 IND d   1      -1.585   2.932   1.260  0.00  0.00     0.298 HD
ENDROOT
TORSDOF 0
ENDMDL
