MODEL 1
REMARK minimizedAffinity -5.26600266
REMARK minimizedRMSD -1
REMARK  0 active torsions:
REMARK  status: ('A' for Active; 'I' for Inactive)
ROOT
ATOM      1  N1  IND d   1       0.640  -0.539  -0.330  0.00  0.00    -0.196 N 
ATOM      2  C2  IND d   1      -0.699  -0.771  -0.188  0.00  0.00     0.054 A 
ATOM      3  C3  IND d   1      -1.332   0.355   0.212  0.00  0.00    -0.031 A 
ATOM      4  C4  IND d   1      -0.382   2.716   0.596  0.00  0.00     0.051 A 
ATOM      5  C5  IND d   1       0.794   3.412   0.627  0.00  0.00    -0.031 A 
ATOM      6  C6  IND d   1       2.003   2.816   0.332  0.00  0.00     0.015 A 
ATOM      7  C7  IND d   1       2.080   1.497  -0.018  0.00  0.00    -0.016 A 
ATOM      8  C8  IND d   1       0.889   0.785  -0.043  0.00  0.00    -0.047 A 
ATOM      9  C9  IND d   1      -0.336   1.375   0.296  0.00  0.00    -0.096 A 
ATOM     10  HN1 IND d   1       1.229  -1.122  -0.560  0.00  0.00     0.298 HD
ENDROOT
TORSDOF 0
ENDMDL
