MODEL 1
REMARK minimizedAffinity -2.67199254
REMARK minimizedRMSD -1
REMARK  0 active torsions:
REMARK  status: ('A' for Active; 'I' for Inactive)
ROOT
ATOM      1  N1  IND d   1      -1.593   1.343   0.628  0.00  0.00    -0.196 N 
ATOM      2  C2  IND d   1      -1.159   2.639   0.656  0.00  0.00     0.054 A 
ATOM      3  C3  IND d   1       0.193   2.683   0.648  0.00  0.00    -0.031 A 
ATOM      4  C4  IND d   1       1.891   0.755   0.491  0.00  0.00     0.051 A 
ATOM      5  C5  IND d   1       1.974  -0.609   0.481  0.00  0.00    -0.031 A 
ATOM      6  C6  IND d   1       0.849  -1.408   0.517  0.00  0.00     0.015 A 
ATOM      7  C7  IND d   1      -0.406  -0.870   0.554  0.00  0.00    -0.016 A 
ATOM      8  C8  IND d   1      -0.494   0.514   0.571  0.00  0.00    -0.047 A 
ATOM      9  C9  IND d   1       0.645   1.330   0.577  0.00  0.00    -0.096 A 
ATOM     10  HN1 IND d   1      -2.414   1.089   0.644  0.00  0.00     0.298 HD
ENDROOT
TORSDOF 0
ENDMDL
