MODEL 1
REMARK minimizedAffinity -4.90457869
REMARK minimizedRMSD -1
REMARK  0 active torsions:
REMARK  status: ('A' for Active; 'I' for Inactive)
ROOT
ATOM      1  N1  IND d   1       0.809  -0.350  -0.061  0.00  0.00    -0.196 N 
ATOM      2  C2  IND d   1      -0.553  -0.436  -0.123  0.00  0.00     0.054 A 
ATOM      3  C3  IND d   1      -1.099   0.798  -0.204  0.00  0.00    -0.031 A 
ATOM      4  C4  IND d   1       0.059   3.092  -0.352  0.00  0.00     0.051 A 
ATOM      5  C5  IND d   1       1.290   3.683  -0.296  0.00  0.00    -0.031 A 
ATOM      6  C6  IND d   1       2.448   2.944  -0.159  0.00  0.00     0.015 A 
ATOM      7  C7  IND d   1       2.418   1.580  -0.084  0.00  0.00    -0.016 A 
ATOM      8  C8  IND d   1       1.169   0.978  -0.133  0.00  0.00    -0.047 A 
ATOM      9  C9  IND d   1      -0.012   1.725  -0.229  0.00  0.00    -0.096 A 
ATOM     10  HN1 IND d   1       1.351  -1.014   0.011  0.00  0.00     0.298 HD
ENDROOT
TORSDOF 0
ENDMDL
