MODEL 1
REMARK minimizedAffinity -5.63753843
REMARK minimizedRMSD -1
REMARK  0 active torsions:
REMARK  status: ('A' for Active; 'I' for Inactive)
ROOT
ATOM      1  N1  IND d   1       0.579  -0.259   0.204  0.00  0.00    -0.196 N 
ATOM      2  C2  IND d   1      -0.731  -0.632   0.084  0.00  0.00     0.054 A 
ATOM      3  C3  IND d   1      -1.526   0.460   0.016  0.00  0.00    -0.031 A 
ATOM      4  C4  IND d   1      -0.884   2.952  -0.017  0.00  0.00     0.051 A 
ATOM      5  C5  IND d   1       0.189   3.790   0.106  0.00  0.00    -0.031 A 
ATOM      6  C6  IND d   1       1.473   3.311   0.269  0.00  0.00     0.015 A 
ATOM      7  C7  IND d   1       1.734   1.971   0.303  0.00  0.00    -0.016 A 
ATOM      8  C8  IND d   1       0.646   1.117   0.185  0.00  0.00    -0.047 A 
ATOM      9  C9  IND d   1      -0.664   1.597   0.063  0.00  0.00    -0.096 A 
ATOM     10  HN1 IND d   1       1.248  -0.794   0.279  0.00  0.00     0.298 HD
ENDROOT
TORSDOF 0
ENDMDL
