MODEL 1
REMARK minimizedAffinity -4.79111862
REMARK minimizedRMSD -1
REMARK  0 active torsions:
REMARK  status: ('A' for Active; 'I' for Inactive)
ROOT
ATOM      1  N1  IND d   1       0.238  -0.441  -0.208  0.00  0.00    -0.196 N 
ATOM      2  C2  IND d   1      -1.071  -0.615   0.146  0.00  0.00     0.054 A 
ATOM      3  C3  IND d   1      -1.657   0.580   0.381  0.00  0.00    -0.031 A 
ATOM      4  C4  IND d   1      -0.685   2.953   0.148  0.00  0.00     0.051 A 
ATOM      5  C5  IND d   1       0.479   3.619  -0.113  0.00  0.00    -0.031 A 
ATOM      6  C6  IND d   1       1.646   2.952  -0.427  0.00  0.00     0.015 A 
ATOM      7  C7  IND d   1       1.689   1.589  -0.504  0.00  0.00    -0.016 A 
ATOM      8  C8  IND d   1       0.510   0.909  -0.233  0.00  0.00    -0.047 A 
ATOM      9  C9  IND d   1      -0.667   1.578   0.128  0.00  0.00    -0.096 A 
ATOM     10  HN1 IND d   1       0.798  -1.070  -0.384  0.00  0.00     0.298 HD
ENDROOT
TORSDOF 0
ENDMDL
