MODEL 1
REMARK minimizedAffinity -0.986462831
REMARK minimizedRMSD -1
REMARK  0 active torsions:
REMARK  status: ('A' for Active; 'I' for Inactive)
ROOT
ATOM      1  N1  IND d   1       0.381  -1.238   0.404  0.00  0.00    -0.196 N 
ATOM      2  C2  IND d   1      -0.320  -0.091   0.157  0.00  0.00     0.054 A 
ATOM      3  C3  IND d   1      -1.033  -0.212  -0.985  0.00  0.00    -0.031 A 
ATOM      4  C4  IND d   1      -1.278  -2.238  -2.554  0.00  0.00     0.051 A 
ATOM      5  C5  IND d   1      -0.802  -3.502  -2.763  0.00  0.00    -0.031 A 
ATOM      6  C6  IND d   1       0.109  -4.089  -1.909  0.00  0.00     0.015 A 
ATOM      7  C7  IND d   1       0.571  -3.435  -0.802  0.00  0.00    -0.016 A 
ATOM      8  C8  IND d   1       0.095  -2.149  -0.590  0.00  0.00    -0.047 A 
ATOM      9  C9  IND d   1      -0.797  -1.532  -1.477  0.00  0.00    -0.096 A 
ATOM     10  HN1 IND d   1       0.911  -1.369   1.068  0.00  0.00     0.298 HD
ENDROOT
TORSDOF 0
ENDMDL
