MODEL 1
REMARK minimizedAffinity -4.01917744
REMARK minimizedRMSD -1
REMARK  0 active torsions:
REMARK  status: ('A' for Active; 'I' for Inactive)
ROOT
ATOM      1  C4' PXY d   1      -0.756  -1.924  -0.330  0.00  0.00     0.077 C 
ATOM      2  C1' PXY d   1       2.167   2.982   0.568  0.00  0.00     0.077 C 
ATOM      3  C1  PXY d   1       1.389   1.701   0.337  0.00  0.00    -0.082 A 
ATOM      4  C2  PXY d   1       2.037   0.551   0.242  0.00  0.00     0.003 A 
ATOM      5  C3  PXY d   1       1.353  -0.613   0.002  0.00  0.00     0.003 A 
ATOM      6  C4  PXY d   1      -0.013  -0.607  -0.088  0.00  0.00    -0.082 A 
ATOM      7  C5  PXY d   1      -0.682   0.561   0.019  0.00  0.00     0.003 A 
ATOM      8  C6  PXY d   1       0.034   1.737   0.221  0.00  0.00     0.003 A 
ENDROOT
TORSDOF 0
ENDMDL
