MODEL 1
REMARK minimizedAffinity -3.5045197
REMARK minimizedRMSD -1
REMARK  0 active torsions:
REMARK  status: ('A' for Active; 'I' for Inactive)
ROOT
ATOM      1  C4' PXY d   1      -1.131  -0.705   0.352  0.00  0.00     0.077 C 
ATOM      2  C1' PXY d   1       2.673   3.634   0.692  0.00  0.00     0.077 C 
ATOM      3  C1  PXY d   1       1.684   2.489   0.596  0.00  0.00    -0.082 A 
ATOM      4  C2  PXY d   1       0.386   2.741   0.628  0.00  0.00     0.003 A 
ATOM      5  C3  PXY d   1      -0.522   1.715   0.576  0.00  0.00     0.003 A 
ATOM      6  C4  PXY d   1      -0.097   0.421   0.435  0.00  0.00    -0.082 A 
ATOM      7  C5  PXY d   1       1.226   0.156   0.391  0.00  0.00     0.003 A 
ATOM      8  C6  PXY d   1       2.132   1.209   0.488  0.00  0.00     0.003 A 
ENDROOT
TORSDOF 0
ENDMDL
