MODEL 1
REMARK minimizedAffinity 3.54434395
REMARK minimizedRMSD -1
REMARK  0 active torsions:
REMARK  status: ('A' for Active; 'I' for Inactive)
ROOT
ATOM      1  C4' PXY d   1      -1.986  -2.395  -1.901  0.00  0.00     0.077 C 
ATOM      2  C1' PXY d   1      -1.498   2.810   0.565  0.00  0.00     0.077 C 
ATOM      3  C1  PXY d   1      -1.614   1.442  -0.077  0.00  0.00    -0.082 A 
ATOM      4  C2  PXY d   1      -2.402   1.277  -1.127  0.00  0.00     0.003 A 
ATOM      5  C3  PXY d   1      -2.544   0.039  -1.700  0.00  0.00     0.003 A 
ATOM      6  C4  PXY d   1      -1.831  -1.029  -1.227  0.00  0.00    -0.082 A 
ATOM      7  C5  PXY d   1      -1.016  -0.867  -0.162  0.00  0.00     0.003 A 
ATOM      8  C6  PXY d   1      -0.918   0.389   0.431  0.00  0.00     0.003 A 
ENDROOT
TORSDOF 0
ENDMDL
