MODEL 1
REMARK minimizedAffinity 0.195841819
REMARK minimizedRMSD -1
REMARK  0 active torsions:
REMARK  status: ('A' for Active; 'I' for Inactive)
ROOT
ATOM      1  C4' PXY d   1       3.415   1.521   0.736  0.00  0.00     0.077 C 
ATOM      2  C1' PXY d   1      -2.236   0.376   0.326  0.00  0.00     0.077 C 
ATOM      3  C1  PXY d   1      -0.757   0.689   0.432  0.00  0.00    -0.082 A 
ATOM      4  C2  PXY d   1       0.132  -0.246   0.140  0.00  0.00     0.003 A 
ATOM      5  C3  PXY d   1       1.474   0.010   0.261  0.00  0.00     0.003 A 
ATOM      6  C4  PXY d   1       1.911   1.252   0.634  0.00  0.00    -0.082 A 
ATOM      7  C5  PXY d   1       1.010   2.215   0.924  0.00  0.00     0.003 A 
ATOM      8  C6  PXY d   1      -0.348   1.923   0.834  0.00  0.00     0.003 A 
ENDROOT
TORSDOF 0
ENDMDL
