MODEL 1
REMARK minimizedAffinity -5.10791254
REMARK minimizedRMSD -1
REMARK  0 active torsions:
REMARK  status: ('A' for Active; 'I' for Inactive)
ROOT
ATOM      1  C4' PXY d   1       1.690   4.015   0.241  0.00  0.00     0.077 C 
ATOM      2  C1' PXY d   1      -0.548  -1.315   0.265  0.00  0.00     0.077 C 
ATOM      3  C1  PXY d   1       0.049   0.079   0.264  0.00  0.00    -0.082 A 
ATOM      4  C2  PXY d   1      -0.749   1.133   0.248  0.00  0.00     0.003 A 
ATOM      5  C3  PXY d   1      -0.225   2.400   0.215  0.00  0.00     0.003 A 
ATOM      6  C4  PXY d   1       1.130   2.590   0.252  0.00  0.00    -0.082 A 
ATOM      7  C5  PXY d   1       1.952   1.519   0.279  0.00  0.00     0.003 A 
ATOM      8  C6  PXY d   1       1.400   0.241   0.270  0.00  0.00     0.003 A 
ENDROOT
TORSDOF 0
ENDMDL
