MODEL 1
REMARK minimizedAffinity -4.93969584
REMARK minimizedRMSD -1
REMARK  0 active torsions:
REMARK  status: ('A' for Active; 'I' for Inactive)
ROOT
ATOM      1  C4' PXY d   1       2.069   2.555   1.279  0.00  0.00     0.077 C 
ATOM      2  C1' PXY d   1      -0.419  -2.265  -0.719  0.00  0.00     0.077 C 
ATOM      3  C1  PXY d   1       0.225  -0.994  -0.202  0.00  0.00    -0.082 A 
ATOM      4  C2  PXY d   1       1.502  -1.001   0.145  0.00  0.00     0.003 A 
ATOM      5  C3  PXY d   1       2.091   0.131   0.646  0.00  0.00     0.003 A 
ATOM      6  C4  PXY d   1       1.381   1.297   0.742  0.00  0.00    -0.082 A 
ATOM      7  C5  PXY d   1       0.080   1.316   0.380  0.00  0.00     0.003 A 
ATOM      8  C6  PXY d   1      -0.511   0.145  -0.087  0.00  0.00     0.003 A 
ENDROOT
TORSDOF 0
ENDMDL
