MODEL 1
REMARK minimizedAffinity -1.0886302
REMARK minimizedRMSD -1
REMARK  0 active torsions:
REMARK  status: ('A' for Active; 'I' for Inactive)
ROOT
ATOM      1  C4' PXY d   1      -1.488  -3.032  -2.025  0.00  0.00     0.077 C 
ATOM      2  C1' PXY d   1       1.146   1.271   0.797  0.00  0.00     0.077 C 
ATOM      3  C1  PXY d   1       0.451   0.138   0.068  0.00  0.00    -0.082 A 
ATOM      4  C2  PXY d   1       0.872  -0.223  -1.133  0.00  0.00     0.003 A 
ATOM      5  C3  PXY d   1       0.235  -1.225  -1.819  0.00  0.00     0.003 A 
ATOM      6  C4  PXY d   1      -0.811  -1.899  -1.248  0.00  0.00    -0.082 A 
ATOM      7  C5  PXY d   1      -1.240  -1.544  -0.019  0.00  0.00     0.003 A 
ATOM      8  C6  PXY d   1      -0.606  -0.497   0.644  0.00  0.00     0.003 A 
ENDROOT
TORSDOF 0
ENDMDL
