MODEL 1
REMARK minimizedAffinity -5.97652197
REMARK minimizedRMSD -1
REMARK  0 active torsions:
REMARK  status: ('A' for Active; 'I' for Inactive)
ROOT
ATOM      1  C4' PXY d   1       1.742   4.247   0.111  0.00  0.00     0.077 C 
ATOM      2  C1' PXY d   1      -0.329  -1.136   0.494  0.00  0.00     0.077 C 
ATOM      3  C1  PXY d   1       0.202   0.280   0.393  0.00  0.00    -0.082 A 
ATOM      4  C2  PXY d   1       1.428   0.488  -0.059  0.00  0.00     0.003 A 
ATOM      5  C3  PXY d   1       1.935   1.760  -0.127  0.00  0.00     0.003 A 
ATOM      6  C4  PXY d   1       1.161   2.834   0.221  0.00  0.00    -0.082 A 
ATOM      7  C5  PXY d   1      -0.095   2.631   0.673  0.00  0.00     0.003 A 
ATOM      8  C6  PXY d   1      -0.577   1.329   0.774  0.00  0.00     0.003 A 
ENDROOT
TORSDOF 0
ENDMDL
