MODEL 1
REMARK minimizedAffinity -5.22627401
REMARK minimizedRMSD -1
REMARK  0 active torsions:
REMARK  status: ('A' for Active; 'I' for Inactive)
ROOT
ATOM      1  C4' PXY d   1       1.069   3.052   0.436  0.00  0.00     0.077 C 
ATOM      2  C1' PXY d   1      -1.191  -2.264   0.222  0.00  0.00     0.077 C 
ATOM      3  C1  PXY d   1      -0.610  -0.865   0.274  0.00  0.00    -0.082 A 
ATOM      4  C2  PXY d   1       0.697  -0.695   0.153  0.00  0.00     0.003 A 
ATOM      5  C3  PXY d   1       1.242   0.561   0.230  0.00  0.00     0.003 A 
ATOM      6  C4  PXY d   1       0.437   1.658   0.380  0.00  0.00    -0.082 A 
ATOM      7  C5  PXY d   1      -0.898   1.493   0.494  0.00  0.00     0.003 A 
ATOM      8  C6  PXY d   1      -1.428   0.207   0.455  0.00  0.00     0.003 A 
ENDROOT
TORSDOF 0
ENDMDL
