MODEL 1
REMARK minimizedAffinity -5.07136393
REMARK minimizedRMSD -1
REMARK  0 active torsions:
REMARK  status: ('A' for Active; 'I' for Inactive)
ROOT
ATOM      1  C4' PXY d   1       1.935   4.740   0.494  0.00  0.00     0.077 C 
ATOM      2  C1' PXY d   1      -0.551  -0.436  -0.172  0.00  0.00     0.077 C 
ATOM      3  C1  PXY d   1       0.089   0.927   0.006  0.00  0.00    -0.082 A 
ATOM      4  C2  PXY d   1       1.227   1.200  -0.612  0.00  0.00     0.003 A 
ATOM      5  C3  PXY d   1       1.836   2.416  -0.437  0.00  0.00     0.003 A 
ATOM      6  C4  PXY d   1       1.247   3.381   0.336  0.00  0.00    -0.082 A 
ATOM      7  C5  PXY d   1       0.081   3.113   0.961  0.00  0.00     0.003 A 
ATOM      8  C6  PXY d   1      -0.500   1.858   0.803  0.00  0.00     0.003 A 
ENDROOT
TORSDOF 0
ENDMDL
