MODEL 1
REMARK minimizedAffinity -5.50617647
REMARK minimizedRMSD -1
REMARK  0 active torsions:
REMARK  status: ('A' for Active; 'I' for Inactive)
ROOT
ATOM      1  C4' PXY d   1       3.426   1.285   0.542  0.00  0.00     0.077 C 
ATOM      2  C1' PXY d   1      -2.316   1.244  -0.121  0.00  0.00     0.077 C 
ATOM      3  C1  PXY d   1      -0.810   1.267   0.048  0.00  0.00    -0.082 A 
ATOM      4  C2  PXY d   1      -0.130   0.132   0.018  0.00  0.00     0.003 A 
ATOM      5  C3  PXY d   1       1.228   0.132   0.202  0.00  0.00     0.003 A 
ATOM      6  C4  PXY d   1       1.906   1.310   0.366  0.00  0.00    -0.082 A 
ATOM      7  C5  PXY d   1       1.221   2.474   0.387  0.00  0.00     0.003 A 
ATOM      8  C6  PXY d   1      -0.163   2.449   0.240  0.00  0.00     0.003 A 
ENDROOT
TORSDOF 0
ENDMDL
