MODEL 1
REMARK minimizedAffinity -4.36594486
REMARK minimizedRMSD -1
REMARK  0 active torsions:
REMARK  status: ('A' for Active; 'I' for Inactive)
ROOT
ATOM      1  C4' PXY d   1       3.008   3.198   1.513  0.00  0.00     0.077 C 
ATOM      2  C1' PXY d   1      -1.594   0.037   0.013  0.00  0.00     0.077 C 
ATOM      3  C1  PXY d   1      -0.393   0.877   0.401  0.00  0.00    -0.082 A 
ATOM      4  C2  PXY d   1       0.781   0.294   0.582  0.00  0.00     0.003 A 
ATOM      5  C3  PXY d   1       1.871   1.033   0.965  0.00  0.00     0.003 A 
ATOM      6  C4  PXY d   1       1.770   2.391   1.112  0.00  0.00    -0.082 A 
ATOM      7  C5  PXY d   1       0.578   2.994   0.918  0.00  0.00     0.003 A 
ATOM      8  C6  PXY d   1      -0.525   2.220   0.571  0.00  0.00     0.003 A 
ENDROOT
TORSDOF 0
ENDMDL
