MODEL 1
REMARK minimizedAffinity -4.11043882
REMARK minimizedRMSD -1
REMARK  0 active torsions:
REMARK  status: ('A' for Active; 'I' for Inactive)
ROOT
ATOM      1  C4' PXY d   1      -0.335  -2.824   0.190  0.00  0.00     0.077 C 
ATOM      2  C1' PXY d   1      -1.046   2.889   0.711  0.00  0.00     0.077 C 
ATOM      3  C1  PXY d   1      -0.849   1.393   0.567  0.00  0.00    -0.082 A 
ATOM      4  C2  PXY d   1      -1.881   0.580   0.719  0.00  0.00     0.003 A 
ATOM      5  C3  PXY d   1      -1.715  -0.778   0.624  0.00  0.00     0.003 A 
ATOM      6  C4  PXY d   1      -0.489  -1.305   0.318  0.00  0.00    -0.082 A 
ATOM      7  C5  PXY d   1       0.567  -0.482   0.150  0.00  0.00     0.003 A 
ATOM      8  C6  PXY d   1       0.385   0.891   0.292  0.00  0.00     0.003 A 
ENDROOT
TORSDOF 0
ENDMDL
