MODEL 1
REMARK minimizedAffinity -3.97952127
REMARK minimizedRMSD -1
REMARK  0 active torsions:
REMARK  status: ('A' for Active; 'I' for Inactive)
ROOT
ATOM      1  C4' PXY d   1      -0.754  -2.693   0.095  0.00  0.00     0.077 C 
ATOM      2  C1' PXY d   1       0.181   2.926   1.079  0.00  0.00     0.077 C 
ATOM      3  C1  PXY d   1      -0.054   1.452   0.812  0.00  0.00    -0.082 A 
ATOM      4  C2  PXY d   1      -1.256   0.935   1.009  0.00  0.00     0.003 A 
ATOM      5  C3  PXY d   1      -1.479  -0.402   0.804  0.00  0.00     0.003 A 
ATOM      6  C4  PXY d   1      -0.473  -1.208   0.342  0.00  0.00    -0.082 A 
ATOM      7  C5  PXY d   1       0.753  -0.687   0.128  0.00  0.00     0.003 A 
ATOM      8  C6  PXY d   1       0.969   0.665   0.382  0.00  0.00     0.003 A 
ENDROOT
TORSDOF 0
ENDMDL
