MODEL 1
REMARK minimizedAffinity -2.01191878
REMARK minimizedRMSD -1
REMARK  0 active torsions:
REMARK  status: ('A' for Active; 'I' for Inactive)
ROOT
ATOM      1  C4' PXY d   1      -0.786  -2.633  -0.806  0.00  0.00     0.077 C 
ATOM      2  C1' PXY d   1      -0.797   2.797   1.178  0.00  0.00     0.077 C 
ATOM      3  C1  PXY d   1      -0.783   1.375   0.652  0.00  0.00    -0.082 A 
ATOM      4  C2  PXY d   1      -1.926   0.737   0.457  0.00  0.00     0.003 A 
ATOM      5  C3  PXY d   1      -1.930  -0.560   0.013  0.00  0.00     0.003 A 
ATOM      6  C4  PXY d   1      -0.753  -1.193  -0.286  0.00  0.00    -0.082 A 
ATOM      7  C5  PXY d   1       0.417  -0.546  -0.100  0.00  0.00     0.003 A 
ATOM      8  C6  PXY d   1       0.401   0.756   0.391  0.00  0.00     0.003 A 
ENDROOT
TORSDOF 0
ENDMDL
