MODEL 1
REMARK minimizedAffinity -4.16023254
REMARK minimizedRMSD -1
REMARK  0 active torsions:
REMARK  status: ('A' for Active; 'I' for Inactive)
ROOT
ATOM      1  C4' PXY d   1      -0.329   1.224   0.714  0.00  0.00     0.077 C 
ATOM      2  C1' PXY d   1      -0.755  -3.794  -2.124  0.00  0.00     0.077 C 
ATOM      3  C1  PXY d   1      -0.646  -2.472  -1.391  0.00  0.00    -0.082 A 
ATOM      4  C2  PXY d   1       0.104  -2.386  -0.304  0.00  0.00     0.003 A 
ATOM      5  C3  PXY d   1       0.188  -1.206   0.390  0.00  0.00     0.003 A 
ATOM      6  C4  PXY d   1      -0.460  -0.089  -0.063  0.00  0.00    -0.082 A 
ATOM      7  C5  PXY d   1      -1.219  -0.165  -1.177  0.00  0.00     0.003 A 
ATOM      8  C6  PXY d   1      -1.324  -1.382  -1.844  0.00  0.00     0.003 A 
ENDROOT
TORSDOF 0
ENDMDL
