MODEL 1
REMARK minimizedAffinity -4.73080826
REMARK minimizedRMSD -1
REMARK  0 active torsions:
REMARK  status: ('A' for Active; 'I' for Inactive)
ROOT
ATOM      1  C4' PXY d   1       0.736   3.040   0.106  0.00  0.00     0.077 C 
ATOM      2  C1' PXY d   1      -0.435  -2.621   0.108  0.00  0.00     0.077 C 
ATOM      3  C1  PXY d   1      -0.141  -1.134   0.105  0.00  0.00    -0.082 A 
ATOM      4  C2  PXY d   1       1.094  -0.712  -0.117  0.00  0.00     0.003 A 
ATOM      5  C3  PXY d   1       1.384   0.628  -0.092  0.00  0.00     0.003 A 
ATOM      6  C4  PXY d   1       0.391   1.548   0.109  0.00  0.00    -0.082 A 
ATOM      7  C5  PXY d   1      -0.873   1.126   0.326  0.00  0.00     0.003 A 
ATOM      8  C6  PXY d   1      -1.140  -0.240   0.337  0.00  0.00     0.003 A 
ENDROOT
TORSDOF 0
ENDMDL
