MODEL 1
REMARK minimizedAffinity -4.81999826
REMARK minimizedRMSD -1
REMARK  0 active torsions:
REMARK  status: ('A' for Active; 'I' for Inactive)
ROOT
ATOM      1  C4' PXY d   1       2.591  -1.221   0.759  0.00  0.00     0.077 C 
ATOM      2  C1' PXY d   1       0.199   4.039   0.607  0.00  0.00     0.077 C 
ATOM      3  C1  PXY d   1       0.815   2.655   0.647  0.00  0.00    -0.082 A 
ATOM      4  C2  PXY d   1       2.041   2.497   1.118  0.00  0.00     0.003 A 
ATOM      5  C3  PXY d   1       2.625   1.257   1.131  0.00  0.00     0.003 A 
ATOM      6  C4  PXY d   1       1.926   0.158   0.709  0.00  0.00    -0.082 A 
ATOM      7  C5  PXY d   1       0.670   0.308   0.238  0.00  0.00     0.003 A 
ATOM      8  C6  PXY d   1       0.111   1.582   0.194  0.00  0.00     0.003 A 
ENDROOT
TORSDOF 0
ENDMDL
