MODEL 1
REMARK minimizedAffinity -3.7941041
REMARK minimizedRMSD -1
REMARK  0 active torsions:
REMARK  status: ('A' for Active; 'I' for Inactive)
ROOT
ATOM      1  C1  DEN d   1      -1.466   0.755   1.468  0.00  0.00     0.130 A 
ATOM      2  C2  DEN d   1      -1.710   1.689   0.372  0.00  0.00    -0.031 A 
ATOM      3  C3  DEN d   1      -0.653   1.490  -0.640  0.00  0.00     0.027 A 
ATOM      4  C4  DEN d   1       1.323  -0.168  -0.619  0.00  0.00     0.027 A 
ATOM      5  C5  DEN d   1       1.951  -1.157   0.105  0.00  0.00    -0.003 A 
ATOM      6  C6  DEN d   1       1.508  -1.551   1.340  0.00  0.00     0.001 A 
ATOM      7  C7  DEN d   1       0.378  -0.984   1.868  0.00  0.00     0.017 A 
ATOM      8  C8  DEN d   1      -0.257   0.019   1.147  0.00  0.00    -0.094 A 
ATOM      9  C9  DEN d   1       0.200   0.394  -0.105  0.00  0.00    -0.072 A 
ENDROOT
TORSDOF 0
ENDMDL
