MODEL 1
REMARK minimizedAffinity -4.95311642
REMARK minimizedRMSD -1
REMARK  0 active torsions:
REMARK  status: ('A' for Active; 'I' for Inactive)
ROOT
ATOM      1  C1  DEN d   1      -0.955   0.673  -3.284  0.00  0.00     0.130 A 
ATOM      2  C2  DEN d   1      -2.115   1.466  -2.884  0.00  0.00    -0.031 A 
ATOM      3  C3  DEN d   1      -2.059   1.649  -1.420  0.00  0.00     0.027 A 
ATOM      4  C4  DEN d   1      -0.296   0.793   0.257  0.00  0.00     0.027 A 
ATOM      5  C5  DEN d   1       0.866   0.066   0.390  0.00  0.00    -0.003 A 
ATOM      6  C6  DEN d   1       1.479  -0.533  -0.678  0.00  0.00     0.001 A 
ATOM      7  C7  DEN d   1       0.957  -0.378  -1.935  0.00  0.00     0.017 A 
ATOM      8  C8  DEN d   1      -0.218   0.347  -2.076  0.00  0.00    -0.094 A 
ATOM      9  C9  DEN d   1      -0.817   0.955  -0.986  0.00  0.00    -0.072 A 
ENDROOT
TORSDOF 0
ENDMDL
