MODEL 1
REMARK minimizedAffinity -1.82730031
REMARK minimizedRMSD -1
REMARK  0 active torsions:
REMARK  status: ('A' for Active; 'I' for Inactive)
ROOT
ATOM      1  C1  DEN d   1      -2.360   2.580  -1.933  0.00  0.00     0.130 A 
ATOM      2  C2  DEN d   1      -1.928   2.369  -3.312  0.00  0.00    -0.031 A 
ATOM      3  C3  DEN d   1      -0.872   1.337  -3.307  0.00  0.00     0.027 A 
ATOM      4  C4  DEN d   1       0.129   0.050  -1.309  0.00  0.00     0.027 A 
ATOM      5  C5  DEN d   1       0.090  -0.106   0.059  0.00  0.00    -0.003 A 
ATOM      6  C6  DEN d   1      -0.737   0.641   0.856  0.00  0.00     0.001 A 
ATOM      7  C7  DEN d   1      -1.592   1.547   0.286  0.00  0.00     0.017 A 
ATOM      8  C8  DEN d   1      -1.554   1.714  -1.092  0.00  0.00    -0.094 A 
ATOM      9  C9  DEN d   1      -0.719   0.941  -1.881  0.00  0.00    -0.072 A 
ENDROOT
TORSDOF 0
ENDMDL
