MODEL 1
REMARK minimizedAffinity 1.26969922
REMARK minimizedRMSD -1
REMARK  0 active torsions:
REMARK  status: ('A' for Active; 'I' for Inactive)
ROOT
ATOM      1  C1  DEN d   1       0.385  -1.531   1.674  0.00  0.00     0.130 A 
ATOM      2  C2  DEN d   1       1.774  -1.976   1.608  0.00  0.00    -0.031 A 
ATOM      3  C3  DEN d   1       2.467  -1.162   0.589  0.00  0.00     0.027 A 
ATOM      4  C4  DEN d   1       1.529   0.737  -0.882  0.00  0.00     0.027 A 
ATOM      5  C5  DEN d   1       0.401   1.464  -1.193  0.00  0.00    -0.003 A 
ATOM      6  C6  DEN d   1      -0.809   1.223  -0.599  0.00  0.00     0.001 A 
ATOM      7  C7  DEN d   1      -0.910   0.259   0.370  0.00  0.00     0.017 A 
ATOM      8  C8  DEN d   1       0.221  -0.483   0.683  0.00  0.00    -0.094 A 
ATOM      9  C9  DEN d   1       1.439  -0.215   0.080  0.00  0.00    -0.072 A 
ENDROOT
TORSDOF 0
ENDMDL
