MODEL 1
REMARK minimizedAffinity -0.158537328
REMARK minimizedRMSD -1
REMARK  0 active torsions:
REMARK  status: ('A' for Active; 'I' for Inactive)
ROOT
ATOM      1  C1  DEN d   1      -1.100   0.315   0.503  0.00  0.00     0.130 A 
ATOM      2  C2  DEN d   1      -0.453   0.747  -0.733  0.00  0.00    -0.031 A 
ATOM      3  C3  DEN d   1       0.911   0.183  -0.755  0.00  0.00     0.027 A 
ATOM      4  C4  DEN d   1       2.077  -1.313   0.993  0.00  0.00     0.027 A 
ATOM      5  C5  DEN d   1       1.933  -1.935   2.213  0.00  0.00    -0.003 A 
ATOM      6  C6  DEN d   1       0.789  -1.823   2.959  0.00  0.00     0.001 A 
ATOM      7  C7  DEN d   1      -0.273  -1.109   2.470  0.00  0.00     0.017 A 
ATOM      8  C8  DEN d   1      -0.132  -0.473   1.243  0.00  0.00    -0.094 A 
ATOM      9  C9  DEN d   1       1.028  -0.608   0.499  0.00  0.00    -0.072 A 
ENDROOT
TORSDOF 0
ENDMDL
