MODEL 1
REMARK minimizedAffinity -3.8061049
REMARK minimizedRMSD -1
REMARK  0 active torsions:
REMARK  status: ('A' for Active; 'I' for Inactive)
ROOT
ATOM      1  C1  DEN d   1      -1.464   0.545   1.506  0.00  0.00     0.130 A 
ATOM      2  C2  DEN d   1      -1.580  -0.399   2.614  0.00  0.00    -0.031 A 
ATOM      3  C3  DEN d   1      -0.414  -1.304   2.567  0.00  0.00     0.027 A 
ATOM      4  C4  DEN d   1       1.552  -1.331   0.898  0.00  0.00     0.027 A 
ATOM      5  C5  DEN d   1       2.082  -0.729  -0.223  0.00  0.00    -0.003 A 
ATOM      6  C6  DEN d   1       1.455   0.308  -0.860  0.00  0.00     0.001 A 
ATOM      7  C7  DEN d   1       0.283   0.806  -0.355  0.00  0.00     0.017 A 
ATOM      8  C8  DEN d   1      -0.261   0.200   0.770  0.00  0.00    -0.094 A 
ATOM      9  C9  DEN d   1       0.394  -0.840   1.407  0.00  0.00    -0.072 A 
ENDROOT
TORSDOF 0
ENDMDL
