MODEL 1
REMARK minimizedAffinity -4.66920519
REMARK minimizedRMSD -1
REMARK  0 active torsions:
REMARK  status: ('A' for Active; 'I' for Inactive)
ROOT
ATOM      1  C1  DEN d   1       0.014   1.216   0.016  0.00  0.00     0.130 A 
ATOM      2  C2  DEN d   1       0.562  -0.138   0.002  0.00  0.00    -0.031 A 
ATOM      3  C3  DEN d   1       0.102  -0.804  -1.233  0.00  0.00     0.027 A 
ATOM      4  C4  DEN d   1      -1.393   0.125  -3.117  0.00  0.00     0.027 A 
ATOM      5  C5  DEN d   1      -2.110   1.221  -3.544  0.00  0.00    -0.003 A 
ATOM      6  C6  DEN d   1      -2.197   2.370  -2.805  0.00  0.00     0.001 A 
ATOM      7  C7  DEN d   1      -1.518   2.467  -1.619  0.00  0.00     0.017 A 
ATOM      8  C8  DEN d   1      -0.799   1.363  -1.178  0.00  0.00    -0.094 A 
ATOM      9  C9  DEN d   1      -0.714   0.215  -1.946  0.00  0.00    -0.072 A 
ENDROOT
TORSDOF 0
ENDMDL
