MODEL 1
REMARK minimizedAffinity -2.85559869
REMARK minimizedRMSD -1
REMARK  0 active torsions:
REMARK  status: ('A' for Active; 'I' for Inactive)
ROOT
ATOM      1  C1  DEN d   1      -0.989   1.229   0.103  0.00  0.00     0.130 A 
ATOM      2  C2  DEN d   1      -1.057   1.971  -1.154  0.00  0.00    -0.031 A 
ATOM      3  C3  DEN d   1       0.055   1.516  -2.012  0.00  0.00     0.027 A 
ATOM      4  C4  DEN d   1       1.862  -0.258  -1.523  0.00  0.00     0.027 A 
ATOM      5  C5  DEN d   1       2.336  -1.148  -0.585  0.00  0.00    -0.003 A 
ATOM      6  C6  DEN d   1       1.761  -1.283   0.651  0.00  0.00     0.001 A 
ATOM      7  C7  DEN d   1       0.649  -0.547   0.965  0.00  0.00     0.017 A 
ATOM      8  C8  DEN d   1       0.169   0.358   0.027  0.00  0.00    -0.094 A 
ATOM      9  C9  DEN d   1       0.758   0.470  -1.221  0.00  0.00    -0.072 A 
ENDROOT
TORSDOF 0
ENDMDL
