MODEL 1
REMARK minimizedAffinity -3.93604612
REMARK minimizedRMSD -1
REMARK  0 active torsions:
REMARK  status: ('A' for Active; 'I' for Inactive)
ROOT
ATOM      1  C1  DEN d   1       0.890  -2.005   3.090  0.00  0.00     0.130 A 
ATOM      2  C2  DEN d   1      -0.440  -1.687   3.602  0.00  0.00    -0.031 A 
ATOM      3  C3  DEN d   1      -1.085  -0.758   2.652  0.00  0.00     0.027 A 
ATOM      4  C4  DEN d   1      -0.160   0.209   0.447  0.00  0.00     0.027 A 
ATOM      5  C5  DEN d   1       0.929   0.237  -0.397  0.00  0.00    -0.003 A 
ATOM      6  C6  DEN d   1       2.083  -0.447  -0.123  0.00  0.00     0.001 A 
ATOM      7  C7  DEN d   1       2.160  -1.225   1.002  0.00  0.00     0.017 A 
ATOM      8  C8  DEN d   1       1.070  -1.253   1.861  0.00  0.00    -0.094 A 
ATOM      9  C9  DEN d   1      -0.093  -0.564   1.560  0.00  0.00    -0.072 A 
ENDROOT
TORSDOF 0
ENDMDL
