MODEL 1
REMARK minimizedAffinity -5.00183105
REMARK minimizedRMSD -1
REMARK  0 active torsions:
REMARK  status: ('A' for Active; 'I' for Inactive)
ROOT
ATOM      1  C1  DEN d   1      -0.693   0.713   0.443  0.00  0.00     0.130 A 
ATOM      2  C2  DEN d   1       0.395   0.908  -0.512  0.00  0.00    -0.031 A 
ATOM      3  C3  DEN d   1       1.524   0.049  -0.099  0.00  0.00     0.027 A 
ATOM      4  C4  DEN d   1       1.689  -1.557   1.912  0.00  0.00     0.027 A 
ATOM      5  C5  DEN d   1       1.023  -2.051   3.012  0.00  0.00    -0.003 A 
ATOM      6  C6  DEN d   1      -0.238  -1.637   3.349  0.00  0.00     0.001 A 
ATOM      7  C7  DEN d   1      -0.891  -0.733   2.552  0.00  0.00     0.017 A 
ATOM      8  C8  DEN d   1      -0.223  -0.225   1.446  0.00  0.00    -0.094 A 
ATOM      9  C9  DEN d   1       1.047  -0.666   1.115  0.00  0.00    -0.072 A 
ENDROOT
TORSDOF 0
ENDMDL
