MODEL 1
REMARK minimizedAffinity -2.50346994
REMARK minimizedRMSD -1
REMARK  0 active torsions:
REMARK  status: ('A' for Active; 'I' for Inactive)
ROOT
ATOM      1  C1  DEN d   1      -0.702   0.420   0.300  0.00  0.00     0.130 A 
ATOM      2  C2  DEN d   1       0.301   0.578  -0.750  0.00  0.00    -0.031 A 
ATOM      3  C3  DEN d   1       1.511  -0.162  -0.340  0.00  0.00     0.027 A 
ATOM      4  C4  DEN d   1       1.928  -1.532   1.805  0.00  0.00     0.027 A 
ATOM      5  C5  DEN d   1       1.376  -1.946   2.997  0.00  0.00    -0.003 A 
ATOM      6  C6  DEN d   1       0.116  -1.575   3.387  0.00  0.00     0.001 A 
ATOM      7  C7  DEN d   1      -0.652  -0.804   2.555  0.00  0.00     0.017 A 
ATOM      8  C8  DEN d   1      -0.100  -0.376   1.355  0.00  0.00    -0.094 A 
ATOM      9  C9  DEN d   1       1.171  -0.772   0.974  0.00  0.00    -0.072 A 
ENDROOT
TORSDOF 0
ENDMDL
