MODEL 1
REMARK minimizedAffinity 15.7363672
REMARK minimizedRMSD -1
REMARK  0 active torsions:
REMARK  status: ('A' for Active; 'I' for Inactive)
ROOT
ATOM      1  C1  DEN d   1      -0.369   2.792  -2.057  0.00  0.00     0.130 A 
ATOM      2  C2  DEN d   1      -1.088   2.912  -3.323  0.00  0.00    -0.031 A 
ATOM      3  C3  DEN d   1      -2.408   2.270  -3.161  0.00  0.00     0.027 A 
ATOM      4  C4  DEN d   1      -3.405   1.111  -1.084  0.00  0.00     0.027 A 
ATOM      5  C5  DEN d   1      -3.165   0.751   0.224  0.00  0.00    -0.003 A 
ATOM      6  C6  DEN d   1      -1.974   1.013   0.847  0.00  0.00     0.001 A 
ATOM      7  C7  DEN d   1      -0.993   1.695   0.177  0.00  0.00     0.017 A 
ATOM      8  C8  DEN d   1      -1.224   2.055  -1.144  0.00  0.00    -0.094 A 
ATOM      9  C9  DEN d   1      -2.440   1.791  -1.753  0.00  0.00    -0.072 A 
ENDROOT
TORSDOF 0
ENDMDL
