MODEL 1
REMARK minimizedAffinity -5.94903135
REMARK minimizedRMSD -1
REMARK  2 active torsions:
REMARK  status: ('A' for Active; 'I' for Inactive)
REMARK    1  A    between atoms: C1_2  and  C2_3 
REMARK    2  A    between atoms: C2_3  and  C3_4 
ROOT
ATOM      1  C3  UNL d   1       0.134  -0.061   0.093  0.00  0.00    -0.075 A 
ATOM      2  C4  UNL d   1       1.090  -1.069   0.288  0.00  0.00     0.002 A 
ATOM      3  C5  UNL d   1       2.434  -0.744   0.476  0.00  0.00     0.002 A 
ATOM      4  C6  UNL d   1       2.840   0.588   0.461  0.00  0.00    -0.004 A 
ATOM      5  C7  UNL d   1       1.902   1.597   0.252  0.00  0.00     0.002 A 
ATOM      6  C8  UNL d   1       0.556   1.275   0.068  0.00  0.00     0.002 A 
ENDROOT
BRANCH   1   7
ATOM      7  C2  UNL d   1      -1.326  -0.405  -0.081  0.00  0.00     0.056 C 
BRANCH   7   8
ATOM      8  C1  UNL d   1      -1.962   0.197  -1.339  0.00  0.00     0.007 C 
ATOM      9  C   UNL d   1      -2.473  -0.854  -2.315  0.00  0.00     0.009 C 
ENDBRANCH   7   8
ENDBRANCH   1   7
TORSDOF 2
ENDMDL
