MODEL 1
REMARK minimizedAffinity -6.01827908
REMARK minimizedRMSD -1
REMARK  2 active torsions:
REMARK  status: ('A' for Active; 'I' for Inactive)
REMARK    1  A    between atoms: C1_2  and  C2_3 
REMARK    2  A    between atoms: C2_3  and  C3_4 
ROOT
ATOM      1  C3  UNL d   1      -0.048  -0.236   0.331  0.00  0.00    -0.075 A 
ATOM      2  C4  UNL d   1       0.888   0.807   0.276  0.00  0.00     0.002 A 
ATOM      3  C5  UNL d   1       2.210   0.594   0.668  0.00  0.00     0.002 A 
ATOM      4  C6  UNL d   1       2.610  -0.658   1.129  0.00  0.00    -0.004 A 
ATOM      5  C7  UNL d   1       1.685  -1.697   1.204  0.00  0.00     0.002 A 
ATOM      6  C8  UNL d   1       0.363  -1.488   0.807  0.00  0.00     0.002 A 
ENDROOT
BRANCH   1   7
ATOM      7  C2  UNL d   1      -1.472  -0.020  -0.120  0.00  0.00     0.056 C 
BRANCH   7   8
ATOM      8  C1  UNL d   1      -1.598   0.670  -1.483  0.00  0.00     0.007 C 
ATOM      9  C   UNL d   1      -2.254  -0.205  -2.542  0.00  0.00     0.009 C 
ENDBRANCH   7   8
ENDBRANCH   1   7
TORSDOF 2
ENDMDL
