MODEL 1
REMARK minimizedAffinity -5.74554396
REMARK minimizedRMSD -1
REMARK  2 active torsions:
REMARK  status: ('A' for Active; 'I' for Inactive)
REMARK    1  A    between atoms: C1_2  and  C2_3 
REMARK    2  A    between atoms: C2_3  and  C3_4 
ROOT
ATOM      1  C3  UNL d   1       0.230   0.237  -0.279  0.00  0.00    -0.075 A 
ATOM      2  C4  UNL d   1       1.077  -0.861  -0.074  0.00  0.00     0.002 A 
ATOM      3  C5  UNL d   1       2.313  -0.696   0.551  0.00  0.00     0.002 A 
ATOM      4  C6  UNL d   1       2.722   0.569   0.970  0.00  0.00    -0.004 A 
ATOM      5  C7  UNL d   1       1.895   1.670   0.756  0.00  0.00     0.002 A 
ATOM      6  C8  UNL d   1       0.656   1.506   0.134  0.00  0.00     0.002 A 
ENDROOT
BRANCH   1   7
ATOM      7  C2  UNL d   1      -1.121   0.060  -0.929  0.00  0.00     0.056 C 
BRANCH   7   8
ATOM      8  C1  UNL d   1      -1.055  -0.391  -2.392  0.00  0.00     0.007 C 
ATOM      9  C   UNL d   1      -2.425  -0.667  -2.998  0.00  0.00     0.009 C 
ENDBRANCH   7   8
ENDBRANCH   1   7
TORSDOF 2
ENDMDL
