MODEL 1
REMARK minimizedAffinity -1.68888164
REMARK minimizedRMSD -1
REMARK  2 active torsions:
REMARK  status: ('A' for Active; 'I' for Inactive)
REMARK    1  A    between atoms: C1_2  and  C2_3 
REMARK    2  A    between atoms: C2_3  and  C3_4 
ROOT
ATOM      1  C3  UNL d   1      -0.810   0.640  -0.085  0.00  0.00    -0.075 A 
ATOM      2  C4  UNL d   1      -1.622   1.319  -1.005  0.00  0.00     0.002 A 
ATOM      3  C5  UNL d   1      -1.056   1.998  -2.084  0.00  0.00     0.002 A 
ATOM      4  C6  UNL d   1       0.327   2.015  -2.252  0.00  0.00    -0.004 A 
ATOM      5  C7  UNL d   1       1.144   1.358  -1.335  0.00  0.00     0.002 A 
ATOM      6  C8  UNL d   1       0.580   0.674  -0.257  0.00  0.00     0.002 A 
ENDROOT
BRANCH   1   7
ATOM      7  C2  UNL d   1      -1.419  -0.121   1.068  0.00  0.00     0.056 C 
BRANCH   7   8
ATOM      8  C1  UNL d   1      -0.522  -0.196   2.309  0.00  0.00     0.007 C 
ATOM      9  C   UNL d   1      -0.084  -1.614   2.649  0.00  0.00     0.009 C 
ENDBRANCH   7   8
ENDBRANCH   1   7
TORSDOF 2
ENDMDL
