MODEL 1
REMARK minimizedAffinity -3.93740487
REMARK minimizedRMSD -1
REMARK  2 active torsions:
REMARK  status: ('A' for Active; 'I' for Inactive)
REMARK    1  A    between atoms: C1_2  and  C2_3 
REMARK    2  A    between atoms: C2_3  and  C3_4 
ROOT
ATOM      1  C3  UNL d   1      -0.169   0.422  -0.786  0.00  0.00    -0.075 A 
ATOM      2  C4  UNL d   1      -0.758   0.314   0.482  0.00  0.00     0.002 A 
ATOM      3  C5  UNL d   1      -0.033  -0.197   1.559  0.00  0.00     0.002 A 
ATOM      4  C6  UNL d   1       1.284  -0.614   1.380  0.00  0.00    -0.004 A 
ATOM      5  C7  UNL d   1       1.874  -0.526   0.121  0.00  0.00     0.002 A 
ATOM      6  C8  UNL d   1       1.152  -0.012  -0.958  0.00  0.00     0.002 A 
ENDROOT
BRANCH   1   7
ATOM      7  C2  UNL d   1      -0.939   1.001  -1.949  0.00  0.00     0.056 C 
BRANCH   7   8
ATOM      8  C1  UNL d   1      -1.011   2.532  -1.950  0.00  0.00     0.007 C 
ATOM      9  C   UNL d   1       0.132   3.186  -2.715  0.00  0.00     0.009 C 
ENDBRANCH   7   8
ENDBRANCH   1   7
TORSDOF 2
ENDMDL
