MODEL 1
REMARK minimizedAffinity -1.59385133
REMARK minimizedRMSD -1
REMARK  2 active torsions:
REMARK  status: ('A' for Active; 'I' for Inactive)
REMARK    1  A    between atoms: C1_2  and  C2_3 
REMARK    2  A    between atoms: C2_3  and  C3_4 
ROOT
ATOM      1  C3  UNL d   1      -0.007  -0.004  -0.097  0.00  0.00    -0.075 A 
ATOM      2  C4  UNL d   1      -1.076   0.399   0.718  0.00  0.00     0.002 A 
ATOM      3  C5  UNL d   1      -1.085   0.089   2.078  0.00  0.00     0.002 A 
ATOM      4  C6  UNL d   1      -0.035  -0.635   2.638  0.00  0.00    -0.004 A 
ATOM      5  C7  UNL d   1       1.023  -1.054   1.835  0.00  0.00     0.002 A 
ATOM      6  C8  UNL d   1       1.038  -0.742   0.475  0.00  0.00     0.002 A 
ENDROOT
BRANCH   1   7
ATOM      7  C2  UNL d   1       0.024   0.353  -1.564  0.00  0.00     0.056 C 
BRANCH   7   8
ATOM      8  C1  UNL d   1      -1.092   1.311  -1.996  0.00  0.00     0.007 C 
ATOM      9  C   UNL d   1      -0.575   2.545  -2.722  0.00  0.00     0.009 C 
ENDBRANCH   7   8
ENDBRANCH   1   7
TORSDOF 2
ENDMDL
