MODEL 1
REMARK minimizedAffinity -5.34565735
REMARK minimizedRMSD -1
REMARK  2 active torsions:
REMARK  status: ('A' for Active; 'I' for Inactive)
REMARK    1  A    between atoms: C1_2  and  C2_3 
REMARK    2  A    between atoms: C2_3  and  C3_4 
ROOT
ATOM      1  C3  UNL d   1      -0.240   0.263   1.093  0.00  0.00    -0.075 A 
ATOM      2  C4  UNL d   1      -0.928  -0.307   2.174  0.00  0.00     0.002 A 
ATOM      3  C5  UNL d   1      -0.228  -0.888   3.232  0.00  0.00     0.002 A 
ATOM      4  C6  UNL d   1       1.165  -0.916   3.218  0.00  0.00    -0.004 A 
ATOM      5  C7  UNL d   1       1.858  -0.367   2.142  0.00  0.00     0.002 A 
ATOM      6  C8  UNL d   1       1.161   0.219   1.084  0.00  0.00     0.002 A 
ENDROOT
BRANCH   1   7
ATOM      7  C2  UNL d   1      -0.991   0.920  -0.040  0.00  0.00     0.056 C 
BRANCH   7   8
ATOM      8  C1  UNL d   1      -0.190   1.021  -1.343  0.00  0.00     0.007 C 
ATOM      9  C   UNL d   1      -0.446   2.314  -2.106  0.00  0.00     0.009 C 
ENDBRANCH   7   8
ENDBRANCH   1   7
TORSDOF 2
ENDMDL
