MODEL 1
REMARK minimizedAffinity -5.07864141
REMARK minimizedRMSD -1
REMARK  2 active torsions:
REMARK  status: ('A' for Active; 'I' for Inactive)
REMARK    1  A    between atoms: C1_2  and  C2_3 
REMARK    2  A    between atoms: C2_3  and  C3_4 
ROOT
ATOM      1  C3  UNL d   1       0.169  -0.202   0.014  0.00  0.00    -0.075 A 
ATOM      2  C4  UNL d   1      -0.825  -0.113   1.000  0.00  0.00     0.002 A 
ATOM      3  C5  UNL d   1      -0.496  -0.237   2.350  0.00  0.00     0.002 A 
ATOM      4  C6  UNL d   1       0.825  -0.462   2.731  0.00  0.00    -0.004 A 
ATOM      5  C7  UNL d   1       1.818  -0.569   1.759  0.00  0.00     0.002 A 
ATOM      6  C8  UNL d   1       1.492  -0.441   0.408  0.00  0.00     0.002 A 
ENDROOT
BRANCH   1   7
ATOM      7  C2  UNL d   1      -0.176  -0.040  -1.447  0.00  0.00     0.056 C 
BRANCH   7   8
ATOM      8  C1  UNL d   1      -1.058   1.177  -1.748  0.00  0.00     0.007 C 
ATOM      9  C   UNL d   1      -0.422   2.150  -2.732  0.00  0.00     0.009 C 
ENDBRANCH   7   8
ENDBRANCH   1   7
TORSDOF 2
ENDMDL
