MODEL 1
REMARK minimizedAffinity 12.0887794
REMARK minimizedRMSD -1
REMARK  0 active torsions:
REMARK  status: ('A' for Active; 'I' for Inactive)
ROOT
ATOM      1  O1  BZF d   1       3.281  -2.695   1.838  0.00  0.00    -0.204 OA
ATOM      2  C2  BZF d   1       2.394  -2.750   0.781  0.00  0.00     0.174 A 
ATOM      3  C3  BZF d   1       2.667  -3.802  -0.018  0.00  0.00    -0.012 A 
ATOM      4  C3A BZF d   1       3.738  -4.497   0.628  0.00  0.00    -0.107 A 
ATOM      5  C4  BZF d   1       4.437  -5.631   0.329  0.00  0.00     0.055 A 
ATOM      6  C5  BZF d   1       5.472  -6.000   1.128  0.00  0.00    -0.016 A 
ATOM      7  C6  BZF d   1       5.838  -5.256   2.231  0.00  0.00     0.022 A 
ATOM      8  C7  BZF d   1       5.171  -4.126   2.571  0.00  0.00     0.029 A 
ATOM      9  C7A BZF d   1       4.104  -3.769   1.784  0.00  0.00     0.058 A 
ENDROOT
TORSDOF 0
ENDMDL
