MODEL 1
REMARK minimizedAffinity 7.71961594
REMARK minimizedRMSD -1
REMARK  0 active torsions:
REMARK  status: ('A' for Active; 'I' for Inactive)
ROOT
ATOM      1  O1  BZF d   1       2.192  -3.810   1.058  0.00  0.00    -0.204 OA
ATOM      2  C2  BZF d   1       3.371  -4.008   0.366  0.00  0.00     0.174 A 
ATOM      3  C3  BZF d   1       3.626  -2.966  -0.452  0.00  0.00    -0.012 A 
ATOM      4  C3A BZF d   1       2.586  -2.018  -0.189  0.00  0.00    -0.107 A 
ATOM      5  C4  BZF d   1       2.303  -0.776  -0.679  0.00  0.00     0.055 A 
ATOM      6  C5  BZF d   1       1.171  -0.146  -0.268  0.00  0.00    -0.016 A 
ATOM      7  C6  BZF d   1       0.299  -0.731   0.626  0.00  0.00     0.022 A 
ATOM      8  C7  BZF d   1       0.540  -1.960   1.143  0.00  0.00     0.029 A 
ATOM      9  C7A BZF d   1       1.700  -2.585   0.755  0.00  0.00     0.058 A 
ENDROOT
TORSDOF 0
ENDMDL
