MODEL 1
REMARK minimizedAffinity -0.13087754
REMARK minimizedRMSD -1
REMARK  0 active torsions:
REMARK  status: ('A' for Active; 'I' for Inactive)
ROOT
ATOM      1  O1  BZF d   1       0.063  -0.921   0.551  0.00  0.00    -0.204 OA
ATOM      2  C2  BZF d   1      -0.715   0.107   1.048  0.00  0.00     0.174 A 
ATOM      3  C3  BZF d   1      -0.117   1.299   0.848  0.00  0.00    -0.012 A 
ATOM      4  C3A BZF d   1       1.068   1.005   0.101  0.00  0.00    -0.107 A 
ATOM      5  C4  BZF d   1       2.069   1.778  -0.414  0.00  0.00     0.055 A 
ATOM      6  C5  BZF d   1       3.120   1.174  -1.028  0.00  0.00    -0.016 A 
ATOM      7  C6  BZF d   1       3.205  -0.198  -1.141  0.00  0.00     0.022 A 
ATOM      8  C7  BZF d   1       2.233  -1.006  -0.651  0.00  0.00     0.029 A 
ATOM      9  C7A BZF d   1       1.154  -0.397  -0.058  0.00  0.00     0.058 A 
ENDROOT
TORSDOF 0
ENDMDL
