MODEL 1
REMARK minimizedAffinity 1.26398683
REMARK minimizedRMSD -1
REMARK  0 active torsions:
REMARK  status: ('A' for Active; 'I' for Inactive)
ROOT
ATOM      1  O1  BZF d   1       0.852  -1.155  -0.490  0.00  0.00    -0.204 OA
ATOM      2  C2  BZF d   1       1.939  -1.572   0.254  0.00  0.00     0.174 A 
ATOM      3  C3  BZF d   1       1.665  -1.517   1.574  0.00  0.00    -0.012 A 
ATOM      4  C3A BZF d   1       0.293  -1.122   1.657  0.00  0.00    -0.107 A 
ATOM      5  C4  BZF d   1      -0.562  -0.910   2.701  0.00  0.00     0.055 A 
ATOM      6  C5  BZF d   1      -1.818  -0.460   2.445  0.00  0.00    -0.016 A 
ATOM      7  C6  BZF d   1      -2.252  -0.208   1.160  0.00  0.00     0.022 A 
ATOM      8  C7  BZF d   1      -1.442  -0.408   0.092  0.00  0.00     0.029 A 
ATOM      9  C7A BZF d   1      -0.182  -0.894   0.345  0.00  0.00     0.058 A 
ENDROOT
TORSDOF 0
ENDMDL
