MODEL 1
REMARK minimizedAffinity 6.16727448
REMARK minimizedRMSD -1
REMARK  0 active torsions:
REMARK  status: ('A' for Active; 'I' for Inactive)
ROOT
ATOM      1  O1  BZF d   1      -2.860  -0.791   0.131  0.00  0.00    -0.204 OA
ATOM      2  C2  BZF d   1      -3.103  -0.694   1.488  0.00  0.00     0.174 A 
ATOM      3  C3  BZF d   1      -1.945  -0.636   2.177  0.00  0.00    -0.012 A 
ATOM      4  C3A BZF d   1      -0.916  -0.608   1.184  0.00  0.00    -0.107 A 
ATOM      5  C4  BZF d   1       0.446  -0.536   1.245  0.00  0.00     0.055 A 
ATOM      6  C5  BZF d   1       1.164  -0.603   0.093  0.00  0.00    -0.016 A 
ATOM      7  C6  BZF d   1       0.553  -0.747  -1.135  0.00  0.00     0.022 A 
ATOM      8  C7  BZF d   1      -0.796  -0.817  -1.247  0.00  0.00     0.029 A 
ATOM      9  C7A BZF d   1      -1.525  -0.717  -0.087  0.00  0.00     0.058 A 
ENDROOT
TORSDOF 0
ENDMDL
