MODEL 1
REMARK minimizedAffinity 7.09646273
REMARK minimizedRMSD -1
REMARK  0 active torsions:
REMARK  status: ('A' for Active; 'I' for Inactive)
ROOT
ATOM      1  O1  BZF d   1      -0.023  -0.758  -1.189  0.00  0.00    -0.204 OA
ATOM      2  C2  BZF d   1       1.242  -1.226  -0.888  0.00  0.00     0.174 A 
ATOM      3  C3  BZF d   1       1.383  -1.402   0.442  0.00  0.00    -0.012 A 
ATOM      4  C3A BZF d   1       0.098  -1.110   0.999  0.00  0.00    -0.107 A 
ATOM      5  C4  BZF d   1      -0.399  -1.122   2.271  0.00  0.00     0.055 A 
ATOM      6  C5  BZF d   1      -1.677  -0.712   2.485  0.00  0.00    -0.016 A 
ATOM      7  C6  BZF d   1      -2.483  -0.280   1.452  0.00  0.00     0.022 A 
ATOM      8  C7  BZF d   1      -2.036  -0.255   0.173  0.00  0.00     0.029 A 
ATOM      9  C7A BZF d   1      -0.756  -0.700  -0.051  0.00  0.00     0.058 A 
ENDROOT
TORSDOF 0
ENDMDL
