MODEL 1
REMARK minimizedAffinity 11.9407825
REMARK minimizedRMSD -1
REMARK  0 active torsions:
REMARK  status: ('A' for Active; 'I' for Inactive)
ROOT
ATOM      1  O1  BZF d   1      -1.714  -0.919   1.514  0.00  0.00    -0.204 OA
ATOM      2  C2  BZF d   1      -1.369  -1.407   2.759  0.00  0.00     0.174 A 
ATOM      3  C3  BZF d   1      -0.053  -1.696   2.812  0.00  0.00    -0.012 A 
ATOM      4  C3A BZF d   1       0.475  -1.281   1.548  0.00  0.00    -0.107 A 
ATOM      5  C4  BZF d   1       1.727  -1.294   1.003  0.00  0.00     0.055 A 
ATOM      6  C5  BZF d   1       1.892  -0.884  -0.282  0.00  0.00    -0.016 A 
ATOM      7  C6  BZF d   1       0.828  -0.461  -1.052  0.00  0.00     0.022 A 
ATOM      8  C7  BZF d   1      -0.432  -0.426  -0.554  0.00  0.00     0.029 A 
ATOM      9  C7A BZF d   1      -0.597  -0.808   0.755  0.00  0.00     0.058 A 
ENDROOT
TORSDOF 0
ENDMDL
