MODEL 1
REMARK minimizedAffinity 6.05135632
REMARK minimizedRMSD -1
REMARK  2 active torsions:
REMARK  status: ('A' for Active; 'I' for Inactive)
REMARK    1  A    between atoms: C1_2  and  C2_3 
REMARK    2  A    between atoms: C2_3  and  C3_4 
ROOT
ATOM      1  C3  UNL d   1       3.702  -3.745   1.141  0.00  0.00    -0.075 A 
ATOM      2  C4  UNL d   1       4.460  -4.082   2.271  0.00  0.00     0.002 A 
ATOM      3  C5  UNL d   1       5.294  -5.201   2.256  0.00  0.00     0.002 A 
ATOM      4  C6  UNL d   1       5.373  -6.000   1.118  0.00  0.00    -0.004 A 
ATOM      5  C7  UNL d   1       4.611  -5.683  -0.005  0.00  0.00     0.002 A 
ATOM      6  C8  UNL d   1       3.779  -4.562   0.005  0.00  0.00     0.002 A 
ENDROOT
BRANCH   1   7
ATOM      7  C2  UNL d   1       2.820  -2.519   1.140  0.00  0.00     0.056 C 
BRANCH   7   8
ATOM      8  C1  UNL d   1       1.320  -2.830   1.153  0.00  0.00     0.007 C 
ATOM      9  C   UNL d   1       0.462  -1.633   1.541  0.00  0.00     0.009 C 
ENDBRANCH   7   8
ENDBRANCH   1   7
TORSDOF 2
ENDMDL
