MODEL 1
REMARK minimizedAffinity 6.23113108
REMARK minimizedRMSD -1
REMARK  2 active torsions:
REMARK  status: ('A' for Active; 'I' for Inactive)
REMARK    1  A    between atoms: C1_2  and  C2_3 
REMARK    2  A    between atoms: C2_3  and  C3_4 
ROOT
ATOM      1  C3  UNL d   1       5.017  -4.067   2.674  0.00  0.00    -0.075 A 
ATOM      2  C4  UNL d   1       4.651  -5.161   3.471  0.00  0.00     0.002 A 
ATOM      3  C5  UNL d   1       4.932  -5.168   4.838  0.00  0.00     0.002 A 
ATOM      4  C6  UNL d   1       5.589  -4.087   5.422  0.00  0.00    -0.004 A 
ATOM      5  C7  UNL d   1       5.971  -3.002   4.637  0.00  0.00     0.002 A 
ATOM      6  C8  UNL d   1       5.688  -2.991   3.270  0.00  0.00     0.002 A 
ENDROOT
BRANCH   1   7
ATOM      7  C2  UNL d   1       4.690  -4.041   1.200  0.00  0.00     0.056 C 
BRANCH   7   8
ATOM      8  C1  UNL d   1       4.034  -2.738   0.730  0.00  0.00     0.007 C 
ATOM      9  C   UNL d   1       2.660  -2.948   0.108  0.00  0.00     0.009 C 
ENDBRANCH   7   8
ENDBRANCH   1   7
TORSDOF 2
ENDMDL
