MODEL 1
REMARK minimizedAffinity 6.74838543
REMARK minimizedRMSD -1
REMARK  2 active torsions:
REMARK  status: ('A' for Active; 'I' for Inactive)
REMARK    1  A    between atoms: C1_2  and  C2_3 
REMARK    2  A    between atoms: C2_3  and  C3_4 
ROOT
ATOM      1  C3  UNL d   1       0.195  -0.635   0.756  0.00  0.00    -0.075 A 
ATOM      2  C4  UNL d   1      -0.799  -0.279  -0.166  0.00  0.00     0.002 A 
ATOM      3  C5  UNL d   1      -2.096   0.004   0.263  0.00  0.00     0.002 A 
ATOM      4  C6  UNL d   1      -2.417  -0.076   1.616  0.00  0.00    -0.004 A 
ATOM      5  C7  UNL d   1      -1.442  -0.445   2.540  0.00  0.00     0.002 A 
ATOM      6  C8  UNL d   1      -0.142  -0.724   2.113  0.00  0.00     0.002 A 
ENDROOT
BRANCH   1   7
ATOM      7  C2  UNL d   1       1.608  -0.914   0.301  0.00  0.00     0.056 C 
BRANCH   7   8
ATOM      8  C1  UNL d   1       1.878  -0.538  -1.160  0.00  0.00     0.007 C 
ATOM      9  C   UNL d   1       3.029   0.446  -1.324  0.00  0.00     0.009 C 
ENDBRANCH   7   8
ENDBRANCH   1   7
TORSDOF 2
ENDMDL
