MODEL 1
REMARK minimizedAffinity 6.54307079
REMARK minimizedRMSD -1
REMARK  2 active torsions:
REMARK  status: ('A' for Active; 'I' for Inactive)
REMARK    1  A    between atoms: C1_2  and  C2_3 
REMARK    2  A    between atoms: C2_3  and  C3_4 
ROOT
ATOM      1  C3  UNL d   1       0.486  -0.810   0.613  0.00  0.00    -0.075 A 
ATOM      2  C4  UNL d   1       0.651  -1.698   1.685  0.00  0.00     0.002 A 
ATOM      3  C5  UNL d   1      -0.309  -1.776   2.695  0.00  0.00     0.002 A 
ATOM      4  C6  UNL d   1      -1.439  -0.962   2.650  0.00  0.00    -0.004 A 
ATOM      5  C7  UNL d   1      -1.605  -0.064   1.598  0.00  0.00     0.002 A 
ATOM      6  C8  UNL d   1      -0.648   0.013   0.584  0.00  0.00     0.002 A 
ENDROOT
BRANCH   1   7
ATOM      7  C2  UNL d   1       1.506  -0.742  -0.498  0.00  0.00     0.056 C 
BRANCH   7   8
ATOM      8  C1  UNL d   1       1.770   0.676  -1.017  0.00  0.00     0.007 C 
ATOM      9  C   UNL d   1       3.221   1.112  -0.862  0.00  0.00     0.009 C 
ENDBRANCH   7   8
ENDBRANCH   1   7
TORSDOF 2
ENDMDL
