MODEL 1
REMARK minimizedAffinity 4.25080204
REMARK minimizedRMSD -1
REMARK  2 active torsions:
REMARK  status: ('A' for Active; 'I' for Inactive)
REMARK    1  A    between atoms: C1_2  and  C2_3 
REMARK    2  A    between atoms: C2_3  and  C3_4 
ROOT
ATOM      1  C3  UNL d   1       1.161  -1.501   0.291  0.00  0.00    -0.075 A 
ATOM      2  C4  UNL d   1       0.575  -1.654   1.556  0.00  0.00     0.002 A 
ATOM      3  C5  UNL d   1      -0.702  -1.156   1.811  0.00  0.00     0.002 A 
ATOM      4  C6  UNL d   1      -1.406  -0.490   0.809  0.00  0.00    -0.004 A 
ATOM      5  C7  UNL d   1      -0.827  -0.317  -0.446  0.00  0.00     0.002 A 
ATOM      6  C8  UNL d   1       0.450  -0.819  -0.705  0.00  0.00     0.002 A 
ENDROOT
BRANCH   1   7
ATOM      7  C2  UNL d   1       2.532  -2.064   0.000  0.00  0.00     0.056 C 
BRANCH   7   8
ATOM      8  C1  UNL d   1       2.741  -3.492   0.514  0.00  0.00     0.007 C 
ATOM      9  C   UNL d   1       3.977  -4.165  -0.067  0.00  0.00     0.009 C 
ENDBRANCH   7   8
ENDBRANCH   1   7
TORSDOF 2
ENDMDL
