MODEL 1
REMARK minimizedAffinity -0.285483986
REMARK minimizedRMSD -1
REMARK  2 active torsions:
REMARK  status: ('A' for Active; 'I' for Inactive)
REMARK    1  A    between atoms: C1_2  and  C2_3 
REMARK    2  A    between atoms: C2_3  and  C3_4 
ROOT
ATOM      1  C3  UNL d   1      -2.436  -1.428   2.401  0.00  0.00    -0.075 A 
ATOM      2  C4  UNL d   1      -2.798  -0.543   1.375  0.00  0.00     0.002 A 
ATOM      3  C5  UNL d   1      -1.823   0.167   0.675  0.00  0.00     0.002 A 
ATOM      4  C6  UNL d   1      -0.477   0.012   0.999  0.00  0.00    -0.004 A 
ATOM      5  C7  UNL d   1      -0.107  -0.852   2.027  0.00  0.00     0.002 A 
ATOM      6  C8  UNL d   1      -1.080  -1.568   2.726  0.00  0.00     0.002 A 
ENDROOT
BRANCH   1   7
ATOM      7  C2  UNL d   1      -3.485  -2.222   3.142  0.00  0.00     0.056 C 
BRANCH   7   8
ATOM      8  C1  UNL d   1      -2.916  -3.356   4.002  0.00  0.00     0.007 C 
ATOM      9  C   UNL d   1      -3.844  -3.773   5.136  0.00  0.00     0.009 C 
ENDBRANCH   7   8
ENDBRANCH   1   7
TORSDOF 2
ENDMDL
