MODEL 1
REMARK minimizedAffinity -2.43040466
REMARK minimizedRMSD -1
REMARK  2 active torsions:
REMARK  status: ('A' for Active; 'I' for Inactive)
REMARK    1  A    between atoms: C1_2  and  C2_3 
REMARK    2  A    between atoms: C2_3  and  C3_4 
ROOT
ATOM      1  C3  UNL d   1      -1.233   0.770  -2.570  0.00  0.00    -0.075 A 
ATOM      2  C4  UNL d   1      -2.603   1.049  -2.679  0.00  0.00     0.002 A 
ATOM      3  C5  UNL d   1      -3.038   2.297  -3.125  0.00  0.00     0.002 A 
ATOM      4  C6  UNL d   1      -2.112   3.283  -3.458  0.00  0.00    -0.004 A 
ATOM      5  C7  UNL d   1      -0.749   3.023  -3.338  0.00  0.00     0.002 A 
ATOM      6  C8  UNL d   1      -0.310   1.773  -2.896  0.00  0.00     0.002 A 
ENDROOT
BRANCH   1   7
ATOM      7  C2  UNL d   1      -0.754  -0.588  -2.116  0.00  0.00     0.056 C 
BRANCH   7   8
ATOM      8  C1  UNL d   1      -0.934  -0.843  -0.616  0.00  0.00     0.007 C 
ATOM      9  C   UNL d   1       0.383  -0.892   0.147  0.00  0.00     0.009 C 
ENDBRANCH   7   8
ENDBRANCH   1   7
TORSDOF 2
ENDMDL
