MODEL 1
REMARK minimizedAffinity 1.01559675
REMARK minimizedRMSD -1
REMARK  2 active torsions:
REMARK  status: ('A' for Active; 'I' for Inactive)
REMARK    1  A    between atoms: C1_2  and  C2_3 
REMARK    2  A    between atoms: C2_3  and  C3_4 
ROOT
ATOM      1  C3  UNL d   1       0.739  -1.155   0.991  0.00  0.00    -0.075 A 
ATOM      2  C4  UNL d   1       0.216  -1.075   2.290  0.00  0.00     0.002 A 
ATOM      3  C5  UNL d   1      -1.105  -0.680   2.499  0.00  0.00     0.002 A 
ATOM      4  C6  UNL d   1      -1.917  -0.351   1.415  0.00  0.00    -0.004 A 
ATOM      5  C7  UNL d   1      -1.403  -0.412   0.121  0.00  0.00     0.002 A 
ATOM      6  C8  UNL d   1      -0.082  -0.811  -0.091  0.00  0.00     0.002 A 
ENDROOT
BRANCH   1   7
ATOM      7  C2  UNL d   1       2.160  -1.610   0.756  0.00  0.00     0.056 C 
BRANCH   7   8
ATOM      8  C1  UNL d   1       2.301  -3.117   0.516  0.00  0.00     0.007 C 
ATOM      9  C   UNL d   1       3.706  -3.639   0.784  0.00  0.00     0.009 C 
ENDBRANCH   7   8
ENDBRANCH   1   7
TORSDOF 2
ENDMDL
