MODEL 1
REMARK minimizedAffinity 3.09128165
REMARK minimizedRMSD -1
REMARK  2 active torsions:
REMARK  status: ('A' for Active; 'I' for Inactive)
REMARK    1  A    between atoms: C1_2  and  C2_3 
REMARK    2  A    between atoms: C2_3  and  C3_4 
ROOT
ATOM      1  C3  UNL d   1       1.070  -1.432   1.005  0.00  0.00    -0.075 A 
ATOM      2  C4  UNL d   1       0.669  -1.780   2.303  0.00  0.00     0.002 A 
ATOM      3  C5  UNL d   1      -0.554  -1.339   2.809  0.00  0.00     0.002 A 
ATOM      4  C6  UNL d   1      -1.385  -0.537   2.030  0.00  0.00    -0.004 A 
ATOM      5  C7  UNL d   1      -0.990  -0.171   0.745  0.00  0.00     0.002 A 
ATOM      6  C8  UNL d   1       0.231  -0.615   0.234  0.00  0.00     0.002 A 
ENDROOT
BRANCH   1   7
ATOM      7  C2  UNL d   1       2.379  -1.931   0.440  0.00  0.00     0.056 C 
BRANCH   7   8
ATOM      8  C1  UNL d   1       2.563  -3.449   0.541  0.00  0.00     0.007 C 
ATOM      9  C   UNL d   1       4.023  -3.879   0.513  0.00  0.00     0.009 C 
ENDBRANCH   7   8
ENDBRANCH   1   7
TORSDOF 2
ENDMDL
