MODEL 1
REMARK minimizedAffinity 10.8934164
REMARK minimizedRMSD -1
REMARK  0 active torsions:
REMARK  status: ('A' for Active; 'I' for Inactive)
ROOT
ATOM      1  C   UNL d   1      -2.284   3.457   5.908  0.00  0.00     0.078 C 
ATOM      2  C1  UNL d   1      -1.499   3.146   4.669  0.00  0.00    -0.077 A 
ATOM      3  C2  UNL d   1      -1.997   2.265   3.702  0.00  0.00    -0.001 A 
ATOM      4  C3  UNL d   1      -1.250   1.977   2.558  0.00  0.00     0.003 A 
ATOM      5  C4  UNL d   1      -0.001   2.566   2.372  0.00  0.00    -0.005 A 
ATOM      6  C5  UNL d   1       0.504   3.442   3.330  0.00  0.00     0.003 A 
ATOM      7  C6  UNL d   1      -0.241   3.731   4.475  0.00  0.00    -0.001 A 
ENDROOT
TORSDOF 0
ENDMDL
