MODEL 1
REMARK minimizedAffinity -0.77728945
REMARK minimizedRMSD -1
REMARK  0 active torsions:
REMARK  status: ('A' for Active; 'I' for Inactive)
ROOT
ATOM      1  C   UNL d   1       5.984  -5.585  -3.033  0.00  0.00     0.078 C 
ATOM      2  C1  UNL d   1       4.669  -5.608  -3.754  0.00  0.00    -0.077 A 
ATOM      3  C2  UNL d   1       4.590  -5.992  -5.098  0.00  0.00    -0.001 A 
ATOM      4  C3  UNL d   1       3.360  -6.000  -5.758  0.00  0.00     0.003 A 
ATOM      5  C4  UNL d   1       2.201  -5.623  -5.084  0.00  0.00    -0.005 A 
ATOM      6  C5  UNL d   1       2.270  -5.237  -3.747  0.00  0.00     0.003 A 
ATOM      7  C6  UNL d   1       3.499  -5.229  -3.084  0.00  0.00    -0.001 A 
ENDROOT
TORSDOF 0
ENDMDL
