MODEL 1
REMARK minimizedAffinity 1.79578304
REMARK minimizedRMSD -1
REMARK  0 active torsions:
REMARK  status: ('A' for Active; 'I' for Inactive)
ROOT
ATOM      1  C   UNL d   1       3.558  -2.679  -3.725  0.00  0.00     0.078 C 
ATOM      2  C1  UNL d   1       4.147  -3.813  -4.509  0.00  0.00    -0.077 A 
ATOM      3  C2  UNL d   1       5.467  -3.759  -4.974  0.00  0.00    -0.001 A 
ATOM      4  C3  UNL d   1       5.999  -4.818  -5.712  0.00  0.00     0.003 A 
ATOM      5  C4  UNL d   1       5.219  -5.938  -5.991  0.00  0.00    -0.005 A 
ATOM      6  C5  UNL d   1       3.904  -6.000  -5.534  0.00  0.00     0.003 A 
ATOM      7  C6  UNL d   1       3.370  -4.942  -4.797  0.00  0.00    -0.001 A 
ENDROOT
TORSDOF 0
ENDMDL
