MODEL 1
REMARK minimizedAffinity 13.8375425
REMARK minimizedRMSD -1
REMARK  0 active torsions:
REMARK  status: ('A' for Active; 'I' for Inactive)
ROOT
ATOM      1  C   UNL d   1       0.847  -3.678  -2.891  0.00  0.00     0.078 C 
ATOM      2  C1  UNL d   1       1.516  -4.484  -3.964  0.00  0.00    -0.077 A 
ATOM      3  C2  UNL d   1       0.764  -5.209  -4.896  0.00  0.00    -0.001 A 
ATOM      4  C3  UNL d   1       1.401  -5.962  -5.883  0.00  0.00     0.003 A 
ATOM      5  C4  UNL d   1       2.792  -6.000  -5.947  0.00  0.00    -0.005 A 
ATOM      6  C5  UNL d   1       3.549  -5.283  -5.022  0.00  0.00     0.003 A 
ATOM      7  C6  UNL d   1       2.914  -4.529  -4.034  0.00  0.00    -0.001 A 
ENDROOT
TORSDOF 0
ENDMDL
