MODEL 1
REMARK minimizedAffinity 1.96153653
REMARK minimizedRMSD -1
REMARK  0 active torsions:
REMARK  status: ('A' for Active; 'I' for Inactive)
ROOT
ATOM      1  C   UNL d   1      -1.017   0.675   1.416  0.00  0.00     0.078 C 
ATOM      2  C1  UNL d   1      -0.348   1.899   1.966  0.00  0.00    -0.077 A 
ATOM      3  C2  UNL d   1       0.542   2.646   1.185  0.00  0.00    -0.001 A 
ATOM      4  C3  UNL d   1       1.165   3.778   1.714  0.00  0.00     0.003 A 
ATOM      5  C4  UNL d   1       0.906   4.172   3.025  0.00  0.00    -0.005 A 
ATOM      6  C5  UNL d   1       0.023   3.433   3.810  0.00  0.00     0.003 A 
ATOM      7  C6  UNL d   1      -0.601   2.301   3.283  0.00  0.00    -0.001 A 
ENDROOT
TORSDOF 0
ENDMDL
