MODEL 1
REMARK minimizedAffinity 6.40013456
REMARK minimizedRMSD -1
REMARK  0 active torsions:
REMARK  status: ('A' for Active; 'I' for Inactive)
ROOT
ATOM      1  C   UNL d   1       2.049   1.502  -2.497  0.00  0.00     0.078 C 
ATOM      2  C1  UNL d   1       2.863   1.818  -3.716  0.00  0.00    -0.077 A 
ATOM      3  C2  UNL d   1       4.247   1.604  -3.734  0.00  0.00    -0.001 A 
ATOM      4  C3  UNL d   1       4.994   1.912  -4.872  0.00  0.00     0.003 A 
ATOM      5  C4  UNL d   1       4.367   2.437  -6.000  0.00  0.00    -0.005 A 
ATOM      6  C5  UNL d   1       2.991   2.656  -5.990  0.00  0.00     0.003 A 
ATOM      7  C6  UNL d   1       2.242   2.349  -4.853  0.00  0.00    -0.001 A 
ENDROOT
TORSDOF 0
ENDMDL
