MODEL 1
REMARK minimizedAffinity -3.77138186
REMARK minimizedRMSD -1
REMARK  0 active torsions:
REMARK  status: ('A' for Active; 'I' for Inactive)
ROOT
ATOM      1  C   UNL d   1      -2.520   0.727   1.087  0.00  0.00     0.078 C 
ATOM      2  C1  UNL d   1      -3.554   0.236   2.056  0.00  0.00    -0.077 A 
ATOM      3  C2  UNL d   1      -3.240  -0.736   3.014  0.00  0.00    -0.001 A 
ATOM      4  C3  UNL d   1      -4.214  -1.191   3.904  0.00  0.00     0.003 A 
ATOM      5  C4  UNL d   1      -5.510  -0.681   3.843  0.00  0.00    -0.005 A 
ATOM      6  C5  UNL d   1      -5.832   0.284   2.891  0.00  0.00     0.003 A 
ATOM      7  C6  UNL d   1      -4.859   0.740   2.001  0.00  0.00    -0.001 A 
ENDROOT
TORSDOF 0
ENDMDL
