MODEL 1
REMARK minimizedAffinity 2.63236928
REMARK minimizedRMSD -1
REMARK  0 active torsions:
REMARK  status: ('A' for Active; 'I' for Inactive)
ROOT
ATOM      1  C   UNL d   1       0.295   1.086   0.650  0.00  0.00     0.078 C 
ATOM      2  C1  UNL d   1      -0.008   2.199   1.608  0.00  0.00    -0.077 A 
ATOM      3  C2  UNL d   1      -0.812   1.983   2.733  0.00  0.00    -0.001 A 
ATOM      4  C3  UNL d   1      -1.093   3.031   3.611  0.00  0.00     0.003 A 
ATOM      5  C4  UNL d   1      -0.576   4.303   3.372  0.00  0.00    -0.005 A 
ATOM      6  C5  UNL d   1       0.224   4.528   2.253  0.00  0.00     0.003 A 
ATOM      7  C6  UNL d   1       0.507   3.481   1.374  0.00  0.00    -0.001 A 
ENDROOT
TORSDOF 0
ENDMDL
