MODEL 1
REMARK minimizedAffinity -3.13441086
REMARK minimizedRMSD -1
REMARK  0 active torsions:
REMARK  status: ('A' for Active; 'I' for Inactive)
ROOT
ATOM      1  C   UNL d   1      -0.769   1.261   0.265  0.00  0.00     0.078 C 
ATOM      2  C1  UNL d   1       0.178   2.187   0.968  0.00  0.00    -0.077 A 
ATOM      3  C2  UNL d   1       1.564   2.057   0.813  0.00  0.00    -0.001 A 
ATOM      4  C3  UNL d   1       2.433   2.920   1.481  0.00  0.00     0.003 A 
ATOM      5  C4  UNL d   1       1.927   3.919   2.311  0.00  0.00    -0.005 A 
ATOM      6  C5  UNL d   1       0.550   4.055   2.473  0.00  0.00     0.003 A 
ATOM      7  C6  UNL d   1      -0.321   3.193   1.805  0.00  0.00    -0.001 A 
ENDROOT
TORSDOF 0
ENDMDL
