MODEL 1
REMARK minimizedAffinity 1.10625303
REMARK minimizedRMSD -1
REMARK  0 active torsions:
REMARK  status: ('A' for Active; 'I' for Inactive)
ROOT
ATOM      1  C   UNL d   1       0.545   3.321   3.060  0.00  0.00     0.078 C 
ATOM      2  C1  UNL d   1       0.071   2.428   1.953  0.00  0.00    -0.077 A 
ATOM      3  C2  UNL d   1       0.978   1.691   1.182  0.00  0.00    -0.001 A 
ATOM      4  C3  UNL d   1       0.524   0.871   0.148  0.00  0.00     0.003 A 
ATOM      5  C4  UNL d   1      -0.840   0.780  -0.125  0.00  0.00    -0.005 A 
ATOM      6  C5  UNL d   1      -1.750   1.511   0.635  0.00  0.00     0.003 A 
ATOM      7  C6  UNL d   1      -1.298   2.332   1.670  0.00  0.00    -0.001 A 
ENDROOT
TORSDOF 0
ENDMDL
