MODEL 1
REMARK minimizedAffinity 0.332178116
REMARK minimizedRMSD -1
REMARK  0 active torsions:
REMARK  status: ('A' for Active; 'I' for Inactive)
ROOT
ATOM      1  C   UNL d   1      -4.297  -1.210   4.028  0.00  0.00     0.078 C 
ATOM      2  C1  UNL d   1      -3.132  -0.970   3.115  0.00  0.00    -0.077 A 
ATOM      3  C2  UNL d   1      -3.101   0.142   2.264  0.00  0.00    -0.001 A 
ATOM      4  C3  UNL d   1      -2.015   0.348   1.412  0.00  0.00     0.003 A 
ATOM      5  C4  UNL d   1      -0.952  -0.553   1.402  0.00  0.00    -0.005 A 
ATOM      6  C5  UNL d   1      -0.975  -1.663   2.244  0.00  0.00     0.003 A 
ATOM      7  C6  UNL d   1      -2.061  -1.871   3.097  0.00  0.00    -0.001 A 
ENDROOT
TORSDOF 0
ENDMDL
