MODEL 1
REMARK minimizedAffinity -0.223117754
REMARK minimizedRMSD -1
REMARK  0 active torsions:
REMARK  status: ('A' for Active; 'I' for Inactive)
ROOT
ATOM      1  C   UNL d   1      -1.547   0.442   0.965  0.00  0.00     0.078 C 
ATOM      2  C1  UNL d   1      -2.008  -0.250   2.213  0.00  0.00    -0.077 A 
ATOM      3  C2  UNL d   1      -3.050   0.276   2.987  0.00  0.00    -0.001 A 
ATOM      4  C3  UNL d   1      -3.462  -0.374   4.151  0.00  0.00     0.003 A 
ATOM      5  C4  UNL d   1      -2.837  -1.552   4.554  0.00  0.00    -0.005 A 
ATOM      6  C5  UNL d   1      -1.798  -2.082   3.791  0.00  0.00     0.003 A 
ATOM      7  C6  UNL d   1      -1.384  -1.434   2.627  0.00  0.00    -0.001 A 
ENDROOT
TORSDOF 0
ENDMDL
