MODEL 1
REMARK minimizedAffinity -2.9512167
REMARK minimizedRMSD -1
REMARK  0 active torsions:
REMARK  status: ('A' for Active; 'I' for Inactive)
ROOT
ATOM      1  C   UNL d   1       1.790   3.371  -5.994  0.00  0.00     0.078 C 
ATOM      2  C1  UNL d   1       3.073   3.083  -5.273  0.00  0.00    -0.077 A 
ATOM      3  C2  UNL d   1       3.115   3.015  -3.875  0.00  0.00    -0.001 A 
ATOM      4  C3  UNL d   1       4.318   2.756  -3.216  0.00  0.00     0.003 A 
ATOM      5  C4  UNL d   1       5.488   2.564  -3.947  0.00  0.00    -0.005 A 
ATOM      6  C5  UNL d   1       5.457   2.632  -5.339  0.00  0.00     0.003 A 
ATOM      7  C6  UNL d   1       4.255   2.891  -5.999  0.00  0.00    -0.001 A 
ENDROOT
TORSDOF 0
ENDMDL
