MODEL 1
REMARK minimizedAffinity 0.134807214
REMARK minimizedRMSD -1
REMARK  0 active torsions:
REMARK  status: ('A' for Active; 'I' for Inactive)
ROOT
ATOM      1  C   UNL d   1       5.512   2.268  -2.332  0.00  0.00     0.078 C 
ATOM      2  C1  UNL d   1       4.551   2.484  -3.462  0.00  0.00    -0.077 A 
ATOM      3  C2  UNL d   1       5.008   2.796  -4.748  0.00  0.00    -0.001 A 
ATOM      4  C3  UNL d   1       4.102   3.004  -5.789  0.00  0.00     0.003 A 
ATOM      5  C4  UNL d   1       2.732   2.904  -5.554  0.00  0.00    -0.005 A 
ATOM      6  C5  UNL d   1       2.267   2.596  -4.277  0.00  0.00     0.003 A 
ATOM      7  C6  UNL d   1       3.172   2.388  -3.235  0.00  0.00    -0.001 A 
ENDROOT
TORSDOF 0
ENDMDL
