MODEL 1
REMARK minimizedAffinity -4.28676844
REMARK minimizedRMSD -1
REMARK  0 active torsions:
REMARK  status: ('A' for Active; 'I' for Inactive)
ROOT
ATOM      1  C   UNL d   1       2.134   4.500  -5.988  0.00  0.00     0.078 C 
ATOM      2  C1  UNL d   1       3.307   3.838  -5.328  0.00  0.00    -0.077 A 
ATOM      3  C2  UNL d   1       3.202   3.308  -4.036  0.00  0.00    -0.001 A 
ATOM      4  C3  UNL d   1       4.305   2.703  -3.430  0.00  0.00     0.003 A 
ATOM      5  C4  UNL d   1       5.520   2.625  -4.107  0.00  0.00    -0.005 A 
ATOM      6  C5  UNL d   1       5.634   3.152  -5.392  0.00  0.00     0.003 A 
ATOM      7  C6  UNL d   1       4.533   3.757  -6.000  0.00  0.00    -0.001 A 
ENDROOT
TORSDOF 0
ENDMDL
