MODEL 1
REMARK minimizedAffinity -2.97301173
REMARK minimizedRMSD -1
REMARK  0 active torsions:
REMARK  status: ('A' for Active; 'I' for Inactive)
ROOT
ATOM      1  C   UNL d   1       5.998   3.007  -6.000  0.00  0.00     0.078 C 
ATOM      2  C1  UNL d   1       5.077   3.001  -4.817  0.00  0.00    -0.077 A 
ATOM      3  C2  UNL d   1       3.687   3.016  -4.985  0.00  0.00    -0.001 A 
ATOM      4  C3  UNL d   1       2.842   3.021  -3.874  0.00  0.00     0.003 A 
ATOM      5  C4  UNL d   1       3.377   3.012  -2.587  0.00  0.00    -0.005 A 
ATOM      6  C5  UNL d   1       4.759   3.000  -2.410  0.00  0.00     0.003 A 
ATOM      7  C6  UNL d   1       5.606   2.995  -3.520  0.00  0.00    -0.001 A 
ENDROOT
TORSDOF 0
ENDMDL
