MODEL 1
REMARK minimizedAffinity 4.33879852
REMARK minimizedRMSD -1
REMARK  0 active torsions:
REMARK  status: ('A' for Active; 'I' for Inactive)
ROOT
ATOM      1  C   UNL d   1       2.622   2.051  -2.592  0.00  0.00     0.078 C 
ATOM      2  C1  UNL d   1       3.676   2.043  -3.659  0.00  0.00    -0.077 A 
ATOM      3  C2  UNL d   1       5.026   1.861  -3.338  0.00  0.00    -0.001 A 
ATOM      4  C3  UNL d   1       5.997   1.866  -4.340  0.00  0.00     0.003 A 
ATOM      5  C4  UNL d   1       5.629   2.054  -5.671  0.00  0.00    -0.005 A 
ATOM      6  C5  UNL d   1       4.287   2.239  -6.000  0.00  0.00     0.003 A 
ATOM      7  C6  UNL d   1       3.315   2.234  -4.999  0.00  0.00    -0.001 A 
ENDROOT
TORSDOF 0
ENDMDL
