MODEL 1
REMARK minimizedAffinity 5.12496853
REMARK minimizedRMSD -1
REMARK  0 active torsions:
REMARK  status: ('A' for Active; 'I' for Inactive)
ROOT
ATOM      1  C   UNL d   1       0.987  -2.184  -0.094  0.00  0.00     0.078 C 
ATOM      2  C1  UNL d   1       0.208  -2.964  -1.111  0.00  0.00    -0.077 A 
ATOM      3  C2  UNL d   1       0.851  -3.590  -2.186  0.00  0.00    -0.001 A 
ATOM      4  C3  UNL d   1       0.112  -4.305  -3.131  0.00  0.00     0.003 A 
ATOM      5  C4  UNL d   1      -1.273  -4.400  -3.010  0.00  0.00    -0.005 A 
ATOM      6  C5  UNL d   1      -1.921  -3.779  -1.944  0.00  0.00     0.003 A 
ATOM      7  C6  UNL d   1      -1.184  -3.064  -0.999  0.00  0.00    -0.001 A 
ENDROOT
TORSDOF 0
ENDMDL
