MODEL 1
REMARK minimizedAffinity -0.403172016
REMARK minimizedRMSD -1
REMARK  1 active torsions:
REMARK  status: ('A' for Active; 'I' for Inactive)
REMARK    1  A    between atoms: C3_4  and  O_7 
ROOT
ATOM      1  C   UNL d   1       0.217   4.316  -1.443  0.00  0.00    -0.033 A 
ATOM      2  C1  UNL d   1       0.440   4.730  -0.129  0.00  0.00     0.039 A 
ATOM      3  C2  UNL d   1       0.157   3.869   0.933  0.00  0.00    -0.080 A 
ATOM      4  C3  UNL d   1      -0.346   2.598   0.668  0.00  0.00     0.150 A 
ATOM      5  C4  UNL d   1      -0.566   2.178  -0.640  0.00  0.00    -0.007 A 
ATOM      6  C5  UNL d   1      -0.284   3.040  -1.699  0.00  0.00     0.039 A 
ENDROOT
BRANCH   4   7
ATOM      7  O   UNL d   1      -0.641   1.725   1.672  0.00  0.00    -0.526 OA
ATOM      8  H5  UNL d   1      -0.465   2.162   2.522  0.00  0.00     0.418 HD
ENDBRANCH   4   7
TORSDOF 1
ENDMDL
