MODEL 1
REMARK minimizedAffinity 1.46078217
REMARK minimizedRMSD -1
REMARK  1 active torsions:
REMARK  status: ('A' for Active; 'I' for Inactive)
REMARK    1  A    between atoms: C3_4  and  O_7 
ROOT
ATOM      1  C   UNL d   1      -0.511   2.183   2.971  0.00  0.00    -0.033 A 
ATOM      2  C1  UNL d   1      -1.094   1.427   1.952  0.00  0.00     0.039 A 
ATOM      3  C2  UNL d   1      -0.895   1.782   0.616  0.00  0.00    -0.080 A 
ATOM      4  C3  UNL d   1      -0.111   2.891   0.313  0.00  0.00     0.150 A 
ATOM      5  C4  UNL d   1       0.476   3.647   1.323  0.00  0.00    -0.007 A 
ATOM      6  C5  UNL d   1       0.275   3.292   2.656  0.00  0.00     0.039 A 
ENDROOT
BRANCH   4   7
ATOM      7  O   UNL d   1       0.108   3.279  -0.975  0.00  0.00    -0.526 OA
ATOM      8  H5  UNL d   1      -0.383   2.682  -1.564  0.00  0.00     0.418 HD
ENDBRANCH   4   7
TORSDOF 1
ENDMDL
