MODEL 1
REMARK minimizedAffinity -2.59367824
REMARK minimizedRMSD -1
REMARK  1 active torsions:
REMARK  status: ('A' for Active; 'I' for Inactive)
REMARK    1  A    between atoms: C3_4  and  O_7 
ROOT
ATOM      1  C   UNL d   1      -0.271   3.684  -1.507  0.00  0.00    -0.033 A 
ATOM      2  C1  UNL d   1      -0.228   4.571  -0.429  0.00  0.00     0.039 A 
ATOM      3  C2  UNL d   1      -0.439   4.105   0.870  0.00  0.00    -0.080 A 
ATOM      4  C3  UNL d   1      -0.691   2.752   1.078  0.00  0.00     0.150 A 
ATOM      5  C4  UNL d   1      -0.731   1.862   0.009  0.00  0.00    -0.007 A 
ATOM      6  C5  UNL d   1      -0.521   2.330  -1.287  0.00  0.00     0.039 A 
ENDROOT
BRANCH   4   7
ATOM      7  O   UNL d   1      -0.908   2.251   2.327  0.00  0.00    -0.526 OA
ATOM      8  H5  UNL d   1      -0.878   2.986   2.962  0.00  0.00     0.418 HD
ENDBRANCH   4   7
TORSDOF 1
ENDMDL
