MODEL 1
REMARK minimizedAffinity 3.44408035
REMARK minimizedRMSD -1
REMARK  1 active torsions:
REMARK  status: ('A' for Active; 'I' for Inactive)
REMARK    1  A    between atoms: C3_4  and  O_7 
ROOT
ATOM      1  C   UNL d   1      -1.403   5.132  -1.976  0.00  0.00    -0.033 A 
ATOM      2  C1  UNL d   1      -1.591   5.524  -0.649  0.00  0.00     0.039 A 
ATOM      3  C2  UNL d   1      -0.951   4.834   0.382  0.00  0.00    -0.080 A 
ATOM      4  C3  UNL d   1      -0.124   3.757   0.074  0.00  0.00     0.150 A 
ATOM      5  C4  UNL d   1       0.071   3.364  -1.246  0.00  0.00    -0.007 A 
ATOM      6  C5  UNL d   1      -0.570   4.053  -2.274  0.00  0.00     0.039 A 
ENDROOT
BRANCH   4   7
ATOM      7  O   UNL d   1       0.518   3.050   1.046  0.00  0.00    -0.526 OA
ATOM      8  H5  UNL d   1       0.267   3.417   1.910  0.00  0.00     0.418 HD
ENDBRANCH   4   7
TORSDOF 1
ENDMDL
