MODEL 1
REMARK minimizedAffinity 7.73906326
REMARK minimizedRMSD -1
REMARK  1 active torsions:
REMARK  status: ('A' for Active; 'I' for Inactive)
REMARK    1  A    between atoms: C3_4  and  O_7 
ROOT
ATOM      1  C   UNL d   1       0.894   5.102  -1.661  0.00  0.00    -0.033 A 
ATOM      2  C1  UNL d   1       1.001   5.076  -0.269  0.00  0.00     0.039 A 
ATOM      3  C2  UNL d   1       0.616   3.938   0.441  0.00  0.00    -0.080 A 
ATOM      4  C3  UNL d   1       0.127   2.833  -0.251  0.00  0.00     0.150 A 
ATOM      5  C4  UNL d   1       0.021   2.851  -1.638  0.00  0.00    -0.007 A 
ATOM      6  C5  UNL d   1       0.405   3.989  -2.346  0.00  0.00     0.039 A 
ENDROOT
BRANCH   4   7
ATOM      7  O   UNL d   1      -0.265   1.701   0.399  0.00  0.00    -0.526 OA
ATOM      8  H5  UNL d   1      -0.163   1.844   1.355  0.00  0.00     0.418 HD
ENDBRANCH   4   7
TORSDOF 1
ENDMDL
