MODEL 1
REMARK minimizedAffinity 9.73410225
REMARK minimizedRMSD -1
REMARK  1 active torsions:
REMARK  status: ('A' for Active; 'I' for Inactive)
REMARK    1  A    between atoms: C3_4  and  O_7 
ROOT
ATOM      1  C   UNL d   1      -1.245   1.196   0.218  0.00  0.00    -0.033 A 
ATOM      2  C1  UNL d   1      -1.308   2.452  -0.388  0.00  0.00     0.039 A 
ATOM      3  C2  UNL d   1      -0.267   3.366  -0.216  0.00  0.00    -0.080 A 
ATOM      4  C3  UNL d   1       0.832   3.011   0.562  0.00  0.00     0.150 A 
ATOM      5  C4  UNL d   1       0.903   1.760   1.166  0.00  0.00    -0.007 A 
ATOM      6  C5  UNL d   1      -0.139   0.850   0.994  0.00  0.00     0.039 A 
ENDROOT
BRANCH   4   7
ATOM      7  O   UNL d   1       1.870   3.871   0.763  0.00  0.00    -0.526 OA
ATOM      8  H5  UNL d   1       1.670   4.707   0.309  0.00  0.00     0.418 HD
ENDBRANCH   4   7
TORSDOF 1
ENDMDL
