MODEL 1
REMARK minimizedAffinity 2.00791407
REMARK minimizedRMSD -1
REMARK  1 active torsions:
REMARK  status: ('A' for Active; 'I' for Inactive)
REMARK    1  A    between atoms: C3_4  and  O_7 
ROOT
ATOM      1  C   UNL d   1       0.226   4.512   0.499  0.00  0.00    -0.033 A 
ATOM      2  C1  UNL d   1       0.857   3.483  -0.203  0.00  0.00     0.039 A 
ATOM      3  C2  UNL d   1       0.385   3.102  -1.461  0.00  0.00    -0.080 A 
ATOM      4  C3  UNL d   1      -0.716   3.757  -2.005  0.00  0.00     0.150 A 
ATOM      5  C4  UNL d   1      -1.347   4.786  -1.313  0.00  0.00    -0.007 A 
ATOM      6  C5  UNL d   1      -0.875   5.165  -0.057  0.00  0.00     0.039 A 
ENDROOT
BRANCH   4   7
ATOM      7  O   UNL d   1      -1.215   3.418  -3.227  0.00  0.00    -0.526 OA
ATOM      8  H5  UNL d   1      -0.697   2.673  -3.575  0.00  0.00     0.418 HD
ENDBRANCH   4   7
TORSDOF 1
ENDMDL
