MODEL 1
REMARK minimizedAffinity 5.05787706
REMARK minimizedRMSD -1
REMARK  1 active torsions:
REMARK  status: ('A' for Active; 'I' for Inactive)
REMARK    1  A    between atoms: C3_4  and  O_7 
ROOT
ATOM      1  C   UNL d   1       0.077   2.871   0.746  0.00  0.00    -0.033 A 
ATOM      2  C1  UNL d   1      -0.806   1.930   0.213  0.00  0.00     0.039 A 
ATOM      3  C2  UNL d   1      -1.258   2.061  -1.102  0.00  0.00    -0.080 A 
ATOM      4  C3  UNL d   1      -0.819   3.135  -1.871  0.00  0.00     0.150 A 
ATOM      5  C4  UNL d   1       0.063   4.074  -1.348  0.00  0.00    -0.007 A 
ATOM      6  C5  UNL d   1       0.513   3.942  -0.034  0.00  0.00     0.039 A 
ENDROOT
BRANCH   4   7
ATOM      7  O   UNL d   1      -1.237   3.307  -3.158  0.00  0.00    -0.526 OA
ATOM      8  H5  UNL d   1      -1.866   2.599  -3.374  0.00  0.00     0.418 HD
ENDBRANCH   4   7
TORSDOF 1
ENDMDL
