MODEL 1
REMARK minimizedAffinity 9.24327755
REMARK minimizedRMSD -1
REMARK  1 active torsions:
REMARK  status: ('A' for Active; 'I' for Inactive)
REMARK    1  A    between atoms: C3_4  and  O_7 
ROOT
ATOM      1  C   UNL d   1      -3.335  -2.533   4.930  0.00  0.00    -0.033 A 
ATOM      2  C1  UNL d   1      -3.351  -3.428   3.858  0.00  0.00     0.039 A 
ATOM      3  C2  UNL d   1      -4.243  -4.502   3.857  0.00  0.00    -0.080 A 
ATOM      4  C3  UNL d   1      -5.113  -4.669   4.931  0.00  0.00     0.150 A 
ATOM      5  C4  UNL d   1      -5.105  -3.779   6.000  0.00  0.00    -0.007 A 
ATOM      6  C5  UNL d   1      -4.213  -2.707   6.000  0.00  0.00     0.039 A 
ENDROOT
BRANCH   4   7
ATOM      7  O   UNL d   1      -5.998  -5.705   4.976  0.00  0.00    -0.526 OA
ATOM      8  H5  UNL d   1      -5.870  -6.254   4.184  0.00  0.00     0.418 HD
ENDBRANCH   4   7
TORSDOF 1
ENDMDL
