MODEL 1
REMARK minimizedAffinity -0.215163842
REMARK minimizedRMSD -1
REMARK  1 active torsions:
REMARK  status: ('A' for Active; 'I' for Inactive)
REMARK    1  A    between atoms: C3_4  and  O_7 
ROOT
ATOM      1  C   UNL d   1       0.488   3.695   0.395  0.00  0.00    -0.033 A 
ATOM      2  C1  UNL d   1      -0.153   2.458   0.492  0.00  0.00     0.039 A 
ATOM      3  C2  UNL d   1      -0.821   1.927  -0.613  0.00  0.00    -0.080 A 
ATOM      4  C3  UNL d   1      -0.839   2.641  -1.808  0.00  0.00     0.150 A 
ATOM      5  C4  UNL d   1      -0.199   3.872  -1.913  0.00  0.00    -0.007 A 
ATOM      6  C5  UNL d   1       0.466   4.401  -0.808  0.00  0.00     0.039 A 
ENDROOT
BRANCH   4   7
ATOM      7  O   UNL d   1      -1.482   2.166  -2.912  0.00  0.00    -0.526 OA
ATOM      8  H5  UNL d   1      -1.902   1.321  -2.684  0.00  0.00     0.418 HD
ENDBRANCH   4   7
TORSDOF 1
ENDMDL
