MODEL 1
REMARK minimizedAffinity 5.36688995
REMARK minimizedRMSD -1
REMARK  1 active torsions:
REMARK  status: ('A' for Active; 'I' for Inactive)
REMARK    1  A    between atoms: C3_4  and  O_7 
ROOT
ATOM      1  C   UNL d   1      -0.540   3.102  -2.028  0.00  0.00    -0.033 A 
ATOM      2  C1  UNL d   1       0.220   4.229  -2.348  0.00  0.00     0.039 A 
ATOM      3  C2  UNL d   1       0.982   4.862  -1.364  0.00  0.00    -0.080 A 
ATOM      4  C3  UNL d   1       0.977   4.358  -0.067  0.00  0.00     0.150 A 
ATOM      5  C4  UNL d   1       0.226   3.234   0.259  0.00  0.00    -0.007 A 
ATOM      6  C5  UNL d   1      -0.536   2.603  -0.725  0.00  0.00     0.039 A 
ENDROOT
BRANCH   4   7
ATOM      7  O   UNL d   1       1.701   4.945   0.928  0.00  0.00    -0.526 OA
ATOM      8  H5  UNL d   1       2.147   5.728   0.564  0.00  0.00     0.418 HD
ENDBRANCH   4   7
TORSDOF 1
ENDMDL
