MODEL 1
REMARK minimizedAffinity 5.36046171
REMARK minimizedRMSD -1
REMARK  1 active torsions:
REMARK  status: ('A' for Active; 'I' for Inactive)
REMARK    1  A    between atoms: C3_4  and  O_7 
ROOT
ATOM      1  C   UNL d   1      -1.371   4.080   0.459  0.00  0.00    -0.033 A 
ATOM      2  C1  UNL d   1      -0.798   2.887   0.013  0.00  0.00     0.039 A 
ATOM      3  C2  UNL d   1       0.356   2.917  -0.773  0.00  0.00    -0.080 A 
ATOM      4  C3  UNL d   1       0.926   4.143  -1.104  0.00  0.00     0.150 A 
ATOM      5  C4  UNL d   1       0.362   5.334  -0.660  0.00  0.00    -0.007 A 
ATOM      6  C5  UNL d   1      -0.791   5.303   0.124  0.00  0.00     0.039 A 
ENDROOT
BRANCH   4   7
ATOM      7  O   UNL d   1       2.049   4.222  -1.873  0.00  0.00    -0.526 OA
ATOM      8  H5  UNL d   1       2.310   3.322  -2.130  0.00  0.00     0.418 HD
ENDBRANCH   4   7
TORSDOF 1
ENDMDL
