MODEL 1
REMARK minimizedAffinity 2.14238405
REMARK minimizedRMSD -1
REMARK  1 active torsions:
REMARK  status: ('A' for Active; 'I' for Inactive)
REMARK    1  A    between atoms: C3_4  and  O_7 
ROOT
ATOM      1  C   UNL d   1      -0.490   3.905   0.326  0.00  0.00    -0.033 A 
ATOM      2  C1  UNL d   1      -0.559   5.298   0.398  0.00  0.00     0.039 A 
ATOM      3  C2  UNL d   1       0.313   6.000   1.232  0.00  0.00    -0.080 A 
ATOM      4  C3  UNL d   1       1.249   5.299   1.987  0.00  0.00     0.150 A 
ATOM      5  C4  UNL d   1       1.326   3.912   1.917  0.00  0.00    -0.007 A 
ATOM      6  C5  UNL d   1       0.454   3.212   1.084  0.00  0.00     0.039 A 
ENDROOT
BRANCH   4   7
ATOM      7  O   UNL d   1       2.118   5.940   2.818  0.00  0.00    -0.526 OA
ATOM      8  H5  UNL d   1       1.929   6.893   2.786  0.00  0.00     0.418 HD
ENDBRANCH   4   7
TORSDOF 1
ENDMDL
