MODEL 1
REMARK minimizedAffinity -1.33460104
REMARK minimizedRMSD -1
REMARK  1 active torsions:
REMARK  status: ('A' for Active; 'I' for Inactive)
REMARK    1  A    between atoms: C3_4  and  O_7 
ROOT
ATOM      1  C   UNL d   1      -1.496  -3.891   5.315  0.00  0.00    -0.033 A 
ATOM      2  C1  UNL d   1      -1.618  -2.588   4.828  0.00  0.00     0.039 A 
ATOM      3  C2  UNL d   1      -2.838  -1.916   4.925  0.00  0.00    -0.080 A 
ATOM      4  C3  UNL d   1      -3.926  -2.557   5.510  0.00  0.00     0.150 A 
ATOM      5  C4  UNL d   1      -3.811  -3.853   6.000  0.00  0.00    -0.007 A 
ATOM      6  C5  UNL d   1      -2.592  -4.523   5.902  0.00  0.00     0.039 A 
ENDROOT
BRANCH   4   7
ATOM      7  O   UNL d   1      -5.138  -1.943   5.622  0.00  0.00    -0.526 OA
ATOM      8  H5  UNL d   1      -5.077  -1.063   5.215  0.00  0.00     0.418 HD
ENDBRANCH   4   7
TORSDOF 1
ENDMDL
