MODEL 1
REMARK minimizedAffinity 0.0776372999
REMARK minimizedRMSD -1
REMARK  1 active torsions:
REMARK  status: ('A' for Active; 'I' for Inactive)
REMARK    1  A    between atoms: C3_4  and  O_7 
ROOT
ATOM      1  C   UNL d   1      -1.297   0.191   2.391  0.00  0.00    -0.033 A 
ATOM      2  C1  UNL d   1      -0.748   0.309   1.113  0.00  0.00     0.039 A 
ATOM      3  C2  UNL d   1      -0.187   1.519   0.701  0.00  0.00    -0.080 A 
ATOM      4  C3  UNL d   1      -0.182   2.603   1.575  0.00  0.00     0.150 A 
ATOM      5  C4  UNL d   1      -0.724   2.491   2.851  0.00  0.00    -0.007 A 
ATOM      6  C5  UNL d   1      -1.284   1.282   3.261  0.00  0.00     0.039 A 
ENDROOT
BRANCH   4   7
ATOM      7  O   UNL d   1       0.350   3.806   1.216  0.00  0.00    -0.526 OA
ATOM      8  H5  UNL d   1       0.661   3.743   0.297  0.00  0.00     0.418 HD
ENDBRANCH   4   7
TORSDOF 1
ENDMDL
