MODEL 1
REMARK minimizedAffinity 0.231094718
REMARK minimizedRMSD -1
REMARK  1 active torsions:
REMARK  status: ('A' for Active; 'I' for Inactive)
REMARK    1  A    between atoms: C1_2  and  C2_3 
ROOT
ATOM      1  C2  UNL d   1       1.272   2.853  -0.768  0.00  0.00    -0.073 A 
ATOM      2  C3  UNL d   1       1.152   2.998   0.618  0.00  0.00    -0.002 A 
ATOM      3  C4  UNL d   1       0.847   1.896   1.418  0.00  0.00     0.004 A 
ATOM      4  C5  UNL d   1       0.666   0.638   0.842  0.00  0.00    -0.004 A 
ATOM      5  C6  UNL d   1       0.793   0.472  -0.541  0.00  0.00    -0.075 A 
ATOM      6  C7  UNL d   1       0.599  -0.873  -1.177  0.00  0.00     0.076 C 
ATOM      7  C8  UNL d   1       1.097   1.584  -1.338  0.00  0.00     0.001 A 
ENDROOT
BRANCH   1   8
ATOM      8  C1  UNL d   1       1.607   4.039  -1.635  0.00  0.00     0.053 C 
ATOM      9  C   UNL d   1       1.732   5.320  -0.826  0.00  0.00     0.018 C 
ENDBRANCH   1   8
TORSDOF 1
ENDMDL
