MODEL 1
REMARK minimizedAffinity -0.575587749
REMARK minimizedRMSD -1
REMARK  1 active torsions:
REMARK  status: ('A' for Active; 'I' for Inactive)
REMARK    1  A    between atoms: C1_2  and  C2_3 
ROOT
ATOM      1  C2  UNL d   1       1.317   3.910  -0.740  0.00  0.00    -0.073 A 
ATOM      2  C3  UNL d   1       1.026   3.605  -2.075  0.00  0.00    -0.002 A 
ATOM      3  C4  UNL d   1       0.764   2.289  -2.456  0.00  0.00     0.004 A 
ATOM      4  C5  UNL d   1       0.783   1.266  -1.508  0.00  0.00    -0.004 A 
ATOM      5  C6  UNL d   1       1.060   1.552  -0.167  0.00  0.00    -0.075 A 
ATOM      6  C7  UNL d   1       1.087   0.463   0.865  0.00  0.00     0.076 C 
ATOM      7  C8  UNL d   1       1.325   2.877   0.207  0.00  0.00     0.001 A 
ENDROOT
BRANCH   1   8
ATOM      8  C1  UNL d   1       1.594   5.331  -0.322  0.00  0.00     0.053 C 
ATOM      9  C   UNL d   1       2.621   6.000  -1.222  0.00  0.00     0.018 C 
ENDBRANCH   1   8
TORSDOF 1
ENDMDL
