MODEL 1
REMARK minimizedAffinity -2.74148703
REMARK minimizedRMSD -1
REMARK  1 active torsions:
REMARK  status: ('A' for Active; 'I' for Inactive)
REMARK    1  A    between atoms: C1_2  and  C2_3 
ROOT
ATOM      1  C2  UNL d   1       0.914   0.682  -0.918  0.00  0.00    -0.073 A 
ATOM      2  C3  UNL d   1       1.810   0.248   0.066  0.00  0.00    -0.002 A 
ATOM      3  C4  UNL d   1       1.927  -1.111   0.362  0.00  0.00     0.004 A 
ATOM      4  C5  UNL d   1       1.157  -2.049  -0.326  0.00  0.00    -0.004 A 
ATOM      5  C6  UNL d   1       0.265  -1.636  -1.321  0.00  0.00    -0.075 A 
ATOM      6  C7  UNL d   1      -0.572  -2.631  -2.068  0.00  0.00     0.076 C 
ATOM      7  C8  UNL d   1       0.151  -0.269  -1.611  0.00  0.00     0.001 A 
ENDROOT
BRANCH   1   8
ATOM      8  C1  UNL d   1       0.789   2.147  -1.246  0.00  0.00     0.053 C 
ATOM      9  C   UNL d   1       1.886   2.616  -2.189  0.00  0.00     0.018 C 
ENDBRANCH   1   8
TORSDOF 1
ENDMDL
