MODEL 1
REMARK minimizedAffinity -3.09755015
REMARK minimizedRMSD -1
REMARK  1 active torsions:
REMARK  status: ('A' for Active; 'I' for Inactive)
REMARK    1  A    between atoms: C1_2  and  C2_3 
ROOT
ATOM      1  C2  UNL d   1       1.709   1.541  -0.578  0.00  0.00    -0.073 A 
ATOM      2  C3  UNL d   1       1.551   1.673  -1.962  0.00  0.00    -0.002 A 
ATOM      3  C4  UNL d   1       1.552   0.544  -2.783  0.00  0.00     0.004 A 
ATOM      4  C5  UNL d   1       1.703  -0.727  -2.228  0.00  0.00    -0.004 A 
ATOM      5  C6  UNL d   1       1.850  -0.880  -0.846  0.00  0.00    -0.075 A 
ATOM      6  C7  UNL d   1       2.016  -2.240  -0.234  0.00  0.00     0.076 C 
ATOM      7  C8  UNL d   1       1.851   0.259  -0.029  0.00  0.00     0.001 A 
ENDROOT
BRANCH   1   8
ATOM      8  C1  UNL d   1       1.703   2.756   0.312  0.00  0.00     0.053 C 
ATOM      9  C   UNL d   1       2.792   3.747  -0.067  0.00  0.00     0.018 C 
ENDBRANCH   1   8
TORSDOF 1
ENDMDL
