MODEL 1
REMARK minimizedAffinity 1.94598615
REMARK minimizedRMSD -1
REMARK  1 active torsions:
REMARK  status: ('A' for Active; 'I' for Inactive)
REMARK    1  A    between atoms: C1_2  and  C2_3 
ROOT
ATOM      1  C2  UNL d   1       1.004   1.020  -0.683  0.00  0.00    -0.073 A 
ATOM      2  C3  UNL d   1       1.815   0.911   0.453  0.00  0.00    -0.002 A 
ATOM      3  C4  UNL d   1       2.085  -0.340   1.009  0.00  0.00     0.004 A 
ATOM      4  C5  UNL d   1       1.553  -1.494   0.432  0.00  0.00    -0.004 A 
ATOM      5  C6  UNL d   1       0.750  -1.406  -0.710  0.00  0.00    -0.075 A 
ATOM      6  C7  UNL d   1       0.169  -2.637  -1.341  0.00  0.00     0.076 C 
ATOM      7  C8  UNL d   1       0.482  -0.146  -1.261  0.00  0.00     0.001 A 
ENDROOT
BRANCH   1   8
ATOM      8  C1  UNL d   1       0.716   2.369  -1.290  0.00  0.00     0.053 C 
ATOM      9  C   UNL d   1       1.863   2.860  -2.159  0.00  0.00     0.018 C 
ENDBRANCH   1   8
TORSDOF 1
ENDMDL
