MODEL 1
REMARK minimizedAffinity -3.82785559
REMARK minimizedRMSD -1
REMARK  1 active torsions:
REMARK  status: ('A' for Active; 'I' for Inactive)
REMARK    1  A    between atoms: C1_2  and  C2_3 
ROOT
ATOM      1  C2  UNL d   1       1.495   3.524  -0.609  0.00  0.00    -0.073 A 
ATOM      2  C3  UNL d   1       1.641   3.238   0.753  0.00  0.00    -0.002 A 
ATOM      3  C4  UNL d   1       1.669   1.915   1.196  0.00  0.00     0.004 A 
ATOM      4  C5  UNL d   1       1.557   0.866   0.284  0.00  0.00    -0.004 A 
ATOM      5  C6  UNL d   1       1.422   1.131  -1.082  0.00  0.00    -0.075 A 
ATOM      6  C7  UNL d   1       1.299   0.014  -2.077  0.00  0.00     0.076 C 
ATOM      7  C8  UNL d   1       1.392   2.462  -1.520  0.00  0.00     0.001 A 
ENDROOT
BRANCH   1   8
ATOM      8  C1  UNL d   1       1.471   4.951  -1.094  0.00  0.00     0.053 C 
ATOM      9  C   UNL d   1       2.671   5.741  -0.598  0.00  0.00     0.018 C 
ENDBRANCH   1   8
TORSDOF 1
ENDMDL
