MODEL 1
REMARK minimizedAffinity 2.28746319
REMARK minimizedRMSD -1
REMARK  1 active torsions:
REMARK  status: ('A' for Active; 'I' for Inactive)
REMARK    1  A    between atoms: C1_2  and  C2_3 
ROOT
ATOM      1  C2  UNL d   1       1.334   2.548  -0.330  0.00  0.00    -0.073 A 
ATOM      2  C3  UNL d   1       1.960   2.375  -1.570  0.00  0.00    -0.002 A 
ATOM      3  C4  UNL d   1       2.103   1.099  -2.115  0.00  0.00     0.004 A 
ATOM      4  C5  UNL d   1       1.617  -0.016  -1.432  0.00  0.00    -0.004 A 
ATOM      5  C6  UNL d   1       0.978   0.138  -0.197  0.00  0.00    -0.075 A 
ATOM      6  C7  UNL d   1       0.452  -1.051   0.552  0.00  0.00     0.076 C 
ATOM      7  C8  UNL d   1       0.840   1.422   0.346  0.00  0.00     0.001 A 
ENDROOT
BRANCH   1   8
ATOM      8  C1  UNL d   1       1.171   3.925   0.260  0.00  0.00     0.053 C 
ATOM      9  C   UNL d   1       1.698   5.008  -0.667  0.00  0.00     0.018 C 
ENDBRANCH   1   8
TORSDOF 1
ENDMDL
