MODEL 1
REMARK minimizedAffinity -3.53213191
REMARK minimizedRMSD -1
REMARK  1 active torsions:
REMARK  status: ('A' for Active; 'I' for Inactive)
REMARK    1  A    between atoms: C1_2  and  C2_3 
ROOT
ATOM      1  C2  UNL d   1       1.331   3.095  -0.936  0.00  0.00    -0.073 A 
ATOM      2  C3  UNL d   1       1.037   2.985   0.428  0.00  0.00    -0.002 A 
ATOM      3  C4  UNL d   1       0.773   1.736   0.993  0.00  0.00     0.004 A 
ATOM      4  C5  UNL d   1       0.806   0.587   0.203  0.00  0.00    -0.004 A 
ATOM      5  C6  UNL d   1       1.110   0.676  -1.159  0.00  0.00    -0.075 A 
ATOM      6  C7  UNL d   1       1.148  -0.551  -2.023  0.00  0.00     0.076 C 
ATOM      7  C8  UNL d   1       1.372   1.933  -1.720  0.00  0.00     0.001 A 
ENDROOT
BRANCH   1   8
ATOM      8  C1  UNL d   1       1.624   4.440  -1.549  0.00  0.00     0.053 C 
ATOM      9  C   UNL d   1       1.694   5.541  -0.502  0.00  0.00     0.018 C 
ENDBRANCH   1   8
TORSDOF 1
ENDMDL
