MODEL 1
REMARK minimizedAffinity 2.15046644
REMARK minimizedRMSD -1
REMARK  1 active torsions:
REMARK  status: ('A' for Active; 'I' for Inactive)
REMARK    1  A    between atoms: C1_2  and  C2_3 
ROOT
ATOM      1  C2  UNL d   1       1.301   2.373  -1.615  0.00  0.00    -0.073 A 
ATOM      2  C3  UNL d   1       0.964   1.225  -2.340  0.00  0.00    -0.002 A 
ATOM      3  C4  UNL d   1       0.862  -0.010  -1.698  0.00  0.00     0.004 A 
ATOM      4  C5  UNL d   1       1.089  -0.109  -0.326  0.00  0.00    -0.004 A 
ATOM      5  C6  UNL d   1       1.416   1.029   0.419  0.00  0.00    -0.075 A 
ATOM      6  C7  UNL d   1       1.666   0.939   1.896  0.00  0.00     0.076 C 
ATOM      7  C8  UNL d   1       1.519   2.265  -0.233  0.00  0.00     0.001 A 
ENDROOT
BRANCH   1   8
ATOM      8  C1  UNL d   1       1.406   3.710  -2.302  0.00  0.00     0.053 C 
ATOM      9  C   UNL d   1       2.162   4.726  -1.460  0.00  0.00     0.018 C 
ENDBRANCH   1   8
TORSDOF 1
ENDMDL
