MODEL 1
REMARK minimizedAffinity -1.48352194
REMARK minimizedRMSD -1
REMARK  2 active torsions:
REMARK  status: ('A' for Active; 'I' for Inactive)
REMARK    1  A    between atoms: C1_2  and  C2_3 
REMARK    2  A    between atoms: C2_3  and  C3_4 
ROOT
ATOM      1  C3  UNL d   1       1.657  -0.359   0.444  0.00  0.00    -0.075 A 
ATOM      2  C4  UNL d   1       0.387  -0.268  -0.144  0.00  0.00     0.002 A 
ATOM      3  C5  UNL d   1      -0.520  -1.322  -0.039  0.00  0.00     0.002 A 
ATOM      4  C6  UNL d   1      -0.166  -2.483   0.645  0.00  0.00    -0.004 A 
ATOM      5  C7  UNL d   1       1.099  -2.592   1.219  0.00  0.00     0.002 A 
ATOM      6  C8  UNL d   1       2.007  -1.536   1.118  0.00  0.00     0.002 A 
ENDROOT
BRANCH   1   7
ATOM      7  C2  UNL d   1       2.633   0.790   0.358  0.00  0.00     0.056 C 
BRANCH   7   8
ATOM      8  C1  UNL d   1       2.086   2.114   0.902  0.00  0.00     0.007 C 
ATOM      9  C   UNL d   1       2.300   2.283   2.400  0.00  0.00     0.009 C 
ENDBRANCH   7   8
ENDBRANCH   1   7
TORSDOF 2
ENDMDL
