MODEL 1
REMARK minimizedAffinity -4.71038437
REMARK minimizedRMSD -1
REMARK  2 active torsions:
REMARK  status: ('A' for Active; 'I' for Inactive)
REMARK    1  A    between atoms: C1_2  and  C2_3 
REMARK    2  A    between atoms: C2_3  and  C3_4 
ROOT
ATOM      1  C3  UNL d   1      -0.004  -0.060   0.298  0.00  0.00    -0.075 A 
ATOM      2  C4  UNL d   1      -0.202  -1.272   0.974  0.00  0.00     0.002 A 
ATOM      3  C5  UNL d   1       0.801  -1.802   1.786  0.00  0.00     0.002 A 
ATOM      4  C6  UNL d   1       2.015  -1.134   1.924  0.00  0.00    -0.004 A 
ATOM      5  C7  UNL d   1       2.229   0.063   1.244  0.00  0.00     0.002 A 
ATOM      6  C8  UNL d   1       1.225   0.598   0.435  0.00  0.00     0.002 A 
ENDROOT
BRANCH   1   7
ATOM      7  C2  UNL d   1      -1.097   0.534  -0.559  0.00  0.00     0.056 C 
BRANCH   7   8
ATOM      8  C1  UNL d   1      -1.971  -0.507  -1.266  0.00  0.00     0.007 C 
ATOM      9  C   UNL d   1      -2.856   0.089  -2.353  0.00  0.00     0.009 C 
ENDBRANCH   7   8
ENDBRANCH   1   7
TORSDOF 2
ENDMDL
