MODEL 1
REMARK minimizedAffinity -5.0344696
REMARK minimizedRMSD -1
REMARK  2 active torsions:
REMARK  status: ('A' for Active; 'I' for Inactive)
REMARK    1  A    between atoms: C1_2  and  C2_3 
REMARK    2  A    between atoms: C2_3  and  C3_4 
ROOT
ATOM      1  C3  UNL d   1      -0.225   0.371   0.054  0.00  0.00    -0.075 A 
ATOM      2  C4  UNL d   1       0.817  -0.514   0.365  0.00  0.00     0.002 A 
ATOM      3  C5  UNL d   1       2.116  -0.041   0.555  0.00  0.00     0.002 A 
ATOM      4  C6  UNL d   1       2.391   1.319   0.426  0.00  0.00    -0.004 A 
ATOM      5  C7  UNL d   1       1.366   2.205   0.101  0.00  0.00     0.002 A 
ATOM      6  C8  UNL d   1       0.065   1.735  -0.085  0.00  0.00     0.002 A 
ENDROOT
BRANCH   1   7
ATOM      7  C2  UNL d   1      -1.638  -0.131  -0.123  0.00  0.00     0.056 C 
BRANCH   7   8
ATOM      8  C1  UNL d   1      -2.350   0.432  -1.358  0.00  0.00     0.007 C 
ATOM      9  C   UNL d   1      -2.628  -0.621  -2.423  0.00  0.00     0.009 C 
ENDBRANCH   7   8
ENDBRANCH   1   7
TORSDOF 2
ENDMDL
