MODEL 1
REMARK minimizedAffinity -4.59450483
REMARK minimizedRMSD -1
REMARK  2 active torsions:
REMARK  status: ('A' for Active; 'I' for Inactive)
REMARK    1  A    between atoms: C1_2  and  C2_3 
REMARK    2  A    between atoms: C2_3  and  C3_4 
ROOT
ATOM      1  C3  UNL d   1       0.276   0.301   0.001  0.00  0.00    -0.075 A 
ATOM      2  C4  UNL d   1       1.154  -0.721  -0.389  0.00  0.00     0.002 A 
ATOM      3  C5  UNL d   1       2.501  -0.674  -0.028  0.00  0.00     0.002 A 
ATOM      4  C6  UNL d   1       2.988   0.398   0.716  0.00  0.00    -0.004 A 
ATOM      5  C7  UNL d   1       2.129   1.427   1.094  0.00  0.00     0.002 A 
ATOM      6  C8  UNL d   1       0.780   1.380   0.738  0.00  0.00     0.002 A 
ENDROOT
BRANCH   1   7
ATOM      7  C2  UNL d   1      -1.189   0.241  -0.361  0.00  0.00     0.056 C 
BRANCH   7   8
ATOM      8  C1  UNL d   1      -1.499  -0.665  -1.558  0.00  0.00     0.007 C 
ATOM      9  C   UNL d   1      -2.318   0.028  -2.638  0.00  0.00     0.009 C 
ENDBRANCH   7   8
ENDBRANCH   1   7
TORSDOF 2
ENDMDL
