MODEL 1
REMARK minimizedAffinity -4.28576517
REMARK minimizedRMSD -1
REMARK  2 active torsions:
REMARK  status: ('A' for Active; 'I' for Inactive)
REMARK    1  A    between atoms: C1_2  and  C2_3 
REMARK    2  A    between atoms: C2_3  and  C3_4 
ROOT
ATOM      1  C3  UNL d   1       1.069  -0.405   1.228  0.00  0.00    -0.075 A 
ATOM      2  C4  UNL d   1       0.034   0.365   0.680  0.00  0.00     0.002 A 
ATOM      3  C5  UNL d   1       0.295   1.629   0.151  0.00  0.00     0.002 A 
ATOM      4  C6  UNL d   1       1.590   2.143   0.173  0.00  0.00    -0.004 A 
ATOM      5  C7  UNL d   1       2.623   1.393   0.731  0.00  0.00     0.002 A 
ATOM      6  C8  UNL d   1       2.365   0.126   1.257  0.00  0.00     0.002 A 
ENDROOT
BRANCH   1   7
ATOM      7  C2  UNL d   1       0.798  -1.786   1.776  0.00  0.00     0.056 C 
BRANCH   7   8
ATOM      8  C1  UNL d   1       1.759  -2.216   2.889  0.00  0.00     0.007 C 
ATOM      9  C   UNL d   1       1.156  -2.095   4.282  0.00  0.00     0.009 C 
ENDBRANCH   7   8
ENDBRANCH   1   7
TORSDOF 2
ENDMDL
