MODEL 1
REMARK minimizedAffinity -0.96152395
REMARK minimizedRMSD -1
REMARK  2 active torsions:
REMARK  status: ('A' for Active; 'I' for Inactive)
REMARK    1  A    between atoms: C1_2  and  C2_3 
REMARK    2  A    between atoms: C2_3  and  C3_4 
ROOT
ATOM      1  C3  UNL d   1      -1.216  -0.038  -0.661  0.00  0.00    -0.075 A 
ATOM      2  C4  UNL d   1      -1.308  -0.856   0.474  0.00  0.00     0.002 A 
ATOM      3  C5  UNL d   1      -0.232  -0.970   1.355  0.00  0.00     0.002 A 
ATOM      4  C6  UNL d   1       0.951  -0.277   1.107  0.00  0.00    -0.004 A 
ATOM      5  C7  UNL d   1       1.060   0.525  -0.026  0.00  0.00     0.002 A 
ATOM      6  C8  UNL d   1      -0.017   0.645  -0.907  0.00  0.00     0.002 A 
ENDROOT
BRANCH   1   7
ATOM      7  C2  UNL d   1      -2.387   0.113  -1.602  0.00  0.00     0.056 C 
BRANCH   7   8
ATOM      8  C1  UNL d   1      -2.254  -0.694  -2.898  0.00  0.00     0.007 C 
ATOM      9  C   UNL d   1      -2.323   0.167  -4.151  0.00  0.00     0.009 C 
ENDBRANCH   7   8
ENDBRANCH   1   7
TORSDOF 2
ENDMDL
