MODEL 1
REMARK minimizedAffinity -3.92736888
REMARK minimizedRMSD -1
REMARK  0 active torsions:
REMARK  status: ('A' for Active; 'I' for Inactive)
ROOT
ATOM      1  C1  BNZ d   1       0.614  -0.642  -1.086  0.00  0.00     0.000 A 
ATOM      2  C2  BNZ d   1       1.889  -1.132  -1.182  0.00  0.00     0.000 A 
ATOM      3  C3  BNZ d   1       2.224  -2.327  -0.610  0.00  0.00     0.000 A 
ATOM      4  C4  BNZ d   1       1.296  -3.011   0.090  0.00  0.00     0.000 A 
ATOM      5  C5  BNZ d   1       0.008  -2.526   0.203  0.00  0.00     0.000 A 
ATOM      6  C6  BNZ d   1      -0.336  -1.341  -0.407  0.00  0.00     0.000 A 
ENDROOT
TORSDOF 0
ENDMDL
