MODEL 1
REMARK minimizedAffinity 4.35729361
REMARK minimizedRMSD -1
REMARK  0 active torsions:
REMARK  status: ('A' for Active; 'I' for Inactive)
ROOT
ATOM      1  C1  BNZ d   1       0.910  -5.545   0.962  0.00  0.00     0.000 A 
ATOM      2  C2  BNZ d   1       1.895  -4.752   0.437  0.00  0.00     0.000 A 
ATOM      3  C3  BNZ d   1       1.593  -3.548  -0.135  0.00  0.00     0.000 A 
ATOM      4  C4  BNZ d   1       0.305  -3.157  -0.217  0.00  0.00     0.000 A 
ATOM      5  C5  BNZ d   1      -0.700  -3.950   0.300  0.00  0.00     0.000 A 
ATOM      6  C6  BNZ d   1      -0.389  -5.143   0.909  0.00  0.00     0.000 A 
ENDROOT
TORSDOF 0
ENDMDL
