MODEL 1
REMARK minimizedAffinity -4.10077333
REMARK minimizedRMSD -1
REMARK  0 active torsions:
REMARK  status: ('A' for Active; 'I' for Inactive)
ROOT
ATOM      1  C1  BNZ d   1       2.265  -1.847  -1.143  0.00  0.00     0.000 A 
ATOM      2  C2  BNZ d   1       1.539  -0.747  -1.513  0.00  0.00     0.000 A 
ATOM      3  C3  BNZ d   1       0.417  -0.383  -0.821  0.00  0.00     0.000 A 
ATOM      4  C4  BNZ d   1       0.001  -1.142   0.214  0.00  0.00     0.000 A 
ATOM      5  C5  BNZ d   1       0.717  -2.260   0.593  0.00  0.00     0.000 A 
ATOM      6  C6  BNZ d   1       1.867  -2.601  -0.082  0.00  0.00     0.000 A 
ENDROOT
TORSDOF 0
ENDMDL
