MODEL 1
REMARK minimizedAffinity -4.92213583
REMARK minimizedRMSD -1
REMARK  0 active torsions:
REMARK  status: ('A' for Active; 'I' for Inactive)
ROOT
ATOM      1  C1  BNZ d   1      -0.906  -1.091  -0.155  0.00  0.00     0.000 A 
ATOM      2  C2  BNZ d   1      -0.103  -0.071  -0.592  0.00  0.00     0.000 A 
ATOM      3  C3  BNZ d   1       1.180  -0.315  -0.996  0.00  0.00     0.000 A 
ATOM      4  C4  BNZ d   1       1.670  -1.569  -0.925  0.00  0.00     0.000 A 
ATOM      5  C5  BNZ d   1       0.876  -2.606  -0.478  0.00  0.00     0.000 A 
ATOM      6  C6  BNZ d   1      -0.427  -2.364  -0.109  0.00  0.00     0.000 A 
ENDROOT
TORSDOF 0
ENDMDL
