MODEL 1
REMARK minimizedAffinity -5.50830173
REMARK minimizedRMSD -1
REMARK  0 active torsions:
REMARK  status: ('A' for Active; 'I' for Inactive)
ROOT
ATOM      1  C1  BNZ d   1       2.275  -1.592   0.258  0.00  0.00     0.000 A 
ATOM      2  C2  BNZ d   1       1.317  -0.668  -0.063  0.00  0.00     0.000 A 
ATOM      3  C3  BNZ d   1       0.047  -1.059  -0.383  0.00  0.00     0.000 A 
ATOM      4  C4  BNZ d   1      -0.252  -2.374  -0.421  0.00  0.00     0.000 A 
ATOM      5  C5  BNZ d   1       0.706  -3.318  -0.109  0.00  0.00     0.000 A 
ATOM      6  C6  BNZ d   1       1.972  -2.919   0.250  0.00  0.00     0.000 A 
ENDROOT
TORSDOF 0
ENDMDL
