MODEL 1
REMARK minimizedAffinity -0.130033895
REMARK minimizedRMSD -1
REMARK  0 active torsions:
REMARK  status: ('A' for Active; 'I' for Inactive)
ROOT
ATOM      1  C1  BNZ d   1       0.934  -0.258  -0.974  0.00  0.00     0.000 A 
ATOM      2  C2  BNZ d   1       1.253  -0.837   0.225  0.00  0.00     0.000 A 
ATOM      3  C3  BNZ d   1       0.569  -1.930   0.679  0.00  0.00     0.000 A 
ATOM      4  C4  BNZ d   1      -0.458  -2.417  -0.046  0.00  0.00     0.000 A 
ATOM      5  C5  BNZ d   1      -0.799  -1.839  -1.253  0.00  0.00     0.000 A 
ATOM      6  C6  BNZ d   1      -0.082  -0.763  -1.725  0.00  0.00     0.000 A 
ENDROOT
TORSDOF 0
ENDMDL
