MODEL 1
REMARK minimizedAffinity -0.351074398
REMARK minimizedRMSD -1
REMARK  0 active torsions:
REMARK  status: ('A' for Active; 'I' for Inactive)
ROOT
ATOM      1  C1  BNZ d   1       2.159  -2.680   0.009  0.00  0.00     0.000 A 
ATOM      2  C2  BNZ d   1       1.330  -3.469   0.761  0.00  0.00     0.000 A 
ATOM      3  C3  BNZ d   1       0.000  -3.571   0.464  0.00  0.00     0.000 A 
ATOM      4  C4  BNZ d   1      -0.507  -2.853  -0.559  0.00  0.00     0.000 A 
ATOM      5  C5  BNZ d   1       0.314  -2.045  -1.321  0.00  0.00     0.000 A 
ATOM      6  C6  BNZ d   1       1.659  -1.976  -1.043  0.00  0.00     0.000 A 
ENDROOT
TORSDOF 0
ENDMDL
