MODEL 1
REMARK minimizedAffinity -5.76222754
REMARK minimizedRMSD -1
REMARK  0 active torsions:
REMARK  status: ('A' for Active; 'I' for Inactive)
ROOT
ATOM      1  C1  BNZ d   1       1.552  -0.767  -0.664  0.00  0.00     0.000 A 
ATOM      2  C2  BNZ d   1       2.113  -1.925  -0.196  0.00  0.00     0.000 A 
ATOM      3  C3  BNZ d   1       1.333  -2.926   0.311  0.00  0.00     0.000 A 
ATOM      4  C4  BNZ d   1      -0.002  -2.751   0.388  0.00  0.00     0.000 A 
ATOM      5  C5  BNZ d   1      -0.582  -1.585  -0.071  0.00  0.00     0.000 A 
ATOM      6  C6  BNZ d   1       0.203  -0.596  -0.617  0.00  0.00     0.000 A 
ENDROOT
TORSDOF 0
ENDMDL
