MODEL 1
REMARK minimizedAffinity -4.31239319
REMARK minimizedRMSD -1
REMARK  0 active torsions:
REMARK  status: ('A' for Active; 'I' for Inactive)
ROOT
ATOM      1  C1  BNZ d   1      -0.395  -1.452  -0.486  0.00  0.00     0.000 A 
ATOM      2  C2  BNZ d   1      -0.324  -2.550   0.329  0.00  0.00     0.000 A 
ATOM      3  C3  BNZ d   1       0.861  -3.202   0.523  0.00  0.00     0.000 A 
ATOM      4  C4  BNZ d   1       1.964  -2.781  -0.128  0.00  0.00     0.000 A 
ATOM      5  C5  BNZ d   1       1.907  -1.682  -0.961  0.00  0.00     0.000 A 
ATOM      6  C6  BNZ d   1       0.721  -1.004  -1.124  0.00  0.00     0.000 A 
ENDROOT
TORSDOF 0
ENDMDL
