MODEL 1
REMARK minimizedAffinity -4.5626955
REMARK minimizedRMSD -1
REMARK  0 active torsions:
REMARK  status: ('A' for Active; 'I' for Inactive)
ROOT
ATOM      1  C1  BNZ d   1       0.408  -3.379   0.378  0.00  0.00     0.000 A 
ATOM      2  C2  BNZ d   1      -0.026  -2.257  -0.274  0.00  0.00     0.000 A 
ATOM      3  C3  BNZ d   1       0.865  -1.376  -0.821  0.00  0.00     0.000 A 
ATOM      4  C4  BNZ d   1       2.187  -1.597  -0.680  0.00  0.00     0.000 A 
ATOM      5  C5  BNZ d   1       2.642  -2.720  -0.017  0.00  0.00     0.000 A 
ATOM      6  C6  BNZ d   1       1.742  -3.624   0.498  0.00  0.00     0.000 A 
ENDROOT
TORSDOF 0
ENDMDL
