MODEL 1
REMARK minimizedAffinity -4.92612934
REMARK minimizedRMSD -1
REMARK  0 active torsions:
REMARK  status: ('A' for Active; 'I' for Inactive)
ROOT
ATOM      1  C1  BNZ d   1      -0.164  -1.258  -0.154  0.00  0.00     0.000 A 
ATOM      2  C2  BNZ d   1       0.941  -0.907  -0.883  0.00  0.00     0.000 A 
ATOM      3  C3  BNZ d   1       2.018  -1.744  -0.969  0.00  0.00     0.000 A 
ATOM      4  C4  BNZ d   1       2.005  -2.912  -0.296  0.00  0.00     0.000 A 
ATOM      5  C5  BNZ d   1       0.902  -3.277   0.451  0.00  0.00     0.000 A 
ATOM      6  C6  BNZ d   1      -0.195  -2.449   0.505  0.00  0.00     0.000 A 
ENDROOT
TORSDOF 0
ENDMDL
