MODEL 1
REMARK minimizedAffinity -4.99070883
REMARK minimizedRMSD -1
REMARK  0 active torsions:
REMARK  status: ('A' for Active; 'I' for Inactive)
ROOT
ATOM      1  C1  BNZ d   1       2.074  -2.037  -0.418  0.00  0.00     0.000 A 
ATOM      2  C2  BNZ d   1       1.240  -3.018   0.048  0.00  0.00     0.000 A 
ATOM      3  C3  BNZ d   1      -0.096  -2.781   0.215  0.00  0.00     0.000 A 
ATOM      4  C4  BNZ d   1      -0.588  -1.553  -0.046  0.00  0.00     0.000 A 
ATOM      5  C5  BNZ d   1       0.241  -0.550  -0.508  0.00  0.00     0.000 A 
ATOM      6  C6  BNZ d   1       1.578  -0.804  -0.711  0.00  0.00     0.000 A 
ENDROOT
TORSDOF 0
ENDMDL
