MODEL 1
REMARK minimizedAffinity -2.97594643
REMARK minimizedRMSD -1
REMARK  0 active torsions:
REMARK  status: ('A' for Active; 'I' for Inactive)
ROOT
ATOM      1  C1  BNZ d   1       1.784  -3.142   0.324  0.00  0.00     0.000 A 
ATOM      2  C2  BNZ d   1       1.636  -1.892  -0.216  0.00  0.00     0.000 A 
ATOM      3  C3  BNZ d   1       0.411  -1.288  -0.256  0.00  0.00     0.000 A 
ATOM      4  C4  BNZ d   1      -0.670  -1.950   0.206  0.00  0.00     0.000 A 
ATOM      5  C5  BNZ d   1      -0.538  -3.214   0.744  0.00  0.00     0.000 A 
ATOM      6  C6  BNZ d   1       0.703  -3.803   0.819  0.00  0.00     0.000 A 
ENDROOT
TORSDOF 0
ENDMDL
