MODEL 1
REMARK minimizedAffinity -3.2405386
REMARK minimizedRMSD -1
REMARK  1 active torsions:
REMARK  status: ('A' for Active; 'I' for Inactive)
REMARK    1  A    between atoms: C1_2  and  C2_3 
ROOT
ATOM      1  C2  UNL d   1       0.497  -0.199  -0.812  0.00  0.00    -0.077 A 
ATOM      2  C3  UNL d   1       0.439   1.050  -1.446  0.00  0.00     0.002 A 
ATOM      3  C4  UNL d   1       1.278   1.334  -2.525  0.00  0.00     0.002 A 
ATOM      4  C5  UNL d   1       2.178   0.373  -2.982  0.00  0.00    -0.004 A 
ATOM      5  C6  UNL d   1       2.245  -0.871  -2.357  0.00  0.00     0.002 A 
ATOM      6  C7  UNL d   1       1.408  -1.156  -1.277  0.00  0.00     0.002 A 
ENDROOT
BRANCH   1   7
ATOM      7  C1  UNL d   1      -0.441  -0.525   0.321  0.00  0.00     0.055 C 
ATOM      8  C   UNL d   1      -1.749   0.244   0.195  0.00  0.00     0.019 C 
ENDBRANCH   1   7
TORSDOF 1
ENDMDL
