MODEL 1
REMARK minimizedAffinity -2.90273929
REMARK minimizedRMSD -1
REMARK  1 active torsions:
REMARK  status: ('A' for Active; 'I' for Inactive)
REMARK    1  A    between atoms: C1_2  and  C2_3 
ROOT
ATOM      1  C2  UNL d   1      -1.368  -0.231   0.989  0.00  0.00    -0.077 A 
ATOM      2  C3  UNL d   1      -0.921  -1.558   1.055  0.00  0.00     0.002 A 
ATOM      3  C4  UNL d   1       0.139  -1.988   0.254  0.00  0.00     0.002 A 
ATOM      4  C5  UNL d   1       0.763  -1.096  -0.615  0.00  0.00    -0.004 A 
ATOM      5  C6  UNL d   1       0.325   0.225  -0.691  0.00  0.00     0.002 A 
ATOM      6  C7  UNL d   1      -0.735   0.656   0.108  0.00  0.00     0.002 A 
ENDROOT
BRANCH   1   7
ATOM      7  C1  UNL d   1      -2.478   0.247   1.887  0.00  0.00     0.055 C 
ATOM      8  C   UNL d   1      -1.960   1.218   2.939  0.00  0.00     0.019 C 
ENDBRANCH   1   7
TORSDOF 1
ENDMDL
