MODEL 1
REMARK minimizedAffinity -2.81036758
REMARK minimizedRMSD -1
REMARK  1 active torsions:
REMARK  status: ('A' for Active; 'I' for Inactive)
REMARK    1  A    between atoms: C1_2  and  C2_3 
ROOT
ATOM      1  C2  UNL d   1      -1.401   0.594   1.168  0.00  0.00    -0.077 A 
ATOM      2  C3  UNL d   1      -0.932   1.828   1.639  0.00  0.00     0.002 A 
ATOM      3  C4  UNL d   1      -1.363   2.324   2.871  0.00  0.00     0.002 A 
ATOM      4  C5  UNL d   1      -2.261   1.591   3.644  0.00  0.00    -0.004 A 
ATOM      5  C6  UNL d   1      -2.735   0.363   3.183  0.00  0.00     0.002 A 
ATOM      6  C7  UNL d   1      -2.306  -0.134   1.952  0.00  0.00     0.002 A 
ENDROOT
BRANCH   1   7
ATOM      7  C1  UNL d   1      -0.899   0.034  -0.137  0.00  0.00     0.055 C 
ATOM      8  C   UNL d   1       0.333  -0.835   0.070  0.00  0.00     0.019 C 
ENDBRANCH   1   7
TORSDOF 1
ENDMDL
