MODEL 1
REMARK minimizedAffinity -5.23810148
REMARK minimizedRMSD -1
REMARK  1 active torsions:
REMARK  status: ('A' for Active; 'I' for Inactive)
REMARK    1  A    between atoms: C1_2  and  C2_3 
ROOT
ATOM      1  C2  UNL d   1       0.566   0.428  -0.367  0.00  0.00    -0.077 A 
ATOM      2  C3  UNL d   1       0.843  -0.937  -0.205  0.00  0.00     0.002 A 
ATOM      3  C4  UNL d   1       2.121  -1.434  -0.469  0.00  0.00     0.002 A 
ATOM      4  C5  UNL d   1       3.132  -0.574  -0.892  0.00  0.00    -0.004 A 
ATOM      5  C6  UNL d   1       2.865   0.785  -1.058  0.00  0.00     0.002 A 
ATOM      6  C7  UNL d   1       1.589   1.284  -0.795  0.00  0.00     0.002 A 
ENDROOT
BRANCH   1   7
ATOM      7  C1  UNL d   1      -0.798   0.975  -0.035  0.00  0.00     0.055 C 
ATOM      8  C   UNL d   1      -1.352   0.347   1.236  0.00  0.00     0.019 C 
ENDBRANCH   1   7
TORSDOF 1
ENDMDL
