MODEL 1
REMARK minimizedAffinity -5.69027424
REMARK minimizedRMSD -1
REMARK  1 active torsions:
REMARK  status: ('A' for Active; 'I' for Inactive)
REMARK    1  A    between atoms: C1_2  and  C2_3 
ROOT
ATOM      1  C2  UNL d   1       1.133  -0.150  -0.844  0.00  0.00    -0.077 A 
ATOM      2  C3  UNL d   1       0.972   1.157  -1.326  0.00  0.00     0.002 A 
ATOM      3  C4  UNL d   1       1.915   1.711  -2.193  0.00  0.00     0.002 A 
ATOM      4  C5  UNL d   1       3.024   0.965  -2.589  0.00  0.00    -0.004 A 
ATOM      5  C6  UNL d   1       3.194  -0.335  -2.113  0.00  0.00     0.002 A 
ATOM      6  C7  UNL d   1       2.252  -0.890  -1.246  0.00  0.00     0.002 A 
ENDROOT
BRANCH   1   7
ATOM      7  C1  UNL d   1       0.091  -0.767   0.052  0.00  0.00     0.055 C 
ATOM      8  C   UNL d   1      -1.089   0.173   0.258  0.00  0.00     0.019 C 
ENDBRANCH   1   7
TORSDOF 1
ENDMDL
