MODEL 1
REMARK minimizedAffinity -5.62813997
REMARK minimizedRMSD -1
REMARK  1 active torsions:
REMARK  status: ('A' for Active; 'I' for Inactive)
REMARK    1  A    between atoms: C1_2  and  C2_3 
ROOT
ATOM      1  C2  UNL d   1       1.425   0.006  -0.998  0.00  0.00    -0.077 A 
ATOM      2  C3  UNL d   1       1.610  -1.345  -0.672  0.00  0.00     0.002 A 
ATOM      3  C4  UNL d   1       0.648  -2.029   0.073  0.00  0.00     0.002 A 
ATOM      4  C5  UNL d   1      -0.507  -1.373   0.494  0.00  0.00    -0.004 A 
ATOM      5  C6  UNL d   1      -0.699  -0.029   0.176  0.00  0.00     0.002 A 
ATOM      6  C7  UNL d   1       0.262   0.657  -0.568  0.00  0.00     0.002 A 
ENDROOT
BRANCH   1   7
ATOM      7  C1  UNL d   1       2.439   0.733  -1.843  0.00  0.00     0.055 C 
ATOM      8  C   UNL d   1       1.767   1.718  -2.788  0.00  0.00     0.019 C 
ENDBRANCH   1   7
TORSDOF 1
ENDMDL
