MODEL 1
REMARK minimizedAffinity -5.58619118
REMARK minimizedRMSD -1
REMARK  1 active torsions:
REMARK  status: ('A' for Active; 'I' for Inactive)
REMARK    1  A    between atoms: C1_2  and  C2_3 
ROOT
ATOM      1  C2  UNL d   1       1.032   0.352  -0.879  0.00  0.00    -0.077 A 
ATOM      2  C3  UNL d   1       0.261  -0.575  -0.164  0.00  0.00     0.002 A 
ATOM      3  C4  UNL d   1      -1.091  -0.329   0.083  0.00  0.00     0.002 A 
ATOM      4  C5  UNL d   1      -1.685   0.841  -0.385  0.00  0.00    -0.004 A 
ATOM      5  C6  UNL d   1      -0.926   1.771  -1.096  0.00  0.00     0.002 A 
ATOM      6  C7  UNL d   1       0.426   1.527  -1.342  0.00  0.00     0.002 A 
ENDROOT
BRANCH   1   7
ATOM      7  C1  UNL d   1       2.478   0.066  -1.189  0.00  0.00     0.055 C 
ATOM      8  C   UNL d   1       2.616  -1.104  -2.152  0.00  0.00     0.019 C 
ENDBRANCH   1   7
TORSDOF 1
ENDMDL
