MODEL 1
REMARK minimizedAffinity -5.18416119
REMARK minimizedRMSD -1
REMARK  1 active torsions:
REMARK  status: ('A' for Active; 'I' for Inactive)
REMARK    1  A    between atoms: C1_2  and  C2_3 
ROOT
ATOM      1  C2  UNL d   1      -1.057   0.183   0.820  0.00  0.00    -0.077 A 
ATOM      2  C3  UNL d   1      -0.630  -1.097   0.439  0.00  0.00     0.002 A 
ATOM      3  C4  UNL d   1       0.465  -1.251  -0.414  0.00  0.00     0.002 A 
ATOM      4  C5  UNL d   1       1.144  -0.130  -0.889  0.00  0.00    -0.004 A 
ATOM      5  C6  UNL d   1       0.725   1.147  -0.517  0.00  0.00     0.002 A 
ATOM      6  C7  UNL d   1      -0.370   1.303   0.334  0.00  0.00     0.002 A 
ENDROOT
BRANCH   1   7
ATOM      7  C1  UNL d   1      -2.207   0.350   1.779  0.00  0.00     0.055 C 
ATOM      8  C   UNL d   1      -1.911   1.422   2.818  0.00  0.00     0.019 C 
ENDBRANCH   1   7
TORSDOF 1
ENDMDL
