MODEL 1
REMARK minimizedAffinity -4.58145905
REMARK minimizedRMSD -1
REMARK  1 active torsions:
REMARK  status: ('A' for Active; 'I' for Inactive)
REMARK    1  A    between atoms: C1_2  and  C2_3 
ROOT
ATOM      1  C2  UNL d   1       1.362  -0.011  -0.396  0.00  0.00    -0.077 A 
ATOM      2  C3  UNL d   1       0.640  -1.093   0.128  0.00  0.00     0.002 A 
ATOM      3  C4  UNL d   1      -0.721  -0.963   0.412  0.00  0.00     0.002 A 
ATOM      4  C5  UNL d   1      -1.372   0.246   0.172  0.00  0.00    -0.004 A 
ATOM      5  C6  UNL d   1      -0.662   1.328  -0.347  0.00  0.00     0.002 A 
ATOM      6  C7  UNL d   1       0.698   1.200  -0.630  0.00  0.00     0.002 A 
ENDROOT
BRANCH   1   7
ATOM      7  C1  UNL d   1       2.818  -0.164  -0.749  0.00  0.00     0.055 C 
ATOM      8  C   UNL d   1       3.030  -1.294  -1.746  0.00  0.00     0.019 C 
ENDBRANCH   1   7
TORSDOF 1
ENDMDL
