MODEL 1
REMARK minimizedAffinity -5.6820507
REMARK minimizedRMSD -1
REMARK  1 active torsions:
REMARK  status: ('A' for Active; 'I' for Inactive)
REMARK    1  A    between atoms: C1_2  and  C2_3 
ROOT
ATOM      1  C2  UNL d   1       0.813  -0.298  -0.811  0.00  0.00    -0.077 A 
ATOM      2  C3  UNL d   1       0.527   0.893  -1.495  0.00  0.00     0.002 A 
ATOM      3  C4  UNL d   1       1.473   1.460  -2.351  0.00  0.00     0.002 A 
ATOM      4  C5  UNL d   1       2.708   0.842  -2.534  0.00  0.00    -0.004 A 
ATOM      5  C6  UNL d   1       3.003  -0.341  -1.857  0.00  0.00     0.002 A 
ATOM      6  C7  UNL d   1       2.059  -0.909  -1.000  0.00  0.00     0.002 A 
ENDROOT
BRANCH   1   7
ATOM      7  C1  UNL d   1      -0.224  -0.937   0.075  0.00  0.00     0.055 C 
ATOM      8  C   UNL d   1      -1.179   0.101   0.647  0.00  0.00     0.019 C 
ENDBRANCH   1   7
TORSDOF 1
ENDMDL
