MODEL 1
REMARK minimizedAffinity -1.9729476
REMARK minimizedRMSD -1
REMARK  1 active torsions:
REMARK  status: ('A' for Active; 'I' for Inactive)
REMARK    1  A    between atoms: C1_2  and  C2_3 
ROOT
ATOM      1  C2  UNL d   1      -1.564   0.612   1.482  0.00  0.00    -0.077 A 
ATOM      2  C3  UNL d   1      -2.623   0.017   2.181  0.00  0.00     0.002 A 
ATOM      3  C4  UNL d   1      -2.935   0.432   3.478  0.00  0.00     0.002 A 
ATOM      4  C5  UNL d   1      -2.195   1.446   4.083  0.00  0.00    -0.004 A 
ATOM      5  C6  UNL d   1      -1.139   2.042   3.396  0.00  0.00     0.002 A 
ATOM      6  C7  UNL d   1      -0.825   1.628   2.101  0.00  0.00     0.002 A 
ENDROOT
BRANCH   1   7
ATOM      7  C1  UNL d   1      -1.258   0.199   0.065  0.00  0.00     0.055 C 
ATOM      8  C   UNL d   1       0.123   0.674  -0.363  0.00  0.00     0.019 C 
ENDBRANCH   1   7
TORSDOF 1
ENDMDL
