MODEL 1
REMARK minimizedAffinity -4.6112566
REMARK minimizedRMSD -1
REMARK  1 active torsions:
REMARK  status: ('A' for Active; 'I' for Inactive)
REMARK    1  A    between atoms: C1_2  and  C2_3 
ROOT
ATOM      1  C2  UNL d   1       1.395  -0.126  -0.548  0.00  0.00    -0.077 A 
ATOM      2  C3  UNL d   1       0.737  -1.301  -0.158  0.00  0.00     0.002 A 
ATOM      3  C4  UNL d   1      -0.511  -1.237   0.465  0.00  0.00     0.002 A 
ATOM      4  C5  UNL d   1      -1.113  -0.003   0.699  0.00  0.00    -0.004 A 
ATOM      5  C6  UNL d   1      -0.466   1.171   0.316  0.00  0.00     0.002 A 
ATOM      6  C7  UNL d   1       0.782   1.110  -0.305  0.00  0.00     0.002 A 
ENDROOT
BRANCH   1   7
ATOM      7  C1  UNL d   1       2.718  -0.195  -1.265  0.00  0.00     0.055 C 
ATOM      8  C   UNL d   1       2.604  -0.978  -2.564  0.00  0.00     0.019 C 
ENDBRANCH   1   7
TORSDOF 1
ENDMDL
