MODEL 1
REMARK minimizedAffinity -3.37329721
REMARK minimizedRMSD -1
REMARK  1 active torsions:
REMARK  status: ('A' for Active; 'I' for Inactive)
REMARK    1  A    between atoms: C1_2  and  C2_3 
ROOT
ATOM      1  C2  UNL d   1       0.057  -0.088   0.397  0.00  0.00    -0.077 A 
ATOM      2  C3  UNL d   1       1.051  -1.061   0.570  0.00  0.00     0.002 A 
ATOM      3  C4  UNL d   1       2.177  -1.074  -0.256  0.00  0.00     0.002 A 
ATOM      4  C5  UNL d   1       2.321  -0.115  -1.256  0.00  0.00    -0.004 A 
ATOM      5  C6  UNL d   1       1.336   0.855  -1.437  0.00  0.00     0.002 A 
ATOM      6  C7  UNL d   1       0.209   0.870  -0.614  0.00  0.00     0.002 A 
ENDROOT
BRANCH   1   7
ATOM      7  C1  UNL d   1      -1.134  -0.042   1.319  0.00  0.00     0.055 C 
ATOM      8  C   UNL d   1      -1.091   1.184   2.219  0.00  0.00     0.019 C 
ENDBRANCH   1   7
TORSDOF 1
ENDMDL
