MODEL 1
REMARK minimizedAffinity -5.92640448
REMARK minimizedRMSD -1
REMARK  1 active torsions:
REMARK  status: ('A' for Active; 'I' for Inactive)
REMARK    1  A    between atoms: C1_2  and  C2_3 
ROOT
ATOM      1  C2  UNL d   1      -0.004   0.488  -0.681  0.00  0.00    -0.077 A 
ATOM      2  C3  UNL d   1       0.643   1.447  -1.473  0.00  0.00     0.002 A 
ATOM      3  C4  UNL d   1       1.922   1.199  -1.977  0.00  0.00     0.002 A 
ATOM      4  C5  UNL d   1       2.561  -0.007  -1.698  0.00  0.00    -0.004 A 
ATOM      5  C6  UNL d   1       1.926  -0.966  -0.910  0.00  0.00     0.002 A 
ATOM      6  C7  UNL d   1       0.649  -0.719  -0.404  0.00  0.00     0.002 A 
ENDROOT
BRANCH   1   7
ATOM      7  C1  UNL d   1      -1.403   0.733  -0.178  0.00  0.00     0.055 C 
ATOM      8  C   UNL d   1      -1.548   0.314   1.278  0.00  0.00     0.019 C 
ENDBRANCH   1   7
TORSDOF 1
ENDMDL
