MODEL 1
REMARK minimizedAffinity -4.81144857
REMARK minimizedRMSD -1
REMARK  1 active torsions:
REMARK  status: ('A' for Active; 'I' for Inactive)
REMARK    1  A    between atoms: C1_2  and  C2_3 
ROOT
ATOM      1  C2  UNL d   1      -0.397  -0.021   0.057  0.00  0.00    -0.077 A 
ATOM      2  C3  UNL d   1       0.762   0.679  -0.309  0.00  0.00     0.002 A 
ATOM      3  C4  UNL d   1       1.858  -0.001  -0.843  0.00  0.00     0.002 A 
ATOM      4  C5  UNL d   1       1.805  -1.382  -1.020  0.00  0.00    -0.004 A 
ATOM      5  C6  UNL d   1       0.658  -2.087  -0.658  0.00  0.00     0.002 A 
ATOM      6  C7  UNL d   1      -0.439  -1.409  -0.123  0.00  0.00     0.002 A 
ENDROOT
BRANCH   1   7
ATOM      7  C1  UNL d   1      -1.598   0.717   0.587  0.00  0.00     0.055 C 
ATOM      8  C   UNL d   1      -1.775   0.485   2.080  0.00  0.00     0.019 C 
ENDBRANCH   1   7
TORSDOF 1
ENDMDL
