MODEL 1
REMARK minimizedAffinity 5.25900412
REMARK minimizedRMSD -1
REMARK  1 active torsions:
REMARK  status: ('A' for Active; 'I' for Inactive)
REMARK    1  A    between atoms: C1_2  and  C2_3 
ROOT
ATOM      1  C2  UNL d   1       2.243  -2.247   1.932  0.00  0.00    -0.081 A 
ATOM      2  C3  UNL d   1       1.472  -3.028   1.063  0.00  0.00     0.006 A 
ATOM      3  C4  UNL d   1       1.446  -2.749  -0.306  0.00  0.00     0.002 A 
ATOM      4  C5  UNL d   1       2.195  -1.689  -0.828  0.00  0.00    -0.080 A 
ATOM      5  C6  UNL d   1       2.199  -1.396  -2.299  0.00  0.00     0.076 C 
ATOM      6  C7  UNL d   1       2.951  -0.897   0.043  0.00  0.00     0.002 A 
ATOM      7  C8  UNL d   1       2.977  -1.176   1.411  0.00  0.00     0.006 A 
ENDROOT
BRANCH   1   8
ATOM      8  C1  UNL d   1       2.325  -2.586   3.399  0.00  0.00     0.054 C 
ATOM      9  C   UNL d   1       1.020  -2.266   4.114  0.00  0.00     0.018 C 
ENDBRANCH   1   8
TORSDOF 1
ENDMDL
