MODEL 1
REMARK minimizedAffinity 8.83308029
REMARK minimizedRMSD -1
REMARK  1 active torsions:
REMARK  status: ('A' for Active; 'I' for Inactive)
REMARK    1  A    between atoms: C1_2  and  C2_3 
ROOT
ATOM      1  C2  UNL d   1      -3.223   0.713  -2.563  0.00  0.00    -0.081 A 
ATOM      2  C3  UNL d   1      -4.252   1.570  -2.153  0.00  0.00     0.006 A 
ATOM      3  C4  UNL d   1      -5.160   1.167  -1.171  0.00  0.00     0.002 A 
ATOM      4  C5  UNL d   1      -5.050  -0.095  -0.578  0.00  0.00    -0.080 A 
ATOM      5  C6  UNL d   1      -6.000  -0.528   0.500  0.00  0.00     0.076 C 
ATOM      6  C7  UNL d   1      -4.033  -0.958  -1.000  0.00  0.00     0.002 A 
ATOM      7  C8  UNL d   1      -3.126  -0.556  -1.983  0.00  0.00     0.006 A 
ENDROOT
BRANCH   1   8
ATOM      8  C1  UNL d   1      -2.204   1.169  -3.576  0.00  0.00     0.054 C 
ATOM      9  C   UNL d   1      -2.856   1.964  -4.698  0.00  0.00     0.018 C 
ENDBRANCH   1   8
TORSDOF 1
ENDMDL
