MODEL 1
REMARK minimizedAffinity -0.572395742
REMARK minimizedRMSD -1
REMARK  1 active torsions:
REMARK  status: ('A' for Active; 'I' for Inactive)
REMARK    1  A    between atoms: C1_2  and  C2_3 
ROOT
ATOM      1  C2  UNL d   1       1.666  -1.982  -0.345  0.00  0.00    -0.081 A 
ATOM      2  C3  UNL d   1       2.546  -1.364   0.552  0.00  0.00     0.006 A 
ATOM      3  C4  UNL d   1       2.538   0.024   0.708  0.00  0.00     0.002 A 
ATOM      4  C5  UNL d   1       1.646   0.816  -0.024  0.00  0.00    -0.080 A 
ATOM      5  C6  UNL d   1       1.607   2.304   0.157  0.00  0.00     0.076 C 
ATOM      6  C7  UNL d   1       0.779   0.200  -0.932  0.00  0.00     0.002 A 
ATOM      7  C8  UNL d   1       0.787  -1.188  -1.089  0.00  0.00     0.006 A 
ENDROOT
BRANCH   1   8
ATOM      8  C1  UNL d   1       1.627  -3.484  -0.468  0.00  0.00     0.054 C 
ATOM      9  C   UNL d   1       0.201  -4.010  -0.375  0.00  0.00     0.018 C 
ENDBRANCH   1   8
TORSDOF 1
ENDMDL
