MODEL 1
REMARK minimizedAffinity 0.859679043
REMARK minimizedRMSD -1
REMARK  1 active torsions:
REMARK  status: ('A' for Active; 'I' for Inactive)
REMARK    1  A    between atoms: C1_2  and  C2_3 
ROOT
ATOM      1  C2  UNL d   1       2.129   0.108   0.171  0.00  0.00    -0.081 A 
ATOM      2  C3  UNL d   1       1.281  -0.231  -0.891  0.00  0.00     0.006 A 
ATOM      3  C4  UNL d   1       0.838  -1.546  -1.050  0.00  0.00     0.002 A 
ATOM      4  C5  UNL d   1       1.228  -2.542  -0.148  0.00  0.00    -0.080 A 
ATOM      5  C6  UNL d   1       0.735  -3.951  -0.291  0.00  0.00     0.076 C 
ATOM      6  C7  UNL d   1       2.089  -2.206   0.902  0.00  0.00     0.002 A 
ATOM      7  C8  UNL d   1       2.533  -0.892   1.062  0.00  0.00     0.006 A 
ENDROOT
BRANCH   1   8
ATOM      8  C1  UNL d   1       2.556   1.538   0.383  0.00  0.00     0.054 C 
ATOM      9  C   UNL d   1       1.412   2.504   0.109  0.00  0.00     0.018 C 
ENDBRANCH   1   8
TORSDOF 1
ENDMDL
