MODEL 1
REMARK minimizedAffinity 8.48745823
REMARK minimizedRMSD -1
REMARK  1 active torsions:
REMARK  status: ('A' for Active; 'I' for Inactive)
REMARK    1  A    between atoms: C1_2  and  C2_3 
ROOT
ATOM      1  C2  UNL d   1       2.165  -1.974  -0.002  0.00  0.00    -0.081 A 
ATOM      2  C3  UNL d   1       2.865  -1.838   1.203  0.00  0.00     0.006 A 
ATOM      3  C4  UNL d   1       3.055  -0.577   1.773  0.00  0.00     0.002 A 
ATOM      4  C5  UNL d   1       2.542   0.567   1.152  0.00  0.00    -0.080 A 
ATOM      5  C6  UNL d   1       2.714   1.923   1.769  0.00  0.00     0.076 C 
ATOM      6  C7  UNL d   1       1.858   0.433  -0.061  0.00  0.00     0.002 A 
ATOM      7  C8  UNL d   1       1.668  -0.828  -0.631  0.00  0.00     0.006 A 
ENDROOT
BRANCH   1   8
ATOM      8  C1  UNL d   1       1.902  -3.339  -0.586  0.00  0.00     0.054 C 
ATOM      9  C   UNL d   1       0.438  -3.729  -0.445  0.00  0.00     0.018 C 
ENDBRANCH   1   8
TORSDOF 1
ENDMDL
