MODEL 1
REMARK minimizedAffinity 7.70437908
REMARK minimizedRMSD -1
REMARK  1 active torsions:
REMARK  status: ('A' for Active; 'I' for Inactive)
REMARK    1  A    between atoms: C1_2  and  C2_3 
ROOT
ATOM      1  C2  UNL d   1       2.953   0.683   1.100  0.00  0.00    -0.081 A 
ATOM      2  C3  UNL d   1       2.406   0.418  -0.162  0.00  0.00     0.006 A 
ATOM      3  C4  UNL d   1       2.304  -0.895  -0.628  0.00  0.00     0.002 A 
ATOM      4  C5  UNL d   1       2.738  -1.964   0.162  0.00  0.00    -0.080 A 
ATOM      5  C6  UNL d   1       2.606  -3.380  -0.314  0.00  0.00     0.076 C 
ATOM      6  C7  UNL d   1       3.300  -1.699   1.415  0.00  0.00     0.002 A 
ATOM      7  C8  UNL d   1       3.404  -0.386   1.882  0.00  0.00     0.006 A 
ENDROOT
BRANCH   1   8
ATOM      8  C1  UNL d   1       3.006   2.092   1.632  0.00  0.00     0.054 C 
ATOM      9  C   UNL d   1       2.375   3.076   0.657  0.00  0.00     0.018 C 
ENDBRANCH   1   8
TORSDOF 1
ENDMDL
