MODEL 1
REMARK minimizedAffinity 5.37932682
REMARK minimizedRMSD -1
REMARK  1 active torsions:
REMARK  status: ('A' for Active; 'I' for Inactive)
REMARK    1  A    between atoms: C1_2  and  C2_3 
ROOT
ATOM      1  C2  UNL d   1       3.504  -1.126   0.718  0.00  0.00    -0.081 A 
ATOM      2  C3  UNL d   1       2.660  -1.082  -0.398  0.00  0.00     0.006 A 
ATOM      3  C4  UNL d   1       1.663  -2.045  -0.572  0.00  0.00     0.002 A 
ATOM      4  C5  UNL d   1       1.489  -3.063   0.372  0.00  0.00    -0.080 A 
ATOM      5  C6  UNL d   1       0.404  -4.086   0.213  0.00  0.00     0.076 C 
ATOM      6  C7  UNL d   1       2.343  -3.118   1.478  0.00  0.00     0.002 A 
ATOM      7  C8  UNL d   1       3.340  -2.155   1.652  0.00  0.00     0.006 A 
ENDROOT
BRANCH   1   8
ATOM      8  C1  UNL d   1       4.537  -0.051   0.941  0.00  0.00     0.054 C 
ATOM      9  C   UNL d   1       4.180   1.224   0.189  0.00  0.00     0.018 C 
ENDBRANCH   1   8
TORSDOF 1
ENDMDL
