MODEL 1
REMARK minimizedAffinity 11.6187334
REMARK minimizedRMSD -1
REMARK  1 active torsions:
REMARK  status: ('A' for Active; 'I' for Inactive)
REMARK    1  A    between atoms: C1_2  and  C2_3 
ROOT
ATOM      1  C2  UNL d   1       2.265  -2.104   2.240  0.00  0.00    -0.081 A 
ATOM      2  C3  UNL d   1       3.375  -1.336   1.868  0.00  0.00     0.006 A 
ATOM      3  C4  UNL d   1       3.722  -1.199   0.521  0.00  0.00     0.002 A 
ATOM      4  C5  UNL d   1       2.961  -1.820  -0.474  0.00  0.00    -0.080 A 
ATOM      5  C6  UNL d   1       3.304  -1.656  -1.925  0.00  0.00     0.076 C 
ATOM      6  C7  UNL d   1       1.862  -2.601  -0.101  0.00  0.00     0.002 A 
ATOM      7  C8  UNL d   1       1.515  -2.739   1.245  0.00  0.00     0.006 A 
ENDROOT
BRANCH   1   8
ATOM      8  C1  UNL d   1       1.850  -2.200   3.686  0.00  0.00     0.054 C 
ATOM      9  C   UNL d   1       0.495  -1.548   3.918  0.00  0.00     0.018 C 
ENDBRANCH   1   8
TORSDOF 1
ENDMDL
