MODEL 1
REMARK minimizedAffinity -3.42256594
REMARK minimizedRMSD -1
REMARK  1 active torsions:
REMARK  status: ('A' for Active; 'I' for Inactive)
REMARK    1  A    between atoms: C1_2  and  C2_3 
ROOT
ATOM      1  C2  UNL d   1      -0.268  -2.202  -0.624  0.00  0.00    -0.073 A 
ATOM      2  C3  UNL d   1       1.033  -2.236  -0.110  0.00  0.00    -0.002 A 
ATOM      3  C4  UNL d   1       1.532  -1.155   0.619  0.00  0.00     0.004 A 
ATOM      4  C5  UNL d   1       0.734  -0.033   0.846  0.00  0.00    -0.004 A 
ATOM      5  C6  UNL d   1      -0.573   0.014   0.350  0.00  0.00    -0.075 A 
ATOM      6  C7  UNL d   1      -1.444   1.214   0.584  0.00  0.00     0.076 C 
ATOM      7  C8  UNL d   1      -1.066  -1.074  -0.383  0.00  0.00     0.001 A 
ENDROOT
BRANCH   1   8
ATOM      8  C1  UNL d   1      -0.813  -3.369  -1.406  0.00  0.00     0.053 C 
ATOM      9  C   UNL d   1       0.105  -3.766  -2.551  0.00  0.00     0.018 C 
ENDBRANCH   1   8
TORSDOF 1
ENDMDL
