MODEL 1
REMARK minimizedAffinity -4.28106308
REMARK minimizedRMSD -1
REMARK  1 active torsions:
REMARK  status: ('A' for Active; 'I' for Inactive)
REMARK    1  A    between atoms: C1_2  and  C2_3 
ROOT
ATOM      1  C2  UNL d   1      -0.175  -0.126   0.326  0.00  0.00    -0.073 A 
ATOM      2  C3  UNL d   1      -1.541  -0.099   0.629  0.00  0.00    -0.002 A 
ATOM      3  C4  UNL d   1      -2.196   1.118   0.823  0.00  0.00     0.004 A 
ATOM      4  C5  UNL d   1      -1.495   2.318   0.711  0.00  0.00    -0.004 A 
ATOM      5  C6  UNL d   1      -0.132   2.312   0.398  0.00  0.00    -0.075 A 
ATOM      6  C7  UNL d   1       0.637   3.595   0.276  0.00  0.00     0.076 C 
ATOM      7  C8  UNL d   1       0.520   1.086   0.206  0.00  0.00     0.001 A 
ENDROOT
BRANCH   1   8
ATOM      8  C1  UNL d   1       0.535  -1.437   0.109  0.00  0.00     0.053 C 
ATOM      9  C   UNL d   1      -0.252  -2.368  -0.799  0.00  0.00     0.018 C 
ENDBRANCH   1   8
TORSDOF 1
ENDMDL
