MODEL 1
REMARK minimizedAffinity -1.40151358
REMARK minimizedRMSD -1
REMARK  1 active torsions:
REMARK  status: ('A' for Active; 'I' for Inactive)
REMARK    1  A    between atoms: C1_2  and  C2_3 
ROOT
ATOM      1  C2  UNL d   1      -0.062  -0.084   0.415  0.00  0.00    -0.073 A 
ATOM      2  C3  UNL d   1      -1.362   0.433   0.381  0.00  0.00    -0.002 A 
ATOM      3  C4  UNL d   1      -1.618   1.727   0.837  0.00  0.00     0.004 A 
ATOM      4  C5  UNL d   1      -0.578   2.518   1.324  0.00  0.00    -0.004 A 
ATOM      5  C6  UNL d   1       0.729   2.023   1.355  0.00  0.00    -0.075 A 
ATOM      6  C7  UNL d   1       1.859   2.861   1.879  0.00  0.00     0.076 C 
ATOM      7  C8  UNL d   1       0.978   0.722   0.898  0.00  0.00     0.001 A 
ENDROOT
BRANCH   1   8
ATOM      8  C1  UNL d   1       0.220  -1.479  -0.082  0.00  0.00     0.053 C 
ATOM      9  C   UNL d   1      -1.024  -2.145  -0.649  0.00  0.00     0.018 C 
ENDBRANCH   1   8
TORSDOF 1
ENDMDL
