MODEL 1
REMARK minimizedAffinity -3.45342588
REMARK minimizedRMSD -1
REMARK  1 active torsions:
REMARK  status: ('A' for Active; 'I' for Inactive)
REMARK    1  A    between atoms: C1_2  and  C2_3 
ROOT
ATOM      1  C2  UNL d   1       1.227   2.356   0.928  0.00  0.00    -0.073 A 
ATOM      2  C3  UNL d   1       0.061   3.129   0.893  0.00  0.00    -0.002 A 
ATOM      3  C4  UNL d   1      -1.126   2.591   0.394  0.00  0.00     0.004 A 
ATOM      4  C5  UNL d   1      -1.161   1.275  -0.068  0.00  0.00    -0.004 A 
ATOM      5  C6  UNL d   1      -0.009   0.483  -0.029  0.00  0.00    -0.075 A 
ATOM      6  C7  UNL d   1      -0.030  -0.933  -0.524  0.00  0.00     0.076 C 
ATOM      7  C8  UNL d   1       1.180   1.031   0.471  0.00  0.00     0.001 A 
ENDROOT
BRANCH   1   8
ATOM      8  C1  UNL d   1       2.510   2.930   1.472  0.00  0.00     0.053 C 
ATOM      9  C   UNL d   1       3.713   2.066   1.127  0.00  0.00     0.018 C 
ENDBRANCH   1   8
TORSDOF 1
ENDMDL
