MODEL 1
REMARK minimizedAffinity -2.91987443
REMARK minimizedRMSD -1
REMARK  1 active torsions:
REMARK  status: ('A' for Active; 'I' for Inactive)
REMARK    1  A    between atoms: C1_2  and  C2_3 
ROOT
ATOM      1  C2  UNL d   1      -0.273   1.101   0.266  0.00  0.00    -0.073 A 
ATOM      2  C3  UNL d   1       1.066   1.244   0.649  0.00  0.00    -0.002 A 
ATOM      3  C4  UNL d   1       1.924   0.144   0.634  0.00  0.00     0.004 A 
ATOM      4  C5  UNL d   1       1.457  -1.106   0.229  0.00  0.00    -0.004 A 
ATOM      5  C6  UNL d   1       0.126  -1.266  -0.169  0.00  0.00    -0.075 A 
ATOM      6  C7  UNL d   1      -0.393  -2.605  -0.605  0.00  0.00     0.076 C 
ATOM      7  C8  UNL d   1      -0.731  -0.157  -0.148  0.00  0.00     0.001 A 
ENDROOT
BRANCH   1   8
ATOM      8  C1  UNL d   1      -1.202   2.287   0.274  0.00  0.00     0.053 C 
ATOM      9  C   UNL d   1      -0.447   3.603   0.384  0.00  0.00     0.018 C 
ENDBRANCH   1   8
TORSDOF 1
ENDMDL
