MODEL 1
REMARK minimizedAffinity -3.63684201
REMARK minimizedRMSD -1
REMARK  1 active torsions:
REMARK  status: ('A' for Active; 'I' for Inactive)
REMARK    1  A    between atoms: C1_2  and  C2_3 
ROOT
ATOM      1  C2  UNL d   1       0.953   0.578   0.222  0.00  0.00    -0.073 A 
ATOM      2  C3  UNL d   1       1.581   1.713  -0.305  0.00  0.00    -0.002 A 
ATOM      3  C4  UNL d   1       0.836   2.851  -0.615  0.00  0.00     0.004 A 
ATOM      4  C5  UNL d   1      -0.541   2.869  -0.397  0.00  0.00    -0.004 A 
ATOM      5  C6  UNL d   1      -1.186   1.750   0.140  0.00  0.00    -0.075 A 
ATOM      6  C7  UNL d   1      -2.667   1.753   0.379  0.00  0.00     0.076 C 
ATOM      7  C8  UNL d   1      -0.431   0.610   0.447  0.00  0.00     0.001 A 
ENDROOT
BRANCH   1   8
ATOM      8  C1  UNL d   1       1.755  -0.651   0.565  0.00  0.00     0.053 C 
ATOM      9  C   UNL d   1       0.911  -1.705   1.264  0.00  0.00     0.018 C 
ENDBRANCH   1   8
TORSDOF 1
ENDMDL
