MODEL 1
REMARK minimizedAffinity -4.61334181
REMARK minimizedRMSD -1
REMARK  1 active torsions:
REMARK  status: ('A' for Active; 'I' for Inactive)
REMARK    1  A    between atoms: C1_2  and  C2_3 
ROOT
ATOM      1  C2  UNL d   1      -0.398   0.296  -0.496  0.00  0.00    -0.073 A 
ATOM      2  C3  UNL d   1       0.481  -0.218   0.464  0.00  0.00    -0.002 A 
ATOM      3  C4  UNL d   1       0.771  -1.583   0.495  0.00  0.00     0.004 A 
ATOM      4  C5  UNL d   1       0.192  -2.445  -0.436  0.00  0.00    -0.004 A 
ATOM      5  C6  UNL d   1      -0.680  -1.948  -1.410  0.00  0.00    -0.075 A 
ATOM      6  C7  UNL d   1      -1.313  -2.863  -2.418  0.00  0.00     0.076 C 
ATOM      7  C8  UNL d   1      -0.968  -0.577  -1.433  0.00  0.00     0.001 A 
ENDROOT
BRANCH   1   8
ATOM      8  C1  UNL d   1      -0.709   1.770  -0.537  0.00  0.00     0.053 C 
ATOM      9  C   UNL d   1      -0.454   2.444   0.801  0.00  0.00     0.018 C 
ENDBRANCH   1   8
TORSDOF 1
ENDMDL
