MODEL 1
REMARK minimizedAffinity -5.63579178
REMARK minimizedRMSD -1
REMARK  0 active torsions:
REMARK  status: ('A' for Active; 'I' for Inactive)
ROOT
ATOM      1  O1  BZF d   1       2.505  -1.523   0.086  0.00  0.00    -0.204 OA
ATOM      2  C2  BZF d   1       2.222  -0.528  -0.829  0.00  0.00     0.174 A 
ATOM      3  C3  BZF d   1       0.960  -0.078  -0.672  0.00  0.00    -0.012 A 
ATOM      4  C3A BZF d   1       0.451  -0.776   0.468  0.00  0.00    -0.107 A 
ATOM      5  C4  BZF d   1      -0.743  -0.749   1.130  0.00  0.00     0.055 A 
ATOM      6  C5  BZF d   1      -0.946  -1.608   2.163  0.00  0.00    -0.016 A 
ATOM      7  C6  BZF d   1       0.021  -2.510   2.557  0.00  0.00     0.022 A 
ATOM      8  C7  BZF d   1       1.223  -2.571   1.935  0.00  0.00     0.029 A 
ATOM      9  C7A BZF d   1       1.443  -1.681   0.912  0.00  0.00     0.058 A 
ENDROOT
TORSDOF 0
ENDMDL
