MODEL 1
REMARK minimizedAffinity -6.67786646
REMARK minimizedRMSD -1
REMARK  0 active torsions:
REMARK  status: ('A' for Active; 'I' for Inactive)
ROOT
ATOM      1  O1  BZF d   1      -1.091   0.486   1.020  0.00  0.00    -0.204 OA
ATOM      2  C2  BZF d   1      -0.392   1.085  -0.010  0.00  0.00     0.174 A 
ATOM      3  C3  BZF d   1       0.708   0.370  -0.321  0.00  0.00    -0.012 A 
ATOM      4  C3A BZF d   1       0.647  -0.795   0.507  0.00  0.00    -0.107 A 
ATOM      5  C4  BZF d   1       1.449  -1.891   0.646  0.00  0.00     0.055 A 
ATOM      6  C5  BZF d   1       1.147  -2.814   1.597  0.00  0.00    -0.016 A 
ATOM      7  C6  BZF d   1       0.055  -2.670   2.428  0.00  0.00     0.022 A 
ATOM      8  C7  BZF d   1      -0.773  -1.602   2.324  0.00  0.00     0.029 A 
ATOM      9  C7A BZF d   1      -0.489  -0.684   1.342  0.00  0.00     0.058 A 
ENDROOT
TORSDOF 0
ENDMDL
