MODEL 1
REMARK minimizedAffinity -3.6672318
REMARK minimizedRMSD -1
REMARK  0 active torsions:
REMARK  status: ('A' for Active; 'I' for Inactive)
ROOT
ATOM      1  O1  BZF d   1      -1.186   0.465   0.603  0.00  0.00    -0.204 OA
ATOM      2  C2  BZF d   1      -0.920   1.478  -0.298  0.00  0.00     0.174 A 
ATOM      3  C3  BZF d   1       0.300   1.318  -0.852  0.00  0.00    -0.012 A 
ATOM      4  C3A BZF d   1       0.790   0.079  -0.329  0.00  0.00    -0.107 A 
ATOM      5  C4  BZF d   1       1.942  -0.629  -0.518  0.00  0.00     0.055 A 
ATOM      6  C5  BZF d   1       2.144  -1.765   0.199  0.00  0.00    -0.016 A 
ATOM      7  C6  BZF d   1       1.219  -2.219   1.116  0.00  0.00     0.022 A 
ATOM      8  C7  BZF d   1       0.059  -1.554   1.334  0.00  0.00     0.029 A 
ATOM      9  C7A BZF d   1      -0.163  -0.423   0.587  0.00  0.00     0.058 A 
ENDROOT
TORSDOF 0
ENDMDL
