MODEL 1
REMARK minimizedAffinity -5.25276041
REMARK minimizedRMSD -1
REMARK  0 active torsions:
REMARK  status: ('A' for Active; 'I' for Inactive)
ROOT
ATOM      1  O1  BZF d   1      -0.803   0.364   0.063  0.00  0.00    -0.204 OA
ATOM      2  C2  BZF d   1       0.058   0.908  -0.870  0.00  0.00     0.174 A 
ATOM      3  C3  BZF d   1       1.252   0.281  -0.843  0.00  0.00    -0.012 A 
ATOM      4  C3A BZF d   1       1.099  -0.778   0.107  0.00  0.00    -0.107 A 
ATOM      5  C4  BZF d   1       1.933  -1.760   0.561  0.00  0.00     0.055 A 
ATOM      6  C5  BZF d   1       1.500  -2.591   1.545  0.00  0.00    -0.016 A 
ATOM      7  C6  BZF d   1       0.244  -2.466   2.101  0.00  0.00     0.022 A 
ATOM      8  C7  BZF d   1      -0.621  -1.511   1.680  0.00  0.00     0.029 A 
ATOM      9  C7A BZF d   1      -0.198  -0.690   0.662  0.00  0.00     0.058 A 
ENDROOT
TORSDOF 0
ENDMDL
