MODEL 1
REMARK minimizedAffinity -2.81448817
REMARK minimizedRMSD -1
REMARK  0 active torsions:
REMARK  status: ('A' for Active; 'I' for Inactive)
ROOT
ATOM      1  O1  BZF d   1      -0.744   0.330   0.220  0.00  0.00    -0.204 OA
ATOM      2  C2  BZF d   1       0.164   1.002  -0.575  0.00  0.00     0.174 A 
ATOM      3  C3  BZF d   1       1.389   0.448  -0.475  0.00  0.00    -0.012 A 
ATOM      4  C3A BZF d   1       1.218  -0.695   0.368  0.00  0.00    -0.107 A 
ATOM      5  C4  BZF d   1       2.069  -1.659   0.827  0.00  0.00     0.055 A 
ATOM      6  C5  BZF d   1       1.601  -2.595   1.694  0.00  0.00    -0.016 A 
ATOM      7  C6  BZF d   1       0.292  -2.593   2.127  0.00  0.00     0.022 A 
ATOM      8  C7  BZF d   1      -0.591  -1.660   1.696  0.00  0.00     0.029 A 
ATOM      9  C7A BZF d   1      -0.130  -0.733   0.794  0.00  0.00     0.058 A 
ENDROOT
TORSDOF 0
ENDMDL
