MODEL 1
REMARK minimizedAffinity -4.53471279
REMARK minimizedRMSD -1
REMARK  0 active torsions:
REMARK  status: ('A' for Active; 'I' for Inactive)
ROOT
ATOM      1  O1  BZF d   1      -1.652   0.029   1.912  0.00  0.00    -0.204 OA
ATOM      2  C2  BZF d   1      -1.572   0.856   0.808  0.00  0.00     0.174 A 
ATOM      3  C3  BZF d   1      -0.485   0.559   0.067  0.00  0.00    -0.012 A 
ATOM      4  C3A BZF d   1       0.103  -0.581   0.700  0.00  0.00    -0.107 A 
ATOM      5  C4  BZF d   1       1.198  -1.349   0.422  0.00  0.00     0.055 A 
ATOM      6  C5  BZF d   1       1.541  -2.345   1.280  0.00  0.00    -0.016 A 
ATOM      7  C6  BZF d   1       0.816  -2.598   2.426  0.00  0.00     0.022 A 
ATOM      8  C7  BZF d   1      -0.281  -1.866   2.741  0.00  0.00     0.029 A 
ATOM      9  C7A BZF d   1      -0.649  -0.880   1.859  0.00  0.00     0.058 A 
ENDROOT
TORSDOF 0
ENDMDL
