MODEL 1
REMARK minimizedAffinity -3.51072168
REMARK minimizedRMSD -1
REMARK  0 active torsions:
REMARK  status: ('A' for Active; 'I' for Inactive)
ROOT
ATOM      1  O1  BZF d   1      -0.586   0.137   0.561  0.00  0.00    -0.204 OA
ATOM      2  C2  BZF d   1       0.094   0.791  -0.448  0.00  0.00     0.174 A 
ATOM      3  C3  BZF d   1       1.286   0.204  -0.681  0.00  0.00    -0.012 A 
ATOM      4  C3A BZF d   1       1.316  -0.940   0.178  0.00  0.00    -0.107 A 
ATOM      5  C4  BZF d   1       2.232  -1.930   0.391  0.00  0.00     0.055 A 
ATOM      6  C5  BZF d   1       1.988  -2.860   1.351  0.00  0.00    -0.016 A 
ATOM      7  C6  BZF d   1       0.843  -2.827   2.120  0.00  0.00     0.022 A 
ATOM      8  C7  BZF d   1      -0.097  -1.868   1.941  0.00  0.00     0.029 A 
ATOM      9  C7A BZF d   1       0.131  -0.946   0.949  0.00  0.00     0.058 A 
ENDROOT
TORSDOF 0
ENDMDL
