MODEL 1
REMARK minimizedAffinity -5.49776888
REMARK minimizedRMSD -1
REMARK  0 active torsions:
REMARK  status: ('A' for Active; 'I' for Inactive)
ROOT
ATOM      1  O1  BZF d   1      -0.334   0.151   0.391  0.00  0.00    -0.204 OA
ATOM      2  C2  BZF d   1       0.424   0.441  -0.727  0.00  0.00     0.174 A 
ATOM      3  C3  BZF d   1       1.349  -0.518  -0.939  0.00  0.00    -0.012 A 
ATOM      4  C3A BZF d   1       1.095  -1.512   0.059  0.00  0.00    -0.107 A 
ATOM      5  C4  BZF d   1       1.672  -2.714   0.354  0.00  0.00     0.055 A 
ATOM      6  C5  BZF d   1       1.236  -3.408   1.438  0.00  0.00    -0.016 A 
ATOM      7  C6  BZF d   1       0.229  -2.927   2.250  0.00  0.00     0.022 A 
ATOM      8  C7  BZF d   1      -0.377  -1.742   1.995  0.00  0.00     0.029 A 
ATOM      9  C7A BZF d   1       0.040  -1.055   0.881  0.00  0.00     0.058 A 
ENDROOT
TORSDOF 0
ENDMDL
