MODEL 1
REMARK minimizedAffinity -5.88458967
REMARK minimizedRMSD -1
REMARK  0 active torsions:
REMARK  status: ('A' for Active; 'I' for Inactive)
ROOT
ATOM      1  O1  BZF d   1      -0.744   0.581   0.785  0.00  0.00    -0.204 OA
ATOM      2  C2  BZF d   1       0.006   1.069  -0.267  0.00  0.00     0.174 A 
ATOM      3  C3  BZF d   1       1.029   0.237  -0.552  0.00  0.00    -0.012 A 
ATOM      4  C3A BZF d   1       0.856  -0.884   0.320  0.00  0.00    -0.107 A 
ATOM      5  C4  BZF d   1       1.546  -2.048   0.500  0.00  0.00     0.055 A 
ATOM      6  C5  BZF d   1       1.158  -2.900   1.485  0.00  0.00    -0.016 A 
ATOM      7  C6  BZF d   1       0.089  -2.618   2.311  0.00  0.00     0.022 A 
ATOM      8  C7  BZF d   1      -0.629  -1.477   2.167  0.00  0.00     0.029 A 
ATOM      9  C7A BZF d   1      -0.260  -0.630   1.151  0.00  0.00     0.058 A 
ENDROOT
TORSDOF 0
ENDMDL
