MODEL 1
REMARK minimizedAffinity -6.73295879
REMARK minimizedRMSD -1
REMARK  0 active torsions:
REMARK  status: ('A' for Active; 'I' for Inactive)
ROOT
ATOM      1  O1  BZF d   1      -1.188   0.130   2.119  0.00  0.00    -0.204 OA
ATOM      2  C2  BZF d   1      -1.011   1.149   1.204  0.00  0.00     0.174 A 
ATOM      3  C3  BZF d   1      -0.005   0.858   0.354  0.00  0.00    -0.012 A 
ATOM      4  C3A BZF d   1       0.415  -0.463   0.705  0.00  0.00    -0.107 A 
ATOM      5  C4  BZF d   1       1.368  -1.308   0.212  0.00  0.00     0.055 A 
ATOM      6  C5  BZF d   1       1.575  -2.501   0.828  0.00  0.00    -0.016 A 
ATOM      7  C6  BZF d   1       0.853  -2.880   1.940  0.00  0.00     0.022 A 
ATOM      8  C7  BZF d   1      -0.107  -2.078   2.463  0.00  0.00     0.029 A 
ATOM      9  C7A BZF d   1      -0.341  -0.885   1.823  0.00  0.00     0.058 A 
ENDROOT
TORSDOF 0
ENDMDL
