MODEL 1
REMARK minimizedAffinity -5.59086657
REMARK minimizedRMSD -1
REMARK  0 active torsions:
REMARK  status: ('A' for Active; 'I' for Inactive)
ROOT
ATOM      1  O1  BZF d   1      -0.789   0.098   1.076  0.00  0.00    -0.204 OA
ATOM      2  C2  BZF d   1      -0.226   0.589  -0.086  0.00  0.00     0.174 A 
ATOM      3  C3  BZF d   1       0.793  -0.194  -0.493  0.00  0.00    -0.012 A 
ATOM      4  C3A BZF d   1       0.813  -1.292   0.425  0.00  0.00    -0.107 A 
ATOM      5  C4  BZF d   1       1.591  -2.409   0.535  0.00  0.00     0.055 A 
ATOM      6  C5  BZF d   1       1.398  -3.246   1.589  0.00  0.00    -0.016 A 
ATOM      7  C6  BZF d   1       0.444  -2.994   2.552  0.00  0.00     0.022 A 
ATOM      8  C7  BZF d   1      -0.355  -1.901   2.482  0.00  0.00     0.029 A 
ATOM      9  C7A BZF d   1      -0.185  -1.071   1.401  0.00  0.00     0.058 A 
ENDROOT
TORSDOF 0
ENDMDL
