MODEL 1
REMARK minimizedAffinity -2.79522991
REMARK minimizedRMSD -1
REMARK  0 active torsions:
REMARK  status: ('A' for Active; 'I' for Inactive)
ROOT
ATOM      1  O1  BZF d   1       2.173  -2.243   0.428  0.00  0.00    -0.204 OA
ATOM      2  C2  BZF d   1       1.190  -2.964   1.078  0.00  0.00     0.174 A 
ATOM      3  C3  BZF d   1       0.032  -2.274   1.111  0.00  0.00    -0.012 A 
ATOM      4  C3A BZF d   1       0.283  -1.083   0.359  0.00  0.00    -0.107 A 
ATOM      5  C4  BZF d   1      -0.487  -0.007   0.020  0.00  0.00     0.055 A 
ATOM      6  C5  BZF d   1       0.081   1.023  -0.662  0.00  0.00    -0.016 A 
ATOM      7  C6  BZF d   1       1.414   1.012  -1.016  0.00  0.00     0.022 A 
ATOM      8  C7  BZF d   1       2.216  -0.036  -0.706  0.00  0.00     0.029 A 
ATOM      9  C7A BZF d   1       1.638  -1.092  -0.046  0.00  0.00     0.058 A 
ENDROOT
TORSDOF 0
ENDMDL
