MODEL 1
REMARK minimizedAffinity 0.216479391
REMARK minimizedRMSD -1
REMARK  0 active torsions:
REMARK  status: ('A' for Active; 'I' for Inactive)
ROOT
ATOM      1  O1  BZF d   1      -1.300   0.076   1.024  0.00  0.00    -0.204 OA
ATOM      2  C2  BZF d   1      -1.297   0.929  -0.063  0.00  0.00     0.174 A 
ATOM      3  C3  BZF d   1      -0.136   0.835  -0.742  0.00  0.00    -0.012 A 
ATOM      4  C3A BZF d   1       0.599  -0.205  -0.089  0.00  0.00    -0.107 A 
ATOM      5  C4  BZF d   1       1.821  -0.772  -0.310  0.00  0.00     0.055 A 
ATOM      6  C5  BZF d   1       2.277  -1.716   0.555  0.00  0.00    -0.016 A 
ATOM      7  C6  BZF d   1       1.542  -2.111   1.653  0.00  0.00     0.022 A 
ATOM      8  C7  BZF d   1       0.322  -1.581   1.911  0.00  0.00     0.029 A 
ATOM      9  C7A BZF d   1      -0.157  -0.651   1.020  0.00  0.00     0.058 A 
ENDROOT
TORSDOF 0
ENDMDL
