MODEL 1
REMARK minimizedAffinity -0.912819088
REMARK minimizedRMSD -1
REMARK  0 active torsions:
REMARK  status: ('A' for Active; 'I' for Inactive)
ROOT
ATOM      1  O1  BZF d   1       0.631  -1.934   1.585  0.00  0.00    -0.204 OA
ATOM      2  C2  BZF d   1       1.973  -2.244   1.482  0.00  0.00     0.174 A 
ATOM      3  C3  BZF d   1       2.607  -1.364   0.680  0.00  0.00    -0.012 A 
ATOM      4  C3A BZF d   1       1.617  -0.393   0.330  0.00  0.00    -0.107 A 
ATOM      5  C4  BZF d   1       1.641   0.739  -0.433  0.00  0.00     0.055 A 
ATOM      6  C5  BZF d   1       0.485   1.424  -0.635  0.00  0.00    -0.016 A 
ATOM      7  C6  BZF d   1      -0.712   1.003  -0.095  0.00  0.00     0.022 A 
ATOM      8  C7  BZF d   1      -0.785  -0.111   0.673  0.00  0.00     0.029 A 
ATOM      9  C7A BZF d   1       0.387  -0.787   0.906  0.00  0.00     0.058 A 
ENDROOT
TORSDOF 0
ENDMDL
