MODEL 1
REMARK minimizedAffinity 12.2276831
REMARK minimizedRMSD -1
REMARK  0 active torsions:
REMARK  status: ('A' for Active; 'I' for Inactive)
ROOT
ATOM      1  O1  BZF d   1       0.864   0.418   2.397  0.00  0.00    -0.204 OA
ATOM      2  C2  BZF d   1       0.216   1.631   2.524  0.00  0.00     0.174 A 
ATOM      3  C3  BZF d   1       0.746   2.547   1.687  0.00  0.00    -0.012 A 
ATOM      4  C3A BZF d   1       1.729   1.837   0.927  0.00  0.00    -0.107 A 
ATOM      5  C4  BZF d   1       2.582   2.200  -0.076  0.00  0.00     0.055 A 
ATOM      6  C5  BZF d   1       3.467   1.286  -0.553  0.00  0.00    -0.016 A 
ATOM      7  C6  BZF d   1       3.531   0.004  -0.047  0.00  0.00     0.022 A 
ATOM      8  C7  BZF d   1       2.702  -0.404   0.944  0.00  0.00     0.029 A 
ATOM      9  C7A BZF d   1       1.783   0.508   1.406  0.00  0.00     0.058 A 
ENDROOT
TORSDOF 0
ENDMDL
