MODEL 1
REMARK minimizedAffinity 8.02259827
REMARK minimizedRMSD -1
REMARK  0 active torsions:
REMARK  status: ('A' for Active; 'I' for Inactive)
ROOT
ATOM      1  O1  BZF d   1       2.601  -2.793  -1.699  0.00  0.00    -0.204 OA
ATOM      2  C2  BZF d   1       2.917  -2.631  -3.035  0.00  0.00     0.174 A 
ATOM      3  C3  BZF d   1       3.132  -1.331  -3.321  0.00  0.00    -0.012 A 
ATOM      4  C3A BZF d   1       3.030  -0.648  -2.068  0.00  0.00    -0.107 A 
ATOM      5  C4  BZF d   1       3.161   0.660  -1.698  0.00  0.00     0.055 A 
ATOM      6  C5  BZF d   1       2.927   1.008  -0.405  0.00  0.00    -0.016 A 
ATOM      7  C6  BZF d   1       2.555   0.076   0.541  0.00  0.00     0.022 A 
ATOM      8  C7  BZF d   1       2.418  -1.234   0.223  0.00  0.00     0.029 A 
ATOM      9  C7A BZF d   1       2.686  -1.594  -1.075  0.00  0.00     0.058 A 
ENDROOT
TORSDOF 0
ENDMDL
