MODEL 1
REMARK minimizedAffinity 14.2214594
REMARK minimizedRMSD -1
REMARK  0 active torsions:
REMARK  status: ('A' for Active; 'I' for Inactive)
ROOT
ATOM      1  O1  BZF d   1      -4.172   3.681  -0.573  0.00  0.00    -0.204 OA
ATOM      2  C2  BZF d   1      -5.086   4.269  -1.424  0.00  0.00     0.174 A 
ATOM      3  C3  BZF d   1      -5.847   3.334  -2.029  0.00  0.00    -0.012 A 
ATOM      4  C3A BZF d   1      -5.440   2.088  -1.455  0.00  0.00    -0.107 A 
ATOM      5  C4  BZF d   1      -5.840   0.795  -1.637  0.00  0.00     0.055 A 
ATOM      6  C5  BZF d   1      -5.189  -0.197  -0.974  0.00  0.00    -0.016 A 
ATOM      7  C6  BZF d   1      -4.134   0.068  -0.126  0.00  0.00     0.022 A 
ATOM      8  C7  BZF d   1      -3.704   1.335   0.090  0.00  0.00     0.029 A 
ATOM      9  C7A BZF d   1      -4.381   2.342  -0.553  0.00  0.00     0.058 A 
ENDROOT
TORSDOF 0
ENDMDL
