MODEL 1
REMARK minimizedAffinity 7.57146168
REMARK minimizedRMSD -1
REMARK  0 active torsions:
REMARK  status: ('A' for Active; 'I' for Inactive)
ROOT
ATOM      1  O1  BZF d   1       4.234  -2.166   1.649  0.00  0.00    -0.204 OA
ATOM      2  C2  BZF d   1       5.532  -1.745   1.860  0.00  0.00     0.174 A 
ATOM      3  C3  BZF d   1       5.736  -0.529   1.313  0.00  0.00    -0.012 A 
ATOM      4  C3A BZF d   1       4.461  -0.128   0.802  0.00  0.00    -0.107 A 
ATOM      5  C4  BZF d   1       4.017   0.992   0.160  0.00  0.00     0.055 A 
ATOM      6  C5  BZF d   1       2.729   1.040  -0.271  0.00  0.00    -0.016 A 
ATOM      7  C6  BZF d   1       1.860  -0.015  -0.081  0.00  0.00     0.022 A 
ATOM      8  C7  BZF d   1       2.253  -1.145   0.556  0.00  0.00     0.029 A 
ATOM      9  C7A BZF d   1       3.545  -1.183   1.022  0.00  0.00     0.058 A 
ENDROOT
TORSDOF 0
ENDMDL
