MODEL 1
REMARK minimizedAffinity 12.0498981
REMARK minimizedRMSD -1
REMARK  0 active torsions:
REMARK  status: ('A' for Active; 'I' for Inactive)
ROOT
ATOM      1  O1  BZF d   1       4.539   1.782  -2.650  0.00  0.00    -0.204 OA
ATOM      2  C2  BZF d   1       5.128   2.941  -2.183  0.00  0.00     0.174 A 
ATOM      3  C3  BZF d   1       4.711   3.219  -0.931  0.00  0.00    -0.012 A 
ATOM      4  C3A BZF d   1       3.877   2.117  -0.559  0.00  0.00    -0.107 A 
ATOM      5  C4  BZF d   1       3.181   1.807   0.574  0.00  0.00     0.055 A 
ATOM      6  C5  BZF d   1       2.405   0.692   0.588  0.00  0.00    -0.016 A 
ATOM      7  C6  BZF d   1       2.297  -0.131  -0.513  0.00  0.00     0.022 A 
ATOM      8  C7  BZF d   1       2.972   0.132  -1.658  0.00  0.00     0.029 A 
ATOM      9  C7A BZF d   1       3.783   1.241  -1.665  0.00  0.00     0.058 A 
ENDROOT
TORSDOF 0
ENDMDL
