MODEL 1
REMARK minimizedAffinity 9.91616154
REMARK minimizedRMSD -1
REMARK  0 active torsions:
REMARK  status: ('A' for Active; 'I' for Inactive)
ROOT
ATOM      1  O1  BZF d   1       2.970   0.053  -1.758  0.00  0.00    -0.204 OA
ATOM      2  C2  BZF d   1       2.342  -0.399  -0.614  0.00  0.00     0.174 A 
ATOM      3  C3  BZF d   1       2.917   0.125   0.487  0.00  0.00    -0.012 A 
ATOM      4  C3A BZF d   1       3.912   1.029  -0.003  0.00  0.00    -0.107 A 
ATOM      5  C4  BZF d   1       4.806   1.862   0.607  0.00  0.00     0.055 A 
ATOM      6  C5  BZF d   1       5.689   2.557  -0.157  0.00  0.00    -0.016 A 
ATOM      7  C6  BZF d   1       5.711   2.439  -1.531  0.00  0.00     0.022 A 
ATOM      8  C7  BZF d   1       4.840   1.629  -2.182  0.00  0.00     0.029 A 
ATOM      9  C7A BZF d   1       3.925   0.951  -1.415  0.00  0.00     0.058 A 
ENDROOT
TORSDOF 0
ENDMDL
