MODEL 1
REMARK minimizedAffinity 16.0169086
REMARK minimizedRMSD -1
REMARK  0 active torsions:
REMARK  status: ('A' for Active; 'I' for Inactive)
ROOT
ATOM      1  O1  BZF d   1       3.150   5.287   3.029  0.00  0.00    -0.204 OA
ATOM      2  C2  BZF d   1       3.843   4.198   2.536  0.00  0.00     0.174 A 
ATOM      3  C3  BZF d   1       3.483   3.070   3.182  0.00  0.00    -0.012 A 
ATOM      4  C3A BZF d   1       2.438   3.465   4.075  0.00  0.00    -0.107 A 
ATOM      5  C4  BZF d   1       1.665   2.787   4.975  0.00  0.00     0.055 A 
ATOM      6  C5  BZF d   1       0.784   3.480   5.743  0.00  0.00    -0.016 A 
ATOM      7  C6  BZF d   1       0.653   4.849   5.642  0.00  0.00     0.022 A 
ATOM      8  C7  BZF d   1       1.394   5.564   4.761  0.00  0.00     0.029 A 
ATOM      9  C7A BZF d   1       2.262   4.863   3.960  0.00  0.00     0.058 A 
ENDROOT
TORSDOF 0
ENDMDL
