MODEL 1
REMARK minimizedAffinity 4.8942194
REMARK minimizedRMSD -1
REMARK  0 active torsions:
REMARK  status: ('A' for Active; 'I' for Inactive)
ROOT
ATOM      1  C   UNL d   1      -4.793   3.231  -3.320  0.00  0.00     0.124 A 
ATOM      2  C1  UNL d   1      -4.658   1.871  -3.074  0.00  0.00     0.062 A 
ATOM      3  C2  UNL d   1      -3.405   1.268  -3.141  0.00  0.00     0.162 A 
ATOM      4  C3  UNL d   1      -2.276   2.025  -3.455  0.00  0.00    -0.034 A 
ATOM      5  C4  UNL d   1      -2.420   3.391  -3.702  0.00  0.00     0.162 A 
ATOM      6  C5  UNL d   1      -3.674   3.989  -3.634  0.00  0.00     0.062 A 
ATOM      7  F   UNL d   1      -3.802   5.302  -3.872  0.00  0.00    -0.097 F 
ATOM      8  F1  UNL d   1      -1.355   4.148  -4.007  0.00  0.00    -0.096 F 
ATOM      9  I   UNL d   1      -0.401   1.127  -3.557  0.00  0.00    -0.060 I 
ATOM     10  F2  UNL d   1      -3.305  -0.047  -2.899  0.00  0.00    -0.096 F 
ATOM     11  F3  UNL d   1      -5.738   1.136  -2.771  0.00  0.00    -0.097 F 
ATOM     12  F4  UNL d   1      -5.999   3.808  -3.255  0.00  0.00    -0.092 F 
ENDROOT
TORSDOF 0
ENDMDL
