MODEL 1
REMARK minimizedAffinity 20.5903549
REMARK minimizedRMSD -1
REMARK  0 active torsions:
REMARK  status: ('A' for Active; 'I' for Inactive)
ROOT
ATOM      1  C   UNL d   1       1.839  -1.783   3.754  0.00  0.00     0.124 A 
ATOM      2  C1  UNL d   1       2.409  -2.814   4.488  0.00  0.00     0.062 A 
ATOM      3  C2  UNL d   1       3.422  -3.591   3.934  0.00  0.00     0.162 A 
ATOM      4  C3  UNL d   1       3.872  -3.340   2.638  0.00  0.00    -0.034 A 
ATOM      5  C4  UNL d   1       3.293  -2.302   1.905  0.00  0.00     0.162 A 
ATOM      6  C5  UNL d   1       2.281  -1.529   2.464  0.00  0.00     0.062 A 
ATOM      7  F   UNL d   1       1.731  -0.533   1.753  0.00  0.00    -0.097 F 
ATOM      8  F1  UNL d   1       3.702  -2.034   0.657  0.00  0.00    -0.096 F 
ATOM      9  I   UNL d   1       5.387  -4.500   1.806  0.00  0.00    -0.060 I 
ATOM     10  F2  UNL d   1       3.955  -4.580   4.667  0.00  0.00    -0.096 F 
ATOM     11  F3  UNL d   1       1.982  -3.063   5.735  0.00  0.00    -0.097 F 
ATOM     12  F4  UNL d   1       0.863  -1.038   4.289  0.00  0.00    -0.092 F 
ENDROOT
TORSDOF 0
ENDMDL
