MODEL 1
REMARK minimizedAffinity 17.7547035
REMARK minimizedRMSD -1
REMARK  0 active torsions:
REMARK  status: ('A' for Active; 'I' for Inactive)
ROOT
ATOM      1  C   UNL d   1       1.899  -2.807  -3.408  0.00  0.00     0.124 A 
ATOM      2  C1  UNL d   1       3.044  -2.087  -3.719  0.00  0.00     0.062 A 
ATOM      3  C2  UNL d   1       4.070  -2.684  -4.447  0.00  0.00     0.162 A 
ATOM      4  C3  UNL d   1       3.954  -4.007  -4.870  0.00  0.00    -0.034 A 
ATOM      5  C4  UNL d   1       2.800  -4.725  -4.554  0.00  0.00     0.162 A 
ATOM      6  C5  UNL d   1       1.777  -4.125  -3.826  0.00  0.00     0.062 A 
ATOM      7  F   UNL d   1       0.671  -4.821  -3.527  0.00  0.00    -0.097 F 
ATOM      8  F1  UNL d   1       2.656  -6.000  -4.945  0.00  0.00    -0.096 F 
ATOM      9  I   UNL d   1       5.485  -4.903  -5.959  0.00  0.00    -0.060 I 
ATOM     10  F2  UNL d   1       5.165  -1.964  -4.732  0.00  0.00    -0.096 F 
ATOM     11  F3  UNL d   1       3.164  -0.814  -3.316  0.00  0.00    -0.097 F 
ATOM     12  F4  UNL d   1       0.914  -2.231  -2.707  0.00  0.00    -0.092 F 
ENDROOT
TORSDOF 0
ENDMDL
