MODEL 1
REMARK minimizedAffinity 27.239378
REMARK minimizedRMSD -1
REMARK  0 active torsions:
REMARK  status: ('A' for Active; 'I' for Inactive)
ROOT
ATOM      1  C   UNL d   1       4.843  -3.721  -5.312  0.00  0.00     0.124 A 
ATOM      2  C1  UNL d   1       4.399  -4.872  -4.675  0.00  0.00     0.062 A 
ATOM      3  C2  UNL d   1       3.206  -4.860  -3.959  0.00  0.00     0.162 A 
ATOM      4  C3  UNL d   1       2.446  -3.693  -3.877  0.00  0.00    -0.034 A 
ATOM      5  C4  UNL d   1       2.899  -2.539  -4.519  0.00  0.00     0.162 A 
ATOM      6  C5  UNL d   1       4.093  -2.556  -5.233  0.00  0.00     0.062 A 
ATOM      7  F   UNL d   1       4.520  -1.443  -5.848  0.00  0.00    -0.097 F 
ATOM      8  F1  UNL d   1       2.194  -1.400  -4.460  0.00  0.00    -0.096 F 
ATOM      9  I   UNL d   1       0.661  -3.671  -2.807  0.00  0.00    -0.060 I 
ATOM     10  F2  UNL d   1       2.802  -5.986  -3.354  0.00  0.00    -0.096 F 
ATOM     11  F3  UNL d   1       5.123  -5.998  -4.749  0.00  0.00    -0.097 F 
ATOM     12  F4  UNL d   1       5.992  -3.735  -5.999  0.00  0.00    -0.092 F 
ENDROOT
TORSDOF 0
ENDMDL
