MODEL 1
REMARK minimizedAffinity 16.3348255
REMARK minimizedRMSD -1
REMARK  0 active torsions:
REMARK  status: ('A' for Active; 'I' for Inactive)
ROOT
ATOM      1  C   UNL d   1       0.395   3.480  -1.048  0.00  0.00     0.124 A 
ATOM      2  C1  UNL d   1       0.642   2.851  -2.260  0.00  0.00     0.062 A 
ATOM      3  C2  UNL d   1      -0.283   1.953  -2.785  0.00  0.00     0.162 A 
ATOM      4  C3  UNL d   1      -1.466   1.680  -2.097  0.00  0.00    -0.034 A 
ATOM      5  C4  UNL d   1      -1.707   2.316  -0.878  0.00  0.00     0.162 A 
ATOM      6  C5  UNL d   1      -0.779   3.212  -0.358  0.00  0.00     0.062 A 
ATOM      7  F   UNL d   1      -1.020   3.819   0.813  0.00  0.00    -0.097 F 
ATOM      8  F1  UNL d   1      -2.834   2.077  -0.191  0.00  0.00    -0.096 F 
ATOM      9  I   UNL d   1      -2.852   0.339  -2.878  0.00  0.00    -0.060 I 
ATOM     10  F2  UNL d   1      -0.018   1.360  -3.958  0.00  0.00    -0.096 F 
ATOM     11  F3  UNL d   1       1.777   3.107  -2.928  0.00  0.00    -0.097 F 
ATOM     12  F4  UNL d   1       1.288   4.343  -0.545  0.00  0.00    -0.092 F 
ENDROOT
TORSDOF 0
ENDMDL
