MODEL 1
REMARK minimizedAffinity 19.6432247
REMARK minimizedRMSD -1
REMARK  0 active torsions:
REMARK  status: ('A' for Active; 'I' for Inactive)
ROOT
ATOM      1  C   UNL d   1      -1.366   1.917  -3.232  0.00  0.00     0.124 A 
ATOM      2  C1  UNL d   1      -1.756   3.161  -3.709  0.00  0.00     0.062 A 
ATOM      3  C2  UNL d   1      -3.079   3.576  -3.583  0.00  0.00     0.162 A 
ATOM      4  C3  UNL d   1      -4.021   2.746  -2.975  0.00  0.00    -0.034 A 
ATOM      5  C4  UNL d   1      -3.622   1.496  -2.499  0.00  0.00     0.162 A 
ATOM      6  C5  UNL d   1      -2.299   1.086  -2.628  0.00  0.00     0.062 A 
ATOM      7  F   UNL d   1      -1.924  -0.116  -2.166  0.00  0.00    -0.097 F 
ATOM      8  F1  UNL d   1      -4.502   0.674  -1.909  0.00  0.00    -0.096 F 
ATOM      9  I   UNL d   1      -6.000   3.363  -2.784  0.00  0.00    -0.060 I 
ATOM     10  F2  UNL d   1      -3.427   4.783  -4.053  0.00  0.00    -0.096 F 
ATOM     11  F3  UNL d   1      -0.857   3.965  -4.295  0.00  0.00    -0.097 F 
ATOM     12  F4  UNL d   1      -0.093   1.520  -3.356  0.00  0.00    -0.092 F 
ENDROOT
TORSDOF 0
ENDMDL
