MODEL 1
REMARK minimizedAffinity 19.6605263
REMARK minimizedRMSD -1
REMARK  0 active torsions:
REMARK  status: ('A' for Active; 'I' for Inactive)
ROOT
ATOM      1  C   UNL d   1      -1.310   0.940  -0.889  0.00  0.00     0.124 A 
ATOM      2  C1  UNL d   1      -1.392   0.362   0.370  0.00  0.00     0.062 A 
ATOM      3  C2  UNL d   1      -0.912  -0.927   0.581  0.00  0.00     0.162 A 
ATOM      4  C3  UNL d   1      -0.344  -1.647  -0.469  0.00  0.00    -0.034 A 
ATOM      5  C4  UNL d   1      -0.265  -1.060  -1.733  0.00  0.00     0.162 A 
ATOM      6  C5  UNL d   1      -0.747   0.229  -1.939  0.00  0.00     0.062 A 
ATOM      7  F   UNL d   1      -0.666   0.786  -3.157  0.00  0.00    -0.097 F 
ATOM      8  F1  UNL d   1       0.275  -1.724  -2.766  0.00  0.00    -0.096 F 
ATOM      9  I   UNL d   1       0.376  -3.575  -0.158  0.00  0.00    -0.060 I 
ATOM     10  F2  UNL d   1      -1.005  -1.461   1.808  0.00  0.00    -0.096 F 
ATOM     11  F3  UNL d   1      -1.937   1.047   1.386  0.00  0.00    -0.097 F 
ATOM     12  F4  UNL d   1      -1.774   2.180  -1.090  0.00  0.00    -0.092 F 
ENDROOT
TORSDOF 0
ENDMDL
