MODEL 1
REMARK minimizedAffinity 24.3908882
REMARK minimizedRMSD -1
REMARK  0 active torsions:
REMARK  status: ('A' for Active; 'I' for Inactive)
ROOT
ATOM      1  C   UNL d   1       2.042  -1.817   3.610  0.00  0.00     0.124 A 
ATOM      2  C1  UNL d   1       2.664  -2.803   4.363  0.00  0.00     0.062 A 
ATOM      3  C2  UNL d   1       3.607  -3.642   3.777  0.00  0.00     0.162 A 
ATOM      4  C3  UNL d   1       3.934  -3.499   2.428  0.00  0.00    -0.034 A 
ATOM      5  C4  UNL d   1       3.303  -2.506   1.676  0.00  0.00     0.162 A 
ATOM      6  C5  UNL d   1       2.362  -1.670   2.267  0.00  0.00     0.062 A 
ATOM      7  F   UNL d   1       1.762  -0.718   1.538  0.00  0.00    -0.097 F 
ATOM      8  F1  UNL d   1       3.595  -2.341   0.378  0.00  0.00    -0.096 F 
ATOM      9  I   UNL d   1       5.343  -4.753   1.547  0.00  0.00    -0.060 I 
ATOM     10  F2  UNL d   1       4.192  -4.586   4.529  0.00  0.00    -0.096 F 
ATOM     11  F3  UNL d   1       2.356  -2.948   5.660  0.00  0.00    -0.097 F 
ATOM     12  F4  UNL d   1       1.135  -1.011   4.176  0.00  0.00    -0.092 F 
ENDROOT
TORSDOF 0
ENDMDL
