MODEL 1
REMARK minimizedAffinity 19.8884716
REMARK minimizedRMSD -1
REMARK  0 active torsions:
REMARK  status: ('A' for Active; 'I' for Inactive)
ROOT
ATOM      1  C   UNL d   1      -2.318   0.493  -2.546  0.00  0.00     0.124 A 
ATOM      2  C1  UNL d   1      -3.216   0.648  -3.593  0.00  0.00     0.062 A 
ATOM      3  C2  UNL d   1      -3.958   1.820  -3.711  0.00  0.00     0.162 A 
ATOM      4  C3  UNL d   1      -3.804   2.848  -2.780  0.00  0.00    -0.034 A 
ATOM      5  C4  UNL d   1      -2.899   2.684  -1.730  0.00  0.00     0.162 A 
ATOM      6  C5  UNL d   1      -2.160   1.511  -1.616  0.00  0.00     0.062 A 
ATOM      7  F   UNL d   1      -1.293   1.363  -0.604  0.00  0.00    -0.097 F 
ATOM      8  F1  UNL d   1      -2.726   3.652  -0.817  0.00  0.00    -0.096 F 
ATOM      9  I   UNL d   1      -4.910   4.602  -2.954  0.00  0.00    -0.060 I 
ATOM     10  F2  UNL d   1      -4.818   1.943  -4.733  0.00  0.00    -0.096 F 
ATOM     11  F3  UNL d   1      -3.371  -0.334  -4.492  0.00  0.00    -0.097 F 
ATOM     12  F4  UNL d   1      -1.607  -0.636  -2.434  0.00  0.00    -0.092 F 
ENDROOT
TORSDOF 0
ENDMDL
