MODEL 1
REMARK minimizedAffinity 15.2601175
REMARK minimizedRMSD -1
REMARK  0 active torsions:
REMARK  status: ('A' for Active; 'I' for Inactive)
ROOT
ATOM      1  C   UNL d   1      -3.281   1.344  -2.302  0.00  0.00     0.124 A 
ATOM      2  C1  UNL d   1      -4.163   2.059  -3.100  0.00  0.00     0.062 A 
ATOM      3  C2  UNL d   1      -4.940   1.401  -4.049  0.00  0.00     0.162 A 
ATOM      4  C3  UNL d   1      -4.840   0.019  -4.205  0.00  0.00    -0.034 A 
ATOM      5  C4  UNL d   1      -3.950  -0.694  -3.399  0.00  0.00     0.162 A 
ATOM      6  C5  UNL d   1      -3.176  -0.032  -2.452  0.00  0.00     0.062 A 
ATOM      7  F   UNL d   1      -2.325  -0.725  -1.682  0.00  0.00    -0.097 F 
ATOM      8  F1  UNL d   1      -3.829  -2.024  -3.522  0.00  0.00    -0.096 F 
ATOM      9  I   UNL d   1      -6.000  -0.969  -5.623  0.00  0.00    -0.060 I 
ATOM     10  F2  UNL d   1      -5.783   2.118  -4.807  0.00  0.00    -0.096 F 
ATOM     11  F3  UNL d   1      -4.266   3.388  -2.958  0.00  0.00    -0.097 F 
ATOM     12  F4  UNL d   1      -2.534   1.979  -1.390  0.00  0.00    -0.092 F 
ENDROOT
TORSDOF 0
ENDMDL
