MODEL 1
REMARK minimizedAffinity 11.6942902
REMARK minimizedRMSD -1
REMARK  0 active torsions:
REMARK  status: ('A' for Active; 'I' for Inactive)
ROOT
ATOM      1  C   UNL d   1       0.103  -2.409  -1.924  0.00  0.00     0.124 A 
ATOM      2  C1  UNL d   1      -0.743  -1.995  -0.904  0.00  0.00     0.062 A 
ATOM      3  C2  UNL d   1      -1.326  -2.931  -0.055  0.00  0.00     0.162 A 
ATOM      4  C3  UNL d   1      -1.066  -4.291  -0.222  0.00  0.00    -0.034 A 
ATOM      5  C4  UNL d   1      -0.215  -4.700  -1.251  0.00  0.00     0.162 A 
ATOM      6  C5  UNL d   1       0.365  -3.760  -2.096  0.00  0.00     0.062 A 
ATOM      7  F   UNL d   1       1.182  -4.162  -3.082  0.00  0.00    -0.097 F 
ATOM      8  F1  UNL d   1       0.057  -6.000  -1.439  0.00  0.00    -0.096 F 
ATOM      9  I   UNL d   1      -1.936  -5.694   1.045  0.00  0.00    -0.060 I 
ATOM     10  F2  UNL d   1      -2.139  -2.502   0.922  0.00  0.00    -0.096 F 
ATOM     11  F3  UNL d   1      -0.999  -0.689  -0.736  0.00  0.00    -0.097 F 
ATOM     12  F4  UNL d   1       0.662  -1.506  -2.740  0.00  0.00    -0.092 F 
ENDROOT
TORSDOF 0
ENDMDL
