MODEL 1
REMARK minimizedAffinity 6.89986944
REMARK minimizedRMSD -1
REMARK  0 active torsions:
REMARK  status: ('A' for Active; 'I' for Inactive)
ROOT
ATOM      1  C   UNL d   1       4.162  -1.183  -4.539  0.00  0.00     0.124 A 
ATOM      2  C1  UNL d   1       3.224  -1.749  -3.687  0.00  0.00     0.062 A 
ATOM      3  C2  UNL d   1       3.214  -3.124  -3.470  0.00  0.00     0.162 A 
ATOM      4  C3  UNL d   1       4.148  -3.943  -4.106  0.00  0.00    -0.034 A 
ATOM      5  C4  UNL d   1       5.087  -3.366  -4.962  0.00  0.00     0.162 A 
ATOM      6  C5  UNL d   1       5.093  -1.992  -5.175  0.00  0.00     0.062 A 
ATOM      7  F   UNL d   1       6.000  -1.447  -5.999  0.00  0.00    -0.097 F 
ATOM      8  F1  UNL d   1       5.999  -4.124  -5.589  0.00  0.00    -0.096 F 
ATOM      9  I   UNL d   1       4.137  -5.999  -3.784  0.00  0.00    -0.060 I 
ATOM     10  F2  UNL d   1       2.296  -3.643  -2.641  0.00  0.00    -0.096 F 
ATOM     11  F3  UNL d   1       2.323  -0.969  -3.071  0.00  0.00    -0.097 F 
ATOM     12  F4  UNL d   1       4.168   0.140  -4.746  0.00  0.00    -0.092 F 
ENDROOT
TORSDOF 0
ENDMDL
