MODEL 1
REMARK minimizedAffinity -2.92755723
REMARK minimizedRMSD -1
REMARK  1 active torsions:
REMARK  status: ('A' for Active; 'I' for Inactive)
REMARK    1  A    between atoms: C3_4  and  O_7 
ROOT
ATOM      1  C   UNL d   1      -1.097   0.039   1.087  0.00  0.00    -0.033 A 
ATOM      2  C1  UNL d   1      -2.052  -0.965   1.263  0.00  0.00     0.039 A 
ATOM      3  C2  UNL d   1      -1.708  -2.302   1.055  0.00  0.00    -0.080 A 
ATOM      4  C3  UNL d   1      -0.407  -2.622   0.674  0.00  0.00     0.150 A 
ATOM      5  C4  UNL d   1       0.550  -1.627   0.502  0.00  0.00    -0.007 A 
ATOM      6  C5  UNL d   1       0.204  -0.293   0.708  0.00  0.00     0.039 A 
ENDROOT
BRANCH   4   7
ATOM      7  O   UNL d   1      -0.026  -3.912   0.456  0.00  0.00    -0.526 OA
ATOM      8  H5  UNL d   1      -0.798  -4.488   0.585  0.00  0.00     0.418 HD
ENDBRANCH   4   7
TORSDOF 1
ENDMDL
