MODEL 1
REMARK minimizedAffinity -4.2204504
REMARK minimizedRMSD -1
REMARK  1 active torsions:
REMARK  status: ('A' for Active; 'I' for Inactive)
REMARK    1  A    between atoms: C3_4  and  O_7 
ROOT
ATOM      1  C   UNL d   1      -0.006   0.422  -1.561  0.00  0.00    -0.033 A 
ATOM      2  C1  UNL d   1       0.566  -0.539  -2.396  0.00  0.00     0.039 A 
ATOM      3  C2  UNL d   1       0.817  -1.825  -1.914  0.00  0.00    -0.080 A 
ATOM      4  C3  UNL d   1       0.490  -2.138  -0.598  0.00  0.00     0.150 A 
ATOM      5  C4  UNL d   1      -0.085  -1.187   0.239  0.00  0.00    -0.007 A 
ATOM      6  C5  UNL d   1      -0.333   0.098  -0.244  0.00  0.00     0.039 A 
ENDROOT
BRANCH   4   7
ATOM      7  O   UNL d   1       0.720  -3.378  -0.082  0.00  0.00    -0.526 OA
ATOM      8  H5  UNL d   1       1.147  -3.922  -0.765  0.00  0.00     0.418 HD
ENDBRANCH   4   7
TORSDOF 1
ENDMDL
