MODEL 1
REMARK minimizedAffinity -3.90394497
REMARK minimizedRMSD -1
REMARK  1 active torsions:
REMARK  status: ('A' for Active; 'I' for Inactive)
REMARK    1  A    between atoms: C3_4  and  O_7 
ROOT
ATOM      1  C   UNL d   1       1.511   5.991   1.939  0.00  0.00    -0.033 A 
ATOM      2  C1  UNL d   1       2.510   5.343   1.210  0.00  0.00     0.039 A 
ATOM      3  C2  UNL d   1       2.230   4.145   0.550  0.00  0.00    -0.080 A 
ATOM      4  C3  UNL d   1       0.948   3.607   0.626  0.00  0.00     0.150 A 
ATOM      5  C4  UNL d   1      -0.053   4.249   1.346  0.00  0.00    -0.007 A 
ATOM      6  C5  UNL d   1       0.228   5.445   2.006  0.00  0.00     0.039 A 
ENDROOT
BRANCH   4   7
ATOM      7  O   UNL d   1       0.629   2.437   0.002  0.00  0.00    -0.526 OA
ATOM      8  H5  UNL d   1       1.426   2.093  -0.433  0.00  0.00     0.418 HD
ENDBRANCH   4   7
TORSDOF 1
ENDMDL
