MODEL 1
REMARK minimizedAffinity -5.15852118
REMARK minimizedRMSD -1
REMARK  1 active torsions:
REMARK  status: ('A' for Active; 'I' for Inactive)
REMARK    1  A    between atoms: C3_4  and  O_7 
ROOT
ATOM      1  C   UNL d   1      -0.299   0.546  -0.373  0.00  0.00    -0.033 A 
ATOM      2  C1  UNL d   1      -1.037   0.137   0.739  0.00  0.00     0.039 A 
ATOM      3  C2  UNL d   1      -0.904  -1.164   1.228  0.00  0.00    -0.080 A 
ATOM      4  C3  UNL d   1      -0.029  -2.044   0.597  0.00  0.00     0.150 A 
ATOM      5  C4  UNL d   1       0.713  -1.643  -0.509  0.00  0.00    -0.007 A 
ATOM      6  C5  UNL d   1       0.577  -0.343  -0.996  0.00  0.00     0.039 A 
ENDROOT
BRANCH   4   7
ATOM      7  O   UNL d   1       0.131  -3.326   1.035  0.00  0.00    -0.526 OA
ATOM      8  H5  UNL d   1      -0.465  -3.470   1.788  0.00  0.00     0.418 HD
ENDBRANCH   4   7
TORSDOF 1
ENDMDL
