MODEL 1
REMARK minimizedAffinity -4.67631912
REMARK minimizedRMSD -1
REMARK  1 active torsions:
REMARK  status: ('A' for Active; 'I' for Inactive)
REMARK    1  A    between atoms: C3_4  and  O_7 
ROOT
ATOM      1  C   UNL d   1      -0.558   0.792   0.129  0.00  0.00    -0.033 A 
ATOM      2  C1  UNL d   1       0.265   0.257  -0.864  0.00  0.00     0.039 A 
ATOM      3  C2  UNL d   1       0.596  -1.099  -0.844  0.00  0.00    -0.080 A 
ATOM      4  C3  UNL d   1       0.096  -1.909   0.172  0.00  0.00     0.150 A 
ATOM      5  C4  UNL d   1      -0.728  -1.385   1.162  0.00  0.00    -0.007 A 
ATOM      6  C5  UNL d   1      -1.056  -0.030   1.141  0.00  0.00     0.039 A 
ENDROOT
BRANCH   4   7
ATOM      7  O   UNL d   1       0.394  -3.238   0.235  0.00  0.00    -0.526 OA
ATOM      8  H5  UNL d   1       0.996  -3.454  -0.497  0.00  0.00     0.418 HD
ENDBRANCH   4   7
TORSDOF 1
ENDMDL
