MODEL 1
REMARK minimizedAffinity -5.0453043
REMARK minimizedRMSD -1
REMARK  1 active torsions:
REMARK  status: ('A' for Active; 'I' for Inactive)
REMARK    1  A    between atoms: C3_4  and  O_7 
ROOT
ATOM      1  C   UNL d   1       0.087   0.506  -0.597  0.00  0.00    -0.033 A 
ATOM      2  C1  UNL d   1       0.562  -0.512  -1.427  0.00  0.00     0.039 A 
ATOM      3  C2  UNL d   1       0.497  -1.843  -1.010  0.00  0.00    -0.080 A 
ATOM      4  C3  UNL d   1      -0.045  -2.142   0.237  0.00  0.00     0.150 A 
ATOM      5  C4  UNL d   1      -0.523  -1.133   1.067  0.00  0.00    -0.007 A 
ATOM      6  C5  UNL d   1      -0.457   0.195   0.649  0.00  0.00     0.039 A 
ENDROOT
BRANCH   4   7
ATOM      7  O   UNL d   1      -0.126  -3.425   0.690  0.00  0.00    -0.526 OA
ATOM      8  H5  UNL d   1       0.269  -4.012   0.023  0.00  0.00     0.418 HD
ENDBRANCH   4   7
TORSDOF 1
ENDMDL
