MODEL 1
REMARK minimizedAffinity -3.12292719
REMARK minimizedRMSD -1
REMARK  1 active torsions:
REMARK  status: ('A' for Active; 'I' for Inactive)
REMARK    1  A    between atoms: C3_4  and  O_7 
ROOT
ATOM      1  C   UNL d   1       1.192   3.327   0.257  0.00  0.00    -0.033 A 
ATOM      2  C1  UNL d   1       0.045   2.936  -0.437  0.00  0.00     0.039 A 
ATOM      3  C2  UNL d   1      -0.340   1.594  -0.451  0.00  0.00    -0.080 A 
ATOM      4  C3  UNL d   1       0.427   0.655   0.233  0.00  0.00     0.150 A 
ATOM      5  C4  UNL d   1       1.568   1.039   0.930  0.00  0.00    -0.007 A 
ATOM      6  C5  UNL d   1       1.953   2.379   0.942  0.00  0.00     0.039 A 
ENDROOT
BRANCH   4   7
ATOM      7  O   UNL d   1       0.093  -0.666   0.244  0.00  0.00    -0.526 OA
ATOM      8  H5  UNL d   1      -0.701  -0.788  -0.302  0.00  0.00     0.418 HD
ENDBRANCH   4   7
TORSDOF 1
ENDMDL
