MODEL 1
REMARK minimizedAffinity -4.50802231
REMARK minimizedRMSD -1
REMARK  1 active torsions:
REMARK  status: ('A' for Active; 'I' for Inactive)
REMARK    1  A    between atoms: C3_4  and  O_7 
ROOT
ATOM      1  C   UNL d   1      -0.210   0.407   0.233  0.00  0.00    -0.033 A 
ATOM      2  C1  UNL d   1      -1.034  -0.131   1.223  0.00  0.00     0.039 A 
ATOM      3  C2  UNL d   1      -0.972  -1.493   1.522  0.00  0.00    -0.080 A 
ATOM      4  C3  UNL d   1      -0.081  -2.305   0.826  0.00  0.00     0.150 A 
ATOM      5  C4  UNL d   1       0.746  -1.775  -0.159  0.00  0.00    -0.007 A 
ATOM      6  C5  UNL d   1       0.682  -0.415  -0.457  0.00  0.00     0.039 A 
ENDROOT
BRANCH   4   7
ATOM      7  O   UNL d   1       0.013  -3.641   1.080  0.00  0.00    -0.526 OA
ATOM      8  H5  UNL d   1      -0.639  -3.871   1.763  0.00  0.00     0.418 HD
ENDBRANCH   4   7
TORSDOF 1
ENDMDL
