MODEL 1
REMARK minimizedAffinity -4.86696625
REMARK minimizedRMSD -1
REMARK  1 active torsions:
REMARK  status: ('A' for Active; 'I' for Inactive)
REMARK    1  A    between atoms: C3_4  and  O_7 
ROOT
ATOM      1  C   UNL d   1      -0.868   0.417   0.585  0.00  0.00    -0.033 A 
ATOM      2  C1  UNL d   1       0.014  -0.128  -0.350  0.00  0.00     0.039 A 
ATOM      3  C2  UNL d   1       0.333  -1.486  -0.302  0.00  0.00    -0.080 A 
ATOM      4  C3  UNL d   1      -0.235  -2.288   0.684  0.00  0.00     0.150 A 
ATOM      5  C4  UNL d   1      -1.118  -1.752   1.617  0.00  0.00    -0.007 A 
ATOM      6  C5  UNL d   1      -1.435  -0.395   1.568  0.00  0.00     0.039 A 
ENDROOT
BRANCH   4   7
ATOM      7  O   UNL d   1       0.050  -3.618   0.774  0.00  0.00    -0.526 OA
ATOM      8  H5  UNL d   1       0.695  -3.841   0.083  0.00  0.00     0.418 HD
ENDBRANCH   4   7
TORSDOF 1
ENDMDL
