MODEL 1
REMARK minimizedAffinity -2.2700932
REMARK minimizedRMSD -1
REMARK  1 active torsions:
REMARK  status: ('A' for Active; 'I' for Inactive)
REMARK    1  A    between atoms: C3_4  and  O_7 
ROOT
ATOM      1  C   UNL d   1       2.316   3.978   0.744  0.00  0.00    -0.033 A 
ATOM      2  C1  UNL d   1       2.740   2.648   0.705  0.00  0.00     0.039 A 
ATOM      3  C2  UNL d   1       1.830   1.633   0.404  0.00  0.00    -0.080 A 
ATOM      4  C3  UNL d   1       0.502   1.960   0.145  0.00  0.00     0.150 A 
ATOM      5  C4  UNL d   1       0.074   3.283   0.178  0.00  0.00    -0.007 A 
ATOM      6  C5  UNL d   1       0.984   4.296   0.479  0.00  0.00     0.039 A 
ENDROOT
BRANCH   4   7
ATOM      7  O   UNL d   1      -0.424   1.003  -0.148  0.00  0.00    -0.526 OA
ATOM      8  H5  UNL d   1       0.009   0.133  -0.107  0.00  0.00     0.418 HD
ENDBRANCH   4   7
TORSDOF 1
ENDMDL
