MODEL 1
REMARK minimizedAffinity -4.13946629
REMARK minimizedRMSD -1
REMARK  1 active torsions:
REMARK  status: ('A' for Active; 'I' for Inactive)
REMARK    1  A    between atoms: C3_4  and  O_7 
ROOT
ATOM      1  C   UNL d   1      -0.060  -3.887  -0.546  0.00  0.00    -0.033 A 
ATOM      2  C1  UNL d   1       0.170  -3.044  -1.635  0.00  0.00     0.039 A 
ATOM      3  C2  UNL d   1       0.162  -1.659  -1.462  0.00  0.00    -0.080 A 
ATOM      4  C3  UNL d   1      -0.074  -1.129  -0.197  0.00  0.00     0.150 A 
ATOM      5  C4  UNL d   1      -0.300  -1.963   0.894  0.00  0.00    -0.007 A 
ATOM      6  C5  UNL d   1      -0.293  -3.346   0.719  0.00  0.00     0.039 A 
ENDROOT
BRANCH   4   7
ATOM      7  O   UNL d   1      -0.096   0.217   0.020  0.00  0.00    -0.526 OA
ATOM      8  H5  UNL d   1       0.047   0.667  -0.829  0.00  0.00     0.418 HD
ENDBRANCH   4   7
TORSDOF 1
ENDMDL
