MODEL 1
REMARK minimizedAffinity -3.18728471
REMARK minimizedRMSD -1
REMARK  1 active torsions:
REMARK  status: ('A' for Active; 'I' for Inactive)
REMARK    1  A    between atoms: C3_4  and  O_7 
ROOT
ATOM      1  C   UNL d   1      -0.696  -2.708   0.526  0.00  0.00    -0.033 A 
ATOM      2  C1  UNL d   1      -0.783  -1.932   1.684  0.00  0.00     0.039 A 
ATOM      3  C2  UNL d   1      -0.633  -0.546   1.610  0.00  0.00    -0.080 A 
ATOM      4  C3  UNL d   1      -0.399   0.051   0.375  0.00  0.00     0.150 A 
ATOM      5  C4  UNL d   1      -0.315  -0.715  -0.783  0.00  0.00    -0.007 A 
ATOM      6  C5  UNL d   1      -0.464  -2.099  -0.708  0.00  0.00     0.039 A 
ENDROOT
BRANCH   4   7
ATOM      7  O   UNL d   1      -0.241   1.400   0.254  0.00  0.00    -0.526 OA
ATOM      8  H5  UNL d   1      -0.295   1.797   1.139  0.00  0.00     0.418 HD
ENDBRANCH   4   7
TORSDOF 1
ENDMDL
