MODEL 1
REMARK minimizedAffinity -5.28188753
REMARK minimizedRMSD -1
REMARK  1 active torsions:
REMARK  status: ('A' for Active; 'I' for Inactive)
REMARK    1  A    between atoms: C3_4  and  O_7 
ROOT
ATOM      1  C   UNL d   1       0.021  -0.984  -2.406  0.00  0.00    -0.033 A 
ATOM      2  C1  UNL d   1       0.006  -2.380  -2.395  0.00  0.00     0.039 A 
ATOM      3  C2  UNL d   1       0.032  -3.071  -1.182  0.00  0.00    -0.080 A 
ATOM      4  C3  UNL d   1       0.072  -2.355   0.011  0.00  0.00     0.150 A 
ATOM      5  C4  UNL d   1       0.084  -0.964   0.008  0.00  0.00    -0.007 A 
ATOM      6  C5  UNL d   1       0.059  -0.276  -1.204  0.00  0.00     0.039 A 
ENDROOT
BRANCH   4   7
ATOM      7  O   UNL d   1       0.103  -2.986   1.219  0.00  0.00    -0.526 OA
ATOM      8  H5  UNL d   1       0.120  -3.945   1.066  0.00  0.00     0.418 HD
ENDBRANCH   4   7
TORSDOF 1
ENDMDL
