MODEL 1
REMARK minimizedAffinity -4.25954056
REMARK minimizedRMSD -1
REMARK  1 active torsions:
REMARK  status: ('A' for Active; 'I' for Inactive)
REMARK    1  A    between atoms: C3_4  and  O_7 
ROOT
ATOM      1  C   UNL d   1      -0.585  -2.742   0.433  0.00  0.00    -0.033 A 
ATOM      2  C1  UNL d   1      -1.411  -1.782   1.019  0.00  0.00     0.039 A 
ATOM      3  C2  UNL d   1      -1.118  -0.424   0.875  0.00  0.00    -0.080 A 
ATOM      4  C3  UNL d   1       0.002  -0.041   0.142  0.00  0.00     0.150 A 
ATOM      5  C4  UNL d   1       0.827  -0.992  -0.448  0.00  0.00    -0.007 A 
ATOM      6  C5  UNL d   1       0.534  -2.347  -0.302  0.00  0.00     0.039 A 
ENDROOT
BRANCH   4   7
ATOM      7  O   UNL d   1       0.331   1.272  -0.022  0.00  0.00    -0.526 OA
ATOM      8  H5  UNL d   1      -0.313   1.813   0.465  0.00  0.00     0.418 HD
ENDBRANCH   4   7
TORSDOF 1
ENDMDL
