MODEL 1
REMARK minimizedAffinity -4.66346598
REMARK minimizedRMSD -1
REMARK  1 active torsions:
REMARK  status: ('A' for Active; 'I' for Inactive)
REMARK    1  A    between atoms: C3_4  and  O_7 
ROOT
ATOM      1  C   UNL d   1      -0.236   0.445  -0.311  0.00  0.00    -0.033 A 
ATOM      2  C1  UNL d   1      -0.832   0.040   0.885  0.00  0.00     0.039 A 
ATOM      3  C2  UNL d   1      -0.795  -1.302   1.266  0.00  0.00    -0.080 A 
ATOM      4  C3  UNL d   1      -0.158  -2.228   0.444  0.00  0.00     0.150 A 
ATOM      5  C4  UNL d   1       0.441  -1.832  -0.747  0.00  0.00    -0.007 A 
ATOM      6  C5  UNL d   1       0.401  -0.491  -1.126  0.00  0.00     0.039 A 
ENDROOT
BRANCH   4   7
ATOM      7  O   UNL d   1      -0.100  -3.550   0.772  0.00  0.00    -0.526 OA
ATOM      8  H5  UNL d   1      -0.581  -3.682   1.607  0.00  0.00     0.418 HD
ENDBRANCH   4   7
TORSDOF 1
ENDMDL
