MODEL 1
REMARK minimizedAffinity -3.5705514
REMARK minimizedRMSD -1
REMARK  1 active torsions:
REMARK  status: ('A' for Active; 'I' for Inactive)
REMARK    1  A    between atoms: C3_4  and  O_7 
ROOT
ATOM      1  C   UNL d   1       0.048  -2.922   1.431  0.00  0.00    -0.033 A 
ATOM      2  C1  UNL d   1       1.040  -1.959   1.621  0.00  0.00     0.039 A 
ATOM      3  C2  UNL d   1       0.889  -0.681   1.079  0.00  0.00    -0.080 A 
ATOM      4  C3  UNL d   1      -0.258  -0.379   0.351  0.00  0.00     0.150 A 
ATOM      5  C4  UNL d   1      -1.253  -1.332   0.160  0.00  0.00    -0.007 A 
ATOM      6  C5  UNL d   1      -1.100  -2.608   0.701  0.00  0.00     0.039 A 
ENDROOT
BRANCH   4   7
ATOM      7  O   UNL d   1      -0.448   0.853  -0.202  0.00  0.00    -0.526 OA
ATOM      8  H5  UNL d   1       0.334   1.398  -0.013  0.00  0.00     0.418 HD
ENDBRANCH   4   7
TORSDOF 1
ENDMDL
