MODEL 1
REMARK minimizedAffinity -4.70742226
REMARK minimizedRMSD -1
REMARK  1 active torsions:
REMARK  status: ('A' for Active; 'I' for Inactive)
REMARK    1  A    between atoms: C3_4  and  O_7 
ROOT
ATOM      1  C   UNL d   1      -0.252  -2.910   0.186  0.00  0.00    -0.033 A 
ATOM      2  C1  UNL d   1      -0.806  -2.073   1.157  0.00  0.00     0.039 A 
ATOM      3  C2  UNL d   1      -0.746  -0.687   1.002  0.00  0.00    -0.080 A 
ATOM      4  C3  UNL d   1      -0.130  -0.151  -0.126  0.00  0.00     0.150 A 
ATOM      5  C4  UNL d   1       0.420  -0.979  -1.098  0.00  0.00    -0.007 A 
ATOM      6  C5  UNL d   1       0.360  -2.363  -0.942  0.00  0.00     0.039 A 
ENDROOT
BRANCH   4   7
ATOM      7  O   UNL d   1      -0.043   1.196  -0.318  0.00  0.00    -0.526 OA
ATOM      8  H5  UNL d   1      -0.441   1.642   0.448  0.00  0.00     0.418 HD
ENDBRANCH   4   7
TORSDOF 1
ENDMDL
