MODEL 1
REMARK minimizedAffinity 4.00511646
REMARK minimizedRMSD -1
REMARK  0 active torsions:
REMARK  status: ('A' for Active; 'I' for Inactive)
ROOT
ATOM      1  C   UNL d   1       2.528   1.773  -0.477  0.00  0.00     0.172 C 
ATOM      2  N   UNL d   1       2.275   0.430  -0.010  0.00  0.00    -0.070 N 
ATOM      3  C1  UNL d   1       2.258   0.031   1.300  0.00  0.00    -0.004 A 
ATOM      4  C2  UNL d   1       1.982  -1.319   1.326  0.00  0.00    -0.047 A 
ATOM      5  C3  UNL d   1       1.829  -1.746  -0.014  0.00  0.00    -0.047 A 
ATOM      6  C4  UNL d   1       2.016  -0.643  -0.820  0.00  0.00    -0.004 A 
ENDROOT
TORSDOF 0
ENDMDL
