MODEL 1
REMARK minimizedAffinity 5.23820972
REMARK minimizedRMSD -1
REMARK  0 active torsions:
REMARK  status: ('A' for Active; 'I' for Inactive)
ROOT
ATOM      1  C   UNL d   1       4.145   5.288   2.514  0.00  0.00     0.172 C 
ATOM      2  N   UNL d   1       2.949   4.712   3.082  0.00  0.00    -0.070 N 
ATOM      3  C1  UNL d   1       2.865   3.492   3.698  0.00  0.00    -0.004 A 
ATOM      4  C2  UNL d   1       1.560   3.310   4.100  0.00  0.00    -0.047 A 
ATOM      5  C3  UNL d   1       0.833   4.461   3.711  0.00  0.00    -0.047 A 
ATOM      6  C4  UNL d   1       1.717   5.312   3.083  0.00  0.00    -0.004 A 
ENDROOT
TORSDOF 0
ENDMDL
