MODEL 1
REMARK minimizedAffinity 3.9015336
REMARK minimizedRMSD -1
REMARK  0 active torsions:
REMARK  status: ('A' for Active; 'I' for Inactive)
ROOT
ATOM      1  C   UNL d   1       2.628  -1.633  -0.091  0.00  0.00     0.172 C 
ATOM      2  N   UNL d   1       3.076  -0.270   0.068  0.00  0.00    -0.070 N 
ATOM      3  C1  UNL d   1       4.293   0.222  -0.322  0.00  0.00    -0.004 A 
ATOM      4  C2  UNL d   1       4.332   1.561   0.003  0.00  0.00    -0.047 A 
ATOM      5  C3  UNL d   1       3.095   1.885   0.611  0.00  0.00    -0.047 A 
ATOM      6  C4  UNL d   1       2.337   0.733   0.638  0.00  0.00    -0.004 A 
ENDROOT
TORSDOF 0
ENDMDL
