MODEL 1
REMARK minimizedAffinity 4.41197729
REMARK minimizedRMSD -1
REMARK  0 active torsions:
REMARK  status: ('A' for Active; 'I' for Inactive)
ROOT
ATOM      1  C   UNL d   1      -5.483   4.248   2.410  0.00  0.00     0.172 C 
ATOM      2  N   UNL d   1      -5.628   4.686   3.778  0.00  0.00    -0.070 N 
ATOM      3  C1  UNL d   1      -5.967   3.891   4.839  0.00  0.00    -0.004 A 
ATOM      4  C2  UNL d   1      -6.000   4.683   5.967  0.00  0.00    -0.047 A 
ATOM      5  C3  UNL d   1      -5.669   6.000   5.569  0.00  0.00    -0.047 A 
ATOM      6  C4  UNL d   1      -5.443   5.974   4.209  0.00  0.00    -0.004 A 
ENDROOT
TORSDOF 0
ENDMDL
