MODEL 1
REMARK minimizedAffinity -1.57093394
REMARK minimizedRMSD -1
REMARK  0 active torsions:
REMARK  status: ('A' for Active; 'I' for Inactive)
ROOT
ATOM      1  C   UNL d   1      -2.858   5.579   4.166  0.00  0.00     0.172 C 
ATOM      2  N   UNL d   1      -4.131   5.243   4.759  0.00  0.00    -0.070 N 
ATOM      3  C1  UNL d   1      -4.807   5.999   5.679  0.00  0.00    -0.004 A 
ATOM      4  C2  UNL d   1      -5.974   5.336   5.993  0.00  0.00    -0.047 A 
ATOM      5  C3  UNL d   1      -6.000   4.141   5.236  0.00  0.00    -0.047 A 
ATOM      6  C4  UNL d   1      -4.846   4.108   4.481  0.00  0.00    -0.004 A 
ENDROOT
TORSDOF 0
ENDMDL
