MODEL 1
REMARK minimizedAffinity 4.15104151
REMARK minimizedRMSD -1
REMARK  0 active torsions:
REMARK  status: ('A' for Active; 'I' for Inactive)
ROOT
ATOM      1  C   UNL d   1      -1.431  -4.104  -1.342  0.00  0.00     0.172 C 
ATOM      2  N   UNL d   1      -0.226  -3.456  -0.880  0.00  0.00    -0.070 N 
ATOM      3  C1  UNL d   1       0.438  -3.741   0.282  0.00  0.00    -0.004 A 
ATOM      4  C2  UNL d   1       1.534  -2.908   0.358  0.00  0.00    -0.047 A 
ATOM      5  C3  UNL d   1       1.527  -2.094  -0.800  0.00  0.00    -0.047 A 
ATOM      6  C4  UNL d   1       0.427  -2.454  -1.549  0.00  0.00    -0.004 A 
ENDROOT
TORSDOF 0
ENDMDL
