MODEL 1
REMARK minimizedAffinity 2.97412634
REMARK minimizedRMSD -1
REMARK  0 active torsions:
REMARK  status: ('A' for Active; 'I' for Inactive)
ROOT
ATOM      1  C   UNL d   1       2.262  -2.616  -0.120  0.00  0.00     0.172 C 
ATOM      2  N   UNL d   1       3.141  -1.619  -0.684  0.00  0.00    -0.070 N 
ATOM      3  C1  UNL d   1       3.847  -1.746  -1.851  0.00  0.00    -0.004 A 
ATOM      4  C2  UNL d   1       4.563  -0.583  -2.040  0.00  0.00    -0.047 A 
ATOM      5  C3  UNL d   1       4.278   0.271  -0.948  0.00  0.00    -0.047 A 
ATOM      6  C4  UNL d   1       3.395  -0.395  -0.125  0.00  0.00    -0.004 A 
ENDROOT
TORSDOF 0
ENDMDL
