MODEL 1
REMARK minimizedAffinity 10.6351795
REMARK minimizedRMSD -1
REMARK  0 active torsions:
REMARK  status: ('A' for Active; 'I' for Inactive)
ROOT
ATOM      1  C   UNL d   1      -5.092   3.785   2.563  0.00  0.00     0.172 C 
ATOM      2  N   UNL d   1      -5.454   3.783   3.961  0.00  0.00    -0.070 N 
ATOM      3  C1  UNL d   1      -5.676   2.670   4.727  0.00  0.00    -0.004 A 
ATOM      4  C2  UNL d   1      -5.997   3.090   5.999  0.00  0.00    -0.047 A 
ATOM      5  C3  UNL d   1      -5.968   4.505   5.998  0.00  0.00    -0.047 A 
ATOM      6  C4  UNL d   1      -5.629   4.908   4.723  0.00  0.00    -0.004 A 
ENDROOT
TORSDOF 0
ENDMDL
