MODEL 1
REMARK minimizedAffinity 2.45731497
REMARK minimizedRMSD -1
REMARK  1 active torsions:
REMARK  status: ('A' for Active; 'I' for Inactive)
REMARK    1  A    between atoms: C1_2  and  C2_3 
ROOT
ATOM      1  C2  UNL d   1       3.656   2.761   0.883  0.00  0.00    -0.077 A 
ATOM      2  C3  UNL d   1       3.800   3.707   1.907  0.00  0.00     0.002 A 
ATOM      3  C4  UNL d   1       4.969   4.465   2.009  0.00  0.00     0.002 A 
ATOM      4  C5  UNL d   1       6.000   4.286   1.089  0.00  0.00    -0.004 A 
ATOM      5  C6  UNL d   1       5.867   3.345   0.069  0.00  0.00     0.002 A 
ATOM      6  C7  UNL d   1       4.700   2.587  -0.034  0.00  0.00     0.002 A 
ENDROOT
BRANCH   1   7
ATOM      7  C1  UNL d   1       2.377   1.978   0.741  0.00  0.00     0.055 C 
ATOM      8  C   UNL d   1       2.600   0.688  -0.035  0.00  0.00     0.019 C 
ENDBRANCH   1   7
TORSDOF 1
ENDMDL
