MODEL 1
REMARK minimizedAffinity 12.2183266
REMARK minimizedRMSD -1
REMARK  1 active torsions:
REMARK  status: ('A' for Active; 'I' for Inactive)
REMARK    1  A    between atoms: C1_2  and  C2_3 
ROOT
ATOM      1  C2  UNL d   1       0.103  -1.013   2.197  0.00  0.00    -0.077 A 
ATOM      2  C3  UNL d   1      -0.601  -0.073   2.963  0.00  0.00     0.002 A 
ATOM      3  C4  UNL d   1      -1.997  -0.072   2.973  0.00  0.00     0.002 A 
ATOM      4  C5  UNL d   1      -2.701  -1.011   2.222  0.00  0.00    -0.004 A 
ATOM      5  C6  UNL d   1      -2.011  -1.949   1.456  0.00  0.00     0.002 A 
ATOM      6  C7  UNL d   1      -0.615  -1.951   1.444  0.00  0.00     0.002 A 
ENDROOT
BRANCH   1   7
ATOM      7  C1  UNL d   1       1.609  -1.046   2.223  0.00  0.00     0.055 C 
ATOM      8  C   UNL d   1       2.202   0.023   1.318  0.00  0.00     0.019 C 
ENDBRANCH   1   7
TORSDOF 1
ENDMDL
