MODEL 1
REMARK minimizedAffinity 11.5086498
REMARK minimizedRMSD -1
REMARK  1 active torsions:
REMARK  status: ('A' for Active; 'I' for Inactive)
REMARK    1  A    between atoms: C1_2  and  C2_3 
ROOT
ATOM      1  C2  UNL d   1       1.760  -3.205   1.435  0.00  0.00    -0.077 A 
ATOM      2  C3  UNL d   1       0.392  -3.345   1.160  0.00  0.00     0.002 A 
ATOM      3  C4  UNL d   1      -0.526  -2.417   1.655  0.00  0.00     0.002 A 
ATOM      4  C5  UNL d   1      -0.086  -1.341   2.423  0.00  0.00    -0.004 A 
ATOM      5  C6  UNL d   1       1.272  -1.194   2.703  0.00  0.00     0.002 A 
ATOM      6  C7  UNL d   1       2.191  -2.121   2.211  0.00  0.00     0.002 A 
ENDROOT
BRANCH   1   7
ATOM      7  C1  UNL d   1       2.757  -4.177   0.860  0.00  0.00     0.055 C 
ATOM      8  C   UNL d   1       3.291  -3.696  -0.481  0.00  0.00     0.019 C 
ENDBRANCH   1   7
TORSDOF 1
ENDMDL
