MODEL 1
REMARK minimizedAffinity 7.95671272
REMARK minimizedRMSD -1
REMARK  1 active torsions:
REMARK  status: ('A' for Active; 'I' for Inactive)
REMARK    1  A    between atoms: C1_2  and  C2_3 
ROOT
ATOM      1  C2  UNL d   1       2.951   4.228  -3.246  0.00  0.00    -0.077 A 
ATOM      2  C3  UNL d   1       4.181   4.871  -3.048  0.00  0.00     0.002 A 
ATOM      3  C4  UNL d   1       5.193   4.770  -4.004  0.00  0.00     0.002 A 
ATOM      4  C5  UNL d   1       4.985   4.029  -5.166  0.00  0.00    -0.004 A 
ATOM      5  C6  UNL d   1       3.766   3.384  -5.371  0.00  0.00     0.002 A 
ATOM      6  C7  UNL d   1       2.754   3.484  -4.416  0.00  0.00     0.002 A 
ENDROOT
BRANCH   1   7
ATOM      7  C1  UNL d   1       1.840   4.377  -2.240  0.00  0.00     0.055 C 
ATOM      8  C   UNL d   1       1.194   5.752  -2.328  0.00  0.00     0.019 C 
ENDBRANCH   1   7
TORSDOF 1
ENDMDL
