MODEL 1
REMARK minimizedAffinity 11.4562759
REMARK minimizedRMSD -1
REMARK  1 active torsions:
REMARK  status: ('A' for Active; 'I' for Inactive)
REMARK    1  A    between atoms: C1_2  and  C2_3 
ROOT
ATOM      1  C2  UNL d   1      -2.436  -1.005   1.956  0.00  0.00    -0.077 A 
ATOM      2  C3  UNL d   1      -3.693  -1.256   1.388  0.00  0.00     0.002 A 
ATOM      3  C4  UNL d   1      -4.666  -0.255   1.356  0.00  0.00     0.002 A 
ATOM      4  C5  UNL d   1      -4.391   1.003   1.886  0.00  0.00    -0.004 A 
ATOM      5  C6  UNL d   1      -3.145   1.262   2.455  0.00  0.00     0.002 A 
ATOM      6  C7  UNL d   1      -2.171   0.263   2.489  0.00  0.00     0.002 A 
ENDROOT
BRANCH   1   7
ATOM      7  C1  UNL d   1      -1.368  -2.068   1.947  0.00  0.00     0.055 C 
ATOM      8  C   UNL d   1      -0.031  -1.513   2.415  0.00  0.00     0.019 C 
ENDBRANCH   1   7
TORSDOF 1
ENDMDL
