MODEL 1
REMARK minimizedAffinity 14.0037537
REMARK minimizedRMSD -1
REMARK  1 active torsions:
REMARK  status: ('A' for Active; 'I' for Inactive)
REMARK    1  A    between atoms: C1_2  and  C2_3 
ROOT
ATOM      1  C2  UNL d   1       5.108   2.849   1.111  0.00  0.00    -0.077 A 
ATOM      2  C3  UNL d   1       5.533   2.124  -0.012  0.00  0.00     0.002 A 
ATOM      3  C4  UNL d   1       4.687   1.188  -0.609  0.00  0.00     0.002 A 
ATOM      4  C5  UNL d   1       3.411   0.971  -0.095  0.00  0.00    -0.004 A 
ATOM      5  C6  UNL d   1       2.979   1.685   1.022  0.00  0.00     0.002 A 
ATOM      6  C7  UNL d   1       3.824   2.620   1.622  0.00  0.00     0.002 A 
ENDROOT
BRANCH   1   7
ATOM      7  C1  UNL d   1       6.000   3.895   1.727  0.00  0.00     0.055 C 
ATOM      8  C   UNL d   1       5.268   5.219   1.893  0.00  0.00     0.019 C 
ENDBRANCH   1   7
TORSDOF 1
ENDMDL
