MODEL 1
REMARK minimizedAffinity 9.92511272
REMARK minimizedRMSD -1
REMARK  1 active torsions:
REMARK  status: ('A' for Active; 'I' for Inactive)
REMARK    1  A    between atoms: C1_2  and  C2_3 
ROOT
ATOM      1  C2  UNL d   1      -0.377  -1.369   2.862  0.00  0.00    -0.077 A 
ATOM      2  C3  UNL d   1      -1.160  -1.116   1.727  0.00  0.00     0.002 A 
ATOM      3  C4  UNL d   1      -2.074  -0.061   1.720  0.00  0.00     0.002 A 
ATOM      4  C5  UNL d   1      -2.211   0.752   2.843  0.00  0.00    -0.004 A 
ATOM      5  C6  UNL d   1      -1.438   0.507   3.978  0.00  0.00     0.002 A 
ATOM      6  C7  UNL d   1      -0.524  -0.548   3.987  0.00  0.00     0.002 A 
ENDROOT
BRANCH   1   7
ATOM      7  C1  UNL d   1       0.645  -2.476   2.853  0.00  0.00     0.055 C 
ATOM      8  C   UNL d   1       1.407  -2.536   4.169  0.00  0.00     0.019 C 
ENDBRANCH   1   7
TORSDOF 1
ENDMDL
