MODEL 1
REMARK minimizedAffinity 8.4319849
REMARK minimizedRMSD -1
REMARK  1 active torsions:
REMARK  status: ('A' for Active; 'I' for Inactive)
REMARK    1  A    between atoms: C1_2  and  C2_3 
ROOT
ATOM      1  C2  UNL d   1      -2.203   0.364   3.036  0.00  0.00    -0.077 A 
ATOM      2  C3  UNL d   1      -3.339   0.383   2.214  0.00  0.00     0.002 A 
ATOM      3  C4  UNL d   1      -3.400  -0.422   1.075  0.00  0.00     0.002 A 
ATOM      4  C5  UNL d   1      -2.331  -1.254   0.749  0.00  0.00    -0.004 A 
ATOM      5  C6  UNL d   1      -1.196  -1.278   1.558  0.00  0.00     0.002 A 
ATOM      6  C7  UNL d   1      -1.133  -0.474   2.697  0.00  0.00     0.002 A 
ENDROOT
BRANCH   1   7
ATOM      7  C1  UNL d   1      -2.155   1.194   4.292  0.00  0.00     0.055 C 
ATOM      8  C   UNL d   1      -1.568   0.406   5.454  0.00  0.00     0.019 C 
ENDBRANCH   1   7
TORSDOF 1
ENDMDL
