MODEL 1
REMARK minimizedAffinity 9.93289948
REMARK minimizedRMSD -1
REMARK  1 active torsions:
REMARK  status: ('A' for Active; 'I' for Inactive)
REMARK    1  A    between atoms: C1_2  and  C2_3 
ROOT
ATOM      1  C2  UNL d   1      -3.303   0.021   1.478  0.00  0.00    -0.077 A 
ATOM      2  C3  UNL d   1      -2.948   0.958   2.459  0.00  0.00     0.002 A 
ATOM      3  C4  UNL d   1      -1.764   0.808   3.184  0.00  0.00     0.002 A 
ATOM      4  C5  UNL d   1      -0.925  -0.275   2.933  0.00  0.00    -0.004 A 
ATOM      5  C6  UNL d   1      -1.270  -1.213   1.961  0.00  0.00     0.002 A 
ATOM      6  C7  UNL d   1      -2.453  -1.065   1.236  0.00  0.00     0.002 A 
ENDROOT
BRANCH   1   7
ATOM      7  C1  UNL d   1      -4.554   0.208   0.661  0.00  0.00     0.055 C 
ATOM      8  C   UNL d   1      -4.949   1.676   0.580  0.00  0.00     0.019 C 
ENDBRANCH   1   7
TORSDOF 1
ENDMDL
