MODEL 1
REMARK minimizedAffinity 8.60994244
REMARK minimizedRMSD -1
REMARK  1 active torsions:
REMARK  status: ('A' for Active; 'I' for Inactive)
REMARK    1  A    between atoms: C1_2  and  C2_3 
ROOT
ATOM      1  C2  UNL d   1       3.338   3.464  -3.151  0.00  0.00    -0.077 A 
ATOM      2  C3  UNL d   1       3.862   3.147  -4.412  0.00  0.00     0.002 A 
ATOM      3  C4  UNL d   1       5.187   3.457  -4.725  0.00  0.00     0.002 A 
ATOM      4  C5  UNL d   1       6.000   4.083  -3.781  0.00  0.00    -0.004 A 
ATOM      5  C6  UNL d   1       5.487   4.404  -2.525  0.00  0.00     0.002 A 
ATOM      6  C7  UNL d   1       4.163   4.096  -2.211  0.00  0.00     0.002 A 
ENDROOT
BRANCH   1   7
ATOM      7  C1  UNL d   1       1.925   3.086  -2.794  0.00  0.00     0.055 C 
ATOM      8  C   UNL d   1       1.874   1.743  -2.080  0.00  0.00     0.019 C 
ENDBRANCH   1   7
TORSDOF 1
ENDMDL
