MODEL 1
REMARK minimizedAffinity -2.54346871
REMARK minimizedRMSD -1
REMARK  0 active torsions:
REMARK  status: ('A' for Active; 'I' for Inactive)
ROOT
ATOM      1  N1  IND d   1      -0.069   0.811  -0.487  0.00  0.00    -0.196 N 
ATOM      2  C2  IND d   1      -0.072   1.852   0.399  0.00  0.00     0.054 A 
ATOM      3  C3  IND d   1       0.962   1.739   1.262  0.00  0.00    -0.031 A 
ATOM      4  C4  IND d   1       2.842  -0.018   1.340  0.00  0.00     0.051 A 
ATOM      5  C5  IND d   1       3.251  -1.185   0.757  0.00  0.00    -0.031 A 
ATOM      6  C6  IND d   1       2.561  -1.757  -0.293  0.00  0.00     0.015 A 
ATOM      7  C7  IND d   1       1.439  -1.173  -0.809  0.00  0.00    -0.016 A 
ATOM      8  C8  IND d   1       1.017   0.008  -0.216  0.00  0.00    -0.047 A 
ATOM      9  C9  IND d   1       1.688   0.570   0.878  0.00  0.00    -0.096 A 
ATOM     10  HN1 IND d   1      -0.647   0.680  -1.110  0.00  0.00     0.298 HD
ENDROOT
TORSDOF 0
ENDMDL
