MODEL 1
REMARK minimizedAffinity 4.73483229
REMARK minimizedRMSD -1
REMARK  0 active torsions:
REMARK  status: ('A' for Active; 'I' for Inactive)
ROOT
ATOM      1  N1  IND d   1      -1.536  -0.014  -5.998  0.00  0.00    -0.196 N 
ATOM      2  C2  IND d   1      -1.641   0.941  -5.026  0.00  0.00     0.054 A 
ATOM      3  C3  IND d   1      -1.584   0.374  -3.801  0.00  0.00    -0.031 A 
ATOM      4  C4  IND d   1      -1.219  -2.092  -3.155  0.00  0.00     0.051 A 
ATOM      5  C5  IND d   1      -1.106  -3.342  -3.697  0.00  0.00    -0.031 A 
ATOM      6  C6  IND d   1      -1.128  -3.550  -5.060  0.00  0.00     0.015 A 
ATOM      7  C7  IND d   1      -1.254  -2.511  -5.938  0.00  0.00    -0.016 A 
ATOM      8  C8  IND d   1      -1.376  -1.241  -5.392  0.00  0.00    -0.047 A 
ATOM      9  C9  IND d   1      -1.397  -1.027  -4.007  0.00  0.00    -0.096 A 
ATOM     10  HN1 IND d   1      -1.565   0.127  -6.846  0.00  0.00     0.298 HD
ENDROOT
TORSDOF 0
ENDMDL
