MODEL 1
REMARK minimizedAffinity -3.52466869
REMARK minimizedRMSD -1
REMARK  0 active torsions:
REMARK  status: ('A' for Active; 'I' for Inactive)
ROOT
ATOM      1  N1  IND d   1       0.103  -0.989  -1.513  0.00  0.00    -0.196 N 
ATOM      2  C2  IND d   1      -0.678   0.132  -1.475  0.00  0.00     0.054 A 
ATOM      3  C3  IND d   1      -0.277   0.951  -0.476  0.00  0.00    -0.031 A 
ATOM      4  C4  IND d   1       1.700   0.696   1.153  0.00  0.00     0.051 A 
ATOM      5  C5  IND d   1       2.680  -0.179   1.529  0.00  0.00    -0.031 A 
ATOM      6  C6  IND d   1       2.857  -1.392   0.896  0.00  0.00     0.015 A 
ATOM      7  C7  IND d   1       2.063  -1.772  -0.149  0.00  0.00    -0.016 A 
ATOM      8  C8  IND d   1       1.063  -0.889  -0.529  0.00  0.00    -0.047 A 
ATOM      9  C9  IND d   1       0.851   0.325   0.137  0.00  0.00    -0.096 A 
ATOM     10  HN1 IND d   1       0.011  -1.646  -2.060  0.00  0.00     0.298 HD
ENDROOT
TORSDOF 0
ENDMDL
