MODEL 1
REMARK minimizedAffinity -3.3552537
REMARK minimizedRMSD -1
REMARK  0 active torsions:
REMARK  status: ('A' for Active; 'I' for Inactive)
ROOT
ATOM      1  N1  IND d   1      -0.086  -1.188  -1.320  0.00  0.00    -0.196 N 
ATOM      2  C2  IND d   1      -0.946  -0.127  -1.269  0.00  0.00     0.054 A 
ATOM      3  C3  IND d   1      -0.507   0.793  -0.381  0.00  0.00    -0.031 A 
ATOM      4  C4  IND d   1       1.650   0.810   1.024  0.00  0.00     0.051 A 
ATOM      5  C5  IND d   1       2.733   0.041   1.345  0.00  0.00    -0.031 A 
ATOM      6  C6  IND d   1       2.937  -1.202   0.780  0.00  0.00     0.015 A 
ATOM      7  C7  IND d   1       2.068  -1.718  -0.139  0.00  0.00    -0.016 A 
ATOM      8  C8  IND d   1       0.964  -0.942  -0.462  0.00  0.00    -0.047 A 
ATOM      9  C9  IND d   1       0.728   0.301   0.140  0.00  0.00    -0.096 A 
ATOM     10  HN1 IND d   1      -0.183  -1.890  -1.806  0.00  0.00     0.298 HD
ENDROOT
TORSDOF 0
ENDMDL
