MODEL 1
REMARK minimizedAffinity -2.16074204
REMARK minimizedRMSD -1
REMARK  0 active torsions:
REMARK  status: ('A' for Active; 'I' for Inactive)
ROOT
ATOM      1  N1  IND d   1      -1.942   0.251  -2.403  0.00  0.00    -0.196 N 
ATOM      2  C2  IND d   1      -1.805  -0.679  -3.396  0.00  0.00     0.054 A 
ATOM      3  C3  IND d   1      -0.759  -1.495  -3.135  0.00  0.00    -0.031 A 
ATOM      4  C4  IND d   1       0.802  -1.549  -1.089  0.00  0.00     0.051 A 
ATOM      5  C5  IND d   1       1.092  -0.874   0.063  0.00  0.00    -0.031 A 
ATOM      6  C6  IND d   1       0.368   0.232   0.462  0.00  0.00     0.015 A 
ATOM      7  C7  IND d   1      -0.683   0.698  -0.275  0.00  0.00    -0.016 A 
ATOM      8  C8  IND d   1      -0.976   0.019  -1.449  0.00  0.00    -0.047 A 
ATOM      9  C9  IND d   1      -0.219  -1.078  -1.880  0.00  0.00    -0.096 A 
ATOM     10  HN1 IND d   1      -2.533   0.875  -2.379  0.00  0.00     0.298 HD
ENDROOT
TORSDOF 0
ENDMDL
