MODEL 1
REMARK minimizedAffinity -3.10239267
REMARK minimizedRMSD -1
REMARK  0 active torsions:
REMARK  status: ('A' for Active; 'I' for Inactive)
ROOT
ATOM      1  N1  IND d   1       4.109  -1.127  -2.848  0.00  0.00    -0.196 N 
ATOM      2  C2  IND d   1       3.586  -2.388  -2.900  0.00  0.00     0.054 A 
ATOM      3  C3  IND d   1       2.978  -2.695  -1.732  0.00  0.00    -0.031 A 
ATOM      4  C4  IND d   1       2.634  -1.240   0.364  0.00  0.00     0.051 A 
ATOM      5  C5  IND d   1       2.966  -0.027   0.899  0.00  0.00    -0.031 A 
ATOM      6  C6  IND d   1       3.708   0.902   0.198  0.00  0.00     0.015 A 
ATOM      7  C7  IND d   1       4.138   0.655  -1.075  0.00  0.00    -0.016 A 
ATOM      8  C8  IND d   1       3.810  -0.579  -1.619  0.00  0.00    -0.047 A 
ATOM      9  C9  IND d   1       3.093  -1.542  -0.897  0.00  0.00    -0.096 A 
ATOM     10  HN1 IND d   1       4.551  -0.740  -3.476  0.00  0.00     0.298 HD
ENDROOT
TORSDOF 0
ENDMDL
