MODEL 1
REMARK minimizedAffinity -3.50212669
REMARK minimizedRMSD -1
REMARK  0 active torsions:
REMARK  status: ('A' for Active; 'I' for Inactive)
ROOT
ATOM      1  N1  IND d   1       0.418  -1.749  -0.997  0.00  0.00    -0.196 N 
ATOM      2  C2  IND d   1      -0.647  -0.932  -0.735  0.00  0.00     0.054 A 
ATOM      3  C3  IND d   1      -0.255   0.129   0.006  0.00  0.00    -0.031 A 
ATOM      4  C4  IND d   1       2.101   0.778   0.815  0.00  0.00     0.051 A 
ATOM      5  C5  IND d   1       3.390   0.324   0.854  0.00  0.00    -0.031 A 
ATOM      6  C6  IND d   1       3.762  -0.866   0.263  0.00  0.00     0.015 A 
ATOM      7  C7  IND d   1       2.857  -1.645  -0.401  0.00  0.00    -0.016 A 
ATOM      8  C8  IND d   1       1.546  -1.191  -0.436  0.00  0.00    -0.047 A 
ATOM      9  C9  IND d   1       1.154  -0.005   0.198  0.00  0.00    -0.096 A 
ATOM     10  HN1 IND d   1       0.388  -2.486  -1.438  0.00  0.00     0.298 HD
ENDROOT
TORSDOF 0
ENDMDL
