MODEL 1
REMARK minimizedAffinity -1.98632812
REMARK minimizedRMSD -1
REMARK  0 active torsions:
REMARK  status: ('A' for Active; 'I' for Inactive)
ROOT
ATOM      1  N1  IND d   1       3.319  -0.928   0.433  0.00  0.00    -0.196 N 
ATOM      2  C2  IND d   1       3.008   0.087   1.295  0.00  0.00     0.054 A 
ATOM      3  C3  IND d   1       1.702   0.417   1.180  0.00  0.00    -0.031 A 
ATOM      4  C4  IND d   1      -0.131  -0.642  -0.285  0.00  0.00     0.051 A 
ATOM      5  C5  IND d   1      -0.321  -1.575  -1.265  0.00  0.00    -0.031 A 
ATOM      6  C6  IND d   1       0.713  -2.358  -1.737  0.00  0.00     0.015 A 
ATOM      7  C7  IND d   1       1.979  -2.244  -1.236  0.00  0.00    -0.016 A 
ATOM      8  C8  IND d   1       2.177  -1.293  -0.245  0.00  0.00    -0.047 A 
ATOM      9  C9  IND d   1       1.141  -0.466   0.208  0.00  0.00    -0.096 A 
ATOM     10  HN1 IND d   1       4.097  -1.279   0.332  0.00  0.00     0.298 HD
ENDROOT
TORSDOF 0
ENDMDL
