MODEL 1
REMARK minimizedAffinity 5.21401167
REMARK minimizedRMSD -1
REMARK  0 active torsions:
REMARK  status: ('A' for Active; 'I' for Inactive)
ROOT
ATOM      1  C1  DEN d   1       3.425  -0.881   0.396  0.00  0.00     0.130 A 
ATOM      2  C2  DEN d   1       2.907  -2.053  -0.305  0.00  0.00    -0.031 A 
ATOM      3  C3  DEN d   1       2.058  -1.582  -1.417  0.00  0.00     0.027 A 
ATOM      4  C4  DEN d   1       1.501   0.836  -2.122  0.00  0.00     0.027 A 
ATOM      5  C5  DEN d   1       1.699   2.166  -1.823  0.00  0.00    -0.003 A 
ATOM      6  C6  DEN d   1       2.452   2.570  -0.753  0.00  0.00     0.001 A 
ATOM      7  C7  DEN d   1       3.072   1.635   0.032  0.00  0.00     0.017 A 
ATOM      8  C8  DEN d   1       2.872   0.291  -0.258  0.00  0.00    -0.094 A 
ATOM      9  C9  DEN d   1       2.117  -0.096  -1.352  0.00  0.00    -0.072 A 
ENDROOT
TORSDOF 0
ENDMDL
