MODEL 1
REMARK minimizedAffinity 9.94933128
REMARK minimizedRMSD -1
REMARK  0 active torsions:
REMARK  status: ('A' for Active; 'I' for Inactive)
ROOT
ATOM      1  C1  DEN d   1       2.491   0.271   2.039  0.00  0.00     0.130 A 
ATOM      2  C2  DEN d   1       2.189  -1.150   2.185  0.00  0.00    -0.031 A 
ATOM      3  C3  DEN d   1       1.778  -1.668   0.864  0.00  0.00     0.027 A 
ATOM      4  C4  DEN d   1       1.588  -0.414  -1.382  0.00  0.00     0.027 A 
ATOM      5  C5  DEN d   1       1.729   0.809  -2.001  0.00  0.00    -0.003 A 
ATOM      6  C6  DEN d   1       2.099   1.936  -1.315  0.00  0.00     0.001 A 
ATOM      7  C7  DEN d   1       2.383   1.854   0.022  0.00  0.00     0.017 A 
ATOM      8  C8  DEN d   1       2.236   0.626   0.654  0.00  0.00    -0.094 A 
ATOM      9  C9  DEN d   1       1.874  -0.504  -0.059  0.00  0.00    -0.072 A 
ENDROOT
TORSDOF 0
ENDMDL
