MODEL 1
REMARK minimizedAffinity 0.58310765
REMARK minimizedRMSD -1
REMARK  0 active torsions:
REMARK  status: ('A' for Active; 'I' for Inactive)
ROOT
ATOM      1  C1  DEN d   1      -3.698   5.758  -4.415  0.00  0.00     0.130 A 
ATOM      2  C2  DEN d   1      -4.888   5.982  -5.232  0.00  0.00    -0.031 A 
ATOM      3  C3  DEN d   1      -5.153   4.749  -6.000  0.00  0.00     0.027 A 
ATOM      4  C4  DEN d   1      -3.848   2.524  -5.999  0.00  0.00     0.027 A 
ATOM      5  C5  DEN d   1      -2.760   1.861  -5.475  0.00  0.00    -0.003 A 
ATOM      6  C6  DEN d   1      -1.896   2.457  -4.595  0.00  0.00     0.001 A 
ATOM      7  C7  DEN d   1      -2.131   3.740  -4.176  0.00  0.00     0.017 A 
ATOM      8  C8  DEN d   1      -3.222   4.418  -4.706  0.00  0.00    -0.094 A 
ATOM      9  C9  DEN d   1      -4.090   3.794  -5.585  0.00  0.00    -0.072 A 
ENDROOT
TORSDOF 0
ENDMDL
