MODEL 1
REMARK minimizedAffinity 8.4158926
REMARK minimizedRMSD -1
REMARK  0 active torsions:
REMARK  status: ('A' for Active; 'I' for Inactive)
ROOT
ATOM      1  C1  DEN d   1       3.866  -1.952   4.722  0.00  0.00     0.130 A 
ATOM      2  C2  DEN d   1       3.064  -1.946   3.502  0.00  0.00    -0.031 A 
ATOM      3  C3  DEN d   1       2.972  -3.335   3.008  0.00  0.00     0.027 A 
ATOM      4  C4  DEN d   1       3.986  -5.484   4.011  0.00  0.00     0.027 A 
ATOM      5  C5  DEN d   1       4.757  -5.989   5.035  0.00  0.00    -0.003 A 
ATOM      6  C6  DEN d   1       5.309  -5.187   5.998  0.00  0.00     0.001 A 
ATOM      7  C7  DEN d   1       5.060  -3.840   5.984  0.00  0.00     0.017 A 
ATOM      8  C8  DEN d   1       4.290  -3.322   4.952  0.00  0.00    -0.094 A 
ATOM      9  C9  DEN d   1       3.731  -4.151   3.994  0.00  0.00    -0.072 A 
ENDROOT
TORSDOF 0
ENDMDL
