MODEL 1
REMARK minimizedAffinity -0.338734001
REMARK minimizedRMSD -1
REMARK  0 active torsions:
REMARK  status: ('A' for Active; 'I' for Inactive)
ROOT
ATOM      1  C1  DEN d   1      -1.274  -1.634   1.279  0.00  0.00     0.130 A 
ATOM      2  C2  DEN d   1       0.094  -2.050   1.577  0.00  0.00    -0.031 A 
ATOM      3  C3  DEN d   1       0.593  -1.215   2.689  0.00  0.00     0.027 A 
ATOM      4  C4  DEN d   1      -0.616   0.666   3.974  0.00  0.00     0.027 A 
ATOM      5  C5  DEN d   1      -1.786   1.385   4.073  0.00  0.00    -0.003 A 
ATOM      6  C6  DEN d   1      -2.847   1.174   3.233  0.00  0.00     0.001 A 
ATOM      7  C7  DEN d   1      -2.775   0.188   2.285  0.00  0.00     0.017 A 
ATOM      8  C8  DEN d   1      -1.596  -0.537   2.174  0.00  0.00    -0.094 A 
ATOM      9  C9  DEN d   1      -0.539  -0.316   3.041  0.00  0.00    -0.072 A 
ENDROOT
TORSDOF 0
ENDMDL
