MODEL 1
REMARK minimizedAffinity 4.4840188
REMARK minimizedRMSD -1
REMARK  0 active torsions:
REMARK  status: ('A' for Active; 'I' for Inactive)
ROOT
ATOM      1  C1  DEN d   1      -0.519  -0.486   0.146  0.00  0.00     0.130 A 
ATOM      2  C2  DEN d   1      -1.667  -1.223  -0.375  0.00  0.00    -0.031 A 
ATOM      3  C3  DEN d   1      -1.989  -2.301   0.582  0.00  0.00     0.027 A 
ATOM      4  C4  DEN d   1      -0.831  -2.895   2.809  0.00  0.00     0.027 A 
ATOM      5  C5  DEN d   1       0.196  -2.561   3.664  0.00  0.00    -0.003 A 
ATOM      6  C6  DEN d   1       1.070  -1.542   3.392  0.00  0.00     0.001 A 
ATOM      7  C7  DEN d   1       0.907  -0.791   2.257  0.00  0.00     0.017 A 
ATOM      8  C8  DEN d   1      -0.122  -1.127   1.387  0.00  0.00    -0.094 A 
ATOM      9  C9  DEN d   1      -1.003  -2.152   1.686  0.00  0.00    -0.072 A 
ENDROOT
TORSDOF 0
ENDMDL
