MODEL 1
REMARK minimizedAffinity -4.78624678
REMARK minimizedRMSD -1
REMARK  0 active torsions:
REMARK  status: ('A' for Active; 'I' for Inactive)
ROOT
ATOM      1  C2' OXE d   1      -0.683  -0.637  -0.709  0.00  0.00     0.078 C 
ATOM      2  C1' OXE d   1       0.237   2.013  -0.813  0.00  0.00     0.078 C 
ATOM      3  C1  OXE d   1      -0.526   1.581   0.413  0.00  0.00    -0.078 A 
ATOM      4  C2  OXE d   1      -1.014   0.297   0.436  0.00  0.00    -0.078 A 
ATOM      5  C3  OXE d   1      -1.678  -0.169   1.567  0.00  0.00     0.003 A 
ATOM      6  C4  OXE d   1      -1.988   0.704   2.617  0.00  0.00    -0.002 A 
ATOM      7  C5  OXE d   1      -1.535   2.027   2.596  0.00  0.00    -0.002 A 
ATOM      8  C6  OXE d   1      -0.769   2.469   1.524  0.00  0.00     0.003 A 
ENDROOT
TORSDOF 0
ENDMDL
