MODEL 1
REMARK minimizedAffinity -2.02359557
REMARK minimizedRMSD -1
REMARK  0 active torsions:
REMARK  status: ('A' for Active; 'I' for Inactive)
ROOT
ATOM      1  C2' OXE d   1      -0.974  -0.935   0.015  0.00  0.00     0.078 C 
ATOM      2  C1' OXE d   1      -2.533  -0.457   2.300  0.00  0.00     0.078 C 
ATOM      3  C1  OXE d   1      -1.650   0.660   1.805  0.00  0.00    -0.078 A 
ATOM      4  C2  OXE d   1      -0.855   0.402   0.714  0.00  0.00    -0.078 A 
ATOM      5  C3  OXE d   1      -0.062   1.415   0.183  0.00  0.00     0.003 A 
ATOM      6  C4  OXE d   1       0.050   2.646   0.841  0.00  0.00    -0.002 A 
ATOM      7  C5  OXE d   1      -0.721   2.916   1.977  0.00  0.00    -0.002 A 
ATOM      8  C6  OXE d   1      -1.605   1.951   2.446  0.00  0.00     0.003 A 
ENDROOT
TORSDOF 0
ENDMDL
