MODEL 1
REMARK minimizedAffinity -4.28781843
REMARK minimizedRMSD -1
REMARK  0 active torsions:
REMARK  status: ('A' for Active; 'I' for Inactive)
ROOT
ATOM      1  C2' OXE d   1      -0.366   1.339  -0.074  0.00  0.00     0.078 C 
ATOM      2  C1' OXE d   1       0.753  -1.226   0.139  0.00  0.00     0.078 C 
ATOM      3  C1  OXE d   1       1.224  -0.345  -0.990  0.00  0.00    -0.078 A 
ATOM      4  C2  OXE d   1       0.637   0.891  -1.115  0.00  0.00    -0.078 A 
ATOM      5  C3  OXE d   1       1.074   1.765  -2.107  0.00  0.00     0.003 A 
ATOM      6  C4  OXE d   1       1.995   1.338  -3.071  0.00  0.00    -0.002 A 
ATOM      7  C5  OXE d   1       2.576   0.069  -2.986  0.00  0.00    -0.002 A 
ATOM      8  C6  OXE d   1       2.234  -0.768  -1.930  0.00  0.00     0.003 A 
ENDROOT
TORSDOF 0
ENDMDL
