MODEL 1
REMARK minimizedAffinity -1.91652668
REMARK minimizedRMSD -1
REMARK  0 active torsions:
REMARK  status: ('A' for Active; 'I' for Inactive)
ROOT
ATOM      1  C2' OXE d   1      -1.056   0.008   0.859  0.00  0.00     0.078 C 
ATOM      2  C1' OXE d   1      -0.041   1.579  -1.234  0.00  0.00     0.078 C 
ATOM      3  C1  OXE d   1       0.512   0.185  -1.069  0.00  0.00    -0.078 A 
ATOM      4  C2  OXE d   1       0.043  -0.560  -0.014  0.00  0.00    -0.078 A 
ATOM      5  C3  OXE d   1       0.479  -1.871   0.152  0.00  0.00     0.003 A 
ATOM      6  C4  OXE d   1       1.503  -2.385  -0.653  0.00  0.00    -0.002 A 
ATOM      7  C5  OXE d   1       2.023  -1.628  -1.709  0.00  0.00    -0.002 A 
ATOM      8  C6  OXE d   1       1.509  -0.360  -1.957  0.00  0.00     0.003 A 
ENDROOT
TORSDOF 0
ENDMDL
