MODEL 1
REMARK minimizedAffinity -4.16037989
REMARK minimizedRMSD -1
REMARK  0 active torsions:
REMARK  status: ('A' for Active; 'I' for Inactive)
ROOT
ATOM      1  C2' OXE d   1       2.735  -0.343  -1.686  0.00  0.00     0.078 C 
ATOM      2  C1' OXE d   1       1.451   2.144  -1.466  0.00  0.00     0.078 C 
ATOM      3  C1  OXE d   1       0.724   0.928  -0.947  0.00  0.00    -0.078 A 
ATOM      4  C2  OXE d   1       1.340  -0.290  -1.101  0.00  0.00    -0.078 A 
ATOM      5  C3  OXE d   1       0.737  -1.437  -0.591  0.00  0.00     0.003 A 
ATOM      6  C4  OXE d   1      -0.558  -1.380  -0.060  0.00  0.00    -0.002 A 
ATOM      7  C5  OXE d   1      -1.219  -0.154   0.070  0.00  0.00    -0.002 A 
ATOM      8  C6  OXE d   1      -0.576   1.012  -0.329  0.00  0.00     0.003 A 
ENDROOT
TORSDOF 0
ENDMDL
