MODEL 1
REMARK minimizedAffinity -3.85714626
REMARK minimizedRMSD -1
REMARK  0 active torsions:
REMARK  status: ('A' for Active; 'I' for Inactive)
ROOT
ATOM      1  C2' OXE d   1      -1.015   0.967   0.522  0.00  0.00     0.078 C 
ATOM      2  C1' OXE d   1       0.159   1.798  -1.888  0.00  0.00     0.078 C 
ATOM      3  C1  OXE d   1       0.529   0.435  -1.359  0.00  0.00    -0.078 A 
ATOM      4  C2  OXE d   1      -0.014   0.056  -0.156  0.00  0.00    -0.078 A 
ATOM      5  C3  OXE d   1       0.250  -1.214   0.351  0.00  0.00     0.003 A 
ATOM      6  C4  OXE d   1       1.185  -2.046  -0.277  0.00  0.00    -0.002 A 
ATOM      7  C5  OXE d   1       1.780  -1.663  -1.484  0.00  0.00    -0.002 A 
ATOM      8  C6  OXE d   1       1.431  -0.446  -2.059  0.00  0.00     0.003 A 
ENDROOT
TORSDOF 0
ENDMDL
