MODEL 1
REMARK minimizedAffinity -5.10327101
REMARK minimizedRMSD -1
REMARK  0 active torsions:
REMARK  status: ('A' for Active; 'I' for Inactive)
ROOT
ATOM      1  C2' OXE d   1       0.808  -0.509   1.508  0.00  0.00     0.078 C 
ATOM      2  C1' OXE d   1      -1.520   0.589   2.627  0.00  0.00     0.078 C 
ATOM      3  C1  OXE d   1      -1.192   0.943   1.198  0.00  0.00    -0.078 A 
ATOM      4  C2  OXE d   1      -0.027   0.439   0.674  0.00  0.00    -0.078 A 
ATOM      5  C3  OXE d   1       0.296   0.689  -0.657  0.00  0.00     0.003 A 
ATOM      6  C4  OXE d   1      -0.476   1.575  -1.419  0.00  0.00    -0.002 A 
ATOM      7  C5  OXE d   1      -1.647   2.131  -0.891  0.00  0.00    -0.002 A 
ATOM      8  C6  OXE d   1      -2.041   1.792   0.399  0.00  0.00     0.003 A 
ENDROOT
TORSDOF 0
ENDMDL
