MODEL 1
REMARK minimizedAffinity -5.29450989
REMARK minimizedRMSD -1
REMARK  0 active torsions:
REMARK  status: ('A' for Active; 'I' for Inactive)
ROOT
ATOM      1  C2' OXE d   1      -0.203   2.188  -0.815  0.00  0.00     0.078 C 
ATOM      2  C1' OXE d   1      -1.415   0.418   0.995  0.00  0.00     0.078 C 
ATOM      3  C1  OXE d   1      -0.318  -0.121   0.112  0.00  0.00    -0.078 A 
ATOM      4  C2  OXE d   1       0.238   0.741  -0.803  0.00  0.00    -0.078 A 
ATOM      5  C3  OXE d   1       1.291   0.310  -1.605  0.00  0.00     0.003 A 
ATOM      6  C4  OXE d   1       1.686  -1.033  -1.595  0.00  0.00    -0.002 A 
ATOM      7  C5  OXE d   1       1.106  -1.937  -0.698  0.00  0.00    -0.002 A 
ATOM      8  C6  OXE d   1       0.135  -1.488   0.190  0.00  0.00     0.003 A 
ENDROOT
TORSDOF 0
ENDMDL
