MODEL 1
REMARK minimizedAffinity -0.638127625
REMARK minimizedRMSD -1
REMARK  0 active torsions:
REMARK  status: ('A' for Active; 'I' for Inactive)
ROOT
ATOM      1  C2' OXE d   1       4.133   0.789   2.574  0.00  0.00     0.078 C 
ATOM      2  C1' OXE d   1       4.908  -0.758   4.785  0.00  0.00     0.078 C 
ATOM      3  C1  OXE d   1       5.153   0.729   4.846  0.00  0.00    -0.078 A 
ATOM      4  C2  OXE d   1       4.813   1.472   3.741  0.00  0.00    -0.078 A 
ATOM      5  C3  OXE d   1       4.968   2.855   3.766  0.00  0.00     0.003 A 
ATOM      6  C4  OXE d   1       5.607   3.477   4.845  0.00  0.00    -0.002 A 
ATOM      7  C5  OXE d   1       5.997   2.734   5.964  0.00  0.00    -0.002 A 
ATOM      8  C6  OXE d   1       5.739   1.368   5.998  0.00  0.00     0.003 A 
ENDROOT
TORSDOF 0
ENDMDL
