MODEL 1
REMARK minimizedAffinity -4.66161585
REMARK minimizedRMSD -1
REMARK  0 active torsions:
REMARK  status: ('A' for Active; 'I' for Inactive)
ROOT
ATOM      1  C2' OXE d   1      -0.022  -2.738   0.849  0.00  0.00     0.078 C 
ATOM      2  C1' OXE d   1       1.744  -1.522  -0.962  0.00  0.00     0.078 C 
ATOM      3  C1  OXE d   1       0.641  -0.675  -0.380  0.00  0.00    -0.078 A 
ATOM      4  C2  OXE d   1      -0.247  -1.290   0.470  0.00  0.00    -0.078 A 
ATOM      5  C3  OXE d   1      -1.251  -0.542   1.078  0.00  0.00     0.003 A 
ATOM      6  C4  OXE d   1      -1.458   0.794   0.714  0.00  0.00    -0.002 A 
ATOM      7  C5  OXE d   1      -0.590   1.430  -0.180  0.00  0.00    -0.002 A 
ATOM      8  C6  OXE d   1       0.488   0.723  -0.702  0.00  0.00     0.003 A 
ENDROOT
TORSDOF 0
ENDMDL
