MODEL 1
REMARK minimizedAffinity -4.66317749
REMARK minimizedRMSD -1
REMARK  0 active torsions:
REMARK  status: ('A' for Active; 'I' for Inactive)
ROOT
ATOM      1  C2' OXE d   1       1.401  -1.972  -1.165  0.00  0.00     0.078 C 
ATOM      2  C1' OXE d   1       3.164   0.080  -0.416  0.00  0.00     0.078 C 
ATOM      3  C1  OXE d   1       1.689   0.395  -0.444  0.00  0.00    -0.078 A 
ATOM      4  C2  OXE d   1       0.838  -0.602  -0.857  0.00  0.00    -0.078 A 
ATOM      5  C3  OXE d   1      -0.537  -0.382  -0.848  0.00  0.00     0.003 A 
ATOM      6  C4  OXE d   1      -1.049   0.892  -0.571  0.00  0.00    -0.002 A 
ATOM      7  C5  OXE d   1      -0.196   1.932  -0.187  0.00  0.00    -0.002 A 
ATOM      8  C6  OXE d   1       1.169   1.689  -0.078  0.00  0.00     0.003 A 
ENDROOT
TORSDOF 0
ENDMDL
