MODEL 1
REMARK minimizedAffinity -0.883419514
REMARK minimizedRMSD -1
REMARK  0 active torsions:
REMARK  status: ('A' for Active; 'I' for Inactive)
ROOT
ATOM      1  C2' OXE d   1       0.977   2.559   0.134  0.00  0.00     0.078 C 
ATOM      2  C1' OXE d   1       3.063   0.684   0.009  0.00  0.00     0.078 C 
ATOM      3  C1  OXE d   1       1.653   0.179  -0.164  0.00  0.00    -0.078 A 
ATOM      4  C2  OXE d   1       0.635   1.097  -0.055  0.00  0.00    -0.078 A 
ATOM      5  C3  OXE d   1      -0.681   0.693  -0.261  0.00  0.00     0.003 A 
ATOM      6  C4  OXE d   1      -0.990  -0.662  -0.425  0.00  0.00    -0.002 A 
ATOM      7  C5  OXE d   1       0.029  -1.618  -0.500  0.00  0.00    -0.002 A 
ATOM      8  C6  OXE d   1       1.355  -1.209  -0.414  0.00  0.00     0.003 A 
ENDROOT
TORSDOF 0
ENDMDL
