MODEL 1
REMARK minimizedAffinity -2.97634411
REMARK minimizedRMSD -1
REMARK  0 active torsions:
REMARK  status: ('A' for Active; 'I' for Inactive)
ROOT
ATOM      1  C2' OXE d   1      -1.454   1.845  -0.922  0.00  0.00     0.078 C 
ATOM      2  C1' OXE d   1      -1.458   1.556   1.871  0.00  0.00     0.078 C 
ATOM      3  C1  OXE d   1      -0.558   0.648   1.071  0.00  0.00    -0.078 A 
ATOM      4  C2  OXE d   1      -0.597   0.764  -0.298  0.00  0.00    -0.078 A 
ATOM      5  C3  OXE d   1       0.254  -0.011  -1.081  0.00  0.00     0.003 A 
ATOM      6  C4  OXE d   1       1.035  -1.015  -0.497  0.00  0.00    -0.002 A 
ATOM      7  C5  OXE d   1       1.060  -1.178   0.893  0.00  0.00    -0.002 A 
ATOM      8  C6  OXE d   1       0.304  -0.328   1.692  0.00  0.00     0.003 A 
ENDROOT
TORSDOF 0
ENDMDL
