MODEL 1
REMARK minimizedAffinity -5.8198061
REMARK minimizedRMSD -1
REMARK  0 active torsions:
REMARK  status: ('A' for Active; 'I' for Inactive)
ROOT
ATOM      1  C2' OXE d   1       0.343   2.065   0.643  0.00  0.00     0.078 C 
ATOM      2  C1' OXE d   1      -1.301   0.020  -0.356  0.00  0.00     0.078 C 
ATOM      3  C1  OXE d   1       0.193  -0.161  -0.465  0.00  0.00    -0.078 A 
ATOM      4  C2  OXE d   1       0.988   0.865  -0.016  0.00  0.00    -0.078 A 
ATOM      5  C3  OXE d   1       2.373   0.726  -0.044  0.00  0.00     0.003 A 
ATOM      6  C4  OXE d   1       2.962  -0.382  -0.664  0.00  0.00    -0.002 A 
ATOM      7  C5  OXE d   1       2.169  -1.421  -1.164  0.00  0.00    -0.002 A 
ATOM      8  C6  OXE d   1       0.787  -1.345  -1.034  0.00  0.00     0.003 A 
ENDROOT
TORSDOF 0
ENDMDL
