MODEL 1
REMARK minimizedAffinity -3.70574021
REMARK minimizedRMSD -1
REMARK  0 active torsions:
REMARK  status: ('A' for Active; 'I' for Inactive)
ROOT
ATOM      1  C2' OXE d   1      -0.003   2.120  -1.048  0.00  0.00     0.078 C 
ATOM      2  C1' OXE d   1      -1.117  -0.379  -0.419  0.00  0.00     0.078 C 
ATOM      3  C1  OXE d   1      -1.172   0.701   0.633  0.00  0.00    -0.078 A 
ATOM      4  C2  OXE d   1      -0.583   1.905   0.334  0.00  0.00    -0.078 A 
ATOM      5  C3  OXE d   1      -0.654   2.953   1.247  0.00  0.00     0.003 A 
ATOM      6  C4  OXE d   1      -1.184   2.744   2.526  0.00  0.00    -0.002 A 
ATOM      7  C5  OXE d   1      -1.753   1.512   2.866  0.00  0.00    -0.002 A 
ATOM      8  C6  OXE d   1      -1.794   0.495   1.918  0.00  0.00     0.003 A 
ENDROOT
TORSDOF 0
ENDMDL
