MODEL 1
REMARK minimizedAffinity -1.22274649
REMARK minimizedRMSD -1
REMARK  0 active torsions:
REMARK  status: ('A' for Active; 'I' for Inactive)
ROOT
ATOM      1  C2' OXE d   1       0.275   1.839  -0.620  0.00  0.00     0.078 C 
ATOM      2  C1' OXE d   1      -0.695  -0.768  -0.245  0.00  0.00     0.078 C 
ATOM      3  C1  OXE d   1      -0.769   0.184   0.922  0.00  0.00    -0.078 A 
ATOM      4  C2  OXE d   1      -0.249   1.444   0.743  0.00  0.00    -0.078 A 
ATOM      5  C3  OXE d   1      -0.342   2.379   1.770  0.00  0.00     0.003 A 
ATOM      6  C4  OXE d   1      -0.819   2.003   3.031  0.00  0.00    -0.002 A 
ATOM      7  C5  OXE d   1      -1.316   0.713   3.246  0.00  0.00    -0.002 A 
ATOM      8  C6  OXE d   1      -1.337  -0.193   2.192  0.00  0.00     0.003 A 
ENDROOT
TORSDOF 0
ENDMDL
