MODEL 1
REMARK minimizedAffinity -2.56550789
REMARK minimizedRMSD -1
REMARK  0 active torsions:
REMARK  status: ('A' for Active; 'I' for Inactive)
ROOT
ATOM      1  C2' OXE d   1       0.065  -2.978   0.074  0.00  0.00     0.078 C 
ATOM      2  C1' OXE d   1       1.828  -1.711  -1.706  0.00  0.00     0.078 C 
ATOM      3  C1  OXE d   1       0.835  -0.849  -0.966  0.00  0.00    -0.078 A 
ATOM      4  C2  OXE d   1      -0.054  -1.483  -0.133  0.00  0.00    -0.078 A 
ATOM      5  C3  OXE d   1      -0.955  -0.730   0.615  0.00  0.00     0.003 A 
ATOM      6  C4  OXE d   1      -1.066   0.651   0.410  0.00  0.00    -0.002 A 
ATOM      7  C5  OXE d   1      -0.196   1.311  -0.464  0.00  0.00    -0.002 A 
ATOM      8  C6  OXE d   1       0.786   0.583  -1.127  0.00  0.00     0.003 A 
ENDROOT
TORSDOF 0
ENDMDL
