MODEL 1
REMARK minimizedAffinity -4.52961063
REMARK minimizedRMSD -1
REMARK  0 active torsions:
REMARK  status: ('A' for Active; 'I' for Inactive)
ROOT
ATOM      1  C2' OXE d   1       2.827  -0.771  -0.774  0.00  0.00     0.078 C 
ATOM      2  C1' OXE d   1       0.873  -2.635  -0.009  0.00  0.00     0.078 C 
ATOM      3  C1  OXE d   1       0.510  -1.173   0.046  0.00  0.00    -0.078 A 
ATOM      4  C2  OXE d   1       1.487  -0.265  -0.286  0.00  0.00    -0.078 A 
ATOM      5  C3  OXE d   1       1.188   1.094  -0.305  0.00  0.00     0.003 A 
ATOM      6  C4  OXE d   1      -0.051   1.554   0.159  0.00  0.00    -0.002 A 
ATOM      7  C5  OXE d   1      -1.047   0.648   0.539  0.00  0.00    -0.002 A 
ATOM      8  C6  OXE d   1      -0.798  -0.717   0.448  0.00  0.00     0.003 A 
ENDROOT
TORSDOF 0
ENDMDL
