MODEL 1
REMARK minimizedAffinity 3.75192642
REMARK minimizedRMSD -1
REMARK  1 active torsions:
REMARK  status: ('A' for Active; 'I' for Inactive)
REMARK    1  A    between atoms: N_2  and  C1_3 
ROOT
ATOM      1  C1  UNL d   1      -1.286   0.704   2.416  0.00  0.00     0.143 A 
ATOM      2  C2  UNL d   1      -0.318   0.175   3.276  0.00  0.00    -0.057 A 
ATOM      3  C3  UNL d   1       0.509   1.008   4.039  0.00  0.00     0.033 A 
ATOM      4  C4  UNL d   1       0.400   2.391   3.934  0.00  0.00    -0.042 A 
ATOM      5  C5  UNL d   1      -0.538   2.939   3.067  0.00  0.00     0.033 A 
ATOM      6  C6  UNL d   1      -1.365   2.101   2.312  0.00  0.00    -0.057 A 
ENDROOT
BRANCH   1   7
ATOM      7  N   UNL d   1      -2.071  -0.070   1.557  0.00  0.00    -0.732 N 
ATOM      8  C   UNL d   1      -3.349   0.417   1.087  0.00  0.00     0.284 C 
ATOM      9  H3  UNL d   1      -1.518  -0.542   0.845  0.00  0.00     0.395 HD
ENDBRANCH   1   7
TORSDOF 1
ENDMDL
