MODEL 1
REMARK minimizedAffinity 7.37921047
REMARK minimizedRMSD -1
REMARK  1 active torsions:
REMARK  status: ('A' for Active; 'I' for Inactive)
REMARK    1  A    between atoms: N_2  and  C1_3 
ROOT
ATOM      1  C1  UNL d   1      -3.619   0.246   3.537  0.00  0.00     0.143 A 
ATOM      2  C2  UNL d   1      -4.357   0.252   2.348  0.00  0.00    -0.057 A 
ATOM      3  C3  UNL d   1      -3.725   0.337   1.102  0.00  0.00     0.033 A 
ATOM      4  C4  UNL d   1      -2.341   0.447   1.022  0.00  0.00    -0.042 A 
ATOM      5  C5  UNL d   1      -1.589   0.469   2.192  0.00  0.00     0.033 A 
ATOM      6  C6  UNL d   1      -2.225   0.377   3.433  0.00  0.00    -0.057 A 
ENDROOT
BRANCH   1   7
ATOM      7  N   UNL d   1      -4.194   0.264   4.810  0.00  0.00    -0.732 N 
ATOM      8  C   UNL d   1      -5.106   1.320   5.192  0.00  0.00     0.284 C 
ATOM      9  H3  UNL d   1      -4.477  -0.663   5.121  0.00  0.00     0.395 HD
ENDBRANCH   1   7
TORSDOF 1
ENDMDL
