MODEL 1
REMARK minimizedAffinity 0.671683311
REMARK minimizedRMSD -1
REMARK  1 active torsions:
REMARK  status: ('A' for Active; 'I' for Inactive)
REMARK    1  A    between atoms: N_2  and  C1_3 
ROOT
ATOM      1  C1  UNL d   1      -4.033   4.830   3.729  0.00  0.00     0.143 A 
ATOM      2  C2  UNL d   1      -3.736   5.816   4.676  0.00  0.00    -0.057 A 
ATOM      3  C3  UNL d   1      -4.539   5.999   5.809  0.00  0.00     0.033 A 
ATOM      4  C4  UNL d   1      -5.672   5.216   6.000  0.00  0.00    -0.042 A 
ATOM      5  C5  UNL d   1      -6.000   4.247   5.059  0.00  0.00     0.033 A 
ATOM      6  C6  UNL d   1      -5.191   4.064   3.933  0.00  0.00    -0.057 A 
ENDROOT
BRANCH   1   7
ATOM      7  N   UNL d   1      -3.330   4.665   2.533  0.00  0.00    -0.732 N 
ATOM      8  C   UNL d   1      -2.671   3.412   2.232  0.00  0.00     0.284 C 
ATOM      9  H3  UNL d   1      -3.811   5.083   1.739  0.00  0.00     0.395 HD
ENDBRANCH   1   7
TORSDOF 1
ENDMDL
