MODEL 1
REMARK minimizedAffinity 5.7986927
REMARK minimizedRMSD -1
REMARK  1 active torsions:
REMARK  status: ('A' for Active; 'I' for Inactive)
REMARK    1  A    between atoms: N_2  and  C1_3 
ROOT
ATOM      1  C1  UNL d   1      -2.313  -2.662  -5.884  0.00  0.00     0.143 A 
ATOM      2  C2  UNL d   1      -3.340  -1.712  -5.893  0.00  0.00    -0.057 A 
ATOM      3  C3  UNL d   1      -4.686  -2.098  -5.887  0.00  0.00     0.033 A 
ATOM      4  C4  UNL d   1      -5.029  -3.446  -5.901  0.00  0.00    -0.042 A 
ATOM      5  C5  UNL d   1      -4.025  -4.408  -5.919  0.00  0.00     0.033 A 
ATOM      6  C6  UNL d   1      -2.683  -4.016  -5.918  0.00  0.00    -0.057 A 
ENDROOT
BRANCH   1   7
ATOM      7  N   UNL d   1      -0.957  -2.342  -5.990  0.00  0.00    -0.732 N 
ATOM      8  C   UNL d   1       0.058  -3.332  -5.701  0.00  0.00     0.284 C 
ATOM      9  H3  UNL d   1      -0.756  -1.765  -6.803  0.00  0.00     0.395 HD
ENDBRANCH   1   7
TORSDOF 1
ENDMDL
