MODEL 1
REMARK minimizedAffinity 14.4560881
REMARK minimizedRMSD -1
REMARK  1 active torsions:
REMARK  status: ('A' for Active; 'I' for Inactive)
REMARK    1  A    between atoms: N_2  and  C1_3 
ROOT
ATOM      1  C1  UNL d   1       2.565   0.125  -3.492  0.00  0.00     0.143 A 
ATOM      2  C2  UNL d   1       3.574   0.464  -2.585  0.00  0.00    -0.057 A 
ATOM      3  C3  UNL d   1       3.309   1.270  -1.471  0.00  0.00     0.033 A 
ATOM      4  C4  UNL d   1       2.031   1.777  -1.260  0.00  0.00    -0.042 A 
ATOM      5  C5  UNL d   1       1.017   1.473  -2.163  0.00  0.00     0.033 A 
ATOM      6  C6  UNL d   1       1.287   0.663  -3.269  0.00  0.00    -0.057 A 
ENDROOT
BRANCH   1   7
ATOM      7  N   UNL d   1       2.787  -0.590  -4.671  0.00  0.00    -0.732 N 
ATOM      8  C   UNL d   1       4.055  -0.498  -5.362  0.00  0.00     0.284 C 
ATOM      9  H3  UNL d   1       2.402  -1.532  -4.633  0.00  0.00     0.395 HD
ENDBRANCH   1   7
TORSDOF 1
ENDMDL
