MODEL 1
REMARK minimizedAffinity 9.91880608
REMARK minimizedRMSD -1
REMARK  1 active torsions:
REMARK  status: ('A' for Active; 'I' for Inactive)
REMARK    1  A    between atoms: N_2  and  C1_3 
ROOT
ATOM      1  C1  UNL d   1      -5.582   3.057   4.923  0.00  0.00     0.143 A 
ATOM      2  C2  UNL d   1      -5.890   3.924   5.977  0.00  0.00    -0.057 A 
ATOM      3  C3  UNL d   1      -5.411   5.239   5.999  0.00  0.00     0.033 A 
ATOM      4  C4  UNL d   1      -4.588   5.703   4.978  0.00  0.00    -0.042 A 
ATOM      5  C5  UNL d   1      -4.248   4.851   3.933  0.00  0.00     0.033 A 
ATOM      6  C6  UNL d   1      -4.735   3.541   3.913  0.00  0.00    -0.057 A 
ENDROOT
BRANCH   1   7
ATOM      7  N   UNL d   1      -5.946   1.709   4.893  0.00  0.00    -0.732 N 
ATOM      8  C   UNL d   1      -4.951   0.681   4.674  0.00  0.00     0.284 C 
ATOM      9  H3  UNL d   1      -6.633   1.476   5.607  0.00  0.00     0.395 HD
ENDBRANCH   1   7
TORSDOF 1
ENDMDL
