MODEL 1
REMARK minimizedAffinity -2.5976243
REMARK minimizedRMSD -1
REMARK  1 active torsions:
REMARK  status: ('A' for Active; 'I' for Inactive)
REMARK    1  A    between atoms: N_2  and  C1_3 
ROOT
ATOM      1  C1  UNL d   1      -2.250   1.183   2.206  0.00  0.00     0.143 A 
ATOM      2  C2  UNL d   1      -1.431   0.084   2.488  0.00  0.00    -0.057 A 
ATOM      3  C3  UNL d   1      -0.341   0.196   3.359  0.00  0.00     0.033 A 
ATOM      4  C4  UNL d   1      -0.031   1.420   3.942  0.00  0.00    -0.042 A 
ATOM      5  C5  UNL d   1      -0.816   2.531   3.657  0.00  0.00     0.033 A 
ATOM      6  C6  UNL d   1      -1.908   2.412   2.792  0.00  0.00    -0.057 A 
ENDROOT
BRANCH   1   7
ATOM      7  N   UNL d   1      -3.289   1.159   1.273  0.00  0.00    -0.732 N 
ATOM      8  C   UNL d   1      -3.859  -0.097   0.836  0.00  0.00     0.284 C 
ATOM      9  H3  UNL d   1      -3.975   1.893   1.437  0.00  0.00     0.395 HD
ENDBRANCH   1   7
TORSDOF 1
ENDMDL
