MODEL 1
REMARK minimizedAffinity 7.34513712
REMARK minimizedRMSD -1
REMARK  1 active torsions:
REMARK  status: ('A' for Active; 'I' for Inactive)
REMARK    1  A    between atoms: N_2  and  C1_3 
ROOT
ATOM      1  C1  UNL d   1       0.954  -3.647   2.737  0.00  0.00     0.143 A 
ATOM      2  C2  UNL d   1       1.942  -3.664   1.746  0.00  0.00    -0.057 A 
ATOM      3  C3  UNL d   1       2.658  -4.831   1.454  0.00  0.00     0.033 A 
ATOM      4  C4  UNL d   1       2.418  -5.999   2.170  0.00  0.00    -0.042 A 
ATOM      5  C5  UNL d   1       1.458  -6.000   3.176  0.00  0.00     0.033 A 
ATOM      6  C6  UNL d   1       0.742  -4.833   3.458  0.00  0.00    -0.057 A 
ENDROOT
BRANCH   1   7
ATOM      7  N   UNL d   1       0.277  -2.494   3.141  0.00  0.00    -0.732 N 
ATOM      8  C   UNL d   1       1.008  -1.294   3.487  0.00  0.00     0.284 C 
ATOM      9  H3  UNL d   1      -0.564  -2.326   2.595  0.00  0.00     0.395 HD
ENDBRANCH   1   7
TORSDOF 1
ENDMDL
