MODEL 1
REMARK minimizedAffinity 3.80865979
REMARK minimizedRMSD -1
REMARK  1 active torsions:
REMARK  status: ('A' for Active; 'I' for Inactive)
REMARK    1  A    between atoms: N_2  and  C1_3 
ROOT
ATOM      1  C1  UNL d   1       1.377  -1.052  -4.728  0.00  0.00     0.143 A 
ATOM      2  C2  UNL d   1       2.204  -0.862  -5.841  0.00  0.00    -0.057 A 
ATOM      3  C3  UNL d   1       3.462  -0.259  -5.716  0.00  0.00     0.033 A 
ATOM      4  C4  UNL d   1       3.904   0.192  -4.477  0.00  0.00    -0.042 A 
ATOM      5  C5  UNL d   1       3.089   0.036  -3.362  0.00  0.00     0.033 A 
ATOM      6  C6  UNL d   1       1.837  -0.573  -3.491  0.00  0.00    -0.057 A 
ENDROOT
BRANCH   1   7
ATOM      7  N   UNL d   1       0.076  -1.555  -4.803  0.00  0.00    -0.732 N 
ATOM      8  C   UNL d   1      -0.358  -2.307  -5.960  0.00  0.00     0.284 C 
ATOM      9  H3  UNL d   1      -0.244  -1.936  -3.915  0.00  0.00     0.395 HD
ENDBRANCH   1   7
TORSDOF 1
ENDMDL
