MODEL 1
REMARK minimizedAffinity 9.13500118
REMARK minimizedRMSD -1
REMARK  1 active torsions:
REMARK  status: ('A' for Active; 'I' for Inactive)
REMARK    1  A    between atoms: N_2  and  C1_3 
ROOT
ATOM      1  C1  UNL d   1      -0.416   1.949   2.236  0.00  0.00     0.143 A 
ATOM      2  C2  UNL d   1      -0.624   0.701   2.834  0.00  0.00    -0.057 A 
ATOM      3  C3  UNL d   1      -1.891   0.107   2.852  0.00  0.00     0.033 A 
ATOM      4  C4  UNL d   1      -2.983   0.765   2.295  0.00  0.00    -0.042 A 
ATOM      5  C5  UNL d   1      -2.805   2.017   1.717  0.00  0.00     0.033 A 
ATOM      6  C6  UNL d   1      -1.535   2.603   1.697  0.00  0.00    -0.057 A 
ENDROOT
BRANCH   1   7
ATOM      7  N   UNL d   1       0.799   2.636   2.274  0.00  0.00    -0.732 N 
ATOM      8  C   UNL d   1       1.590   2.671   3.485  0.00  0.00     0.284 C 
ATOM      9  H3  UNL d   1       1.345   2.507   1.425  0.00  0.00     0.395 HD
ENDBRANCH   1   7
TORSDOF 1
ENDMDL
