MODEL 1
REMARK minimizedAffinity 8.73338223
REMARK minimizedRMSD -1
REMARK  1 active torsions:
REMARK  status: ('A' for Active; 'I' for Inactive)
REMARK    1  A    between atoms: N_2  and  C1_3 
ROOT
ATOM      1  C1  UNL d   1       0.287  -0.967  -4.918  0.00  0.00     0.143 A 
ATOM      2  C2  UNL d   1      -0.734  -0.011  -4.966  0.00  0.00    -0.057 A 
ATOM      3  C3  UNL d   1      -1.995  -0.321  -5.488  0.00  0.00     0.033 A 
ATOM      4  C4  UNL d   1      -2.250  -1.589  -6.000  0.00  0.00    -0.042 A 
ATOM      5  C5  UNL d   1      -1.244  -2.548  -5.985  0.00  0.00     0.033 A 
ATOM      6  C6  UNL d   1       0.012  -2.234  -5.456  0.00  0.00    -0.057 A 
ENDROOT
BRANCH   1   7
ATOM      7  N   UNL d   1       1.592  -0.692  -4.502  0.00  0.00    -0.732 N 
ATOM      8  C   UNL d   1       1.859  -0.275  -3.142  0.00  0.00     0.284 C 
ATOM      9  H3  UNL d   1       2.266  -1.357  -4.872  0.00  0.00     0.395 HD
ENDBRANCH   1   7
TORSDOF 1
ENDMDL
