MODEL 1
REMARK minimizedAffinity 3.5061667
REMARK minimizedRMSD -1
REMARK  1 active torsions:
REMARK  status: ('A' for Active; 'I' for Inactive)
REMARK    1  A    between atoms: N_2  and  C1_3 
ROOT
ATOM      1  C1  UNL d   1      -2.031   0.458   1.140  0.00  0.00     0.143 A 
ATOM      2  C2  UNL d   1      -2.082   1.039   2.412  0.00  0.00    -0.057 A 
ATOM      3  C3  UNL d   1      -0.918   1.254   3.159  0.00  0.00     0.033 A 
ATOM      4  C4  UNL d   1       0.320   0.865   2.658  0.00  0.00    -0.042 A 
ATOM      5  C5  UNL d   1       0.392   0.263   1.407  0.00  0.00     0.033 A 
ATOM      6  C6  UNL d   1      -0.773   0.057   0.662  0.00  0.00    -0.057 A 
ENDROOT
BRANCH   1   7
ATOM      7  N   UNL d   1      -3.162   0.128   0.389  0.00  0.00    -0.732 N 
ATOM      8  C   UNL d   1      -3.780  -1.173   0.522  0.00  0.00     0.284 C 
ATOM      9  H3  UNL d   1      -3.823   0.898   0.325  0.00  0.00     0.395 HD
ENDBRANCH   1   7
TORSDOF 1
ENDMDL
