MODEL 1
REMARK minimizedAffinity 6.03446007
REMARK minimizedRMSD -1
REMARK  1 active torsions:
REMARK  status: ('A' for Active; 'I' for Inactive)
REMARK    1  A    between atoms: N_2  and  C1_3 
ROOT
ATOM      1  C1  UNL d   1      -3.125   0.233   1.317  0.00  0.00     0.143 A 
ATOM      2  C2  UNL d   1      -4.229   0.814   0.684  0.00  0.00    -0.057 A 
ATOM      3  C3  UNL d   1      -5.197   0.029   0.047  0.00  0.00     0.033 A 
ATOM      4  C4  UNL d   1      -5.063  -1.355   0.007  0.00  0.00    -0.042 A 
ATOM      5  C5  UNL d   1      -3.961  -1.953   0.608  0.00  0.00     0.033 A 
ATOM      6  C6  UNL d   1      -3.001  -1.164   1.248  0.00  0.00    -0.057 A 
ENDROOT
BRANCH   1   7
ATOM      7  N   UNL d   1      -2.078   0.964   1.882  0.00  0.00    -0.732 N 
ATOM      8  C   UNL d   1      -0.849   0.309   2.275  0.00  0.00     0.284 C 
ATOM      9  H3  UNL d   1      -1.942   1.864   1.426  0.00  0.00     0.395 HD
ENDBRANCH   1   7
TORSDOF 1
ENDMDL
