MODEL 1
REMARK minimizedAffinity 5.55365229
REMARK minimizedRMSD -1
REMARK  1 active torsions:
REMARK  status: ('A' for Active; 'I' for Inactive)
REMARK    1  A    between atoms: N_2  and  C1_3 
ROOT
ATOM      1  C1  UNL d   1      -2.867  -1.773  -5.994  0.00  0.00     0.143 A 
ATOM      2  C2  UNL d   1      -1.680  -2.513  -5.983  0.00  0.00    -0.057 A 
ATOM      3  C3  UNL d   1      -1.697  -3.913  -6.000  0.00  0.00     0.033 A 
ATOM      4  C4  UNL d   1      -2.906  -4.600  -5.999  0.00  0.00    -0.042 A 
ATOM      5  C5  UNL d   1      -4.099  -3.885  -5.985  0.00  0.00     0.033 A 
ATOM      6  C6  UNL d   1      -4.075  -2.487  -5.975  0.00  0.00    -0.057 A 
ENDROOT
BRANCH   1   7
ATOM      7  N   UNL d   1      -2.917  -0.381  -5.879  0.00  0.00    -0.732 N 
ATOM      8  C   UNL d   1      -1.699   0.397  -5.810  0.00  0.00     0.284 C 
ATOM      9  H3  UNL d   1      -3.641   0.031  -6.462  0.00  0.00     0.395 HD
ENDBRANCH   1   7
TORSDOF 1
ENDMDL
