MODEL 1
REMARK minimizedAffinity 3.1865046
REMARK minimizedRMSD -1
REMARK  1 active torsions:
REMARK  status: ('A' for Active; 'I' for Inactive)
REMARK    1  A    between atoms: N_2  and  C1_3 
ROOT
ATOM      1  C1  UNL d   1      -1.977   0.617   2.727  0.00  0.00     0.143 A 
ATOM      2  C2  UNL d   1      -2.954   0.436   3.712  0.00  0.00    -0.057 A 
ATOM      3  C3  UNL d   1      -4.286   0.167   3.374  0.00  0.00     0.033 A 
ATOM      4  C4  UNL d   1      -4.671   0.104   2.039  0.00  0.00    -0.042 A 
ATOM      5  C5  UNL d   1      -3.722   0.305   1.043  0.00  0.00     0.033 A 
ATOM      6  C6  UNL d   1      -2.393   0.566   1.387  0.00  0.00    -0.057 A 
ENDROOT
BRANCH   1   7
ATOM      7  N   UNL d   1      -0.657   0.984   2.998  0.00  0.00    -0.732 N 
ATOM      8  C   UNL d   1       0.356  -0.024   3.228  0.00  0.00     0.284 C 
ATOM      9  H3  UNL d   1      -0.345   1.764   2.424  0.00  0.00     0.395 HD
ENDBRANCH   1   7
TORSDOF 1
ENDMDL
