MODEL 1
REMARK minimizedAffinity 9.45257759
REMARK minimizedRMSD -1
REMARK  1 active torsions:
REMARK  status: ('A' for Active; 'I' for Inactive)
REMARK    1  A    between atoms: N_2  and  C1_3 
ROOT
ATOM      1  C1  UNL d   1      -3.386   0.928   2.041  0.00  0.00     0.143 A 
ATOM      2  C2  UNL d   1      -4.484   0.308   1.434  0.00  0.00    -0.057 A 
ATOM      3  C3  UNL d   1      -5.598  -0.091   2.182  0.00  0.00     0.033 A 
ATOM      4  C4  UNL d   1      -5.622   0.098   3.560  0.00  0.00    -0.042 A 
ATOM      5  C5  UNL d   1      -4.532   0.689   4.188  0.00  0.00     0.033 A 
ATOM      6  C6  UNL d   1      -3.425   1.091   3.435  0.00  0.00    -0.057 A 
ENDROOT
BRANCH   1   7
ATOM      7  N   UNL d   1      -2.208   1.258   1.367  0.00  0.00    -0.732 N 
ATOM      8  C   UNL d   1      -0.917   0.994   1.967  0.00  0.00     0.284 C 
ATOM      9  H3  UNL d   1      -2.256   1.045   0.374  0.00  0.00     0.395 HD
ENDBRANCH   1   7
TORSDOF 1
ENDMDL
