MODEL 1
REMARK minimizedAffinity -0.768382132
REMARK minimizedRMSD -1
REMARK  0 active torsions:
REMARK  status: ('A' for Active; 'I' for Inactive)
ROOT
ATOM      1  O1  BZF d   1      -1.724  -2.117  -4.914  0.00  0.00    -0.204 OA
ATOM      2  C2  BZF d   1      -2.022  -0.949  -5.590  0.00  0.00     0.174 A 
ATOM      3  C3  BZF d   1      -1.004  -0.069  -5.496  0.00  0.00    -0.012 A 
ATOM      4  C3A BZF d   1       0.029  -0.763  -4.790  0.00  0.00    -0.107 A 
ATOM      5  C4  BZF d   1       1.293  -0.422  -4.402  0.00  0.00     0.055 A 
ATOM      6  C5  BZF d   1       2.018  -1.303  -3.664  0.00  0.00    -0.016 A 
ATOM      7  C6  BZF d   1       1.509  -2.530  -3.292  0.00  0.00     0.022 A 
ATOM      8  C7  BZF d   1       0.262  -2.916  -3.658  0.00  0.00     0.029 A 
ATOM      9  C7A BZF d   1      -0.461  -2.041  -4.432  0.00  0.00     0.058 A 
ENDROOT
TORSDOF 0
ENDMDL
