MODEL 1
REMARK minimizedAffinity -3.46850419
REMARK minimizedRMSD -1
REMARK  0 active torsions:
REMARK  status: ('A' for Active; 'I' for Inactive)
ROOT
ATOM      1  O1  BZF d   1       0.733   0.018   3.329  0.00  0.00    -0.204 OA
ATOM      2  C2  BZF d   1      -0.527  -0.418   3.693  0.00  0.00     0.174 A 
ATOM      3  C3  BZF d   1      -1.297  -0.617   2.603  0.00  0.00    -0.012 A 
ATOM      4  C3A BZF d   1      -0.438  -0.373   1.486  0.00  0.00    -0.107 A 
ATOM      5  C4  BZF d   1      -0.619  -0.425   0.133  0.00  0.00     0.055 A 
ATOM      6  C5  BZF d   1       0.402  -0.058  -0.685  0.00  0.00    -0.016 A 
ATOM      7  C6  BZF d   1       1.614   0.371  -0.185  0.00  0.00     0.022 A 
ATOM      8  C7  BZF d   1       1.843   0.435   1.149  0.00  0.00     0.029 A 
ATOM      9  C7A BZF d   1       0.824   0.033   1.978  0.00  0.00     0.058 A 
ENDROOT
TORSDOF 0
ENDMDL
