MODEL 1
REMARK minimizedAffinity -2.64931798
REMARK minimizedRMSD -1
REMARK  0 active torsions:
REMARK  status: ('A' for Active; 'I' for Inactive)
ROOT
ATOM      1  O1  BZF d   1       2.998   0.892   1.280  0.00  0.00    -0.204 OA
ATOM      2  C2  BZF d   1       1.909   0.102   0.967  0.00  0.00     0.174 A 
ATOM      3  C3  BZF d   1       1.106   0.724   0.079  0.00  0.00    -0.012 A 
ATOM      4  C3A BZF d   1       1.781   1.943  -0.249  0.00  0.00    -0.107 A 
ATOM      5  C4  BZF d   1       1.491   2.979  -1.090  0.00  0.00     0.055 A 
ATOM      6  C5  BZF d   1       2.322   4.054  -1.124  0.00  0.00    -0.016 A 
ATOM      7  C6  BZF d   1       3.447   4.127  -0.328  0.00  0.00     0.022 A 
ATOM      8  C7  BZF d   1       3.778   3.122   0.518  0.00  0.00     0.029 A 
ATOM      9  C7A BZF d   1       2.958   2.020   0.531  0.00  0.00     0.058 A 
ENDROOT
TORSDOF 0
ENDMDL
