MODEL 1
REMARK minimizedAffinity -5.87794876
REMARK minimizedRMSD -1
REMARK  0 active torsions:
REMARK  status: ('A' for Active; 'I' for Inactive)
ROOT
ATOM      1  O1  BZF d   1      -0.239   0.744  -0.604  0.00  0.00    -0.204 OA
ATOM      2  C2  BZF d   1       1.000   1.334  -0.769  0.00  0.00     0.174 A 
ATOM      3  C3  BZF d   1       1.785   1.104   0.303  0.00  0.00    -0.012 A 
ATOM      4  C3A BZF d   1       1.020   0.244   1.153  0.00  0.00    -0.107 A 
ATOM      5  C4  BZF d   1       1.266  -0.344   2.360  0.00  0.00     0.055 A 
ATOM      6  C5  BZF d   1       0.282  -1.067   2.956  0.00  0.00    -0.016 A 
ATOM      7  C6  BZF d   1      -0.961  -1.217   2.377  0.00  0.00     0.022 A 
ATOM      8  C7  BZF d   1      -1.251  -0.656   1.178  0.00  0.00     0.029 A 
ATOM      9  C7A BZF d   1      -0.248   0.048   0.557  0.00  0.00     0.058 A 
ENDROOT
TORSDOF 0
ENDMDL
