MODEL 1
REMARK minimizedAffinity -0.817675292
REMARK minimizedRMSD -1
REMARK  0 active torsions:
REMARK  status: ('A' for Active; 'I' for Inactive)
ROOT
ATOM      1  O1  BZF d   1      -2.133   0.614  -1.677  0.00  0.00    -0.204 OA
ATOM      2  C2  BZF d   1      -3.391   0.258  -1.230  0.00  0.00     0.174 A 
ATOM      3  C3  BZF d   1      -3.313  -0.415  -0.064  0.00  0.00    -0.012 A 
ATOM      4  C3A BZF d   1      -1.925  -0.403   0.284  0.00  0.00    -0.107 A 
ATOM      5  C4  BZF d   1      -1.218  -0.898   1.342  0.00  0.00     0.055 A 
ATOM      6  C5  BZF d   1       0.136  -0.782   1.345  0.00  0.00    -0.016 A 
ATOM      7  C6  BZF d   1       0.815  -0.183   0.305  0.00  0.00     0.022 A 
ATOM      8  C7  BZF d   1       0.157   0.328  -0.764  0.00  0.00     0.029 A 
ATOM      9  C7A BZF d   1      -1.214   0.241  -0.754  0.00  0.00     0.058 A 
ENDROOT
TORSDOF 0
ENDMDL
