MODEL 1
REMARK minimizedAffinity -2.01826096
REMARK minimizedRMSD -1
REMARK  0 active torsions:
REMARK  status: ('A' for Active; 'I' for Inactive)
ROOT
ATOM      1  O1  BZF d   1       0.603   1.113  -0.536  0.00  0.00    -0.204 OA
ATOM      2  C2  BZF d   1       0.940   0.235   0.475  0.00  0.00     0.174 A 
ATOM      3  C3  BZF d   1       2.043   0.656   1.128  0.00  0.00    -0.012 A 
ATOM      4  C3A BZF d   1       2.365   1.922   0.544  0.00  0.00    -0.107 A 
ATOM      5  C4  BZF d   1       3.347   2.841   0.778  0.00  0.00     0.055 A 
ATOM      6  C5  BZF d   1       3.426   3.940  -0.018  0.00  0.00    -0.016 A 
ATOM      7  C6  BZF d   1       2.545   4.149  -1.058  0.00  0.00     0.022 A 
ATOM      8  C7  BZF d   1       1.551   3.267  -1.326  0.00  0.00     0.029 A 
ATOM      9  C7A BZF d   1       1.448   2.172  -0.503  0.00  0.00     0.058 A 
ENDROOT
TORSDOF 0
ENDMDL
