MODEL 1
REMARK minimizedAffinity -3.7675581
REMARK minimizedRMSD -1
REMARK  0 active torsions:
REMARK  status: ('A' for Active; 'I' for Inactive)
ROOT
ATOM      1  O1  BZF d   1       0.538  -0.569   3.158  0.00  0.00    -0.204 OA
ATOM      2  C2  BZF d   1       1.627   0.213   2.824  0.00  0.00     0.174 A 
ATOM      3  C3  BZF d   1       1.525   0.657   1.555  0.00  0.00    -0.012 A 
ATOM      4  C3A BZF d   1       0.251   0.196   1.096  0.00  0.00    -0.107 A 
ATOM      5  C4  BZF d   1      -0.429   0.331  -0.081  0.00  0.00     0.055 A 
ATOM      6  C5  BZF d   1      -1.621  -0.304  -0.233  0.00  0.00    -0.016 A 
ATOM      7  C6  BZF d   1      -2.159  -1.085   0.768  0.00  0.00     0.022 A 
ATOM      8  C7  BZF d   1      -1.525  -1.245   1.955  0.00  0.00     0.029 A 
ATOM      9  C7A BZF d   1      -0.336  -0.578   2.123  0.00  0.00     0.058 A 
ENDROOT
TORSDOF 0
ENDMDL
