MODEL 1
REMARK minimizedAffinity 10.7382507
REMARK minimizedRMSD -1
REMARK  0 active torsions:
REMARK  status: ('A' for Active; 'I' for Inactive)
ROOT
ATOM      1  O1  BZF d   1       1.258  -2.750  -5.999  0.00  0.00    -0.204 OA
ATOM      2  C2  BZF d   1       2.054  -1.910  -5.244  0.00  0.00     0.174 A 
ATOM      3  C3  BZF d   1       1.312  -1.223  -4.351  0.00  0.00    -0.012 A 
ATOM      4  C3A BZF d   1      -0.018  -1.730  -4.498  0.00  0.00    -0.107 A 
ATOM      5  C4  BZF d   1      -1.202  -1.453  -3.876  0.00  0.00     0.055 A 
ATOM      6  C5  BZF d   1      -2.334  -2.072  -4.305  0.00  0.00    -0.016 A 
ATOM      7  C6  BZF d   1      -2.318  -2.967  -5.355  0.00  0.00     0.022 A 
ATOM      8  C7  BZF d   1      -1.167  -3.276  -6.000  0.00  0.00     0.029 A 
ATOM      9  C7A BZF d   1      -0.017  -2.678  -5.547  0.00  0.00     0.058 A 
ENDROOT
TORSDOF 0
ENDMDL
