MODEL 1
REMARK minimizedAffinity 12.1571159
REMARK minimizedRMSD -1
REMARK  0 active torsions:
REMARK  status: ('A' for Active; 'I' for Inactive)
ROOT
ATOM      1  O1  BZF d   1       1.035  -2.520  -3.947  0.00  0.00    -0.204 OA
ATOM      2  C2  BZF d   1       0.093  -3.038  -4.814  0.00  0.00     0.174 A 
ATOM      3  C3  BZF d   1      -1.141  -2.592  -4.502  0.00  0.00    -0.012 A 
ATOM      4  C3A BZF d   1      -0.947  -1.669  -3.427  0.00  0.00    -0.107 A 
ATOM      5  C4  BZF d   1      -1.795  -0.886  -2.696  0.00  0.00     0.055 A 
ATOM      6  C5  BZF d   1      -1.295  -0.153  -1.667  0.00  0.00    -0.016 A 
ATOM      7  C6  BZF d   1       0.044  -0.182  -1.338  0.00  0.00     0.022 A 
ATOM      8  C7  BZF d   1       0.925  -0.939  -2.037  0.00  0.00     0.029 A 
ATOM      9  C7A BZF d   1       0.428  -1.656  -3.098  0.00  0.00     0.058 A 
ENDROOT
TORSDOF 0
ENDMDL
