MODEL 1
REMARK minimizedAffinity 1.7053653
REMARK minimizedRMSD -1
REMARK  0 active torsions:
REMARK  status: ('A' for Active; 'I' for Inactive)
ROOT
ATOM      1  O1  BZF d   1       1.077   0.958  -1.049  0.00  0.00    -0.204 OA
ATOM      2  C2  BZF d   1       1.820   2.121  -1.116  0.00  0.00     0.174 A 
ATOM      3  C3  BZF d   1       2.999   1.900  -1.732  0.00  0.00    -0.012 A 
ATOM      4  C3A BZF d   1       2.954   0.533  -2.152  0.00  0.00    -0.107 A 
ATOM      5  C4  BZF d   1       3.826  -0.270  -2.830  0.00  0.00     0.055 A 
ATOM      6  C5  BZF d   1       3.511  -1.579  -3.016  0.00  0.00    -0.016 A 
ATOM      7  C6  BZF d   1       2.336  -2.118  -2.533  0.00  0.00     0.022 A 
ATOM      8  C7  BZF d   1       1.438  -1.360  -1.859  0.00  0.00     0.029 A 
ATOM      9  C7A BZF d   1       1.739  -0.029  -1.698  0.00  0.00     0.058 A 
ENDROOT
TORSDOF 0
ENDMDL
