MODEL 1
REMARK minimizedAffinity 1.14001775
REMARK minimizedRMSD -1
REMARK  0 active torsions:
REMARK  status: ('A' for Active; 'I' for Inactive)
ROOT
ATOM      1  O1  BZF d   1      -3.119  -2.628   1.191  0.00  0.00    -0.204 OA
ATOM      2  C2  BZF d   1      -1.886  -3.135   1.556  0.00  0.00     0.174 A 
ATOM      3  C3  BZF d   1      -1.967  -4.460   1.798  0.00  0.00    -0.012 A 
ATOM      4  C3A BZF d   1      -3.315  -4.819   1.481  0.00  0.00    -0.107 A 
ATOM      5  C4  BZF d   1      -4.002  -5.999   1.504  0.00  0.00     0.055 A 
ATOM      6  C5  BZF d   1      -5.328  -5.997   1.206  0.00  0.00    -0.016 A 
ATOM      7  C6  BZF d   1      -5.999  -4.834   0.885  0.00  0.00     0.022 A 
ATOM      8  C7  BZF d   1      -5.358  -3.641   0.845  0.00  0.00     0.029 A 
ATOM      9  C7A BZF d   1      -4.011  -3.644   1.114  0.00  0.00     0.058 A 
ENDROOT
TORSDOF 0
ENDMDL
