MODEL 1
REMARK minimizedAffinity -0.863094747
REMARK minimizedRMSD -1
REMARK  0 active torsions:
REMARK  status: ('A' for Active; 'I' for Inactive)
ROOT
ATOM      1  O1  BZF d   1      -2.480   2.186   2.710  0.00  0.00    -0.204 OA
ATOM      2  C2  BZF d   1      -1.643   1.706   3.699  0.00  0.00     0.174 A 
ATOM      3  C3  BZF d   1      -2.309   1.569   4.864  0.00  0.00    -0.012 A 
ATOM      4  C3A BZF d   1      -3.667   1.903   4.563  0.00  0.00    -0.107 A 
ATOM      5  C4  BZF d   1      -4.812   1.940   5.306  0.00  0.00     0.055 A 
ATOM      6  C5  BZF d   1      -5.961   2.380   4.729  0.00  0.00    -0.016 A 
ATOM      7  C6  BZF d   1      -6.000   2.793   3.413  0.00  0.00     0.022 A 
ATOM      8  C7  BZF d   1      -4.891   2.770   2.634  0.00  0.00     0.029 A 
ATOM      9  C7A BZF d   1      -3.736   2.295   3.206  0.00  0.00     0.058 A 
ENDROOT
TORSDOF 0
ENDMDL
