MODEL 1
REMARK minimizedAffinity 1.15533745
REMARK minimizedRMSD -1
REMARK  0 active torsions:
REMARK  status: ('A' for Active; 'I' for Inactive)
ROOT
ATOM      1  O1  BZF d   1       2.201  -3.742  -3.504  0.00  0.00    -0.204 OA
ATOM      2  C2  BZF d   1       0.824  -3.719  -3.397  0.00  0.00     0.174 A 
ATOM      3  C3  BZF d   1       0.406  -2.557  -2.855  0.00  0.00    -0.012 A 
ATOM      4  C3A BZF d   1       1.590  -1.770  -2.692  0.00  0.00    -0.107 A 
ATOM      5  C4  BZF d   1       1.822  -0.512  -2.216  0.00  0.00     0.055 A 
ATOM      6  C5  BZF d   1       3.103  -0.067  -2.122  0.00  0.00    -0.016 A 
ATOM      7  C6  BZF d   1       4.174  -0.855  -2.491  0.00  0.00     0.022 A 
ATOM      8  C7  BZF d   1       3.993  -2.108  -2.974  0.00  0.00     0.029 A 
ATOM      9  C7A BZF d   1       2.698  -2.548  -3.100  0.00  0.00     0.058 A 
ENDROOT
TORSDOF 0
ENDMDL
