MODEL 1
REMARK minimizedAffinity -2.43065763
REMARK minimizedRMSD -1
REMARK  0 active torsions:
REMARK  status: ('A' for Active; 'I' for Inactive)
ROOT
ATOM      1  O1  BZF d   1      -1.404  -3.799   1.509  0.00  0.00    -0.204 OA
ATOM      2  C2  BZF d   1      -0.798  -4.967   1.931  0.00  0.00     0.174 A 
ATOM      3  C3  BZF d   1      -1.664  -6.000   1.882  0.00  0.00    -0.012 A 
ATOM      4  C3A BZF d   1      -2.860  -5.461   1.311  0.00  0.00    -0.107 A 
ATOM      5  C4  BZF d   1      -4.074  -6.000   0.993  0.00  0.00     0.055 A 
ATOM      6  C5  BZF d   1      -5.054  -5.186   0.518  0.00  0.00    -0.016 A 
ATOM      7  C6  BZF d   1      -4.856  -3.831   0.353  0.00  0.00     0.022 A 
ATOM      8  C7  BZF d   1      -3.667  -3.252   0.649  0.00  0.00     0.029 A 
ATOM      9  C7A BZF d   1      -2.665  -4.077   1.099  0.00  0.00     0.058 A 
ENDROOT
TORSDOF 0
ENDMDL
