MODEL 1
REMARK minimizedAffinity 2.48230696
REMARK minimizedRMSD -1
REMARK  0 active torsions:
REMARK  status: ('A' for Active; 'I' for Inactive)
ROOT
ATOM      1  O1  BZF d   1      -0.625  -4.842   3.066  0.00  0.00    -0.204 OA
ATOM      2  C2  BZF d   1      -0.902  -5.490   1.878  0.00  0.00     0.174 A 
ATOM      3  C3  BZF d   1       0.224  -5.999   1.338  0.00  0.00    -0.012 A 
ATOM      4  C3A BZF d   1       1.256  -5.727   2.291  0.00  0.00    -0.107 A 
ATOM      5  C4  BZF d   1       2.593  -6.000   2.331  0.00  0.00     0.055 A 
ATOM      6  C5  BZF d   1       3.332  -5.531   3.371  0.00  0.00    -0.016 A 
ATOM      7  C6  BZF d   1       2.768  -4.783   4.384  0.00  0.00     0.022 A 
ATOM      8  C7  BZF d   1       1.445  -4.491   4.390  0.00  0.00     0.029 A 
ATOM      9  C7A BZF d   1       0.689  -4.991   3.357  0.00  0.00     0.058 A 
ENDROOT
TORSDOF 0
ENDMDL
