MODEL 1
REMARK minimizedAffinity 1.12412655
REMARK minimizedRMSD -1
REMARK  0 active torsions:
REMARK  status: ('A' for Active; 'I' for Inactive)
ROOT
ATOM      1  O1  BZF d   1      -2.279  -3.898   1.071  0.00  0.00    -0.204 OA
ATOM      2  C2  BZF d   1      -1.497  -4.989   0.744  0.00  0.00     0.174 A 
ATOM      3  C3  BZF d   1      -2.258  -6.000   0.277  0.00  0.00    -0.012 A 
ATOM      4  C3A BZF d   1      -3.590  -5.477   0.229  0.00  0.00    -0.107 A 
ATOM      5  C4  BZF d   1      -4.789  -5.999  -0.163  0.00  0.00     0.055 A 
ATOM      6  C5  BZF d   1      -5.914  -5.251  -0.017  0.00  0.00    -0.016 A 
ATOM      7  C6  BZF d   1      -5.877  -3.981   0.522  0.00  0.00     0.022 A 
ATOM      8  C7  BZF d   1      -4.710  -3.419   0.920  0.00  0.00     0.029 A 
ATOM      9  C7A BZF d   1      -3.567  -4.160   0.743  0.00  0.00     0.058 A 
ENDROOT
TORSDOF 0
ENDMDL
