MODEL 1
REMARK minimizedAffinity 9.92848587
REMARK minimizedRMSD -1
REMARK  0 active torsions:
REMARK  status: ('A' for Active; 'I' for Inactive)
ROOT
ATOM      1  O1  BZF d   1      -3.178  -1.828  -4.974  0.00  0.00    -0.204 OA
ATOM      2  C2  BZF d   1      -3.559  -1.048  -3.900  0.00  0.00     0.174 A 
ATOM      3  C3  BZF d   1      -2.554  -0.939  -3.007  0.00  0.00    -0.012 A 
ATOM      4  C3A BZF d   1      -1.446  -1.622  -3.602  0.00  0.00    -0.107 A 
ATOM      5  C4  BZF d   1      -0.159  -1.845  -3.206  0.00  0.00     0.055 A 
ATOM      6  C5  BZF d   1       0.648  -2.612  -3.985  0.00  0.00    -0.016 A 
ATOM      7  C6  BZF d   1       0.200  -3.175  -5.162  0.00  0.00     0.022 A 
ATOM      8  C7  BZF d   1      -1.068  -2.977  -5.599  0.00  0.00     0.029 A 
ATOM      9  C7A BZF d   1      -1.876  -2.175  -4.830  0.00  0.00     0.058 A 
ENDROOT
TORSDOF 0
ENDMDL
