MODEL 1
REMARK minimizedAffinity 4.9420228
REMARK minimizedRMSD -1
REMARK  0 active torsions:
REMARK  status: ('A' for Active; 'I' for Inactive)
ROOT
ATOM      1  O1  BZF d   1       1.378   0.451   1.608  0.00  0.00    -0.204 OA
ATOM      2  C2  BZF d   1       0.262  -0.097   1.005  0.00  0.00     0.174 A 
ATOM      3  C3  BZF d   1      -0.865   0.313   1.622  0.00  0.00    -0.012 A 
ATOM      4  C3A BZF d   1      -0.431   1.244   2.619  0.00  0.00    -0.107 A 
ATOM      5  C4  BZF d   1      -1.089   2.002   3.545  0.00  0.00     0.055 A 
ATOM      6  C5  BZF d   1      -0.366   2.752   4.418  0.00  0.00    -0.016 A 
ATOM      7  C6  BZF d   1       1.013   2.763   4.396  0.00  0.00     0.022 A 
ATOM      8  C7  BZF d   1       1.710   2.032   3.493  0.00  0.00     0.029 A 
ATOM      9  C7A BZF d   1       0.981   1.298   2.588  0.00  0.00     0.058 A 
ENDROOT
TORSDOF 0
ENDMDL
