MODEL 1
REMARK minimizedAffinity 15.7263269
REMARK minimizedRMSD -1
REMARK  2 active torsions:
REMARK  status: ('A' for Active; 'I' for Inactive)
REMARK    1  A    between atoms: C1_2  and  C2_3 
REMARK    2  A    between atoms: C2_3  and  C3_4 
ROOT
ATOM      1  C3  UNL d   1       3.318  -3.379   1.674  0.00  0.00    -0.075 A 
ATOM      2  C4  UNL d   1       4.559  -3.741   1.129  0.00  0.00     0.002 A 
ATOM      3  C5  UNL d   1       5.081  -3.049   0.036  0.00  0.00     0.002 A 
ATOM      4  C6  UNL d   1       4.367  -1.997  -0.533  0.00  0.00    -0.004 A 
ATOM      5  C7  UNL d   1       3.126  -1.640  -0.010  0.00  0.00     0.002 A 
ATOM      6  C8  UNL d   1       2.603  -2.327   1.087  0.00  0.00     0.002 A 
ENDROOT
BRANCH   1   7
ATOM      7  C2  UNL d   1       2.761  -4.104   2.876  0.00  0.00     0.056 C 
BRANCH   7   8
ATOM      8  C1  UNL d   1       2.526  -5.601   2.648  0.00  0.00     0.007 C 
ATOM      9  C   UNL d   1       1.054  -5.989   2.677  0.00  0.00     0.009 C 
ENDBRANCH   7   8
ENDBRANCH   1   7
TORSDOF 2
ENDMDL
