MODEL 1
REMARK minimizedAffinity 6.34724855
REMARK minimizedRMSD -1
REMARK  2 active torsions:
REMARK  status: ('A' for Active; 'I' for Inactive)
REMARK    1  A    between atoms: C1_2  and  C2_3 
REMARK    2  A    between atoms: C2_3  and  C3_4 
ROOT
ATOM      1  C3  UNL d   1       4.266  -4.900  -2.416  0.00  0.00    -0.075 A 
ATOM      2  C4  UNL d   1       4.624  -4.258  -1.222  0.00  0.00     0.002 A 
ATOM      3  C5  UNL d   1       3.654  -3.942  -0.270  0.00  0.00     0.002 A 
ATOM      4  C6  UNL d   1       2.317  -4.253  -0.503  0.00  0.00    -0.004 A 
ATOM      5  C7  UNL d   1       1.948  -4.877  -1.693  0.00  0.00     0.002 A 
ATOM      6  C8  UNL d   1       2.917  -5.198  -2.646  0.00  0.00     0.002 A 
ENDROOT
BRANCH   1   7
ATOM      7  C2  UNL d   1       5.315  -5.272  -3.438  0.00  0.00     0.056 C 
BRANCH   7   8
ATOM      8  C1  UNL d   1       5.249  -4.447  -4.727  0.00  0.00     0.007 C 
ATOM      9  C   UNL d   1       5.933  -5.123  -5.908  0.00  0.00     0.009 C 
ENDBRANCH   7   8
ENDBRANCH   1   7
TORSDOF 2
ENDMDL
