MODEL 1
REMARK minimizedAffinity 6.73215818
REMARK minimizedRMSD -1
REMARK  2 active torsions:
REMARK  status: ('A' for Active; 'I' for Inactive)
REMARK    1  A    between atoms: C1_2  and  C2_3 
REMARK    2  A    between atoms: C2_3  and  C3_4 
ROOT
ATOM      1  C3  UNL d   1      -3.695   2.609  -3.462  0.00  0.00    -0.075 A 
ATOM      2  C4  UNL d   1      -3.244   3.006  -4.729  0.00  0.00     0.002 A 
ATOM      3  C5  UNL d   1      -3.497   4.294  -5.200  0.00  0.00     0.002 A 
ATOM      4  C6  UNL d   1      -4.211   5.198  -4.417  0.00  0.00    -0.004 A 
ATOM      5  C7  UNL d   1      -4.679   4.809  -3.163  0.00  0.00     0.002 A 
ATOM      6  C8  UNL d   1      -4.423   3.522  -2.687  0.00  0.00     0.002 A 
ENDROOT
BRANCH   1   7
ATOM      7  C2  UNL d   1      -3.399   1.226  -2.934  0.00  0.00     0.056 C 
BRANCH   7   8
ATOM      8  C1  UNL d   1      -2.219   1.169  -1.959  0.00  0.00     0.007 C 
ATOM      9  C   UNL d   1      -2.213  -0.085  -1.095  0.00  0.00     0.009 C 
ENDBRANCH   7   8
ENDBRANCH   1   7
TORSDOF 2
ENDMDL
