MODEL 1
REMARK minimizedAffinity 14.8640518
REMARK minimizedRMSD -1
REMARK  2 active torsions:
REMARK  status: ('A' for Active; 'I' for Inactive)
REMARK    1  A    between atoms: C1_2  and  C2_3 
REMARK    2  A    between atoms: C2_3  and  C3_4 
ROOT
ATOM      1  C3  UNL d   1      -4.150   3.201  -3.970  0.00  0.00    -0.075 A 
ATOM      2  C4  UNL d   1      -3.812   3.745  -5.218  0.00  0.00     0.002 A 
ATOM      3  C5  UNL d   1      -4.554   4.797  -5.755  0.00  0.00     0.002 A 
ATOM      4  C6  UNL d   1      -5.646   5.311  -5.059  0.00  0.00    -0.004 A 
ATOM      5  C7  UNL d   1      -6.000   4.767  -3.826  0.00  0.00     0.002 A 
ATOM      6  C8  UNL d   1      -5.257   3.717  -3.284  0.00  0.00     0.002 A 
ENDROOT
BRANCH   1   7
ATOM      7  C2  UNL d   1      -3.333   2.082  -3.369  0.00  0.00     0.056 C 
BRANCH   7   8
ATOM      8  C1  UNL d   1      -4.065   0.736  -3.312  0.00  0.00     0.007 C 
ATOM      9  C   UNL d   1      -3.269  -0.351  -2.602  0.00  0.00     0.009 C 
ENDBRANCH   7   8
ENDBRANCH   1   7
TORSDOF 2
ENDMDL
