MODEL 1
REMARK minimizedAffinity 16.1192226
REMARK minimizedRMSD -1
REMARK  2 active torsions:
REMARK  status: ('A' for Active; 'I' for Inactive)
REMARK    1  A    between atoms: C1_2  and  C2_3 
REMARK    2  A    between atoms: C2_3  and  C3_4 
ROOT
ATOM      1  C3  UNL d   1       1.005  -4.441  -0.836  0.00  0.00    -0.075 A 
ATOM      2  C4  UNL d   1       1.258  -3.809   0.391  0.00  0.00     0.002 A 
ATOM      3  C5  UNL d   1       2.539  -3.350   0.700  0.00  0.00     0.002 A 
ATOM      4  C6  UNL d   1       3.583  -3.526  -0.206  0.00  0.00    -0.004 A 
ATOM      5  C7  UNL d   1       3.346  -4.167  -1.420  0.00  0.00     0.002 A 
ATOM      6  C8  UNL d   1       2.065  -4.623  -1.734  0.00  0.00     0.002 A 
ENDROOT
BRANCH   1   7
ATOM      7  C2  UNL d   1      -0.385  -4.913  -1.189  0.00  0.00     0.056 C 
BRANCH   7   8
ATOM      8  C1  UNL d   1      -1.488  -4.318  -0.307  0.00  0.00     0.007 C 
ATOM      9  C   UNL d   1      -2.627  -5.292  -0.032  0.00  0.00     0.009 C 
ENDBRANCH   7   8
ENDBRANCH   1   7
TORSDOF 2
ENDMDL
