MODEL 1
REMARK minimizedAffinity 5.00669909
REMARK minimizedRMSD -1
REMARK  2 active torsions:
REMARK  status: ('A' for Active; 'I' for Inactive)
REMARK    1  A    between atoms: C1_2  and  C2_3 
REMARK    2  A    between atoms: C2_3  and  C3_4 
ROOT
ATOM      1  C3  UNL d   1       1.557  -2.281   3.420  0.00  0.00    -0.075 A 
ATOM      2  C4  UNL d   1       1.104  -1.583   4.549  0.00  0.00     0.002 A 
ATOM      3  C5  UNL d   1       1.478  -1.989   5.831  0.00  0.00     0.002 A 
ATOM      4  C6  UNL d   1       2.300  -3.101   6.000  0.00  0.00    -0.004 A 
ATOM      5  C7  UNL d   1       2.743  -3.811   4.886  0.00  0.00     0.002 A 
ATOM      6  C8  UNL d   1       2.374  -3.405   3.603  0.00  0.00     0.002 A 
ENDROOT
BRANCH   1   7
ATOM      7  C2  UNL d   1       1.179  -1.829   2.030  0.00  0.00     0.056 C 
BRANCH   7   8
ATOM      8  C1  UNL d   1       2.151  -0.815   1.418  0.00  0.00     0.007 C 
ATOM      9  C   UNL d   1       3.016  -1.404   0.312  0.00  0.00     0.009 C 
ENDBRANCH   7   8
ENDBRANCH   1   7
TORSDOF 2
ENDMDL
