MODEL 1
REMARK minimizedAffinity 14.2798777
REMARK minimizedRMSD -1
REMARK  2 active torsions:
REMARK  status: ('A' for Active; 'I' for Inactive)
REMARK    1  A    between atoms: C1_2  and  C2_3 
REMARK    2  A    between atoms: C2_3  and  C3_4 
ROOT
ATOM      1  C3  UNL d   1       1.466  -1.504   3.362  0.00  0.00    -0.075 A 
ATOM      2  C4  UNL d   1       1.906  -2.767   2.942  0.00  0.00     0.002 A 
ATOM      3  C5  UNL d   1       2.325  -2.971   1.627  0.00  0.00     0.002 A 
ATOM      4  C6  UNL d   1       2.300  -1.920   0.714  0.00  0.00    -0.004 A 
ATOM      5  C7  UNL d   1       1.849  -0.664   1.115  0.00  0.00     0.002 A 
ATOM      6  C8  UNL d   1       1.433  -0.456   2.432  0.00  0.00     0.002 A 
ENDROOT
BRANCH   1   7
ATOM      7  C2  UNL d   1       1.039  -1.269   4.791  0.00  0.00     0.056 C 
BRANCH   7   8
ATOM      8  C1  UNL d   1       1.060  -2.529   5.663  0.00  0.00     0.007 C 
ATOM      9  C   UNL d   1       2.467  -3.003   5.999  0.00  0.00     0.009 C 
ENDBRANCH   7   8
ENDBRANCH   1   7
TORSDOF 2
ENDMDL
