MODEL 1
REMARK minimizedAffinity -4.28651571
REMARK minimizedRMSD -1
REMARK  0 active torsions:
REMARK  status: ('A' for Active; 'I' for Inactive)
ROOT
ATOM      1  C   UNL d   1      -0.885   0.047   0.562  0.00  0.00     0.078 C 
ATOM      2  C1  UNL d   1       0.425  -0.287  -0.085  0.00  0.00    -0.077 A 
ATOM      3  C2  UNL d   1       1.536   0.553   0.060  0.00  0.00    -0.001 A 
ATOM      4  C3  UNL d   1       2.747   0.234  -0.556  0.00  0.00     0.003 A 
ATOM      5  C4  UNL d   1       2.859  -0.924  -1.323  0.00  0.00    -0.005 A 
ATOM      6  C5  UNL d   1       1.758  -1.764  -1.475  0.00  0.00     0.003 A 
ATOM      7  C6  UNL d   1       0.546  -1.447  -0.860  0.00  0.00    -0.001 A 
ENDROOT
TORSDOF 0
ENDMDL
