MODEL 1
REMARK minimizedAffinity -3.89257932
REMARK minimizedRMSD -1
REMARK  0 active torsions:
REMARK  status: ('A' for Active; 'I' for Inactive)
ROOT
ATOM      1  C   UNL d   1      -1.014  -1.961  -0.757  0.00  0.00     0.078 C 
ATOM      2  C1  UNL d   1       0.186  -1.095  -0.518  0.00  0.00    -0.077 A 
ATOM      3  C2  UNL d   1       0.206  -0.161   0.525  0.00  0.00    -0.001 A 
ATOM      4  C3  UNL d   1       1.326   0.646   0.729  0.00  0.00     0.003 A 
ATOM      5  C4  UNL d   1       2.435   0.528  -0.106  0.00  0.00    -0.005 A 
ATOM      6  C5  UNL d   1       2.424  -0.397  -1.148  0.00  0.00     0.003 A 
ATOM      7  C6  UNL d   1       1.304  -1.205  -1.354  0.00  0.00    -0.001 A 
ENDROOT
TORSDOF 0
ENDMDL
