MODEL 1
REMARK minimizedAffinity -4.24317741
REMARK minimizedRMSD -1
REMARK  0 active torsions:
REMARK  status: ('A' for Active; 'I' for Inactive)
ROOT
ATOM      1  C   UNL d   1      -1.245   0.407   0.685  0.00  0.00     0.078 C 
ATOM      2  C1  UNL d   1       0.071   0.007   0.088  0.00  0.00    -0.077 A 
ATOM      3  C2  UNL d   1       0.535  -1.310   0.181  0.00  0.00    -0.001 A 
ATOM      4  C3  UNL d   1       1.767  -1.666  -0.370  0.00  0.00     0.003 A 
ATOM      5  C4  UNL d   1       2.545  -0.709  -1.018  0.00  0.00    -0.005 A 
ATOM      6  C5  UNL d   1       2.093   0.605  -1.115  0.00  0.00     0.003 A 
ATOM      7  C6  UNL d   1       0.861   0.962  -0.563  0.00  0.00    -0.001 A 
ENDROOT
TORSDOF 0
ENDMDL
