MODEL 1
REMARK minimizedAffinity -3.93973565
REMARK minimizedRMSD -1
REMARK  0 active torsions:
REMARK  status: ('A' for Active; 'I' for Inactive)
ROOT
ATOM      1  C   UNL d   1      -1.846   3.260   3.771  0.00  0.00     0.078 C 
ATOM      2  C1  UNL d   1      -3.073   4.002   4.212  0.00  0.00    -0.077 A 
ATOM      3  C2  UNL d   1      -3.943   4.577   3.277  0.00  0.00    -0.001 A 
ATOM      4  C3  UNL d   1      -5.075   5.273   3.702  0.00  0.00     0.003 A 
ATOM      5  C4  UNL d   1      -5.348   5.402   5.063  0.00  0.00    -0.005 A 
ATOM      6  C5  UNL d   1      -4.487   4.835   6.000  0.00  0.00     0.003 A 
ATOM      7  C6  UNL d   1      -3.354   4.139   5.577  0.00  0.00    -0.001 A 
ENDROOT
TORSDOF 0
ENDMDL
