MODEL 1
REMARK minimizedAffinity -5.3401885
REMARK minimizedRMSD -1
REMARK  0 active torsions:
REMARK  status: ('A' for Active; 'I' for Inactive)
ROOT
ATOM      1  C   UNL d   1      -0.796   0.356   0.658  0.00  0.00     0.078 C 
ATOM      2  C1  UNL d   1       0.381   0.412  -0.269  0.00  0.00    -0.077 A 
ATOM      3  C2  UNL d   1       0.663   1.568  -1.008  0.00  0.00    -0.001 A 
ATOM      4  C3  UNL d   1       1.757   1.602  -1.875  0.00  0.00     0.003 A 
ATOM      5  C4  UNL d   1       2.576   0.484  -2.012  0.00  0.00    -0.005 A 
ATOM      6  C5  UNL d   1       2.302  -0.672  -1.283  0.00  0.00     0.003 A 
ATOM      7  C6  UNL d   1       1.209  -0.708  -0.415  0.00  0.00    -0.001 A 
ENDROOT
TORSDOF 0
ENDMDL
