MODEL 1
REMARK minimizedAffinity -4.83017159
REMARK minimizedRMSD -1
REMARK  0 active torsions:
REMARK  status: ('A' for Active; 'I' for Inactive)
ROOT
ATOM      1  C   UNL d   1       2.849  -0.796  -1.550  0.00  0.00     0.078 C 
ATOM      2  C1  UNL d   1       1.485  -0.509  -0.996  0.00  0.00    -0.077 A 
ATOM      3  C2  UNL d   1       0.659  -1.543  -0.542  0.00  0.00    -0.001 A 
ATOM      4  C3  UNL d   1      -0.612  -1.262  -0.037  0.00  0.00     0.003 A 
ATOM      5  C4  UNL d   1      -1.068   0.053   0.016  0.00  0.00    -0.005 A 
ATOM      6  C5  UNL d   1      -0.254   1.090  -0.436  0.00  0.00     0.003 A 
ATOM      7  C6  UNL d   1       1.017   0.810  -0.941  0.00  0.00    -0.001 A 
ENDROOT
TORSDOF 0
ENDMDL
