MODEL 1
REMARK minimizedAffinity -5.16260004
REMARK minimizedRMSD -1
REMARK  0 active torsions:
REMARK  status: ('A' for Active; 'I' for Inactive)
ROOT
ATOM      1  C   UNL d   1      -1.111  -0.052   1.205  0.00  0.00     0.078 C 
ATOM      2  C1  UNL d   1       0.078  -0.156   0.297  0.00  0.00    -0.077 A 
ATOM      3  C2  UNL d   1       0.921   0.941   0.083  0.00  0.00    -0.001 A 
ATOM      4  C3  UNL d   1       2.018   0.833  -0.772  0.00  0.00     0.003 A 
ATOM      5  C4  UNL d   1       2.283  -0.371  -1.422  0.00  0.00    -0.005 A 
ATOM      6  C5  UNL d   1       1.448  -1.468  -1.217  0.00  0.00     0.003 A 
ATOM      7  C6  UNL d   1       0.350  -1.362  -0.362  0.00  0.00    -0.001 A 
ENDROOT
TORSDOF 0
ENDMDL
