MODEL 1
REMARK minimizedAffinity -4.39282799
REMARK minimizedRMSD -1
REMARK  0 active torsions:
REMARK  status: ('A' for Active; 'I' for Inactive)
ROOT
ATOM      1  C   UNL d   1       2.370  -0.560  -1.135  0.00  0.00     0.078 C 
ATOM      2  C1  UNL d   1       0.983   0.005  -1.056  0.00  0.00    -0.077 A 
ATOM      3  C2  UNL d   1      -0.060  -0.723  -0.470  0.00  0.00    -0.001 A 
ATOM      4  C3  UNL d   1      -1.348  -0.189  -0.412  0.00  0.00     0.003 A 
ATOM      5  C4  UNL d   1      -1.606   1.075  -0.940  0.00  0.00    -0.005 A 
ATOM      6  C5  UNL d   1      -0.575   1.806  -1.527  0.00  0.00     0.003 A 
ATOM      7  C6  UNL d   1       0.714   1.273  -1.585  0.00  0.00    -0.001 A 
ENDROOT
TORSDOF 0
ENDMDL
