MODEL 1
REMARK minimizedAffinity -4.94419384
REMARK minimizedRMSD -1
REMARK  0 active torsions:
REMARK  status: ('A' for Active; 'I' for Inactive)
ROOT
ATOM      1  C   UNL d   1      -1.378   0.175   0.668  0.00  0.00     0.078 C 
ATOM      2  C1  UNL d   1      -0.181  -0.315  -0.091  0.00  0.00    -0.077 A 
ATOM      3  C2  UNL d   1      -0.051  -1.665  -0.439  0.00  0.00    -0.001 A 
ATOM      4  C3  UNL d   1       1.073  -2.109  -1.137  0.00  0.00     0.003 A 
ATOM      5  C4  UNL d   1       2.076  -1.210  -1.492  0.00  0.00    -0.005 A 
ATOM      6  C5  UNL d   1       1.957   0.135  -1.148  0.00  0.00     0.003 A 
ATOM      7  C6  UNL d   1       0.834   0.581  -0.450  0.00  0.00    -0.001 A 
ENDROOT
TORSDOF 0
ENDMDL
