MODEL 1
REMARK minimizedAffinity -2.45027971
REMARK minimizedRMSD -1
REMARK  0 active torsions:
REMARK  status: ('A' for Active; 'I' for Inactive)
ROOT
ATOM      1  C   UNL d   1      -1.367   0.173   0.035  0.00  0.00     0.078 C 
ATOM      2  C1  UNL d   1      -1.584   0.469   1.489  0.00  0.00    -0.077 A 
ATOM      3  C2  UNL d   1      -1.292   1.732   2.019  0.00  0.00    -0.001 A 
ATOM      4  C3  UNL d   1      -1.489   1.990   3.376  0.00  0.00     0.003 A 
ATOM      5  C4  UNL d   1      -1.977   0.991   4.215  0.00  0.00    -0.005 A 
ATOM      6  C5  UNL d   1      -2.269  -0.269   3.697  0.00  0.00     0.003 A 
ATOM      7  C6  UNL d   1      -2.072  -0.530   2.340  0.00  0.00    -0.001 A 
ENDROOT
TORSDOF 0
ENDMDL
