MODEL 1
REMARK minimizedAffinity -4.75881624
REMARK minimizedRMSD -1
REMARK  0 active torsions:
REMARK  status: ('A' for Active; 'I' for Inactive)
ROOT
ATOM      1  C   UNL d   1      -1.215   0.497   0.480  0.00  0.00     0.078 C 
ATOM      2  C1  UNL d   1       0.057  -0.036  -0.109  0.00  0.00    -0.077 A 
ATOM      3  C2  UNL d   1       0.332  -1.409  -0.109  0.00  0.00    -0.001 A 
ATOM      4  C3  UNL d   1       1.524  -1.890  -0.652  0.00  0.00     0.003 A 
ATOM      5  C4  UNL d   1       2.452  -1.005  -1.198  0.00  0.00    -0.005 A 
ATOM      6  C5  UNL d   1       2.188   0.363  -1.200  0.00  0.00     0.003 A 
ATOM      7  C6  UNL d   1       0.997   0.846  -0.658  0.00  0.00    -0.001 A 
ENDROOT
TORSDOF 0
ENDMDL
