MODEL 1
REMARK minimizedAffinity -1.42465985
REMARK minimizedRMSD -1
REMARK  0 active torsions:
REMARK  status: ('A' for Active; 'I' for Inactive)
ROOT
ATOM      1  C   UNL d   1      -1.353   0.643   0.949  0.00  0.00     0.078 C 
ATOM      2  C1  UNL d   1      -0.231   0.039   0.158  0.00  0.00    -0.077 A 
ATOM      3  C2  UNL d   1       1.060   0.580   0.208  0.00  0.00    -0.001 A 
ATOM      4  C3  UNL d   1       2.092   0.013  -0.542  0.00  0.00     0.003 A 
ATOM      5  C4  UNL d   1       1.843  -1.095  -1.348  0.00  0.00    -0.005 A 
ATOM      6  C5  UNL d   1       0.562  -1.639  -1.407  0.00  0.00     0.003 A 
ATOM      7  C6  UNL d   1      -0.472  -1.074  -0.658  0.00  0.00    -0.001 A 
ENDROOT
TORSDOF 0
ENDMDL
