MODEL 1
REMARK minimizedAffinity -4.89224482
REMARK minimizedRMSD -1
REMARK  0 active torsions:
REMARK  status: ('A' for Active; 'I' for Inactive)
ROOT
ATOM      1  C   UNL d   1      -0.096  -1.778   0.963  0.00  0.00     0.078 C 
ATOM      2  C1  UNL d   1      -0.008  -0.520   0.152  0.00  0.00    -0.077 A 
ATOM      3  C2  UNL d   1       1.221  -0.062  -0.338  0.00  0.00    -0.001 A 
ATOM      4  C3  UNL d   1       1.289   1.116  -1.083  0.00  0.00     0.003 A 
ATOM      5  C4  UNL d   1       0.132   1.848  -1.342  0.00  0.00    -0.005 A 
ATOM      6  C5  UNL d   1      -1.095   1.402  -0.856  0.00  0.00     0.003 A 
ATOM      7  C6  UNL d   1      -1.166   0.224  -0.111  0.00  0.00    -0.001 A 
ENDROOT
TORSDOF 0
ENDMDL
