MODEL 1
REMARK minimizedAffinity -2.75858784
REMARK minimizedRMSD -1
REMARK  0 active torsions:
REMARK  status: ('A' for Active; 'I' for Inactive)
ROOT
ATOM      1  C   UNL d   1      -2.528   0.431   1.634  0.00  0.00     0.078 C 
ATOM      2  C1  UNL d   1      -1.373   0.411   0.678  0.00  0.00    -0.077 A 
ATOM      3  C2  UNL d   1      -0.506  -0.686   0.618  0.00  0.00    -0.001 A 
ATOM      4  C3  UNL d   1       0.571  -0.687  -0.270  0.00  0.00     0.003 A 
ATOM      5  C4  UNL d   1       0.791   0.407  -1.104  0.00  0.00    -0.005 A 
ATOM      6  C5  UNL d   1      -0.065   1.504  -1.050  0.00  0.00     0.003 A 
ATOM      7  C6  UNL d   1      -1.143   1.507  -0.163  0.00  0.00    -0.001 A 
ENDROOT
TORSDOF 0
ENDMDL
