MODEL 1
REMARK minimizedAffinity 9.1502409
REMARK minimizedRMSD -1
REMARK  0 active torsions:
REMARK  status: ('A' for Active; 'I' for Inactive)
ROOT
ATOM      1  C1  DEN d   1      -0.540  -3.197   1.390  0.00  0.00     0.130 A 
ATOM      2  C2  DEN d   1       0.721  -2.479   1.558  0.00  0.00    -0.031 A 
ATOM      3  C3  DEN d   1       0.407  -1.077   1.899  0.00  0.00     0.027 A 
ATOM      4  C4  DEN d   1      -1.898   0.045   2.187  0.00  0.00     0.027 A 
ATOM      5  C5  DEN d   1      -3.259  -0.157   2.133  0.00  0.00    -0.003 A 
ATOM      6  C6  DEN d   1      -3.805  -1.368   1.798  0.00  0.00     0.001 A 
ATOM      7  C7  DEN d   1      -2.985  -2.436   1.547  0.00  0.00     0.017 A 
ATOM      8  C8  DEN d   1      -1.611  -2.238   1.591  0.00  0.00    -0.094 A 
ATOM      9  C9  DEN d   1      -1.079  -1.010   1.944  0.00  0.00    -0.072 A 
ENDROOT
TORSDOF 0
ENDMDL
