MODEL 1
REMARK minimizedAffinity 1.0561049
REMARK minimizedRMSD -1
REMARK  0 active torsions:
REMARK  status: ('A' for Active; 'I' for Inactive)
ROOT
ATOM      1  C1  DEN d   1      -4.678   2.598  -1.519  0.00  0.00     0.130 A 
ATOM      2  C2  DEN d   1      -6.000   2.340  -2.085  0.00  0.00    -0.031 A 
ATOM      3  C3  DEN d   1      -5.947   2.648  -3.528  0.00  0.00     0.027 A 
ATOM      4  C4  DEN d   1      -3.956   3.491  -4.935  0.00  0.00     0.027 A 
ATOM      5  C5  DEN d   1      -2.632   3.868  -4.894  0.00  0.00    -0.003 A 
ATOM      6  C6  DEN d   1      -1.913   3.880  -3.728  0.00  0.00     0.001 A 
ATOM      7  C7  DEN d   1      -2.501   3.465  -2.563  0.00  0.00     0.017 A 
ATOM      8  C8  DEN d   1      -3.838   3.091  -2.595  0.00  0.00    -0.094 A 
ATOM      9  C9  DEN d   1      -4.545   3.074  -3.786  0.00  0.00    -0.072 A 
ENDROOT
TORSDOF 0
ENDMDL
