MODEL 1
REMARK minimizedAffinity 6.97031212
REMARK minimizedRMSD -1
REMARK  0 active torsions:
REMARK  status: ('A' for Active; 'I' for Inactive)
ROOT
ATOM      1  C1  DEN d   1       3.021  -2.402  -1.135  0.00  0.00     0.130 A 
ATOM      2  C2  DEN d   1       2.099  -2.294  -0.008  0.00  0.00    -0.031 A 
ATOM      3  C3  DEN d   1       1.986  -0.867   0.355  0.00  0.00     0.027 A 
ATOM      4  C4  DEN d   1       3.141   1.175  -0.716  0.00  0.00     0.027 A 
ATOM      5  C5  DEN d   1       4.022   1.582  -1.694  0.00  0.00    -0.003 A 
ATOM      6  C6  DEN d   1       4.651   0.694  -2.525  0.00  0.00     0.001 A 
ATOM      7  C7  DEN d   1       4.375  -0.644  -2.423  0.00  0.00     0.017 A 
ATOM      8  C8  DEN d   1       3.493  -1.063  -1.435  0.00  0.00    -0.094 A 
ATOM      9  C9  DEN d   1       2.858  -0.148  -0.613  0.00  0.00    -0.072 A 
ENDROOT
TORSDOF 0
ENDMDL
