MODEL 1
REMARK minimizedAffinity -0.188670143
REMARK minimizedRMSD -1
REMARK  0 active torsions:
REMARK  status: ('A' for Active; 'I' for Inactive)
ROOT
ATOM      1  C1  DEN d   1       1.154   2.224   0.399  0.00  0.00     0.130 A 
ATOM      2  C2  DEN d   1       1.882   2.928  -0.653  0.00  0.00    -0.031 A 
ATOM      3  C3  DEN d   1       2.541   1.919  -1.506  0.00  0.00     0.027 A 
ATOM      4  C4  DEN d   1       2.499  -0.652  -1.305  0.00  0.00     0.027 A 
ATOM      5  C5  DEN d   1       2.025  -1.713  -0.565  0.00  0.00    -0.003 A 
ATOM      6  C6  DEN d   1       1.261  -1.536   0.558  0.00  0.00     0.001 A 
ATOM      7  C7  DEN d   1       0.911  -0.271   0.948  0.00  0.00     0.017 A 
ATOM      8  C8  DEN d   1       1.392   0.804   0.212  0.00  0.00    -0.094 A 
ATOM      9  C9  DEN d   1       2.153   0.604  -0.927  0.00  0.00    -0.072 A 
ENDROOT
TORSDOF 0
ENDMDL
