MODEL 1
REMARK minimizedAffinity 5.50433969
REMARK minimizedRMSD -1
REMARK  0 active torsions:
REMARK  status: ('A' for Active; 'I' for Inactive)
ROOT
ATOM      1  C1  DEN d   1       3.080  -0.164  -1.645  0.00  0.00     0.130 A 
ATOM      2  C2  DEN d   1       3.138  -1.507  -2.214  0.00  0.00    -0.031 A 
ATOM      3  C3  DEN d   1       2.195  -2.362  -1.465  0.00  0.00     0.027 A 
ATOM      4  C4  DEN d   1       0.656  -1.738   0.509  0.00  0.00     0.027 A 
ATOM      5  C5  DEN d   1       0.267  -0.719   1.350  0.00  0.00    -0.003 A 
ATOM      6  C6  DEN d   1       0.809   0.537   1.275  0.00  0.00     0.001 A 
ATOM      7  C7  DEN d   1       1.737   0.819   0.309  0.00  0.00     0.017 A 
ATOM      8  C8  DEN d   1       2.140  -0.205  -0.539  0.00  0.00    -0.094 A 
ATOM      9  C9  DEN d   1       1.572  -1.465  -0.455  0.00  0.00    -0.072 A 
ENDROOT
TORSDOF 0
ENDMDL
