MODEL 1
REMARK minimizedAffinity -3.38709593
REMARK minimizedRMSD -1
REMARK  0 active torsions:
REMARK  status: ('A' for Active; 'I' for Inactive)
ROOT
ATOM      1  C1  DEN d   1      -4.154   2.418  -3.415  0.00  0.00     0.130 A 
ATOM      2  C2  DEN d   1      -5.106   2.703  -2.344  0.00  0.00    -0.031 A 
ATOM      3  C3  DEN d   1      -4.507   3.721  -1.459  0.00  0.00     0.027 A 
ATOM      4  C4  DEN d   1      -2.211   4.882  -1.643  0.00  0.00     0.027 A 
ATOM      5  C5  DEN d   1      -1.048   4.960  -2.377  0.00  0.00    -0.003 A 
ATOM      6  C6  DEN d   1      -0.827   4.178  -3.479  0.00  0.00     0.001 A 
ATOM      7  C7  DEN d   1      -1.801   3.315  -3.906  0.00  0.00     0.017 A 
ATOM      8  C8  DEN d   1      -2.974   3.226  -3.167  0.00  0.00    -0.094 A 
ATOM      9  C9  DEN d   1      -3.184   4.034  -2.063  0.00  0.00    -0.072 A 
ENDROOT
TORSDOF 0
ENDMDL
