MODEL 1
REMARK minimizedAffinity -0.515183926
REMARK minimizedRMSD -1
REMARK  0 active torsions:
REMARK  status: ('A' for Active; 'I' for Inactive)
ROOT
ATOM      1  C1  DEN d   1       0.805   0.707   0.986  0.00  0.00     0.130 A 
ATOM      2  C2  DEN d   1       0.310  -0.501   1.641  0.00  0.00    -0.031 A 
ATOM      3  C3  DEN d   1       1.009  -1.660   1.050  0.00  0.00     0.027 A 
ATOM      4  C4  DEN d   1       2.803  -1.701  -0.802  0.00  0.00     0.027 A 
ATOM      5  C5  DEN d   1       3.538  -0.925  -1.671  0.00  0.00    -0.003 A 
ATOM      6  C6  DEN d   1       3.389   0.435  -1.739  0.00  0.00     0.001 A 
ATOM      7  C7  DEN d   1       2.518   1.066  -0.891  0.00  0.00     0.017 A 
ATOM      8  C8  DEN d   1       1.768   0.289  -0.017  0.00  0.00    -0.094 A 
ATOM      9  C9  DEN d   1       1.942  -1.083   0.045  0.00  0.00    -0.072 A 
ENDROOT
TORSDOF 0
ENDMDL
