MODEL 1
REMARK minimizedAffinity 7.89348936
REMARK minimizedRMSD -1
REMARK  0 active torsions:
REMARK  status: ('A' for Active; 'I' for Inactive)
ROOT
ATOM      1  C1  DEN d   1       2.574   1.322  -1.127  0.00  0.00     0.130 A 
ATOM      2  C2  DEN d   1       1.906   2.289  -0.260  0.00  0.00    -0.031 A 
ATOM      3  C3  DEN d   1       1.184   1.540   0.787  0.00  0.00     0.027 A 
ATOM      4  C4  DEN d   1       1.039  -1.009   1.152  0.00  0.00     0.027 A 
ATOM      5  C5  DEN d   1       1.430  -2.237   0.665  0.00  0.00    -0.003 A 
ATOM      6  C6  DEN d   1       2.196  -2.364  -0.463  0.00  0.00     0.001 A 
ATOM      7  C7  DEN d   1       2.633  -1.243  -1.118  0.00  0.00     0.017 A 
ATOM      8  C8  DEN d   1       2.236  -0.002  -0.637  0.00  0.00    -0.094 A 
ATOM      9  C9  DEN d   1       1.472   0.107   0.512  0.00  0.00    -0.072 A 
ENDROOT
TORSDOF 0
ENDMDL
