MODEL 1
REMARK minimizedAffinity -1.62797451
REMARK minimizedRMSD -1
REMARK  0 active torsions:
REMARK  status: ('A' for Active; 'I' for Inactive)
ROOT
ATOM      1  C1  DEN d   1       1.296  -1.596   0.426  0.00  0.00     0.130 A 
ATOM      2  C2  DEN d   1       0.579  -0.434   0.943  0.00  0.00    -0.031 A 
ATOM      3  C3  DEN d   1       1.128   0.770   0.288  0.00  0.00     0.027 A 
ATOM      4  C4  DEN d   1       3.007   0.946  -1.471  0.00  0.00     0.027 A 
ATOM      5  C5  DEN d   1       3.922   0.231  -2.211  0.00  0.00    -0.003 A 
ATOM      6  C6  DEN d   1       4.049  -1.128  -2.100  0.00  0.00     0.001 A 
ATOM      7  C7  DEN d   1       3.216  -1.821  -1.262  0.00  0.00     0.017 A 
ATOM      8  C8  DEN d   1       2.295  -1.106  -0.507  0.00  0.00    -0.094 A 
ATOM      9  C9  DEN d   1       2.174   0.266  -0.643  0.00  0.00    -0.072 A 
ENDROOT
TORSDOF 0
ENDMDL
