MODEL 1
REMARK minimizedAffinity -2.06110764
REMARK minimizedRMSD -1
REMARK  0 active torsions:
REMARK  status: ('A' for Active; 'I' for Inactive)
ROOT
ATOM      1  C1  DEN d   1      -1.518  -2.127   1.026  0.00  0.00     0.130 A 
ATOM      2  C2  DEN d   1      -2.177  -1.500   2.168  0.00  0.00    -0.031 A 
ATOM      3  C3  DEN d   1      -1.219  -0.563   2.789  0.00  0.00     0.027 A 
ATOM      4  C4  DEN d   1       1.205  -0.022   2.094  0.00  0.00     0.027 A 
ATOM      5  C5  DEN d   1       2.206  -0.314   1.194  0.00  0.00    -0.003 A 
ATOM      6  C6  DEN d   1       2.049  -1.247   0.203  0.00  0.00     0.001 A 
ATOM      7  C7  DEN d   1       0.848  -1.890   0.061  0.00  0.00     0.017 A 
ATOM      8  C8  DEN d   1      -0.164  -1.607   0.970  0.00  0.00    -0.094 A 
ATOM      9  C9  DEN d   1       0.011  -0.652   1.956  0.00  0.00    -0.072 A 
ENDROOT
TORSDOF 0
ENDMDL
