MODEL 1
REMARK minimizedAffinity -1.66343462
REMARK minimizedRMSD -1
REMARK  0 active torsions:
REMARK  status: ('A' for Active; 'I' for Inactive)
ROOT
ATOM      1  C1  DEN d   1       2.720  -1.772  -1.245  0.00  0.00     0.130 A 
ATOM      2  C2  DEN d   1       3.160  -0.649  -2.067  0.00  0.00    -0.031 A 
ATOM      3  C3  DEN d   1       2.581   0.586  -1.501  0.00  0.00     0.027 A 
ATOM      4  C4  DEN d   1       1.057   0.867   0.560  0.00  0.00     0.027 A 
ATOM      5  C5  DEN d   1       0.403   0.199   1.572  0.00  0.00    -0.003 A 
ATOM      6  C6  DEN d   1       0.448  -1.165   1.695  0.00  0.00     0.001 A 
ATOM      7  C7  DEN d   1       1.198  -1.901   0.817  0.00  0.00     0.017 A 
ATOM      8  C8  DEN d   1       1.854  -1.236  -0.210  0.00  0.00    -0.094 A 
ATOM      9  C9  DEN d   1       1.807   0.145  -0.310  0.00  0.00    -0.072 A 
ENDROOT
TORSDOF 0
ENDMDL
