MODEL 1
REMARK minimizedAffinity -2.08660388
REMARK minimizedRMSD -1
REMARK  0 active torsions:
REMARK  status: ('A' for Active; 'I' for Inactive)
ROOT
ATOM      1  C1  DEN d   1      -0.106  -1.710   0.837  0.00  0.00     0.130 A 
ATOM      2  C2  DEN d   1      -0.670  -0.816   1.844  0.00  0.00    -0.031 A 
ATOM      3  C3  DEN d   1       0.061   0.465   1.778  0.00  0.00     0.027 A 
ATOM      4  C4  DEN d   1       1.998   1.149   0.218  0.00  0.00     0.027 A 
ATOM      5  C5  DEN d   1       2.827   0.722  -0.795  0.00  0.00    -0.003 A 
ATOM      6  C6  DEN d   1       2.760  -0.546  -1.308  0.00  0.00     0.001 A 
ATOM      7  C7  DEN d   1       1.814  -1.418  -0.840  0.00  0.00     0.017 A 
ATOM      8  C8  DEN d   1       0.979  -0.998   0.187  0.00  0.00    -0.094 A 
ATOM      9  C9  DEN d   1       1.054   0.292   0.684  0.00  0.00    -0.072 A 
ENDROOT
TORSDOF 0
ENDMDL
