MODEL 1
REMARK minimizedAffinity -2.42462349
REMARK minimizedRMSD -1
REMARK  0 active torsions:
REMARK  status: ('A' for Active; 'I' for Inactive)
ROOT
ATOM      1  C1  DEN d   1       2.874  -0.285  -0.661  0.00  0.00     0.130 A 
ATOM      2  C2  DEN d   1       3.164  -1.494  -1.426  0.00  0.00    -0.031 A 
ATOM      3  C3  DEN d   1       2.176  -2.523  -1.045  0.00  0.00     0.027 A 
ATOM      4  C4  DEN d   1       0.232  -2.360   0.642  0.00  0.00     0.027 A 
ATOM      5  C5  DEN d   1      -0.404  -1.538   1.545  0.00  0.00    -0.003 A 
ATOM      6  C6  DEN d   1       0.024  -0.262   1.799  0.00  0.00     0.001 A 
ATOM      7  C7  DEN d   1       1.094   0.245   1.108  0.00  0.00     0.017 A 
ATOM      8  C8  DEN d   1       1.745  -0.581   0.202  0.00  0.00    -0.094 A 
ATOM      9  C9  DEN d   1       1.289  -1.864  -0.049  0.00  0.00    -0.072 A 
ENDROOT
TORSDOF 0
ENDMDL
