MODEL 1
REMARK minimizedAffinity -1.88590002
REMARK minimizedRMSD -1
REMARK  0 active torsions:
REMARK  status: ('A' for Active; 'I' for Inactive)
ROOT
ATOM      1  C1  DEN d   1       0.065  -0.424   2.101  0.00  0.00     0.130 A 
ATOM      2  C2  DEN d   1       0.054  -1.871   2.293  0.00  0.00    -0.031 A 
ATOM      3  C3  DEN d   1       0.880  -2.479   1.231  0.00  0.00     0.027 A 
ATOM      4  C4  DEN d   1       2.174  -1.325  -0.679  0.00  0.00     0.027 A 
ATOM      5  C5  DEN d   1       2.475  -0.112  -1.258  0.00  0.00    -0.003 A 
ATOM      6  C6  DEN d   1       1.970   1.069  -0.783  0.00  0.00     0.001 A 
ATOM      7  C7  DEN d   1       1.174   1.068   0.331  0.00  0.00     0.017 A 
ATOM      8  C8  DEN d   1       0.860  -0.152   0.916  0.00  0.00    -0.094 A 
ATOM      9  C9  DEN d   1       1.390  -1.334   0.428  0.00  0.00    -0.072 A 
ENDROOT
TORSDOF 0
ENDMDL
