MODEL 1
REMARK minimizedAffinity -2.08111238
REMARK minimizedRMSD -1
REMARK  0 active torsions:
REMARK  status: ('A' for Active; 'I' for Inactive)
ROOT
ATOM      1  C1  DEN d   1       2.277  -2.105  -1.225  0.00  0.00     0.130 A 
ATOM      2  C2  DEN d   1       3.206  -1.455  -2.146  0.00  0.00    -0.031 A 
ATOM      3  C3  DEN d   1       3.254  -0.019  -1.809  0.00  0.00     0.027 A 
ATOM      4  C4  DEN d   1       1.992   1.256   0.045  0.00  0.00     0.027 A 
ATOM      5  C5  DEN d   1       1.082   1.134   1.072  0.00  0.00    -0.003 A 
ATOM      6  C6  DEN d   1       0.486  -0.060   1.381  0.00  0.00     0.001 A 
ATOM      7  C7  DEN d   1       0.827  -1.189   0.684  0.00  0.00     0.017 A 
ATOM      8  C8  DEN d   1       1.738  -1.072  -0.358  0.00  0.00    -0.094 A 
ATOM      9  C9  DEN d   1       2.339   0.141  -0.647  0.00  0.00    -0.072 A 
ENDROOT
TORSDOF 0
ENDMDL
