MODEL 1
REMARK minimizedAffinity 8.62961292
REMARK minimizedRMSD -1
REMARK  0 active torsions:
REMARK  status: ('A' for Active; 'I' for Inactive)
ROOT
ATOM      1  C   UNL d   1       6.000   4.098  -3.828  0.00  0.00     0.172 C 
ATOM      2  N   UNL d   1       5.971   2.792  -4.444  0.00  0.00    -0.070 N 
ATOM      3  C1  UNL d   1       5.911   1.597  -3.778  0.00  0.00    -0.004 A 
ATOM      4  C2  UNL d   1       5.900   0.590  -4.719  0.00  0.00    -0.047 A 
ATOM      5  C3  UNL d   1       5.956   1.202  -5.994  0.00  0.00    -0.047 A 
ATOM      6  C4  UNL d   1       5.999   2.565  -5.794  0.00  0.00    -0.004 A 
ENDROOT
TORSDOF 0
ENDMDL
