MODEL 1
REMARK minimizedAffinity 3.0579493
REMARK minimizedRMSD -1
REMARK  0 active torsions:
REMARK  status: ('A' for Active; 'I' for Inactive)
ROOT
ATOM      1  C   UNL d   1      -2.828   0.847   4.558  0.00  0.00     0.172 C 
ATOM      2  N   UNL d   1      -4.039   1.514   4.974  0.00  0.00    -0.070 N 
ATOM      3  C1  UNL d   1      -4.423   2.775   4.602  0.00  0.00    -0.004 A 
ATOM      4  C2  UNL d   1      -5.632   3.043   5.207  0.00  0.00    -0.047 A 
ATOM      5  C3  UNL d   1      -5.986   1.905   5.969  0.00  0.00    -0.047 A 
ATOM      6  C4  UNL d   1      -4.982   0.973   5.807  0.00  0.00    -0.004 A 
ENDROOT
TORSDOF 0
ENDMDL
