MODEL 1
REMARK minimizedAffinity 10.1252441
REMARK minimizedRMSD -1
REMARK  0 active torsions:
REMARK  status: ('A' for Active; 'I' for Inactive)
ROOT
ATOM      1  C   UNL d   1       6.000  -5.275   5.999  0.00  0.00     0.172 C 
ATOM      2  N   UNL d   1       5.387  -4.122   5.381  0.00  0.00    -0.070 N 
ATOM      3  C1  UNL d   1       4.917  -4.061   4.096  0.00  0.00    -0.004 A 
ATOM      4  C2  UNL d   1       4.410  -2.796   3.892  0.00  0.00    -0.047 A 
ATOM      5  C3  UNL d   1       4.583  -2.071   5.095  0.00  0.00    -0.047 A 
ATOM      6  C4  UNL d   1       5.190  -2.916   6.000  0.00  0.00    -0.004 A 
ENDROOT
TORSDOF 0
ENDMDL
