MODEL 1
REMARK minimizedAffinity -2.48634195
REMARK minimizedRMSD -1
REMARK  0 active torsions:
REMARK  status: ('A' for Active; 'I' for Inactive)
ROOT
ATOM      1  C   UNL d   1       2.419  -2.252   5.999  0.00  0.00     0.172 C 
ATOM      2  N   UNL d   1       3.606  -2.764   5.356  0.00  0.00    -0.070 N 
ATOM      3  C1  UNL d   1       4.039  -4.063   5.397  0.00  0.00    -0.004 A 
ATOM      4  C2  UNL d   1       5.201  -4.143   4.660  0.00  0.00    -0.047 A 
ATOM      5  C3  UNL d   1       5.477  -2.848   4.161  0.00  0.00    -0.047 A 
ATOM      6  C4  UNL d   1       4.473  -2.014   4.606  0.00  0.00    -0.004 A 
ENDROOT
TORSDOF 0
ENDMDL
