MODEL 1
REMARK minimizedAffinity 3.68180346
REMARK minimizedRMSD -1
REMARK  0 active torsions:
REMARK  status: ('A' for Active; 'I' for Inactive)
ROOT
ATOM      1  C   UNL d   1       4.862  -3.797  -5.996  0.00  0.00     0.172 C 
ATOM      2  N   UNL d   1       5.070  -2.836  -4.939  0.00  0.00    -0.070 N 
ATOM      3  C1  UNL d   1       5.950  -2.971  -3.898  0.00  0.00    -0.004 A 
ATOM      4  C2  UNL d   1       5.849  -1.844  -3.111  0.00  0.00    -0.047 A 
ATOM      5  C3  UNL d   1       4.874  -1.003  -3.698  0.00  0.00    -0.047 A 
ATOM      6  C4  UNL d   1       4.408  -1.641  -4.828  0.00  0.00    -0.004 A 
ENDROOT
TORSDOF 0
ENDMDL
