MODEL 1
REMARK minimizedAffinity 1.34003413
REMARK minimizedRMSD -1
REMARK  0 active torsions:
REMARK  status: ('A' for Active; 'I' for Inactive)
ROOT
ATOM      1  C   UNL d   1       3.747  -1.873   4.330  0.00  0.00     0.172 C 
ATOM      2  N   UNL d   1       4.425  -3.021   4.887  0.00  0.00    -0.070 N 
ATOM      3  C1  UNL d   1       5.740  -3.065   5.265  0.00  0.00    -0.004 A 
ATOM      4  C2  UNL d   1       5.999  -4.331   5.744  0.00  0.00    -0.047 A 
ATOM      5  C3  UNL d   1       4.798  -5.073   5.650  0.00  0.00    -0.047 A 
ATOM      6  C4  UNL d   1       3.840  -4.238   5.116  0.00  0.00    -0.004 A 
ENDROOT
TORSDOF 0
ENDMDL
