MODEL 1
REMARK minimizedAffinity -0.684611499
REMARK minimizedRMSD -1
REMARK  0 active torsions:
REMARK  status: ('A' for Active; 'I' for Inactive)
ROOT
ATOM      1  C   UNL d   1       5.559  -1.897  -3.552  0.00  0.00     0.172 C 
ATOM      2  N   UNL d   1       5.001  -2.890  -4.439  0.00  0.00    -0.070 N 
ATOM      3  C1  UNL d   1       3.679  -3.239  -4.518  0.00  0.00    -0.004 A 
ATOM      4  C2  UNL d   1       3.557  -4.217  -5.481  0.00  0.00    -0.047 A 
ATOM      5  C3  UNL d   1       4.850  -4.465  -5.999  0.00  0.00    -0.047 A 
ATOM      6  C4  UNL d   1       5.725  -3.631  -5.336  0.00  0.00    -0.004 A 
ENDROOT
TORSDOF 0
ENDMDL
