MODEL 1
REMARK minimizedAffinity 11.1201487
REMARK minimizedRMSD -1
REMARK  0 active torsions:
REMARK  status: ('A' for Active; 'I' for Inactive)
ROOT
ATOM      1  C   UNL d   1      -2.286  -5.384  -4.584  0.00  0.00     0.172 C 
ATOM      2  N   UNL d   1      -3.699  -5.420  -4.879  0.00  0.00    -0.070 N 
ATOM      3  C1  UNL d   1      -4.692  -4.894  -4.097  0.00  0.00    -0.004 A 
ATOM      4  C2  UNL d   1      -5.896  -5.134  -4.725  0.00  0.00    -0.047 A 
ATOM      5  C3  UNL d   1      -5.616  -5.830  -5.925  0.00  0.00    -0.047 A 
ATOM      6  C4  UNL d   1      -4.249  -5.994  -5.995  0.00  0.00    -0.004 A 
ENDROOT
TORSDOF 0
ENDMDL
