MODEL 1
REMARK minimizedAffinity -1.07777274
REMARK minimizedRMSD -1
REMARK  0 active torsions:
REMARK  status: ('A' for Active; 'I' for Inactive)
ROOT
ATOM      1  C   UNL d   1       4.880  -1.877  -3.402  0.00  0.00     0.172 C 
ATOM      2  N   UNL d   1       5.005  -2.990  -4.314  0.00  0.00    -0.070 N 
ATOM      3  C1  UNL d   1       5.999  -3.931  -4.294  0.00  0.00    -0.004 A 
ATOM      4  C2  UNL d   1       5.761  -4.819  -5.320  0.00  0.00    -0.047 A 
ATOM      5  C3  UNL d   1       4.583  -4.397  -5.981  0.00  0.00    -0.047 A 
ATOM      6  C4  UNL d   1       4.136  -3.262  -5.337  0.00  0.00    -0.004 A 
ENDROOT
TORSDOF 0
ENDMDL
