MODEL 1
REMARK minimizedAffinity 1.77204573
REMARK minimizedRMSD -1
REMARK  0 active torsions:
REMARK  status: ('A' for Active; 'I' for Inactive)
ROOT
ATOM      1  C   UNL d   1       3.062  -2.810  -4.245  0.00  0.00     0.172 C 
ATOM      2  N   UNL d   1       4.247  -3.493  -4.709  0.00  0.00    -0.070 N 
ATOM      3  C1  UNL d   1       4.935  -4.456  -4.020  0.00  0.00    -0.004 A 
ATOM      4  C2  UNL d   1       5.999  -4.855  -4.800  0.00  0.00    -0.047 A 
ATOM      5  C3  UNL d   1       5.948  -4.106  -6.000  0.00  0.00    -0.047 A 
ATOM      6  C4  UNL d   1       4.854  -3.271  -5.917  0.00  0.00    -0.004 A 
ENDROOT
TORSDOF 0
ENDMDL
