MODEL 1
REMARK minimizedAffinity 7.39345264
REMARK minimizedRMSD -1
REMARK  0 active torsions:
REMARK  status: ('A' for Active; 'I' for Inactive)
ROOT
ATOM      1  C   UNL d   1      -4.101  -3.140   6.000  0.00  0.00     0.172 C 
ATOM      2  N   UNL d   1      -3.379  -2.136   5.254  0.00  0.00    -0.070 N 
ATOM      3  C1  UNL d   1      -3.297  -0.808   5.577  0.00  0.00    -0.004 A 
ATOM      4  C2  UNL d   1      -2.521  -0.189   4.620  0.00  0.00    -0.047 A 
ATOM      5  C3  UNL d   1      -2.125  -1.179   3.690  0.00  0.00    -0.047 A 
ATOM      6  C4  UNL d   1      -2.670  -2.375   4.106  0.00  0.00    -0.004 A 
ENDROOT
TORSDOF 0
ENDMDL
