MODEL 1
REMARK minimizedAffinity -1.85615134
REMARK minimizedRMSD -1
REMARK  0 active torsions:
REMARK  status: ('A' for Active; 'I' for Inactive)
ROOT
ATOM      1  C   UNL d   1       2.520   5.259  -3.281  0.00  0.00     0.172 C 
ATOM      2  N   UNL d   1       3.932   5.123  -3.013  0.00  0.00    -0.070 N 
ATOM      3  C1  UNL d   1       4.692   5.994  -2.279  0.00  0.00    -0.004 A 
ATOM      4  C2  UNL d   1       5.983   5.513  -2.257  0.00  0.00    -0.047 A 
ATOM      5  C3  UNL d   1       6.000   4.311  -3.004  0.00  0.00    -0.047 A 
ATOM      6  C4  UNL d   1       4.717   4.094  -3.461  0.00  0.00    -0.004 A 
ENDROOT
TORSDOF 0
ENDMDL
