MODEL 1
REMARK minimizedAffinity 0.281032175
REMARK minimizedRMSD -1
REMARK  0 active torsions:
REMARK  status: ('A' for Active; 'I' for Inactive)
ROOT
ATOM      1  C   UNL d   1       0.179  -2.573  -2.658  0.00  0.00     0.172 C 
ATOM      2  N   UNL d   1      -0.809  -2.647  -1.608  0.00  0.00    -0.070 N 
ATOM      3  C1  UNL d   1      -0.544  -2.714  -0.266  0.00  0.00    -0.004 A 
ATOM      4  C2  UNL d   1      -1.749  -2.771   0.400  0.00  0.00    -0.047 A 
ATOM      5  C3  UNL d   1      -2.774  -2.739  -0.575  0.00  0.00    -0.047 A 
ATOM      6  C4  UNL d   1      -2.164  -2.662  -1.809  0.00  0.00    -0.004 A 
ENDROOT
TORSDOF 0
ENDMDL
