MODEL 1
REMARK minimizedAffinity -2.02079582
REMARK minimizedRMSD -1
REMARK  0 active torsions:
REMARK  status: ('A' for Active; 'I' for Inactive)
ROOT
ATOM      1  C   UNL d   1      -1.387   0.033   1.335  0.00  0.00     0.172 C 
ATOM      2  N   UNL d   1      -0.423   0.204   0.274  0.00  0.00    -0.070 N 
ATOM      3  C1  UNL d   1       0.456  -0.750  -0.167  0.00  0.00    -0.004 A 
ATOM      4  C2  UNL d   1       1.201  -0.197  -1.187  0.00  0.00    -0.047 A 
ATOM      5  C3  UNL d   1       0.755   1.134  -1.364  0.00  0.00    -0.047 A 
ATOM      6  C4  UNL d   1      -0.250   1.356  -0.447  0.00  0.00    -0.004 A 
ENDROOT
TORSDOF 0
ENDMDL
