MODEL 1
REMARK minimizedAffinity 8.88930607
REMARK minimizedRMSD -1
REMARK  1 active torsions:
REMARK  status: ('A' for Active; 'I' for Inactive)
REMARK    1  A    between atoms: C1_2  and  C2_3 
ROOT
ATOM      1  C2  UNL d   1       0.005  -4.465  -0.879  0.00  0.00    -0.081 A 
ATOM      2  C3  UNL d   1       0.059  -4.495  -2.278  0.00  0.00     0.006 A 
ATOM      3  C4  UNL d   1       1.201  -4.962  -2.933  0.00  0.00     0.002 A 
ATOM      4  C5  UNL d   1       2.304  -5.413  -2.201  0.00  0.00    -0.080 A 
ATOM      5  C6  UNL d   1       3.525  -5.945  -2.891  0.00  0.00     0.076 C 
ATOM      6  C7  UNL d   1       2.258  -5.367  -0.803  0.00  0.00     0.002 A 
ATOM      7  C8  UNL d   1       1.116  -4.899  -0.148  0.00  0.00     0.006 A 
ENDROOT
BRANCH   1   8
ATOM      8  C1  UNL d   1      -1.249  -4.022  -0.169  0.00  0.00     0.054 C 
ATOM      9  C   UNL d   1      -2.259  -5.157  -0.072  0.00  0.00     0.018 C 
ENDBRANCH   1   8
TORSDOF 1
ENDMDL
