MODEL 1
REMARK minimizedAffinity 2.42436147
REMARK minimizedRMSD -1
REMARK  1 active torsions:
REMARK  status: ('A' for Active; 'I' for Inactive)
REMARK    1  A    between atoms: C1_2  and  C2_3 
ROOT
ATOM      1  C2  UNL d   1       2.283  -2.003   1.942  0.00  0.00    -0.081 A 
ATOM      2  C3  UNL d   1       1.400  -1.260   2.735  0.00  0.00     0.006 A 
ATOM      3  C4  UNL d   1       1.119  -1.657   4.044  0.00  0.00     0.002 A 
ATOM      4  C5  UNL d   1       1.723  -2.797   4.585  0.00  0.00    -0.080 A 
ATOM      5  C6  UNL d   1       1.453  -3.217   5.999  0.00  0.00     0.076 C 
ATOM      6  C7  UNL d   1       2.592  -3.549   3.787  0.00  0.00     0.002 A 
ATOM      7  C8  UNL d   1       2.872  -3.153   2.477  0.00  0.00     0.006 A 
ENDROOT
BRANCH   1   8
ATOM      8  C1  UNL d   1       2.638  -1.541   0.551  0.00  0.00     0.054 C 
ATOM      9  C   UNL d   1       3.909  -2.213   0.052  0.00  0.00     0.018 C 
ENDBRANCH   1   8
TORSDOF 1
ENDMDL
