MODEL 1
REMARK minimizedAffinity 16.8684521
REMARK minimizedRMSD -1
REMARK  1 active torsions:
REMARK  status: ('A' for Active; 'I' for Inactive)
REMARK    1  A    between atoms: C1_2  and  C2_3 
ROOT
ATOM      1  C2  UNL d   1      -3.994   3.546  -1.748  0.00  0.00    -0.081 A 
ATOM      2  C3  UNL d   1      -3.998   4.626  -2.639  0.00  0.00     0.006 A 
ATOM      3  C4  UNL d   1      -3.893   4.409  -4.014  0.00  0.00     0.002 A 
ATOM      4  C5  UNL d   1      -3.789   3.110  -4.523  0.00  0.00    -0.080 A 
ATOM      5  C6  UNL d   1      -3.706   2.862  -6.000  0.00  0.00     0.076 C 
ATOM      6  C7  UNL d   1      -3.767   2.032  -3.632  0.00  0.00     0.002 A 
ATOM      7  C8  UNL d   1      -3.872   2.248  -2.256  0.00  0.00     0.006 A 
ENDROOT
BRANCH   1   8
ATOM      8  C1  UNL d   1      -4.173   3.772  -0.268  0.00  0.00     0.054 C 
ATOM      9  C   UNL d   1      -5.629   3.613   0.144  0.00  0.00     0.018 C 
ENDBRANCH   1   8
TORSDOF 1
ENDMDL
