MODEL 1
REMARK minimizedAffinity 8.47589874
REMARK minimizedRMSD -1
REMARK  1 active torsions:
REMARK  status: ('A' for Active; 'I' for Inactive)
REMARK    1  A    between atoms: C1_2  and  C2_3 
ROOT
ATOM      1  C2  UNL d   1       2.658  -3.663   1.621  0.00  0.00    -0.081 A 
ATOM      2  C3  UNL d   1       1.666  -3.238   2.515  0.00  0.00     0.006 A 
ATOM      3  C4  UNL d   1       1.247  -1.906   2.525  0.00  0.00     0.002 A 
ATOM      4  C5  UNL d   1       1.805  -0.979   1.639  0.00  0.00    -0.080 A 
ATOM      5  C6  UNL d   1       1.342   0.448   1.619  0.00  0.00     0.076 C 
ATOM      6  C7  UNL d   1       2.807  -1.399   0.758  0.00  0.00     0.002 A 
ATOM      7  C8  UNL d   1       3.228  -2.731   0.748  0.00  0.00     0.006 A 
ENDROOT
BRANCH   1   8
ATOM      8  C1  UNL d   1       3.066  -5.113   1.563  0.00  0.00     0.054 C 
ATOM      9  C   UNL d   1       2.073  -5.998   2.301  0.00  0.00     0.018 C 
ENDBRANCH   1   8
TORSDOF 1
ENDMDL
