MODEL 1
REMARK minimizedAffinity 9.71826267
REMARK minimizedRMSD -1
REMARK  1 active torsions:
REMARK  status: ('A' for Active; 'I' for Inactive)
REMARK    1  A    between atoms: C1_2  and  C2_3 
ROOT
ATOM      1  C2  UNL d   1       1.582  -5.173  -1.768  0.00  0.00    -0.081 A 
ATOM      2  C3  UNL d   1       1.506  -5.524  -0.415  0.00  0.00     0.006 A 
ATOM      3  C4  UNL d   1       0.300  -5.410   0.280  0.00  0.00     0.002 A 
ATOM      4  C5  UNL d   1      -0.852  -4.951  -0.368  0.00  0.00    -0.080 A 
ATOM      5  C6  UNL d   1      -2.160  -4.852   0.359  0.00  0.00     0.076 C 
ATOM      6  C7  UNL d   1      -0.772  -4.583  -1.715  0.00  0.00     0.002 A 
ATOM      7  C8  UNL d   1       0.434  -4.696  -2.411  0.00  0.00     0.006 A 
ENDROOT
BRANCH   1   8
ATOM      8  C1  UNL d   1       2.866  -5.356  -2.537  0.00  0.00     0.054 C 
ATOM      9  C   UNL d   1       3.355  -4.037  -3.118  0.00  0.00     0.018 C 
ENDBRANCH   1   8
TORSDOF 1
ENDMDL
