MODEL 1
REMARK minimizedAffinity 6.85077572
REMARK minimizedRMSD -1
REMARK  1 active torsions:
REMARK  status: ('A' for Active; 'I' for Inactive)
REMARK    1  A    between atoms: C1_2  and  C2_3 
ROOT
ATOM      1  C2  UNL d   1       1.926  -1.900   1.925  0.00  0.00    -0.081 A 
ATOM      2  C3  UNL d   1       2.266  -3.194   2.340  0.00  0.00     0.006 A 
ATOM      3  C4  UNL d   1       2.052  -3.594   3.660  0.00  0.00     0.002 A 
ATOM      4  C5  UNL d   1       1.486  -2.711   4.587  0.00  0.00    -0.080 A 
ATOM      5  C6  UNL d   1       1.222  -3.138   6.000  0.00  0.00     0.076 C 
ATOM      6  C7  UNL d   1       1.161  -1.413   4.177  0.00  0.00     0.002 A 
ATOM      7  C8  UNL d   1       1.377  -1.012   2.857  0.00  0.00     0.006 A 
ENDROOT
BRANCH   1   8
ATOM      8  C1  UNL d   1       2.096  -1.486   0.486  0.00  0.00     0.054 C 
ATOM      9  C   UNL d   1       3.491  -1.818  -0.023  0.00  0.00     0.018 C 
ENDBRANCH   1   8
TORSDOF 1
ENDMDL
