MODEL 1
REMARK minimizedAffinity 7.73145247
REMARK minimizedRMSD -1
REMARK  1 active torsions:
REMARK  status: ('A' for Active; 'I' for Inactive)
REMARK    1  A    between atoms: C1_2  and  C2_3 
ROOT
ATOM      1  C2  UNL d   1       0.598  -3.402   1.209  0.00  0.00    -0.081 A 
ATOM      2  C3  UNL d   1      -0.704  -2.901   1.087  0.00  0.00     0.006 A 
ATOM      3  C4  UNL d   1      -1.740  -3.723   0.638  0.00  0.00     0.002 A 
ATOM      4  C5  UNL d   1      -1.495  -5.061   0.313  0.00  0.00    -0.080 A 
ATOM      5  C6  UNL d   1      -2.604  -5.962  -0.140  0.00  0.00     0.076 C 
ATOM      6  C7  UNL d   1      -0.191  -5.558   0.419  0.00  0.00     0.002 A 
ATOM      7  C8  UNL d   1       0.846  -4.736   0.867  0.00  0.00     0.006 A 
ENDROOT
BRANCH   1   8
ATOM      8  C1  UNL d   1       1.705  -2.536   1.754  0.00  0.00     0.054 C 
ATOM      9  C   UNL d   1       1.187  -1.163   2.155  0.00  0.00     0.018 C 
ENDBRANCH   1   8
TORSDOF 1
ENDMDL
