MODEL 1
REMARK minimizedAffinity 3.63906384
REMARK minimizedRMSD -1
REMARK  1 active torsions:
REMARK  status: ('A' for Active; 'I' for Inactive)
REMARK    1  A    between atoms: C1_2  and  C2_3 
ROOT
ATOM      1  C2  UNL d   1      -0.754  -1.819  -2.325  0.00  0.00    -0.076 A 
ATOM      2  C3  UNL d   1       0.365  -1.480  -3.105  0.00  0.00     0.004 A 
ATOM      3  C4  UNL d   1       1.048  -2.448  -3.839  0.00  0.00    -0.003 A 
ATOM      4  C5  UNL d   1       0.623  -3.771  -3.805  0.00  0.00     0.000 A 
ATOM      5  C6  UNL d   1      -0.496  -4.123  -3.050  0.00  0.00     0.000 A 
ATOM      6  C7  UNL d   1      -1.205  -3.156  -2.318  0.00  0.00    -0.073 A 
ATOM      7  C8  UNL d   1      -2.401  -3.592  -1.516  0.00  0.00     0.078 C 
ENDROOT
BRANCH   1   8
ATOM      8  C1  UNL d   1      -1.438  -0.731  -1.529  0.00  0.00     0.053 C 
ATOM      9  C   UNL d   1      -0.450   0.206  -0.852  0.00  0.00     0.018 C 
ENDBRANCH   1   8
TORSDOF 1
ENDMDL
