MODEL 1
REMARK minimizedAffinity -1.1223352
REMARK minimizedRMSD -1
REMARK  1 active torsions:
REMARK  status: ('A' for Active; 'I' for Inactive)
REMARK    1  A    between atoms: C1_2  and  C2_3 
ROOT
ATOM      1  C2  UNL d   1      -1.458   4.625  -5.935  0.00  0.00    -0.076 A 
ATOM      2  C3  UNL d   1      -0.073   4.863  -5.932  0.00  0.00     0.004 A 
ATOM      3  C4  UNL d   1       0.837   3.807  -5.940  0.00  0.00    -0.003 A 
ATOM      4  C5  UNL d   1       0.375   2.495  -5.952  0.00  0.00     0.000 A 
ATOM      5  C6  UNL d   1      -0.996   2.241  -5.973  0.00  0.00     0.000 A 
ATOM      6  C7  UNL d   1      -1.926   3.294  -5.981  0.00  0.00    -0.073 A 
ATOM      7  C8  UNL d   1      -3.393   2.962  -5.998  0.00  0.00     0.078 C 
ENDROOT
BRANCH   1   8
ATOM      8  C1  UNL d   1      -2.397   5.810  -5.898  0.00  0.00     0.053 C 
ATOM      9  C   UNL d   1      -3.042   6.000  -4.534  0.00  0.00     0.018 C 
ENDBRANCH   1   8
TORSDOF 1
ENDMDL
