MODEL 1
REMARK minimizedAffinity 0.598327398
REMARK minimizedRMSD -1
REMARK  1 active torsions:
REMARK  status: ('A' for Active; 'I' for Inactive)
REMARK    1  A    between atoms: C1_2  and  C2_3 
ROOT
ATOM      1  C2  UNL d   1      -0.549   4.906  -5.961  0.00  0.00    -0.076 A 
ATOM      2  C3  UNL d   1       0.799   5.306  -5.980  0.00  0.00     0.004 A 
ATOM      3  C4  UNL d   1       1.826   4.364  -5.999  0.00  0.00    -0.003 A 
ATOM      4  C5  UNL d   1       1.523   3.007  -6.000  0.00  0.00     0.000 A 
ATOM      5  C6  UNL d   1       0.191   2.593  -5.999  0.00  0.00     0.000 A 
ATOM      6  C7  UNL d   1      -0.857   3.529  -5.997  0.00  0.00    -0.073 A 
ATOM      7  C8  UNL d   1      -2.274   3.027  -5.990  0.00  0.00     0.078 C 
ENDROOT
BRANCH   1   8
ATOM      8  C1  UNL d   1      -1.619   5.973  -5.913  0.00  0.00     0.053 C 
ATOM      9  C   UNL d   1      -2.371   5.984  -4.591  0.00  0.00     0.018 C 
ENDBRANCH   1   8
TORSDOF 1
ENDMDL
