MODEL 1
REMARK minimizedAffinity 0.107985348
REMARK minimizedRMSD -1
REMARK  1 active torsions:
REMARK  status: ('A' for Active; 'I' for Inactive)
REMARK    1  A    between atoms: C1_2  and  C2_3 
ROOT
ATOM      1  C2  UNL d   1       1.240   3.545  -5.982  0.00  0.00    -0.076 A 
ATOM      2  C3  UNL d   1       2.536   3.002  -5.969  0.00  0.00     0.004 A 
ATOM      3  C4  UNL d   1       3.660   3.826  -5.979  0.00  0.00    -0.003 A 
ATOM      4  C5  UNL d   1       3.505   5.208  -6.000  0.00  0.00     0.000 A 
ATOM      5  C6  UNL d   1       2.227   5.764  -5.995  0.00  0.00     0.000 A 
ATOM      6  C7  UNL d   1       1.083   4.947  -5.969  0.00  0.00    -0.073 A 
ATOM      7  C8  UNL d   1      -0.271   5.601  -5.971  0.00  0.00     0.078 C 
ENDROOT
BRANCH   1   8
ATOM      8  C1  UNL d   1       0.059   2.601  -5.999  0.00  0.00     0.053 C 
ATOM      9  C   UNL d   1      -1.274   3.333  -5.964  0.00  0.00     0.018 C 
ENDBRANCH   1   8
TORSDOF 1
ENDMDL
