MODEL 1
REMARK minimizedAffinity 3.8079288
REMARK minimizedRMSD -1
REMARK  1 active torsions:
REMARK  status: ('A' for Active; 'I' for Inactive)
REMARK    1  A    between atoms: C1_2  and  C2_3 
ROOT
ATOM      1  C2  UNL d   1       0.499   4.807  -5.928  0.00  0.00    -0.076 A 
ATOM      2  C3  UNL d   1      -0.421   5.869  -5.894  0.00  0.00     0.004 A 
ATOM      3  C4  UNL d   1      -1.794   5.630  -5.915  0.00  0.00    -0.003 A 
ATOM      4  C5  UNL d   1      -2.270   4.325  -5.970  0.00  0.00     0.000 A 
ATOM      5  C6  UNL d   1      -1.372   3.258  -5.987  0.00  0.00     0.000 A 
ATOM      6  C7  UNL d   1       0.015   3.481  -5.950  0.00  0.00    -0.073 A 
ATOM      7  C8  UNL d   1       0.938   2.293  -5.976  0.00  0.00     0.078 C 
ENDROOT
BRANCH   1   8
ATOM      8  C1  UNL d   1       1.976   5.128  -5.931  0.00  0.00     0.053 C 
ATOM      9  C   UNL d   1       2.844   3.879  -5.988  0.00  0.00     0.018 C 
ENDBRANCH   1   8
TORSDOF 1
ENDMDL
