MODEL 1
REMARK minimizedAffinity 2.02916884
REMARK minimizedRMSD -1
REMARK  1 active torsions:
REMARK  status: ('A' for Active; 'I' for Inactive)
REMARK    1  A    between atoms: C1_2  and  C2_3 
ROOT
ATOM      1  C2  UNL d   1       3.545   3.810  -5.395  0.00  0.00    -0.076 A 
ATOM      2  C3  UNL d   1       2.331   3.102  -5.372  0.00  0.00     0.004 A 
ATOM      3  C4  UNL d   1       1.122   3.742  -5.642  0.00  0.00    -0.003 A 
ATOM      4  C5  UNL d   1       1.109   5.099  -5.941  0.00  0.00     0.000 A 
ATOM      5  C6  UNL d   1       2.306   5.813  -5.986  0.00  0.00     0.000 A 
ATOM      6  C7  UNL d   1       3.534   5.180  -5.732  0.00  0.00    -0.073 A 
ATOM      7  C8  UNL d   1       4.794   6.000  -5.789  0.00  0.00     0.078 C 
ENDROOT
BRANCH   1   8
ATOM      8  C1  UNL d   1       4.822   3.069  -5.067  0.00  0.00     0.053 C 
ATOM      9  C   UNL d   1       5.885   3.977  -4.470  0.00  0.00     0.018 C 
ENDBRANCH   1   8
TORSDOF 1
ENDMDL
