MODEL 1
REMARK minimizedAffinity -1.96444798
REMARK minimizedRMSD -1
REMARK  1 active torsions:
REMARK  status: ('A' for Active; 'I' for Inactive)
REMARK    1  A    between atoms: C1_2  and  C2_3 
ROOT
ATOM      1  C2  UNL d   1      -0.068   3.021  -5.981  0.00  0.00    -0.076 A 
ATOM      2  C3  UNL d   1      -1.313   2.366  -5.999  0.00  0.00     0.004 A 
ATOM      3  C4  UNL d   1      -2.504   3.090  -6.000  0.00  0.00    -0.003 A 
ATOM      4  C5  UNL d   1      -2.470   4.480  -5.984  0.00  0.00     0.000 A 
ATOM      5  C6  UNL d   1      -1.245   5.146  -5.985  0.00  0.00     0.000 A 
ATOM      6  C7  UNL d   1      -0.035   4.431  -6.000  0.00  0.00    -0.073 A 
ATOM      7  C8  UNL d   1       1.258   5.201  -5.994  0.00  0.00     0.078 C 
ENDROOT
BRANCH   1   8
ATOM      8  C1  UNL d   1       1.190   2.183  -5.953  0.00  0.00     0.053 C 
ATOM      9  C   UNL d   1       2.454   3.028  -5.999  0.00  0.00     0.018 C 
ENDBRANCH   1   8
TORSDOF 1
ENDMDL
