MODEL 1
REMARK minimizedAffinity 2.46915722
REMARK minimizedRMSD -1
REMARK  1 active torsions:
REMARK  status: ('A' for Active; 'I' for Inactive)
REMARK    1  A    between atoms: C1_2  and  C2_3 
ROOT
ATOM      1  C2  UNL d   1       0.728   3.616  -5.983  0.00  0.00    -0.076 A 
ATOM      2  C3  UNL d   1       1.920   2.870  -5.965  0.00  0.00     0.004 A 
ATOM      3  C4  UNL d   1       3.162   3.503  -5.974  0.00  0.00    -0.003 A 
ATOM      4  C5  UNL d   1       3.233   4.891  -6.000  0.00  0.00     0.000 A 
ATOM      5  C6  UNL d   1       2.061   5.647  -5.999  0.00  0.00     0.000 A 
ATOM      6  C7  UNL d   1       0.800   5.025  -5.974  0.00  0.00    -0.073 A 
ATOM      7  C8  UNL d   1      -0.431   5.889  -5.981  0.00  0.00     0.078 C 
ENDROOT
BRANCH   1   8
ATOM      8  C1  UNL d   1      -0.589   2.874  -6.000  0.00  0.00     0.053 C 
ATOM      9  C   UNL d   1      -1.786   3.810  -5.920  0.00  0.00     0.018 C 
ENDBRANCH   1   8
TORSDOF 1
ENDMDL
