MODEL 1
REMARK minimizedAffinity -1.08739913
REMARK minimizedRMSD -1
REMARK  1 active torsions:
REMARK  status: ('A' for Active; 'I' for Inactive)
REMARK    1  A    between atoms: C1_2  and  C2_3 
ROOT
ATOM      1  C2  UNL d   1      -0.002   3.759  -5.981  0.00  0.00    -0.076 A 
ATOM      2  C3  UNL d   1      -1.012   4.737  -5.961  0.00  0.00     0.004 A 
ATOM      3  C4  UNL d   1      -2.359   4.378  -5.969  0.00  0.00    -0.003 A 
ATOM      4  C5  UNL d   1      -2.718   3.035  -5.997  0.00  0.00     0.000 A 
ATOM      5  C6  UNL d   1      -1.730   2.051  -5.999  0.00  0.00     0.000 A 
ATOM      6  C7  UNL d   1      -0.367   2.395  -5.975  0.00  0.00    -0.073 A 
ATOM      7  C8  UNL d   1       0.657   1.293  -5.985  0.00  0.00     0.078 C 
ENDROOT
BRANCH   1   8
ATOM      8  C1  UNL d   1       1.441   4.208  -5.999  0.00  0.00     0.053 C 
ATOM      9  C   UNL d   1       2.339   3.320  -5.151  0.00  0.00     0.018 C 
ENDBRANCH   1   8
TORSDOF 1
ENDMDL
