MODEL 1
REMARK minimizedAffinity 0.253312409
REMARK minimizedRMSD -1
REMARK  1 active torsions:
REMARK  status: ('A' for Active; 'I' for Inactive)
REMARK    1  A    between atoms: C1_2  and  C2_3 
ROOT
ATOM      1  C2  UNL d   1       0.924   2.801  -5.936  0.00  0.00    -0.076 A 
ATOM      2  C3  UNL d   1       2.201   2.213  -5.895  0.00  0.00     0.004 A 
ATOM      3  C4  UNL d   1       3.353   2.998  -5.916  0.00  0.00    -0.003 A 
ATOM      4  C5  UNL d   1       3.246   4.383  -5.976  0.00  0.00     0.000 A 
ATOM      5  C6  UNL d   1       1.988   4.984  -5.999  0.00  0.00     0.000 A 
ATOM      6  C7  UNL d   1       0.817   4.208  -5.963  0.00  0.00    -0.073 A 
ATOM      7  C8  UNL d   1      -0.514   4.907  -5.996  0.00  0.00     0.078 C 
ENDROOT
BRANCH   1   8
ATOM      8  C1  UNL d   1      -0.289   1.898  -5.939  0.00  0.00     0.053 C 
ATOM      9  C   UNL d   1      -1.594   2.676  -5.984  0.00  0.00     0.018 C 
ENDBRANCH   1   8
TORSDOF 1
ENDMDL
