MODEL 1
REMARK minimizedAffinity 3.62134004
REMARK minimizedRMSD -1
REMARK  1 active torsions:
REMARK  status: ('A' for Active; 'I' for Inactive)
REMARK    1  A    between atoms: C1_2  and  C2_3 
ROOT
ATOM      1  C2  UNL d   1      -1.836   4.383  -5.981  0.00  0.00    -0.076 A 
ATOM      2  C3  UNL d   1      -2.296   5.711  -5.960  0.00  0.00     0.004 A 
ATOM      3  C4  UNL d   1      -3.660   5.998  -5.967  0.00  0.00    -0.003 A 
ATOM      4  C5  UNL d   1      -4.586   4.961  -5.996  0.00  0.00     0.000 A 
ATOM      5  C6  UNL d   1      -4.148   3.638  -6.000  0.00  0.00     0.000 A 
ATOM      6  C7  UNL d   1      -2.776   3.331  -5.976  0.00  0.00    -0.073 A 
ATOM      7  C8  UNL d   1      -2.360   1.885  -5.988  0.00  0.00     0.078 C 
ENDROOT
BRANCH   1   8
ATOM      8  C1  UNL d   1      -0.345   4.133  -6.000  0.00  0.00     0.053 C 
ATOM      9  C   UNL d   1       0.172   3.596  -4.674  0.00  0.00     0.018 C 
ENDBRANCH   1   8
TORSDOF 1
ENDMDL
