MODEL 1
REMARK minimizedAffinity -5.17231894
REMARK minimizedRMSD -1
REMARK  1 active torsions:
REMARK  status: ('A' for Active; 'I' for Inactive)
REMARK    1  A    between atoms: C1_2  and  C2_3 
ROOT
ATOM      1  C2  UNL d   1       0.197   0.223  -0.389  0.00  0.00    -0.073 A 
ATOM      2  C3  UNL d   1       0.414  -1.107  -0.766  0.00  0.00    -0.002 A 
ATOM      3  C4  UNL d   1       0.834  -1.413  -2.062  0.00  0.00     0.004 A 
ATOM      4  C5  UNL d   1       1.047  -0.394  -2.990  0.00  0.00    -0.004 A 
ATOM      5  C6  UNL d   1       0.847   0.942  -2.629  0.00  0.00    -0.075 A 
ATOM      6  C7  UNL d   1       1.070   2.050  -3.616  0.00  0.00     0.076 C 
ATOM      7  C8  UNL d   1       0.423   1.241  -1.327  0.00  0.00     0.001 A 
ENDROOT
BRANCH   1   8
ATOM      8  C1  UNL d   1      -0.249   0.559   1.010  0.00  0.00     0.053 C 
ATOM      9  C   UNL d   1      -1.751   0.784   1.091  0.00  0.00     0.018 C 
ENDBRANCH   1   8
TORSDOF 1
ENDMDL
