MODEL 1
REMARK minimizedAffinity -5.2323451
REMARK minimizedRMSD -1
REMARK  1 active torsions:
REMARK  status: ('A' for Active; 'I' for Inactive)
REMARK    1  A    between atoms: C1_2  and  C2_3 
ROOT
ATOM      1  C2  UNL d   1       0.119   0.045   0.021  0.00  0.00    -0.073 A 
ATOM      2  C3  UNL d   1       1.284  -0.710   0.200  0.00  0.00    -0.002 A 
ATOM      3  C4  UNL d   1       1.882  -0.794   1.457  0.00  0.00     0.004 A 
ATOM      4  C5  UNL d   1       1.320  -0.133   2.549  0.00  0.00    -0.004 A 
ATOM      5  C6  UNL d   1       0.149   0.616   2.393  0.00  0.00    -0.075 A 
ATOM      6  C7  UNL d   1      -0.468   1.334   3.557  0.00  0.00     0.076 C 
ATOM      7  C8  UNL d   1      -0.445   0.698   1.126  0.00  0.00     0.001 A 
ENDROOT
BRANCH   1   8
ATOM      8  C1  UNL d   1      -0.535   0.134  -1.334  0.00  0.00     0.053 C 
ATOM      9  C   UNL d   1       0.451  -0.129  -2.461  0.00  0.00     0.018 C 
ENDBRANCH   1   8
TORSDOF 1
ENDMDL
