MODEL 1
REMARK minimizedAffinity -5.22291422
REMARK minimizedRMSD -1
REMARK  1 active torsions:
REMARK  status: ('A' for Active; 'I' for Inactive)
REMARK    1  A    between atoms: C1_2  and  C2_3 
ROOT
ATOM      1  C2  UNL d   1       0.772   0.012  -0.784  0.00  0.00    -0.073 A 
ATOM      2  C3  UNL d   1      -0.310  -0.747  -1.245  0.00  0.00    -0.002 A 
ATOM      3  C4  UNL d   1      -1.533  -0.711  -0.575  0.00  0.00     0.004 A 
ATOM      4  C5  UNL d   1      -1.689   0.088   0.557  0.00  0.00    -0.004 A 
ATOM      5  C6  UNL d   1      -0.624   0.863   1.027  0.00  0.00    -0.075 A 
ATOM      6  C7  UNL d   1      -0.775   1.726   2.245  0.00  0.00     0.076 C 
ATOM      7  C8  UNL d   1       0.602   0.819   0.350  0.00  0.00     0.001 A 
ENDROOT
BRANCH   1   8
ATOM      8  C1  UNL d   1       2.093  -0.019  -1.508  0.00  0.00     0.053 C 
ATOM      9  C   UNL d   1       1.933   0.240  -2.998  0.00  0.00     0.018 C 
ENDBRANCH   1   8
TORSDOF 1
ENDMDL
