MODEL 1
REMARK minimizedAffinity -2.97480702
REMARK minimizedRMSD -1
REMARK  1 active torsions:
REMARK  status: ('A' for Active; 'I' for Inactive)
REMARK    1  A    between atoms: C1_2  and  C2_3 
ROOT
ATOM      1  C2  UNL d   1      -0.116   0.823  -1.862  0.00  0.00    -0.073 A 
ATOM      2  C3  UNL d   1       0.288  -0.516  -1.816  0.00  0.00    -0.002 A 
ATOM      3  C4  UNL d   1       0.150  -1.254  -0.639  0.00  0.00     0.004 A 
ATOM      4  C5  UNL d   1      -0.397  -0.663   0.500  0.00  0.00    -0.004 A 
ATOM      5  C6  UNL d   1      -0.818   0.671   0.470  0.00  0.00    -0.075 A 
ATOM      6  C7  UNL d   1      -1.407   1.321   1.687  0.00  0.00     0.076 C 
ATOM      7  C8  UNL d   1      -0.674   1.405  -0.715  0.00  0.00     0.001 A 
ENDROOT
BRANCH   1   8
ATOM      8  C1  UNL d   1       0.024   1.621  -3.132  0.00  0.00     0.053 C 
ATOM      9  C   UNL d   1       1.195   1.146  -3.978  0.00  0.00     0.018 C 
ENDBRANCH   1   8
TORSDOF 1
ENDMDL
