MODEL 1
REMARK minimizedAffinity -2.1920855
REMARK minimizedRMSD -1
REMARK  1 active torsions:
REMARK  status: ('A' for Active; 'I' for Inactive)
REMARK    1  A    between atoms: C1_2  and  C2_3 
ROOT
ATOM      1  C2  UNL d   1      -0.889   0.098   0.692  0.00  0.00    -0.073 A 
ATOM      2  C3  UNL d   1      -0.842  -0.577  -0.534  0.00  0.00    -0.002 A 
ATOM      3  C4  UNL d   1       0.281  -1.328  -0.883  0.00  0.00     0.004 A 
ATOM      4  C5  UNL d   1       1.364  -1.418  -0.009  0.00  0.00    -0.004 A 
ATOM      5  C6  UNL d   1       1.332  -0.761   1.225  0.00  0.00    -0.075 A 
ATOM      6  C7  UNL d   1       2.490  -0.847   2.176  0.00  0.00     0.076 C 
ATOM      7  C8  UNL d   1       0.202  -0.007   1.568  0.00  0.00     0.001 A 
ENDROOT
BRANCH   1   8
ATOM      8  C1  UNL d   1      -2.102   0.905   1.076  0.00  0.00     0.053 C 
ATOM      9  C   UNL d   1      -1.964   1.517   2.461  0.00  0.00     0.018 C 
ENDBRANCH   1   8
TORSDOF 1
ENDMDL
