MODEL 1
REMARK minimizedAffinity -2.95468187
REMARK minimizedRMSD -1
REMARK  1 active torsions:
REMARK  status: ('A' for Active; 'I' for Inactive)
REMARK    1  A    between atoms: C1_2  and  C2_3 
ROOT
ATOM      1  C2  UNL d   1      -0.547   0.132  -0.031  0.00  0.00    -0.073 A 
ATOM      2  C3  UNL d   1       0.515  -0.418   0.696  0.00  0.00    -0.002 A 
ATOM      3  C4  UNL d   1       1.656  -0.878   0.037  0.00  0.00     0.004 A 
ATOM      4  C5  UNL d   1       1.751  -0.786  -1.351  0.00  0.00    -0.004 A 
ATOM      5  C6  UNL d   1       0.705  -0.229  -2.094  0.00  0.00    -0.075 A 
ATOM      6  C7  UNL d   1       0.790  -0.125  -3.589  0.00  0.00     0.076 C 
ATOM      7  C8  UNL d   1      -0.439   0.228  -1.426  0.00  0.00     0.001 A 
ENDROOT
BRANCH   1   8
ATOM      8  C1  UNL d   1      -1.779   0.635   0.676  0.00  0.00     0.053 C 
ATOM      9  C   UNL d   1      -1.765   0.295   2.158  0.00  0.00     0.018 C 
ENDBRANCH   1   8
TORSDOF 1
ENDMDL
