MODEL 1
REMARK minimizedAffinity -3.86648774
REMARK minimizedRMSD -1
REMARK  1 active torsions:
REMARK  status: ('A' for Active; 'I' for Inactive)
REMARK    1  A    between atoms: C1_2  and  C2_3 
ROOT
ATOM      1  C2  UNL d   1      -0.672  -0.009  -0.631  0.00  0.00    -0.081 A 
ATOM      2  C3  UNL d   1       0.481  -0.796  -0.516  0.00  0.00     0.006 A 
ATOM      3  C4  UNL d   1       1.582  -0.337   0.210  0.00  0.00     0.002 A 
ATOM      4  C5  UNL d   1       1.547   0.912   0.839  0.00  0.00    -0.080 A 
ATOM      5  C6  UNL d   1       2.711   1.404   1.647  0.00  0.00     0.076 C 
ATOM      6  C7  UNL d   1       0.402   1.706   0.710  0.00  0.00     0.002 A 
ATOM      7  C8  UNL d   1      -0.699   1.247  -0.017  0.00  0.00     0.006 A 
ENDROOT
BRANCH   1   8
ATOM      8  C1  UNL d   1      -1.885  -0.529  -1.360  0.00  0.00     0.054 C 
ATOM      9  C   UNL d   1      -1.970   0.039  -2.769  0.00  0.00     0.018 C 
ENDBRANCH   1   8
TORSDOF 1
ENDMDL
