MODEL 1
REMARK minimizedAffinity -1.53427291
REMARK minimizedRMSD -1
REMARK  1 active torsions:
REMARK  status: ('A' for Active; 'I' for Inactive)
REMARK    1  A    between atoms: C1_2  and  C2_3 
ROOT
ATOM      1  C2  UNL d   1      -0.531  -0.134  -0.191  0.00  0.00    -0.081 A 
ATOM      2  C3  UNL d   1       0.217   1.038  -0.361  0.00  0.00     0.006 A 
ATOM      3  C4  UNL d   1       1.596   1.036  -0.140  0.00  0.00     0.002 A 
ATOM      4  C5  UNL d   1       2.252  -0.138   0.246  0.00  0.00    -0.080 A 
ATOM      5  C6  UNL d   1       3.736  -0.161   0.457  0.00  0.00     0.076 C 
ATOM      6  C7  UNL d   1       1.502  -1.305   0.433  0.00  0.00     0.002 A 
ATOM      7  C8  UNL d   1       0.123  -1.303   0.213  0.00  0.00     0.006 A 
ENDROOT
BRANCH   1   8
ATOM      8  C1  UNL d   1      -2.008  -0.150  -0.491  0.00  0.00     0.054 C 
ATOM      9  C   UNL d   1      -2.269  -0.079  -1.989  0.00  0.00     0.018 C 
ENDBRANCH   1   8
TORSDOF 1
ENDMDL
