MODEL 1
REMARK minimizedAffinity -5.88509369
REMARK minimizedRMSD -1
REMARK  1 active torsions:
REMARK  status: ('A' for Active; 'I' for Inactive)
REMARK    1  A    between atoms: C1_2  and  C2_3 
ROOT
ATOM      1  C2  UNL d   1      -0.410  -0.362   0.273  0.00  0.00    -0.081 A 
ATOM      2  C3  UNL d   1       0.358   0.801   0.138  0.00  0.00     0.006 A 
ATOM      3  C4  UNL d   1       1.729   0.779   0.401  0.00  0.00     0.002 A 
ATOM      4  C5  UNL d   1       2.357  -0.407   0.795  0.00  0.00    -0.080 A 
ATOM      5  C6  UNL d   1       3.834  -0.452   1.051  0.00  0.00     0.076 C 
ATOM      6  C7  UNL d   1       1.587  -1.565   0.947  0.00  0.00     0.002 A 
ATOM      7  C8  UNL d   1       0.216  -1.543   0.685  0.00  0.00     0.006 A 
ENDROOT
BRANCH   1   8
ATOM      8  C1  UNL d   1      -1.878  -0.356  -0.072  0.00  0.00     0.054 C 
ATOM      9  C   UNL d   1      -2.103   0.035  -1.525  0.00  0.00     0.018 C 
ENDBRANCH   1   8
TORSDOF 1
ENDMDL
