MODEL 1
REMARK minimizedAffinity -4.00915194
REMARK minimizedRMSD -1
REMARK  1 active torsions:
REMARK  status: ('A' for Active; 'I' for Inactive)
REMARK    1  A    between atoms: C1_2  and  C2_3 
ROOT
ATOM      1  C2  UNL d   1       0.508  -0.183  -0.184  0.00  0.00    -0.081 A 
ATOM      2  C3  UNL d   1      -0.798  -0.042   0.299  0.00  0.00     0.006 A 
ATOM      3  C4  UNL d   1      -1.890  -0.176  -0.563  0.00  0.00     0.002 A 
ATOM      4  C5  UNL d   1      -1.694  -0.462  -1.918  0.00  0.00    -0.080 A 
ATOM      5  C6  UNL d   1      -2.858  -0.638  -2.847  0.00  0.00     0.076 C 
ATOM      6  C7  UNL d   1      -0.388  -0.586  -2.404  0.00  0.00     0.002 A 
ATOM      7  C8  UNL d   1       0.704  -0.451  -1.543  0.00  0.00     0.006 A 
ENDROOT
BRANCH   1   8
ATOM      8  C1  UNL d   1       1.685  -0.103   0.755  0.00  0.00     0.054 C 
ATOM      9  C   UNL d   1       2.964   0.253   0.010  0.00  0.00     0.018 C 
ENDBRANCH   1   8
TORSDOF 1
ENDMDL
