MODEL 1
REMARK minimizedAffinity -4.88700819
REMARK minimizedRMSD -1
REMARK  1 active torsions:
REMARK  status: ('A' for Active; 'I' for Inactive)
REMARK    1  A    between atoms: C1_2  and  C2_3 
ROOT
ATOM      1  C2  UNL d   1       1.859  -1.674   0.982  0.00  0.00    -0.081 A 
ATOM      2  C3  UNL d   1       3.094  -1.013   0.965  0.00  0.00     0.006 A 
ATOM      3  C4  UNL d   1       3.171   0.334   0.604  0.00  0.00     0.002 A 
ATOM      4  C5  UNL d   1       2.015   1.044   0.261  0.00  0.00    -0.080 A 
ATOM      5  C6  UNL d   1       2.080   2.499  -0.099  0.00  0.00     0.076 C 
ATOM      6  C7  UNL d   1       0.784   0.379   0.261  0.00  0.00     0.002 A 
ATOM      7  C8  UNL d   1       0.707  -0.968   0.622  0.00  0.00     0.006 A 
ENDROOT
BRANCH   1   8
ATOM      8  C1  UNL d   1       1.765  -3.109   1.434  0.00  0.00     0.054 C 
ATOM      9  C   UNL d   1       0.514  -3.345   2.268  0.00  0.00     0.018 C 
ENDBRANCH   1   8
TORSDOF 1
ENDMDL
