MODEL 1
REMARK minimizedAffinity -5.88485241
REMARK minimizedRMSD -1
REMARK  1 active torsions:
REMARK  status: ('A' for Active; 'I' for Inactive)
REMARK    1  A    between atoms: C1_2  and  C2_3 
ROOT
ATOM      1  C2  UNL d   1       1.139   0.452  -0.194  0.00  0.00    -0.081 A 
ATOM      2  C3  UNL d   1      -0.011   0.803   0.525  0.00  0.00     0.006 A 
ATOM      3  C4  UNL d   1      -1.276   0.432   0.064  0.00  0.00     0.002 A 
ATOM      4  C5  UNL d   1      -1.412  -0.304  -1.118  0.00  0.00    -0.080 A 
ATOM      5  C6  UNL d   1      -2.763  -0.735  -1.609  0.00  0.00     0.076 C 
ATOM      6  C7  UNL d   1      -0.266  -0.640  -1.846  0.00  0.00     0.002 A 
ATOM      7  C8  UNL d   1       1.000  -0.268  -1.385  0.00  0.00     0.006 A 
ENDROOT
BRANCH   1   8
ATOM      8  C1  UNL d   1       2.508   0.795   0.335  0.00  0.00     0.054 C 
ATOM      9  C   UNL d   1       3.130  -0.384   1.068  0.00  0.00     0.018 C 
ENDBRANCH   1   8
TORSDOF 1
ENDMDL
