MODEL 1
REMARK minimizedAffinity -4.71218061
REMARK minimizedRMSD -1
REMARK  1 active torsions:
REMARK  status: ('A' for Active; 'I' for Inactive)
REMARK    1  A    between atoms: C1_2  and  C2_3 
ROOT
ATOM      1  C2  UNL d   1      -0.707   0.206  -0.360  0.00  0.00    -0.081 A 
ATOM      2  C3  UNL d   1      -0.098   1.390   0.075  0.00  0.00     0.006 A 
ATOM      3  C4  UNL d   1       1.193   1.367   0.609  0.00  0.00     0.002 A 
ATOM      4  C5  UNL d   1       1.898   0.163   0.710  0.00  0.00    -0.080 A 
ATOM      5  C6  UNL d   1       3.296   0.129   1.253  0.00  0.00     0.076 C 
ATOM      6  C7  UNL d   1       1.283  -1.022   0.292  0.00  0.00     0.002 A 
ATOM      7  C8  UNL d   1      -0.007  -1.000  -0.242  0.00  0.00     0.006 A 
ENDROOT
BRANCH   1   8
ATOM      8  C1  UNL d   1      -2.073   0.237  -0.995  0.00  0.00     0.054 C 
ATOM      9  C   UNL d   1      -2.037  -0.319  -2.412  0.00  0.00     0.018 C 
ENDBRANCH   1   8
TORSDOF 1
ENDMDL
