MODEL 1
REMARK minimizedAffinity 1.41094208
REMARK minimizedRMSD -1
REMARK  1 active torsions:
REMARK  status: ('A' for Active; 'I' for Inactive)
REMARK    1  A    between atoms: C1_2  and  C2_3 
ROOT
ATOM      1  C2  UNL d   1       0.288   0.987   0.140  0.00  0.00    -0.081 A 
ATOM      2  C3  UNL d   1       0.016  -0.252   0.733  0.00  0.00     0.006 A 
ATOM      3  C4  UNL d   1      -0.288  -1.363  -0.056  0.00  0.00     0.002 A 
ATOM      4  C5  UNL d   1      -0.316  -1.257  -1.451  0.00  0.00    -0.080 A 
ATOM      5  C6  UNL d   1      -0.611  -2.450  -2.311  0.00  0.00     0.076 C 
ATOM      6  C7  UNL d   1      -0.062  -0.015  -2.043  0.00  0.00     0.002 A 
ATOM      7  C8  UNL d   1       0.241   1.097  -1.254  0.00  0.00     0.006 A 
ENDROOT
BRANCH   1   8
ATOM      8  C1  UNL d   1       0.679   2.172   0.986  0.00  0.00     0.054 C 
ATOM      9  C   UNL d   1       2.164   2.147   1.321  0.00  0.00     0.018 C 
ENDBRANCH   1   8
TORSDOF 1
ENDMDL
