MODEL 1
REMARK minimizedAffinity -3.00517631
REMARK minimizedRMSD -1
REMARK  1 active torsions:
REMARK  status: ('A' for Active; 'I' for Inactive)
REMARK    1  A    between atoms: C1_2  and  C2_3 
ROOT
ATOM      1  C2  UNL d   1       0.031   1.010  -0.979  0.00  0.00    -0.081 A 
ATOM      2  C3  UNL d   1       1.010   0.026  -1.167  0.00  0.00     0.006 A 
ATOM      3  C4  UNL d   1       0.780  -1.290  -0.759  0.00  0.00     0.002 A 
ATOM      4  C5  UNL d   1      -0.435  -1.646  -0.164  0.00  0.00    -0.080 A 
ATOM      5  C6  UNL d   1      -0.706  -3.061   0.252  0.00  0.00     0.076 C 
ATOM      6  C7  UNL d   1      -1.406  -0.660   0.041  0.00  0.00     0.002 A 
ATOM      7  C8  UNL d   1      -1.176   0.656  -0.366  0.00  0.00     0.006 A 
ENDROOT
BRANCH   1   8
ATOM      8  C1  UNL d   1       0.251   2.415  -1.477  0.00  0.00     0.054 C 
ATOM      9  C   UNL d   1       1.222   2.442  -2.648  0.00  0.00     0.018 C 
ENDBRANCH   1   8
TORSDOF 1
ENDMDL
