MODEL 1
REMARK minimizedAffinity -4.77070189
REMARK minimizedRMSD -1
REMARK  1 active torsions:
REMARK  status: ('A' for Active; 'I' for Inactive)
REMARK    1  A    between atoms: C1_2  and  C2_3 
ROOT
ATOM      1  C2  UNL d   1       1.937   0.761  -1.710  0.00  0.00    -0.081 A 
ATOM      2  C3  UNL d   1       0.795   1.166  -1.007  0.00  0.00     0.006 A 
ATOM      3  C4  UNL d   1       0.060   0.243  -0.259  0.00  0.00     0.002 A 
ATOM      4  C5  UNL d   1       0.458  -1.096  -0.195  0.00  0.00    -0.080 A 
ATOM      5  C6  UNL d   1      -0.304  -2.090   0.630  0.00  0.00     0.076 C 
ATOM      6  C7  UNL d   1       1.589  -1.504  -0.911  0.00  0.00     0.002 A 
ATOM      7  C8  UNL d   1       2.323  -0.583  -1.660  0.00  0.00     0.006 A 
ENDROOT
BRANCH   1   8
ATOM      8  C1  UNL d   1       2.768   1.766  -2.466  0.00  0.00     0.054 C 
ATOM      9  C   UNL d   1       2.096   3.132  -2.493  0.00  0.00     0.018 C 
ENDBRANCH   1   8
TORSDOF 1
ENDMDL
