MODEL 1
REMARK minimizedAffinity -4.95309877
REMARK minimizedRMSD -1
REMARK  1 active torsions:
REMARK  status: ('A' for Active; 'I' for Inactive)
REMARK    1  A    between atoms: C1_2  and  C2_3 
ROOT
ATOM      1  C2  UNL d   1       0.403  -0.731   0.036  0.00  0.00    -0.081 A 
ATOM      2  C3  UNL d   1      -0.939  -0.450  -0.243  0.00  0.00     0.006 A 
ATOM      3  C4  UNL d   1      -1.733   0.216   0.694  0.00  0.00     0.002 A 
ATOM      4  C5  UNL d   1      -1.196   0.618   1.922  0.00  0.00    -0.080 A 
ATOM      5  C6  UNL d   1      -2.029   1.360   2.924  0.00  0.00     0.076 C 
ATOM      6  C7  UNL d   1       0.141   0.321   2.208  0.00  0.00     0.002 A 
ATOM      7  C8  UNL d   1       0.935  -0.345   1.272  0.00  0.00     0.006 A 
ENDROOT
BRANCH   1   8
ATOM      8  C1  UNL d   1       1.279  -1.391  -0.998  0.00  0.00     0.054 C 
ATOM      9  C   UNL d   1       1.804  -0.379  -2.006  0.00  0.00     0.018 C 
ENDBRANCH   1   8
TORSDOF 1
ENDMDL
