MODEL 1
REMARK minimizedAffinity 0.507619679
REMARK minimizedRMSD -1
REMARK  1 active torsions:
REMARK  status: ('A' for Active; 'I' for Inactive)
REMARK    1  A    between atoms: C1_2  and  C2_3 
ROOT
ATOM      1  C2  UNL d   1      -0.760   0.210   1.082  0.00  0.00    -0.081 A 
ATOM      2  C3  UNL d   1      -1.631  -0.550   1.873  0.00  0.00     0.006 A 
ATOM      3  C4  UNL d   1      -2.244   0.015   2.993  0.00  0.00     0.002 A 
ATOM      4  C5  UNL d   1      -2.004   1.350   3.337  0.00  0.00    -0.080 A 
ATOM      5  C6  UNL d   1      -2.679   1.977   4.520  0.00  0.00     0.076 C 
ATOM      6  C7  UNL d   1      -1.120   2.103   2.557  0.00  0.00     0.002 A 
ATOM      7  C8  UNL d   1      -0.506   1.539   1.437  0.00  0.00     0.006 A 
ENDROOT
BRANCH   1   8
ATOM      8  C1  UNL d   1      -0.148  -0.377  -0.164  0.00  0.00     0.054 C 
ATOM      9  C   UNL d   1       0.284  -1.820   0.058  0.00  0.00     0.018 C 
ENDBRANCH   1   8
TORSDOF 1
ENDMDL
