MODEL 1
REMARK minimizedAffinity -3.93565583
REMARK minimizedRMSD -1
REMARK  1 active torsions:
REMARK  status: ('A' for Active; 'I' for Inactive)
REMARK    1  A    between atoms: C1_2  and  C2_3 
ROOT
ATOM      1  C2  UNL d   1       1.751  -0.115  -1.099  0.00  0.00    -0.081 A 
ATOM      2  C3  UNL d   1       0.987   1.055  -1.185  0.00  0.00     0.006 A 
ATOM      3  C4  UNL d   1       1.066   1.871  -2.317  0.00  0.00     0.002 A 
ATOM      4  C5  UNL d   1       1.903   1.526  -3.383  0.00  0.00    -0.080 A 
ATOM      5  C6  UNL d   1       1.974   2.377  -4.616  0.00  0.00     0.076 C 
ATOM      6  C7  UNL d   1       2.679   0.366  -3.290  0.00  0.00     0.002 A 
ATOM      7  C8  UNL d   1       2.602  -0.449  -2.159  0.00  0.00     0.006 A 
ENDROOT
BRANCH   1   8
ATOM      8  C1  UNL d   1       1.620  -1.030   0.091  0.00  0.00     0.054 C 
ATOM      9  C   UNL d   1       0.183  -1.498   0.274  0.00  0.00     0.018 C 
ENDBRANCH   1   8
TORSDOF 1
ENDMDL
