MODEL 1
REMARK minimizedAffinity -5.6831708
REMARK minimizedRMSD -1
REMARK  1 active torsions:
REMARK  status: ('A' for Active; 'I' for Inactive)
REMARK    1  A    between atoms: C1_2  and  C2_3 
ROOT
ATOM      1  C2  UNL d   1       0.618   0.049  -0.132  0.00  0.00    -0.081 A 
ATOM      2  C3  UNL d   1       0.360   0.837  -1.260  0.00  0.00     0.006 A 
ATOM      3  C4  UNL d   1       1.402   1.229  -2.104  0.00  0.00     0.002 A 
ATOM      4  C5  UNL d   1       2.717   0.832  -1.839  0.00  0.00    -0.080 A 
ATOM      5  C6  UNL d   1       3.841   1.220  -2.754  0.00  0.00     0.076 C 
ATOM      6  C7  UNL d   1       2.978   0.059  -0.702  0.00  0.00     0.002 A 
ATOM      7  C8  UNL d   1       1.936  -0.332   0.142  0.00  0.00     0.006 A 
ENDROOT
BRANCH   1   8
ATOM      8  C1  UNL d   1      -0.512  -0.429   0.744  0.00  0.00     0.054 C 
ATOM      9  C   UNL d   1      -1.271   0.740   1.354  0.00  0.00     0.018 C 
ENDBRANCH   1   8
TORSDOF 1
ENDMDL
