MODEL 1
REMARK minimizedAffinity -4.1235323
REMARK minimizedRMSD -1
REMARK  1 active torsions:
REMARK  status: ('A' for Active; 'I' for Inactive)
REMARK    1  A    between atoms: C1_2  and  C2_3 
ROOT
ATOM      1  C2  UNL d   1      -1.345   0.570   1.840  0.00  0.00    -0.081 A 
ATOM      2  C3  UNL d   1      -1.696   0.241   0.525  0.00  0.00     0.006 A 
ATOM      3  C4  UNL d   1      -0.765  -0.357  -0.328  0.00  0.00     0.002 A 
ATOM      4  C5  UNL d   1       0.529  -0.642   0.122  0.00  0.00    -0.080 A 
ATOM      5  C6  UNL d   1       1.528  -1.311  -0.775  0.00  0.00     0.076 C 
ATOM      6  C7  UNL d   1       0.885  -0.297   1.430  0.00  0.00     0.002 A 
ATOM      7  C8  UNL d   1      -0.045   0.301   2.283  0.00  0.00     0.006 A 
ENDROOT
BRANCH   1   8
ATOM      8  C1  UNL d   1      -2.365   1.155   2.782  0.00  0.00     0.054 C 
ATOM      9  C   UNL d   1      -2.076   0.764   4.224  0.00  0.00     0.018 C 
ENDBRANCH   1   8
TORSDOF 1
ENDMDL
