MODEL 1
REMARK minimizedAffinity -4.57403135
REMARK minimizedRMSD -1
REMARK  1 active torsions:
REMARK  status: ('A' for Active; 'I' for Inactive)
REMARK    1  A    between atoms: C1_2  and  C2_3 
ROOT
ATOM      1  C2  UNL d   1       0.658   0.605  -1.701  0.00  0.00    -0.081 A 
ATOM      2  C3  UNL d   1       1.547  -0.447  -1.957  0.00  0.00     0.006 A 
ATOM      3  C4  UNL d   1       1.438  -1.651  -1.257  0.00  0.00     0.002 A 
ATOM      4  C5  UNL d   1       0.436  -1.826  -0.296  0.00  0.00    -0.080 A 
ATOM      5  C6  UNL d   1       0.290  -3.124   0.440  0.00  0.00     0.076 C 
ATOM      6  C7  UNL d   1      -0.441  -0.769  -0.029  0.00  0.00     0.002 A 
ATOM      7  C8  UNL d   1      -0.332   0.435  -0.728  0.00  0.00     0.006 A 
ENDROOT
BRANCH   1   8
ATOM      8  C1  UNL d   1       0.732   1.881  -2.500  0.00  0.00     0.054 C 
ATOM      9  C   UNL d   1       1.236   1.622  -3.912  0.00  0.00     0.018 C 
ENDBRANCH   1   8
TORSDOF 1
ENDMDL
