MODEL 1
REMARK minimizedAffinity -4.5953393
REMARK minimizedRMSD -1
REMARK  1 active torsions:
REMARK  status: ('A' for Active; 'I' for Inactive)
REMARK    1  A    between atoms: C1_2  and  C2_3 
ROOT
ATOM      1  C2  UNL d   1      -0.864   0.277   0.894  0.00  0.00    -0.081 A 
ATOM      2  C3  UNL d   1       0.066   1.047   0.186  0.00  0.00     0.006 A 
ATOM      3  C4  UNL d   1       1.050   0.432  -0.593  0.00  0.00     0.002 A 
ATOM      4  C5  UNL d   1       1.114  -0.963  -0.682  0.00  0.00    -0.080 A 
ATOM      5  C6  UNL d   1       2.146  -1.635  -1.538  0.00  0.00     0.076 C 
ATOM      6  C7  UNL d   1       0.196  -1.733   0.039  0.00  0.00     0.002 A 
ATOM      7  C8  UNL d   1      -0.787  -1.118   0.818  0.00  0.00     0.006 A 
ENDROOT
BRANCH   1   8
ATOM      8  C1  UNL d   1      -1.965   0.938   1.682  0.00  0.00     0.054 C 
ATOM      9  C   UNL d   1      -1.401   1.830   2.779  0.00  0.00     0.018 C 
ENDBRANCH   1   8
TORSDOF 1
ENDMDL
