MODEL 1
REMARK minimizedAffinity -5.34025383
REMARK minimizedRMSD -1
REMARK  1 active torsions:
REMARK  status: ('A' for Active; 'I' for Inactive)
REMARK    1  A    between atoms: C1_2  and  C2_3 
ROOT
ATOM      1  C2  UNL d   1       0.316   0.339  -1.264  0.00  0.00    -0.081 A 
ATOM      2  C3  UNL d   1       1.142  -0.770  -1.483  0.00  0.00     0.006 A 
ATOM      3  C4  UNL d   1       0.827  -2.010  -0.920  0.00  0.00     0.002 A 
ATOM      4  C5  UNL d   1      -0.322  -2.162  -0.137  0.00  0.00    -0.080 A 
ATOM      5  C6  UNL d   1      -0.687  -3.494   0.448  0.00  0.00     0.076 C 
ATOM      6  C7  UNL d   1      -1.138  -1.050   0.096  0.00  0.00     0.002 A 
ATOM      7  C8  UNL d   1      -0.824   0.189  -0.466  0.00  0.00     0.006 A 
ENDROOT
BRANCH   1   8
ATOM      8  C1  UNL d   1       0.617   1.661  -1.923  0.00  0.00     0.054 C 
ATOM      9  C   UNL d   1       1.481   1.477  -3.162  0.00  0.00     0.018 C 
ENDBRANCH   1   8
TORSDOF 1
ENDMDL
