MODEL 1
REMARK minimizedAffinity -4.16457033
REMARK minimizedRMSD -1
REMARK  1 active torsions:
REMARK  status: ('A' for Active; 'I' for Inactive)
REMARK    1  A    between atoms: C1_2  and  C2_3 
ROOT
ATOM      1  C2  UNL d   1       1.084   0.243  -0.955  0.00  0.00    -0.081 A 
ATOM      2  C3  UNL d   1       1.764  -0.975  -0.831  0.00  0.00     0.006 A 
ATOM      3  C4  UNL d   1       2.995  -1.167  -1.464  0.00  0.00     0.002 A 
ATOM      4  C5  UNL d   1       3.569  -0.142  -2.224  0.00  0.00    -0.080 A 
ATOM      5  C6  UNL d   1       4.904  -0.324  -2.883  0.00  0.00     0.076 C 
ATOM      6  C7  UNL d   1       2.882   1.069  -2.362  0.00  0.00     0.002 A 
ATOM      7  C8  UNL d   1       1.651   1.260  -1.729  0.00  0.00     0.006 A 
ENDROOT
BRANCH   1   8
ATOM      8  C1  UNL d   1      -0.212   0.475  -0.220  0.00  0.00     0.054 C 
ATOM      9  C   UNL d   1      -0.740  -0.815   0.390  0.00  0.00     0.018 C 
ENDBRANCH   1   8
TORSDOF 1
ENDMDL
