MODEL 1
REMARK minimizedAffinity -5.01684999
REMARK minimizedRMSD -1
REMARK  1 active torsions:
REMARK  status: ('A' for Active; 'I' for Inactive)
REMARK    1  A    between atoms: C1_2  and  C2_3 
ROOT
ATOM      1  C2  UNL d   1       0.093   0.053  -0.569  0.00  0.00    -0.081 A 
ATOM      2  C3  UNL d   1       1.231  -0.727  -0.324  0.00  0.00     0.006 A 
ATOM      3  C4  UNL d   1       2.424  -0.471  -1.004  0.00  0.00     0.002 A 
ATOM      4  C5  UNL d   1       2.502   0.572  -1.933  0.00  0.00    -0.080 A 
ATOM      5  C6  UNL d   1       3.786   0.876  -2.647  0.00  0.00     0.076 C 
ATOM      6  C7  UNL d   1       1.361   1.339  -2.191  0.00  0.00     0.002 A 
ATOM      7  C8  UNL d   1       0.168   1.084  -1.512  0.00  0.00     0.006 A 
ENDROOT
BRANCH   1   8
ATOM      8  C1  UNL d   1      -1.177  -0.179   0.209  0.00  0.00     0.054 C 
ATOM      9  C   UNL d   1      -1.075   0.390   1.617  0.00  0.00     0.018 C 
ENDBRANCH   1   8
TORSDOF 1
ENDMDL
