MODEL 1
REMARK minimizedAffinity -6.04148436
REMARK minimizedRMSD -1
REMARK  1 active torsions:
REMARK  status: ('A' for Active; 'I' for Inactive)
REMARK    1  A    between atoms: C1_2  and  C2_3 
ROOT
ATOM      1  C2  UNL d   1       1.622   0.566  -1.499  0.00  0.00    -0.081 A 
ATOM      2  C3  UNL d   1       2.383  -0.609  -1.481  0.00  0.00     0.006 A 
ATOM      3  C4  UNL d   1       1.916  -1.745  -0.816  0.00  0.00     0.002 A 
ATOM      4  C5  UNL d   1       0.678  -1.728  -0.165  0.00  0.00    -0.080 A 
ATOM      5  C6  UNL d   1       0.151  -2.950   0.527  0.00  0.00     0.076 C 
ATOM      6  C7  UNL d   1      -0.075  -0.549  -0.169  0.00  0.00     0.002 A 
ATOM      7  C8  UNL d   1       0.392   0.588  -0.833  0.00  0.00     0.006 A 
ENDROOT
BRANCH   1   8
ATOM      8  C1  UNL d   1       2.093   1.772  -2.271  0.00  0.00     0.054 C 
ATOM      9  C   UNL d   1       1.177   2.067  -3.450  0.00  0.00     0.018 C 
ENDBRANCH   1   8
TORSDOF 1
ENDMDL
