MODEL 1
REMARK minimizedAffinity 15.8532238
REMARK minimizedRMSD -1
REMARK  2 active torsions:
REMARK  status: ('A' for Active; 'I' for Inactive)
REMARK    1  A    between atoms: C2'_3  and  C1'_4 
REMARK    2  A    between atoms: C1'_4  and  C1_5 
ROOT
ATOM      1  C1  I4B d   1       0.905   0.042   3.624  0.00  0.00    -0.075 A 
ATOM      2  C2  I4B d   1       1.644  -0.532   2.619  0.00  0.00     0.003 A 
ATOM      3  C3  I4B d   1       2.345  -1.740   2.850  0.00  0.00     0.002 A 
ATOM      4  C4  I4B d   1       2.322  -2.309   4.107  0.00  0.00    -0.004 A 
ATOM      5  C5  I4B d   1       1.554  -1.739   5.118  0.00  0.00     0.002 A 
ATOM      6  C6  I4B d   1       0.831  -0.562   4.872  0.00  0.00     0.003 A 
ENDROOT
BRANCH   1   7
ATOM      7  C1' I4B d   1       0.203   1.335   3.355  0.00  0.00     0.060 C 
BRANCH   7   8
ATOM      8  C2' I4B d   1       1.154   2.231   2.586  0.00  0.00    -0.013 C 
ATOM      9  C4' I4B d   1       0.406   3.145   1.652  0.00  0.00     0.013 C 
ATOM     10  C3' I4B d   1       1.958   3.013   3.580  0.00  0.00     0.013 C 
ENDBRANCH   7   8
ENDBRANCH   1   7
TORSDOF 2
ENDMDL
