MODEL 1
REMARK minimizedAffinity 13.613205
REMARK minimizedRMSD -1
REMARK  2 active torsions:
REMARK  status: ('A' for Active; 'I' for Inactive)
REMARK    1  A    between atoms: C2'_3  and  C1'_4 
REMARK    2  A    between atoms: C1'_4  and  C1_5 
ROOT
ATOM      1  C1  I4B d   1      -0.133   1.373  -0.095  0.00  0.00    -0.075 A 
ATOM      2  C2  I4B d   1      -1.464   1.183  -0.370  0.00  0.00     0.003 A 
ATOM      3  C3  I4B d   1      -1.873   0.125  -1.218  0.00  0.00     0.002 A 
ATOM      4  C4  I4B d   1      -0.921  -0.682  -1.806  0.00  0.00    -0.004 A 
ATOM      5  C5  I4B d   1       0.427  -0.503  -1.508  0.00  0.00     0.002 A 
ATOM      6  C6  I4B d   1       0.823   0.523  -0.637  0.00  0.00     0.003 A 
ENDROOT
BRANCH   1   7
ATOM      7  C1' I4B d   1       0.266   2.520   0.778  0.00  0.00     0.060 C 
BRANCH   7   8
ATOM      8  C2' I4B d   1      -0.471   3.752   0.295  0.00  0.00    -0.013 C 
ATOM      9  C4' I4B d   1      -1.293   4.363   1.399  0.00  0.00     0.013 C 
ATOM     10  C3' I4B d   1       0.545   4.725  -0.225  0.00  0.00     0.013 C 
ENDBRANCH   7   8
ENDBRANCH   1   7
TORSDOF 2
ENDMDL
