MODEL 1
REMARK minimizedAffinity 9.97208214
REMARK minimizedRMSD -1
REMARK  2 active torsions:
REMARK  status: ('A' for Active; 'I' for Inactive)
REMARK    1  A    between atoms: C2'_3  and  C1'_4 
REMARK    2  A    between atoms: C1'_4  and  C1_5 
ROOT
ATOM      1  C1  I4B d   1      -0.008   2.715   1.196  0.00  0.00    -0.075 A 
ATOM      2  C2  I4B d   1      -1.008   2.204   1.985  0.00  0.00     0.003 A 
ATOM      3  C3  I4B d   1      -0.701   1.626   3.240  0.00  0.00     0.002 A 
ATOM      4  C4  I4B d   1       0.616   1.535   3.642  0.00  0.00    -0.004 A 
ATOM      5  C5  I4B d   1       1.627   2.074   2.851  0.00  0.00     0.002 A 
ATOM      6  C6  I4B d   1       1.312   2.680   1.626  0.00  0.00     0.003 A 
ENDROOT
BRANCH   1   7
ATOM      7  C1' I4B d   1      -0.365   3.289  -0.139  0.00  0.00     0.060 C 
BRANCH   7   8
ATOM      8  C2' I4B d   1       0.092   4.733  -0.164  0.00  0.00    -0.013 C 
ATOM      9  C4' I4B d   1       0.601   5.121  -1.527  0.00  0.00     0.013 C 
ATOM     10  C3' I4B d   1      -1.065   5.593   0.247  0.00  0.00     0.013 C 
ENDBRANCH   7   8
ENDBRANCH   1   7
TORSDOF 2
ENDMDL
