MODEL 1
REMARK minimizedAffinity 9.01582718
REMARK minimizedRMSD -1
REMARK  2 active torsions:
REMARK  status: ('A' for Active; 'I' for Inactive)
REMARK    1  A    between atoms: C2'_3  and  C1'_4 
REMARK    2  A    between atoms: C1'_4  and  C1_5 
ROOT
ATOM      1  C1  I4B d   1       0.865   3.510   1.528  0.00  0.00    -0.075 A 
ATOM      2  C2  I4B d   1       0.026   2.946   2.456  0.00  0.00     0.003 A 
ATOM      3  C3  I4B d   1       0.489   2.682   3.768  0.00  0.00     0.002 A 
ATOM      4  C4  I4B d   1       1.803   2.948   4.092  0.00  0.00    -0.004 A 
ATOM      5  C5  I4B d   1       2.647   3.540   3.156  0.00  0.00     0.002 A 
ATOM      6  C6  I4B d   1       2.172   3.835   1.870  0.00  0.00     0.003 A 
ENDROOT
BRANCH   1   7
ATOM      7  C1' I4B d   1       0.353   3.745   0.142  0.00  0.00     0.060 C 
BRANCH   7   8
ATOM      8  C2' I4B d   1       0.512   5.219  -0.170  0.00  0.00    -0.013 C 
ATOM      9  C4' I4B d   1      -0.172   5.580  -1.462  0.00  0.00     0.013 C 
ATOM     10  C3' I4B d   1      -0.054   5.999   0.979  0.00  0.00     0.013 C 
ENDBRANCH   7   8
ENDBRANCH   1   7
TORSDOF 2
ENDMDL
