MODEL 1
REMARK minimizedAffinity 5.14118004
REMARK minimizedRMSD -1
REMARK  2 active torsions:
REMARK  status: ('A' for Active; 'I' for Inactive)
REMARK    1  A    between atoms: C2'_3  and  C1'_4 
REMARK    2  A    between atoms: C1'_4  and  C1_5 
ROOT
ATOM      1  C1  I4B d   1      -0.615   4.488   1.259  0.00  0.00    -0.075 A 
ATOM      2  C2  I4B d   1      -0.060   3.482   0.509  0.00  0.00     0.003 A 
ATOM      3  C3  I4B d   1       0.348   3.729  -0.825  0.00  0.00     0.002 A 
ATOM      4  C4  I4B d   1       0.137   4.975  -1.380  0.00  0.00    -0.004 A 
ATOM      5  C5  I4B d   1      -0.405   6.000  -0.610  0.00  0.00     0.002 A 
ATOM      6  C6  I4B d   1      -0.771   5.759   0.722  0.00  0.00     0.003 A 
ENDROOT
BRANCH   1   7
ATOM      7  C1' I4B d   1      -1.064   4.183   2.653  0.00  0.00     0.060 C 
BRANCH   7   8
ATOM      8  C2' I4B d   1      -0.727   2.735   2.946  0.00  0.00    -0.013 C 
ATOM      9  C4' I4B d   1       0.586   2.618   3.675  0.00  0.00     0.013 C 
ATOM     10  C3' I4B d   1      -1.848   2.153   3.754  0.00  0.00     0.013 C 
ENDBRANCH   7   8
ENDBRANCH   1   7
TORSDOF 2
ENDMDL
