MODEL 1
REMARK minimizedAffinity 10.2167473
REMARK minimizedRMSD -1
REMARK  2 active torsions:
REMARK  status: ('A' for Active; 'I' for Inactive)
REMARK    1  A    between atoms: C2'_3  and  C1'_4 
REMARK    2  A    between atoms: C1'_4  and  C1_5 
ROOT
ATOM      1  C1  I4B d   1       0.029   3.614   0.739  0.00  0.00    -0.075 A 
ATOM      2  C2  I4B d   1       0.710   4.028  -0.379  0.00  0.00     0.003 A 
ATOM      3  C3  I4B d   1       0.372   5.251  -1.007  0.00  0.00     0.002 A 
ATOM      4  C4  I4B d   1      -0.680   5.998  -0.518  0.00  0.00    -0.004 A 
ATOM      5  C5  I4B d   1      -1.355   5.588   0.628  0.00  0.00     0.002 A 
ATOM      6  C6  I4B d   1      -0.990   4.395   1.268  0.00  0.00     0.003 A 
ENDROOT
BRANCH   1   7
ATOM      7  C1' I4B d   1       0.390   2.301   1.358  0.00  0.00     0.060 C 
BRANCH   7   8
ATOM      8  C2' I4B d   1       0.041   2.367   2.831  0.00  0.00    -0.013 C 
ATOM      9  C4' I4B d   1      -1.366   1.891   3.079  0.00  0.00     0.013 C 
ATOM     10  C3' I4B d   1       1.036   1.533   3.581  0.00  0.00     0.013 C 
ENDBRANCH   7   8
ENDBRANCH   1   7
TORSDOF 2
ENDMDL
