MODEL 1
REMARK minimizedAffinity 9.17393208
REMARK minimizedRMSD -1
REMARK  2 active torsions:
REMARK  status: ('A' for Active; 'I' for Inactive)
REMARK    1  A    between atoms: C2'_3  and  C1'_4 
REMARK    2  A    between atoms: C1'_4  and  C1_5 
ROOT
ATOM      1  C1  I4B d   1      -5.241   1.874  -3.676  0.00  0.00    -0.075 A 
ATOM      2  C2  I4B d   1      -5.222   1.528  -5.004  0.00  0.00     0.003 A 
ATOM      3  C3  I4B d   1      -5.582   2.476  -5.993  0.00  0.00     0.002 A 
ATOM      4  C4  I4B d   1      -5.999   3.734  -5.608  0.00  0.00    -0.004 A 
ATOM      5  C5  I4B d   1      -5.995   4.090  -4.263  0.00  0.00     0.002 A 
ATOM      6  C6  I4B d   1      -5.602   3.159  -3.291  0.00  0.00     0.003 A 
ENDROOT
BRANCH   1   7
ATOM      7  C1' I4B d   1      -4.886   0.839  -2.656  0.00  0.00     0.060 C 
BRANCH   7   8
ATOM      8  C2' I4B d   1      -4.508   1.555  -1.375  0.00  0.00    -0.013 C 
ATOM      9  C4' I4B d   1      -3.288   0.937  -0.745  0.00  0.00     0.013 C 
ATOM     10  C3' I4B d   1      -4.275   3.000  -1.704  0.00  0.00     0.013 C 
ENDBRANCH   7   8
ENDBRANCH   1   7
TORSDOF 2
ENDMDL
