MODEL 1
REMARK minimizedAffinity 8.95324421
REMARK minimizedRMSD -1
REMARK  2 active torsions:
REMARK  status: ('A' for Active; 'I' for Inactive)
REMARK    1  A    between atoms: C2'_3  and  C1'_4 
REMARK    2  A    between atoms: C1'_4  and  C1_5 
ROOT
ATOM      1  C1  I4B d   1      -3.674   0.152   2.701  0.00  0.00    -0.075 A 
ATOM      2  C2  I4B d   1      -3.396  -0.961   3.455  0.00  0.00     0.003 A 
ATOM      3  C3  I4B d   1      -4.432  -1.625   4.155  0.00  0.00     0.002 A 
ATOM      4  C4  I4B d   1      -5.714  -1.117   4.115  0.00  0.00    -0.004 A 
ATOM      5  C5  I4B d   1      -5.999  -0.002   3.332  0.00  0.00     0.002 A 
ATOM      6  C6  I4B d   1      -4.975   0.630   2.611  0.00  0.00     0.003 A 
ENDROOT
BRANCH   1   7
ATOM      7  C1' I4B d   1      -2.550   0.848   2.001  0.00  0.00     0.060 C 
BRANCH   7   8
ATOM      8  C2' I4B d   1      -1.703  -0.205   1.317  0.00  0.00    -0.013 C 
ATOM      9  C4' I4B d   1      -1.900  -0.179  -0.176  0.00  0.00     0.013 C 
ATOM     10  C3' I4B d   1      -0.269   0.047   1.678  0.00  0.00     0.013 C 
ENDBRANCH   7   8
ENDBRANCH   1   7
TORSDOF 2
ENDMDL
