MODEL 1
REMARK minimizedAffinity 2.30383706
REMARK minimizedRMSD -1
REMARK  2 active torsions:
REMARK  status: ('A' for Active; 'I' for Inactive)
REMARK    1  A    between atoms: C1_2  and  C2_3 
REMARK    2  A    between atoms: C2_3  and  C3_4 
ROOT
ATOM      1  C3  UNL d   1      -0.132   3.104   0.314  0.00  0.00    -0.075 A 
ATOM      2  C4  UNL d   1      -0.824   1.894   0.471  0.00  0.00     0.002 A 
ATOM      3  C5  UNL d   1      -0.989   1.333   1.738  0.00  0.00     0.002 A 
ATOM      4  C6  UNL d   1      -0.458   1.967   2.859  0.00  0.00    -0.004 A 
ATOM      5  C7  UNL d   1       0.245   3.161   2.712  0.00  0.00     0.002 A 
ATOM      6  C8  UNL d   1       0.408   3.727   1.446  0.00  0.00     0.002 A 
ENDROOT
BRANCH   1   7
ATOM      7  C2  UNL d   1       0.025   3.732  -1.051  0.00  0.00     0.056 C 
BRANCH   7   8
ATOM      8  C1  UNL d   1      -0.227   2.767  -2.214  0.00  0.00     0.007 C 
ATOM      9  C   UNL d   1      -1.534   3.037  -2.947  0.00  0.00     0.009 C 
ENDBRANCH   7   8
ENDBRANCH   1   7
TORSDOF 2
ENDMDL
