MODEL 1
REMARK minimizedAffinity -0.0326428451
REMARK minimizedRMSD -1
REMARK  2 active torsions:
REMARK  status: ('A' for Active; 'I' for Inactive)
REMARK    1  A    between atoms: C1_2  and  C2_3 
REMARK    2  A    between atoms: C2_3  and  C3_4 
ROOT
ATOM      1  C3  UNL d   1      -0.814   2.771  -1.697  0.00  0.00    -0.075 A 
ATOM      2  C4  UNL d   1      -0.741   2.080  -0.478  0.00  0.00     0.002 A 
ATOM      3  C5  UNL d   1      -0.152   2.674   0.638  0.00  0.00     0.002 A 
ATOM      4  C6  UNL d   1       0.380   3.958   0.548  0.00  0.00    -0.004 A 
ATOM      5  C7  UNL d   1       0.328   4.647  -0.662  0.00  0.00     0.002 A 
ATOM      6  C8  UNL d   1      -0.265   4.057  -1.779  0.00  0.00     0.002 A 
ENDROOT
BRANCH   1   7
ATOM      7  C2  UNL d   1      -1.477   2.145  -2.901  0.00  0.00     0.056 C 
BRANCH   7   8
ATOM      8  C1  UNL d   1      -2.989   1.946  -2.747  0.00  0.00     0.007 C 
ATOM      9  C   UNL d   1      -3.386   0.490  -2.549  0.00  0.00     0.009 C 
ENDBRANCH   7   8
ENDBRANCH   1   7
TORSDOF 2
ENDMDL
