MODEL 1
REMARK minimizedAffinity 4.69857645
REMARK minimizedRMSD -1
REMARK  2 active torsions:
REMARK  status: ('A' for Active; 'I' for Inactive)
REMARK    1  A    between atoms: C1_2  and  C2_3 
REMARK    2  A    between atoms: C2_3  and  C3_4 
ROOT
ATOM      1  C3  UNL d   1      -0.951   3.706  -2.085  0.00  0.00    -0.075 A 
ATOM      2  C4  UNL d   1      -1.128   3.347  -0.740  0.00  0.00     0.002 A 
ATOM      3  C5  UNL d   1      -0.070   3.445   0.164  0.00  0.00     0.002 A 
ATOM      4  C6  UNL d   1       1.178   3.891  -0.265  0.00  0.00    -0.004 A 
ATOM      5  C7  UNL d   1       1.369   4.235  -1.602  0.00  0.00     0.002 A 
ATOM      6  C8  UNL d   1       0.311   4.142  -2.508  0.00  0.00     0.002 A 
ENDROOT
BRANCH   1   7
ATOM      7  C2  UNL d   1      -2.100   3.631  -3.062  0.00  0.00     0.056 C 
BRANCH   7   8
ATOM      8  C1  UNL d   1      -2.406   2.213  -3.557  0.00  0.00     0.007 C 
ATOM      9  C   UNL d   1      -3.621   1.590  -2.883  0.00  0.00     0.009 C 
ENDBRANCH   7   8
ENDBRANCH   1   7
TORSDOF 2
ENDMDL
