MODEL 1
REMARK minimizedAffinity 1.80625737
REMARK minimizedRMSD -1
REMARK  2 active torsions:
REMARK  status: ('A' for Active; 'I' for Inactive)
REMARK    1  A    between atoms: C1_2  and  C2_3 
REMARK    2  A    between atoms: C2_3  and  C3_4 
ROOT
ATOM      1  C3  UNL d   1      -0.657   2.648  -1.618  0.00  0.00    -0.075 A 
ATOM      2  C4  UNL d   1      -0.570   2.137  -0.315  0.00  0.00     0.002 A 
ATOM      3  C5  UNL d   1       0.060   2.868   0.693  0.00  0.00     0.002 A 
ATOM      4  C6  UNL d   1       0.618   4.113   0.409  0.00  0.00    -0.004 A 
ATOM      5  C7  UNL d   1       0.552   4.623  -0.885  0.00  0.00     0.002 A 
ATOM      6  C8  UNL d   1      -0.082   3.896  -1.894  0.00  0.00     0.002 A 
ENDROOT
BRANCH   1   7
ATOM      7  C2  UNL d   1      -1.363   1.875  -2.706  0.00  0.00     0.056 C 
BRANCH   7   8
ATOM      8  C1  UNL d   1      -2.836   1.578  -2.405  0.00  0.00     0.007 C 
ATOM      9  C   UNL d   1      -3.052   0.225  -1.740  0.00  0.00     0.009 C 
ENDBRANCH   7   8
ENDBRANCH   1   7
TORSDOF 2
ENDMDL
