MODEL 1
REMARK minimizedAffinity 7.64816093
REMARK minimizedRMSD -1
REMARK  2 active torsions:
REMARK  status: ('A' for Active; 'I' for Inactive)
REMARK    1  A    between atoms: C1_2  and  C2_3 
REMARK    2  A    between atoms: C2_3  and  C3_4 
ROOT
ATOM      1  C3  UNL d   1      -1.422   4.734   0.101  0.00  0.00    -0.075 A 
ATOM      2  C4  UNL d   1      -1.567   3.351   0.281  0.00  0.00     0.002 A 
ATOM      3  C5  UNL d   1      -0.497   2.489   0.040  0.00  0.00     0.002 A 
ATOM      4  C6  UNL d   1       0.726   2.997  -0.392  0.00  0.00    -0.004 A 
ATOM      5  C7  UNL d   1       0.877   4.367  -0.590  0.00  0.00     0.002 A 
ATOM      6  C8  UNL d   1      -0.191   5.233  -0.346  0.00  0.00     0.002 A 
ENDROOT
BRANCH   1   7
ATOM      7  C2  UNL d   1      -2.567   5.675   0.388  0.00  0.00     0.056 C 
BRANCH   7   8
ATOM      8  C1  UNL d   1      -3.734   5.027   1.141  0.00  0.00     0.007 C 
ATOM      9  C   UNL d   1      -4.867   5.998   1.445  0.00  0.00     0.009 C 
ENDBRANCH   7   8
ENDBRANCH   1   7
TORSDOF 2
ENDMDL
