MODEL 1
REMARK minimizedAffinity 3.45279741
REMARK minimizedRMSD -1
REMARK  2 active torsions:
REMARK  status: ('A' for Active; 'I' for Inactive)
REMARK    1  A    between atoms: C1_2  and  C2_3 
REMARK    2  A    between atoms: C2_3  and  C3_4 
ROOT
ATOM      1  C3  UNL d   1      -1.576   5.103   0.069  0.00  0.00    -0.075 A 
ATOM      2  C4  UNL d   1      -1.542   5.261  -1.324  0.00  0.00     0.002 A 
ATOM      3  C5  UNL d   1      -0.767   4.411  -2.114  0.00  0.00     0.002 A 
ATOM      4  C6  UNL d   1      -0.010   3.403  -1.522  0.00  0.00    -0.004 A 
ATOM      5  C7  UNL d   1      -0.023   3.247  -0.138  0.00  0.00     0.002 A 
ATOM      6  C8  UNL d   1      -0.801   4.093   0.655  0.00  0.00     0.002 A 
ENDROOT
BRANCH   1   7
ATOM      7  C2  UNL d   1      -2.436   6.000   0.928  0.00  0.00     0.056 C 
BRANCH   7   8
ATOM      8  C1  UNL d   1      -3.921   5.987   0.550  0.00  0.00     0.007 C 
ATOM      9  C   UNL d   1      -4.848   5.997   1.759  0.00  0.00     0.009 C 
ENDBRANCH   7   8
ENDBRANCH   1   7
TORSDOF 2
ENDMDL
