MODEL 1
REMARK minimizedAffinity 8.35002136
REMARK minimizedRMSD -1
REMARK  2 active torsions:
REMARK  status: ('A' for Active; 'I' for Inactive)
REMARK    1  A    between atoms: C1_2  and  C2_3 
REMARK    2  A    between atoms: C2_3  and  C3_4 
ROOT
ATOM      1  C3  UNL d   1      -0.194   3.375  -0.258  0.00  0.00    -0.075 A 
ATOM      2  C4  UNL d   1      -0.265   4.681   0.248  0.00  0.00     0.002 A 
ATOM      3  C5  UNL d   1      -0.550   5.753  -0.597  0.00  0.00     0.002 A 
ATOM      4  C6  UNL d   1      -0.756   5.537  -1.958  0.00  0.00    -0.004 A 
ATOM      5  C7  UNL d   1      -0.671   4.246  -2.474  0.00  0.00     0.002 A 
ATOM      6  C8  UNL d   1      -0.391   3.170  -1.630  0.00  0.00     0.002 A 
ENDROOT
BRANCH   1   7
ATOM      7  C2  UNL d   1       0.084   2.206   0.656  0.00  0.00     0.056 C 
BRANCH   7   8
ATOM      8  C1  UNL d   1      -1.159   1.663   1.370  0.00  0.00     0.007 C 
ATOM      9  C   UNL d   1      -0.839   0.970   2.688  0.00  0.00     0.009 C 
ENDBRANCH   7   8
ENDBRANCH   1   7
TORSDOF 2
ENDMDL
