MODEL 1
REMARK minimizedAffinity 7.12684011
REMARK minimizedRMSD -1
REMARK  2 active torsions:
REMARK  status: ('A' for Active; 'I' for Inactive)
REMARK    1  A    between atoms: C1_2  and  C2_3 
REMARK    2  A    between atoms: C2_3  and  C3_4 
ROOT
ATOM      1  C3  UNL d   1      -0.452   2.992   0.298  0.00  0.00    -0.075 A 
ATOM      2  C4  UNL d   1       0.194   3.058  -0.946  0.00  0.00     0.002 A 
ATOM      3  C5  UNL d   1       0.419   4.289  -1.562  0.00  0.00     0.002 A 
ATOM      4  C6  UNL d   1      -0.005   5.466  -0.950  0.00  0.00    -0.004 A 
ATOM      5  C7  UNL d   1      -0.662   5.411   0.277  0.00  0.00     0.002 A 
ATOM      6  C8  UNL d   1      -0.885   4.181   0.899  0.00  0.00     0.002 A 
ENDROOT
BRANCH   1   7
ATOM      7  C2  UNL d   1      -0.673   1.665   0.984  0.00  0.00     0.056 C 
BRANCH   7   8
ATOM      8  C1  UNL d   1      -1.921   1.622   1.871  0.00  0.00     0.007 C 
ATOM      9  C   UNL d   1      -1.896   0.489   2.888  0.00  0.00     0.009 C 
ENDBRANCH   7   8
ENDBRANCH   1   7
TORSDOF 2
ENDMDL
