MODEL 1
REMARK minimizedAffinity 6.86637497
REMARK minimizedRMSD -1
REMARK  2 active torsions:
REMARK  status: ('A' for Active; 'I' for Inactive)
REMARK    1  A    between atoms: C1_2  and  C2_3 
REMARK    2  A    between atoms: C2_3  and  C3_4 
ROOT
ATOM      1  C3  UNL d   1      -0.080   3.991  -0.564  0.00  0.00    -0.075 A 
ATOM      2  C4  UNL d   1      -0.701   5.207  -0.243  0.00  0.00     0.002 A 
ATOM      3  C5  UNL d   1      -1.594   5.803  -1.134  0.00  0.00     0.002 A 
ATOM      4  C6  UNL d   1      -1.870   5.198  -2.358  0.00  0.00    -0.004 A 
ATOM      5  C7  UNL d   1      -1.247   3.998  -2.694  0.00  0.00     0.002 A 
ATOM      6  C8  UNL d   1      -0.356   3.397  -1.803  0.00  0.00     0.002 A 
ENDROOT
BRANCH   1   7
ATOM      7  C2  UNL d   1       0.864   3.326   0.408  0.00  0.00     0.056 C 
BRANCH   7   8
ATOM      8  C1  UNL d   1       0.305   2.050   1.048  0.00  0.00     0.007 C 
ATOM      9  C   UNL d   1      -1.211   1.947   0.954  0.00  0.00     0.009 C 
ENDBRANCH   7   8
ENDBRANCH   1   7
TORSDOF 2
ENDMDL
