MODEL 1
REMARK minimizedAffinity 6.91055298
REMARK minimizedRMSD -1
REMARK  2 active torsions:
REMARK  status: ('A' for Active; 'I' for Inactive)
REMARK    1  A    between atoms: C1_2  and  C2_3 
REMARK    2  A    between atoms: C2_3  and  C3_4 
ROOT
ATOM      1  C3  UNL d   1      -1.086   5.030   0.128  0.00  0.00    -0.075 A 
ATOM      2  C4  UNL d   1       0.265   5.394   0.024  0.00  0.00     0.002 A 
ATOM      3  C5  UNL d   1       1.172   4.568  -0.640  0.00  0.00     0.002 A 
ATOM      4  C6  UNL d   1       0.744   3.365  -1.198  0.00  0.00    -0.004 A 
ATOM      5  C7  UNL d   1      -0.592   2.986  -1.087  0.00  0.00     0.002 A 
ATOM      6  C8  UNL d   1      -1.503   3.813  -0.427  0.00  0.00     0.002 A 
ENDROOT
BRANCH   1   7
ATOM      7  C2  UNL d   1      -2.078   5.934   0.819  0.00  0.00     0.056 C 
BRANCH   7   8
ATOM      8  C1  UNL d   1      -3.474   5.926   0.187  0.00  0.00     0.007 C 
ATOM      9  C   UNL d   1      -4.598   6.000   1.213  0.00  0.00     0.009 C 
ENDBRANCH   7   8
ENDBRANCH   1   7
TORSDOF 2
ENDMDL
