MODEL 1
REMARK minimizedAffinity 7.25382805
REMARK minimizedRMSD -1
REMARK  2 active torsions:
REMARK  status: ('A' for Active; 'I' for Inactive)
REMARK    1  A    between atoms: C1_2  and  C2_3 
REMARK    2  A    between atoms: C2_3  and  C3_4 
ROOT
ATOM      1  C3  UNL d   1      -1.112   2.788  -1.800  0.00  0.00    -0.075 A 
ATOM      2  C4  UNL d   1      -0.303   3.930  -1.886  0.00  0.00     0.002 A 
ATOM      3  C5  UNL d   1       0.490   4.320  -0.806  0.00  0.00     0.002 A 
ATOM      4  C6  UNL d   1       0.476   3.580   0.374  0.00  0.00    -0.004 A 
ATOM      5  C7  UNL d   1      -0.337   2.454   0.477  0.00  0.00     0.002 A 
ATOM      6  C8  UNL d   1      -1.128   2.059  -0.604  0.00  0.00     0.002 A 
ENDROOT
BRANCH   1   7
ATOM      7  C2  UNL d   1      -1.950   2.345  -2.976  0.00  0.00     0.056 C 
BRANCH   7   8
ATOM      8  C1  UNL d   1      -3.198   1.545  -2.586  0.00  0.00     0.007 C 
ATOM      9  C   UNL d   1      -2.880   0.292  -1.781  0.00  0.00     0.009 C 
ENDBRANCH   7   8
ENDBRANCH   1   7
TORSDOF 2
ENDMDL
