MODEL 1
REMARK minimizedAffinity -0.0607819557
REMARK minimizedRMSD -1
REMARK  2 active torsions:
REMARK  status: ('A' for Active; 'I' for Inactive)
REMARK    1  A    between atoms: C1_2  and  C2_3 
REMARK    2  A    between atoms: C2_3  and  C3_4 
ROOT
ATOM      1  C3  UNL d   1      -0.702  -2.159   3.295  0.00  0.00    -0.075 A 
ATOM      2  C4  UNL d   1      -1.191  -2.093   4.607  0.00  0.00     0.002 A 
ATOM      3  C5  UNL d   1      -1.465  -3.261   5.321  0.00  0.00     0.002 A 
ATOM      4  C6  UNL d   1      -1.264  -4.506   4.729  0.00  0.00    -0.004 A 
ATOM      5  C7  UNL d   1      -0.795  -4.583   3.420  0.00  0.00     0.002 A 
ATOM      6  C8  UNL d   1      -0.516  -3.417   2.705  0.00  0.00     0.002 A 
ENDROOT
BRANCH   1   7
ATOM      7  C2  UNL d   1      -0.376  -0.900   2.527  0.00  0.00     0.056 C 
BRANCH   7   8
ATOM      8  C1  UNL d   1      -1.551   0.075   2.401  0.00  0.00     0.007 C 
ATOM      9  C   UNL d   1      -1.276   1.431   3.037  0.00  0.00     0.009 C 
ENDBRANCH   7   8
ENDBRANCH   1   7
TORSDOF 2
ENDMDL
