MODEL 1
REMARK minimizedAffinity 6.17087936
REMARK minimizedRMSD -1
REMARK  2 active torsions:
REMARK  status: ('A' for Active; 'I' for Inactive)
REMARK    1  A    between atoms: C1_2  and  C2_3 
REMARK    2  A    between atoms: C2_3  and  C3_4 
ROOT
ATOM      1  C3  UNL d   1      -0.046   3.285   1.410  0.00  0.00    -0.075 A 
ATOM      2  C4  UNL d   1       1.023   3.856   2.116  0.00  0.00     0.002 A 
ATOM      3  C5  UNL d   1       1.339   5.205   1.953  0.00  0.00     0.002 A 
ATOM      4  C6  UNL d   1       0.599   5.996   1.077  0.00  0.00    -0.004 A 
ATOM      5  C7  UNL d   1      -0.454   5.435   0.358  0.00  0.00     0.002 A 
ATOM      6  C8  UNL d   1      -0.775   4.087   0.522  0.00  0.00     0.002 A 
ENDROOT
BRANCH   1   7
ATOM      7  C2  UNL d   1      -0.412   1.833   1.604  0.00  0.00     0.056 C 
BRANCH   7   8
ATOM      8  C1  UNL d   1      -0.928   1.502   3.009  0.00  0.00     0.007 C 
ATOM      9  C   UNL d   1      -2.320   0.884   3.007  0.00  0.00     0.009 C 
ENDBRANCH   7   8
ENDBRANCH   1   7
TORSDOF 2
ENDMDL
