MODEL 1
REMARK minimizedAffinity 7.06484747
REMARK minimizedRMSD -1
REMARK  2 active torsions:
REMARK  status: ('A' for Active; 'I' for Inactive)
REMARK    1  A    between atoms: C1_2  and  C2_3 
REMARK    2  A    between atoms: C2_3  and  C3_4 
ROOT
ATOM      1  C3  UNL d   1      -1.318  -0.831   3.580  0.00  0.00    -0.075 A 
ATOM      2  C4  UNL d   1      -0.135  -1.554   3.368  0.00  0.00     0.002 A 
ATOM      3  C5  UNL d   1      -0.078  -2.919   3.654  0.00  0.00     0.002 A 
ATOM      4  C6  UNL d   1      -1.197  -3.574   4.164  0.00  0.00    -0.004 A 
ATOM      5  C7  UNL d   1      -2.372  -2.862   4.394  0.00  0.00     0.002 A 
ATOM      6  C8  UNL d   1      -2.433  -1.497   4.105  0.00  0.00     0.002 A 
ENDROOT
BRANCH   1   7
ATOM      7  C2  UNL d   1      -1.395   0.639   3.245  0.00  0.00     0.056 C 
BRANCH   7   8
ATOM      8  C1  UNL d   1      -0.031   1.299   3.018  0.00  0.00     0.007 C 
ATOM      9  C   UNL d   1       0.569   1.891   4.287  0.00  0.00     0.009 C 
ENDBRANCH   7   8
ENDBRANCH   1   7
TORSDOF 2
ENDMDL
