MODEL 1
REMARK minimizedAffinity -5.84014845
REMARK minimizedRMSD -1
REMARK  0 active torsions:
REMARK  status: ('A' for Active; 'I' for Inactive)
ROOT
ATOM      1  C2' OXE d   1      -4.963   0.670   1.590  0.00  0.00     0.078 C 
ATOM      2  C1' OXE d   1      -2.959   2.413   2.499  0.00  0.00     0.078 C 
ATOM      3  C1  OXE d   1      -2.530   1.184   1.739  0.00  0.00    -0.078 A 
ATOM      4  C2  OXE d   1      -3.514   0.312   1.338  0.00  0.00    -0.078 A 
ATOM      5  C3  OXE d   1      -3.177  -0.809   0.586  0.00  0.00     0.003 A 
ATOM      6  C4  OXE d   1      -1.834  -1.138   0.366  0.00  0.00    -0.002 A 
ATOM      7  C5  OXE d   1      -0.814  -0.285   0.800  0.00  0.00    -0.002 A 
ATOM      8  C6  OXE d   1      -1.146   0.899   1.449  0.00  0.00     0.003 A 
ENDROOT
TORSDOF 0
ENDMDL
