MODEL 1
REMARK minimizedAffinity -4.72590113
REMARK minimizedRMSD -1
REMARK  0 active torsions:
REMARK  status: ('A' for Active; 'I' for Inactive)
ROOT
ATOM      1  C2' OXE d   1      -1.211  -1.230  -0.304  0.00  0.00     0.078 C 
ATOM      2  C1' OXE d   1      -3.541   0.283   0.098  0.00  0.00     0.078 C 
ATOM      3  C1  OXE d   1      -2.543   0.214   1.227  0.00  0.00    -0.078 A 
ATOM      4  C2  OXE d   1      -1.428  -0.566   1.039  0.00  0.00    -0.078 A 
ATOM      5  C3  OXE d   1      -0.449  -0.621   2.028  0.00  0.00     0.003 A 
ATOM      6  C4  OXE d   1      -0.663  -0.012   3.270  0.00  0.00    -0.002 A 
ATOM      7  C5  OXE d   1      -1.810   0.755   3.497  0.00  0.00    -0.002 A 
ATOM      8  C6  OXE d   1      -2.738   0.913   2.474  0.00  0.00     0.003 A 
ENDROOT
TORSDOF 0
ENDMDL
