MODEL 1
REMARK minimizedAffinity -4.37998152
REMARK minimizedRMSD -1
REMARK  0 active torsions:
REMARK  status: ('A' for Active; 'I' for Inactive)
ROOT
ATOM      1  C2' OXE d   1      -0.387  -2.086   0.059  0.00  0.00     0.078 C 
ATOM      2  C1' OXE d   1       0.886  -0.070   1.541  0.00  0.00     0.078 C 
ATOM      3  C1  OXE d   1      -0.621  -0.047   1.471  0.00  0.00    -0.078 A 
ATOM      4  C2  OXE d   1      -1.233  -1.010   0.705  0.00  0.00    -0.078 A 
ATOM      5  C3  OXE d   1      -2.622  -1.068   0.651  0.00  0.00     0.003 A 
ATOM      6  C4  OXE d   1      -3.397  -0.063   1.243  0.00  0.00    -0.002 A 
ATOM      7  C5  OXE d   1      -2.792   0.950   1.994  0.00  0.00    -0.002 A 
ATOM      8  C6  OXE d   1      -1.410   0.948   2.153  0.00  0.00     0.003 A 
ENDROOT
TORSDOF 0
ENDMDL
