MODEL 1
REMARK minimizedAffinity -4.61934662
REMARK minimizedRMSD -1
REMARK  0 active torsions:
REMARK  status: ('A' for Active; 'I' for Inactive)
ROOT
ATOM      1  C2' OXE d   1      -0.456  -2.849  -2.084  0.00  0.00     0.078 C 
ATOM      2  C1' OXE d   1       2.199  -2.212  -1.432  0.00  0.00     0.078 C 
ATOM      3  C1  OXE d   1       1.103  -1.614  -0.585  0.00  0.00    -0.078 A 
ATOM      4  C2  OXE d   1      -0.194  -1.894  -0.940  0.00  0.00    -0.078 A 
ATOM      5  C3  OXE d   1      -1.242  -1.412  -0.160  0.00  0.00     0.003 A 
ATOM      6  C4  OXE d   1      -0.992  -0.521   0.890  0.00  0.00    -0.002 A 
ATOM      7  C5  OXE d   1       0.321  -0.191   1.244  0.00  0.00    -0.002 A 
ATOM      8  C6  OXE d   1       1.379  -0.762   0.545  0.00  0.00     0.003 A 
ENDROOT
TORSDOF 0
ENDMDL
