MODEL 1
REMARK minimizedAffinity -0.34935227
REMARK minimizedRMSD -1
REMARK  0 active torsions:
REMARK  status: ('A' for Active; 'I' for Inactive)
ROOT
ATOM      1  C2' OXE d   1      -4.229  -2.010   0.801  0.00  0.00     0.078 C 
ATOM      2  C1' OXE d   1      -3.178  -0.885   3.149  0.00  0.00     0.078 C 
ATOM      3  C1  OXE d   1      -2.308  -0.883   1.917  0.00  0.00    -0.078 A 
ATOM      4  C2  OXE d   1      -2.813  -1.477   0.785  0.00  0.00    -0.078 A 
ATOM      5  C3  OXE d   1      -2.073  -1.454  -0.394  0.00  0.00     0.003 A 
ATOM      6  C4  OXE d   1      -0.760  -0.968  -0.398  0.00  0.00    -0.002 A 
ATOM      7  C5  OXE d   1      -0.212  -0.395   0.754  0.00  0.00    -0.002 A 
ATOM      8  C6  OXE d   1      -0.986  -0.306   1.906  0.00  0.00     0.003 A 
ENDROOT
TORSDOF 0
ENDMDL
