MODEL 1
REMARK minimizedAffinity -5.10955858
REMARK minimizedRMSD -1
REMARK  0 active torsions:
REMARK  status: ('A' for Active; 'I' for Inactive)
ROOT
ATOM      1  C2' OXE d   1      -0.436  -0.879  -0.210  0.00  0.00     0.078 C 
ATOM      2  C1' OXE d   1      -3.107  -0.014  -0.250  0.00  0.00     0.078 C 
ATOM      3  C1  OXE d   1      -2.326   0.172   1.027  0.00  0.00    -0.078 A 
ATOM      4  C2  OXE d   1      -1.034  -0.297   1.052  0.00  0.00    -0.078 A 
ATOM      5  C3  OXE d   1      -0.252  -0.101   2.187  0.00  0.00     0.003 A 
ATOM      6  C4  OXE d   1      -0.816   0.429   3.354  0.00  0.00    -0.002 A 
ATOM      7  C5  OXE d   1      -2.141   0.876   3.362  0.00  0.00    -0.002 A 
ATOM      8  C6  OXE d   1      -2.895   0.794   2.197  0.00  0.00     0.003 A 
ENDROOT
TORSDOF 0
ENDMDL
