MODEL 1
REMARK minimizedAffinity -5.19641972
REMARK minimizedRMSD -1
REMARK  0 active torsions:
REMARK  status: ('A' for Active; 'I' for Inactive)
ROOT
ATOM      1  C2' OXE d   1       0.027  -1.260  -0.939  0.00  0.00     0.078 C 
ATOM      2  C1' OXE d   1       1.157  -1.249   1.631  0.00  0.00     0.078 C 
ATOM      3  C1  OXE d   1      -0.267  -0.775   1.487  0.00  0.00    -0.078 A 
ATOM      4  C2  OXE d   1      -0.797  -0.739   0.219  0.00  0.00    -0.078 A 
ATOM      5  C3  OXE d   1      -2.124  -0.362   0.036  0.00  0.00     0.003 A 
ATOM      6  C4  OXE d   1      -2.876   0.127   1.111  0.00  0.00    -0.002 A 
ATOM      7  C5  OXE d   1      -2.343   0.137   2.405  0.00  0.00    -0.002 A 
ATOM      8  C6  OXE d   1      -1.057  -0.349   2.615  0.00  0.00     0.003 A 
ENDROOT
TORSDOF 0
ENDMDL
