MODEL 1
REMARK minimizedAffinity -2.59823513
REMARK minimizedRMSD -1
REMARK  0 active torsions:
REMARK  status: ('A' for Active; 'I' for Inactive)
ROOT
ATOM      1  C2' OXE d   1      -1.037  -1.546  -1.225  0.00  0.00     0.078 C 
ATOM      2  C1' OXE d   1      -3.694  -0.778  -0.746  0.00  0.00     0.078 C 
ATOM      3  C1  OXE d   1      -2.707  -0.637   0.385  0.00  0.00    -0.078 A 
ATOM      4  C2  OXE d   1      -1.419  -1.059   0.156  0.00  0.00    -0.078 A 
ATOM      5  C3  OXE d   1      -0.455  -0.900   1.148  0.00  0.00     0.003 A 
ATOM      6  C4  OXE d   1      -0.819  -0.459   2.426  0.00  0.00    -0.002 A 
ATOM      7  C5  OXE d   1      -2.134  -0.061   2.692  0.00  0.00    -0.002 A 
ATOM      8  C6  OXE d   1      -3.078  -0.104   1.672  0.00  0.00     0.003 A 
ENDROOT
TORSDOF 0
ENDMDL
