MODEL 1
REMARK minimizedAffinity 0.679017365
REMARK minimizedRMSD -1
REMARK  0 active torsions:
REMARK  status: ('A' for Active; 'I' for Inactive)
ROOT
ATOM      1  C2' OXE d   1      -0.187   0.830  -5.632  0.00  0.00     0.078 C 
ATOM      2  C1' OXE d   1       2.507   0.506  -4.915  0.00  0.00     0.078 C 
ATOM      3  C1  OXE d   1       1.487  -0.370  -4.231  0.00  0.00    -0.078 A 
ATOM      4  C2  OXE d   1       0.166  -0.172  -4.554  0.00  0.00    -0.078 A 
ATOM      5  C3  OXE d   1      -0.810  -0.990  -3.994  0.00  0.00     0.003 A 
ATOM      6  C4  OXE d   1      -0.476  -1.908  -2.991  0.00  0.00    -0.002 A 
ATOM      7  C5  OXE d   1       0.859  -2.097  -2.618  0.00  0.00    -0.002 A 
ATOM      8  C6  OXE d   1       1.855  -1.368  -3.258  0.00  0.00     0.003 A 
ENDROOT
TORSDOF 0
ENDMDL
