MODEL 1
REMARK minimizedAffinity -3.3048017
REMARK minimizedRMSD -1
REMARK  0 active torsions:
REMARK  status: ('A' for Active; 'I' for Inactive)
ROOT
ATOM      1  C2' OXE d   1       0.903  -1.203   1.487  0.00  0.00     0.078 C 
ATOM      2  C1' OXE d   1      -0.504  -0.402   3.780  0.00  0.00     0.078 C 
ATOM      3  C1  OXE d   1      -1.231  -0.362   2.459  0.00  0.00    -0.078 A 
ATOM      4  C2  OXE d   1      -0.520  -0.711   1.336  0.00  0.00    -0.078 A 
ATOM      5  C3  OXE d   1      -1.158  -0.745   0.099  0.00  0.00     0.003 A 
ATOM      6  C4  OXE d   1      -2.472  -0.279  -0.033  0.00  0.00    -0.002 A 
ATOM      7  C5  OXE d   1      -3.201   0.119   1.092  0.00  0.00    -0.002 A 
ATOM      8  C6  OXE d   1      -2.611   0.043   2.349  0.00  0.00     0.003 A 
ENDROOT
TORSDOF 0
ENDMDL
