MODEL 1
REMARK minimizedAffinity -1.57370615
REMARK minimizedRMSD -1
REMARK  0 active torsions:
REMARK  status: ('A' for Active; 'I' for Inactive)
ROOT
ATOM      1  C1  DEN d   1      -1.156  -0.983   2.406  0.00  0.00     0.130 A 
ATOM      2  C2  DEN d   1      -1.878  -0.652   1.180  0.00  0.00    -0.031 A 
ATOM      3  C3  DEN d   1      -0.886  -0.285   0.150  0.00  0.00     0.027 A 
ATOM      4  C4  DEN d   1       1.686  -0.201   0.332  0.00  0.00     0.027 A 
ATOM      5  C5  DEN d   1       2.758  -0.385   1.177  0.00  0.00    -0.003 A 
ATOM      6  C6  DEN d   1       2.601  -0.745   2.489  0.00  0.00     0.001 A 
ATOM      7  C7  DEN d   1       1.344  -0.977   2.983  0.00  0.00     0.017 A 
ATOM      8  C8  DEN d   1       0.258  -0.786   2.139  0.00  0.00    -0.094 A 
ATOM      9  C9  DEN d   1       0.438  -0.434   0.812  0.00  0.00    -0.072 A 
ENDROOT
TORSDOF 0
ENDMDL
