MODEL 1
REMARK minimizedAffinity -5.83921289
REMARK minimizedRMSD -1
REMARK  0 active torsions:
REMARK  status: ('A' for Active; 'I' for Inactive)
ROOT
ATOM      1  C1  DEN d   1       2.536  -1.663   1.464  0.00  0.00     0.130 A 
ATOM      2  C2  DEN d   1       2.245  -1.439   2.877  0.00  0.00    -0.031 A 
ATOM      3  C3  DEN d   1       0.873  -0.904   2.981  0.00  0.00     0.027 A 
ATOM      4  C4  DEN d   1      -0.823  -0.409   1.101  0.00  0.00     0.027 A 
ATOM      5  C5  DEN d   1      -1.026  -0.429  -0.261  0.00  0.00    -0.003 A 
ATOM      6  C6  DEN d   1      -0.052  -0.826  -1.139  0.00  0.00     0.001 A 
ATOM      7  C7  DEN d   1       1.155  -1.262  -0.661  0.00  0.00     0.017 A 
ATOM      8  C8  DEN d   1       1.370  -1.239   0.711  0.00  0.00    -0.094 A 
ATOM      9  C9  DEN d   1       0.369  -0.846   1.582  0.00  0.00    -0.072 A 
ENDROOT
TORSDOF 0
ENDMDL
