MODEL 1
REMARK minimizedAffinity -6.12899065
REMARK minimizedRMSD -1
REMARK  0 active torsions:
REMARK  status: ('A' for Active; 'I' for Inactive)
ROOT
ATOM      1  C1  DEN d   1       2.550  -1.475   1.671  0.00  0.00     0.130 A 
ATOM      2  C2  DEN d   1       2.026  -1.258   3.017  0.00  0.00    -0.031 A 
ATOM      3  C3  DEN d   1       0.689  -0.644   2.892  0.00  0.00     0.027 A 
ATOM      4  C4  DEN d   1      -0.616  -0.016   0.757  0.00  0.00     0.027 A 
ATOM      5  C5  DEN d   1      -0.574   0.001  -0.619  0.00  0.00    -0.003 A 
ATOM      6  C6  DEN d   1       0.516  -0.437  -1.322  0.00  0.00     0.001 A 
ATOM      7  C7  DEN d   1       1.593  -0.954  -0.652  0.00  0.00     0.017 A 
ATOM      8  C8  DEN d   1       1.562  -0.968   0.736  0.00  0.00    -0.094 A 
ATOM      9  C9  DEN d   1       0.445  -0.531   1.429  0.00  0.00    -0.072 A 
ENDROOT
TORSDOF 0
ENDMDL
