MODEL 1
REMARK minimizedAffinity -2.60816836
REMARK minimizedRMSD -1
REMARK  0 active torsions:
REMARK  status: ('A' for Active; 'I' for Inactive)
ROOT
ATOM      1  C1  DEN d   1      -1.620   2.641  -2.409  0.00  0.00     0.130 A 
ATOM      2  C2  DEN d   1      -0.483   3.546  -2.549  0.00  0.00    -0.031 A 
ATOM      3  C3  DEN d   1       0.701   2.884  -1.965  0.00  0.00     0.027 A 
ATOM      4  C4  DEN d   1       0.883   0.557  -0.868  0.00  0.00     0.027 A 
ATOM      5  C5  DEN d   1       0.182  -0.573  -0.509  0.00  0.00    -0.003 A 
ATOM      6  C6  DEN d   1      -1.165  -0.696  -0.726  0.00  0.00     0.001 A 
ATOM      7  C7  DEN d   1      -1.845   0.310  -1.359  0.00  0.00     0.017 A 
ATOM      8  C8  DEN d   1      -1.146   1.456  -1.717  0.00  0.00    -0.094 A 
ATOM      9  C9  DEN d   1       0.218   1.556  -1.500  0.00  0.00    -0.072 A 
ENDROOT
TORSDOF 0
ENDMDL
