MODEL 1
REMARK minimizedAffinity 2.57363176
REMARK minimizedRMSD -1
REMARK  0 active torsions:
REMARK  status: ('A' for Active; 'I' for Inactive)
ROOT
ATOM      1  C   UNL d   1      -2.131   5.992   4.846  0.00  0.00     0.020 A 
ATOM      2  C1  UNL d   1      -3.380   5.993   5.466  0.00  0.00     0.020 A 
ATOM      3  C2  UNL d   1      -4.543   5.995   4.693  0.00  0.00     0.034 A 
ATOM      4  C3  UNL d   1      -4.460   5.997   3.296  0.00  0.00     0.017 A 
ATOM      5  C4  UNL d   1      -3.206   5.997   2.674  0.00  0.00     0.017 A 
ATOM      6  C5  UNL d   1      -2.044   5.995   3.453  0.00  0.00     0.034 A 
ATOM      7 Cl   UNL d   1      -3.023   5.999   0.956  0.00  0.00    -0.070 Cl
ATOM      8 Cl1  UNL d   1      -5.939   6.000   2.402  0.00  0.00    -0.070 Cl
ENDROOT
TORSDOF 0
ENDMDL
