MODEL 1
REMARK minimizedAffinity -0.592227221
REMARK minimizedRMSD -1
REMARK  0 active torsions:
REMARK  status: ('A' for Active; 'I' for Inactive)
ROOT
ATOM      1  C   UNL d   1      -4.055   5.957   5.398  0.00  0.00     0.020 A 
ATOM      2  C1  UNL d   1      -2.684   5.985   5.146  0.00  0.00     0.020 A 
ATOM      3  C2  UNL d   1      -2.216   5.998   3.831  0.00  0.00     0.034 A 
ATOM      4  C3  UNL d   1      -3.120   5.981   2.762  0.00  0.00     0.017 A 
ATOM      5  C4  UNL d   1      -4.496   5.953   3.016  0.00  0.00     0.017 A 
ATOM      6  C5  UNL d   1      -4.959   5.940   4.335  0.00  0.00     0.034 A 
ATOM      7 Cl   UNL d   1      -5.672   5.931   1.749  0.00  0.00    -0.070 Cl
ATOM      8 Cl1  UNL d   1      -2.471   5.999   1.161  0.00  0.00    -0.070 Cl
ENDROOT
TORSDOF 0
ENDMDL
