MODEL 1
REMARK minimizedAffinity 5.53723812
REMARK minimizedRMSD -1
REMARK  0 active torsions:
REMARK  status: ('A' for Active; 'I' for Inactive)
ROOT
ATOM      1  C   UNL d   1      -5.982   5.987   2.456  0.00  0.00     0.020 A 
ATOM      2  C1  UNL d   1      -5.751   5.988   3.831  0.00  0.00     0.020 A 
ATOM      3  C2  UNL d   1      -4.443   5.992   4.319  0.00  0.00     0.034 A 
ATOM      4  C3  UNL d   1      -3.360   5.994   3.432  0.00  0.00     0.017 A 
ATOM      5  C4  UNL d   1      -3.593   5.993   2.052  0.00  0.00     0.017 A 
ATOM      6  C5  UNL d   1      -4.905   5.989   1.568  0.00  0.00     0.034 A 
ATOM      7 Cl   UNL d   1      -2.309   5.995   0.895  0.00  0.00    -0.070 Cl
ATOM      8 Cl1  UNL d   1      -1.769   5.999   4.105  0.00  0.00    -0.070 Cl
ENDROOT
TORSDOF 0
ENDMDL
