MODEL 1
REMARK minimizedAffinity 3.11263394
REMARK minimizedRMSD -1
REMARK  0 active torsions:
REMARK  status: ('A' for Active; 'I' for Inactive)
ROOT
ATOM      1  C   UNL d   1      -2.576   5.999   5.556  0.00  0.00     0.020 A 
ATOM      2  C1  UNL d   1      -3.921   5.999   5.922  0.00  0.00     0.020 A 
ATOM      3  C2  UNL d   1      -4.912   6.000   4.939  0.00  0.00     0.034 A 
ATOM      4  C3  UNL d   1      -4.560   5.999   3.584  0.00  0.00     0.017 A 
ATOM      5  C4  UNL d   1      -3.209   5.999   3.218  0.00  0.00     0.017 A 
ATOM      6  C5  UNL d   1      -2.220   5.998   4.207  0.00  0.00     0.034 A 
ATOM      7 Cl   UNL d   1      -2.696   5.998   1.567  0.00  0.00    -0.070 Cl
ATOM      8 Cl1  UNL d   1      -5.838   6.000   2.421  0.00  0.00    -0.070 Cl
ENDROOT
TORSDOF 0
ENDMDL
