MODEL 1
REMARK minimizedAffinity 7.23289442
REMARK minimizedRMSD -1
REMARK  0 active torsions:
REMARK  status: ('A' for Active; 'I' for Inactive)
ROOT
ATOM      1  C   UNL d   1      -2.117  -1.073   0.559  0.00  0.00     0.020 A 
ATOM      2  C1  UNL d   1      -2.801  -2.152   1.119  0.00  0.00     0.020 A 
ATOM      3  C2  UNL d   1      -3.437  -2.011   2.353  0.00  0.00     0.034 A 
ATOM      4  C3  UNL d   1      -3.392  -0.788   3.033  0.00  0.00     0.017 A 
ATOM      5  C4  UNL d   1      -2.706   0.295   2.470  0.00  0.00     0.017 A 
ATOM      6  C5  UNL d   1      -2.070   0.147   1.233  0.00  0.00     0.034 A 
ATOM      7 Cl   UNL d   1      -2.607   1.835   3.248  0.00  0.00    -0.070 Cl
ATOM      8 Cl1  UNL d   1      -4.202  -0.684   4.555  0.00  0.00    -0.070 Cl
ENDROOT
TORSDOF 0
ENDMDL
