MODEL 1
REMARK minimizedAffinity 3.79175663
REMARK minimizedRMSD -1
REMARK  0 active torsions:
REMARK  status: ('A' for Active; 'I' for Inactive)
ROOT
ATOM      1  C   UNL d   1      -4.460   6.000   5.643  0.00  0.00     0.020 A 
ATOM      2  C1  UNL d   1      -3.082   6.000   5.428  0.00  0.00     0.020 A 
ATOM      3  C2  UNL d   1      -2.579   5.999   4.126  0.00  0.00     0.034 A 
ATOM      4  C3  UNL d   1      -3.453   5.999   3.033  0.00  0.00     0.017 A 
ATOM      5  C4  UNL d   1      -4.836   5.999   3.249  0.00  0.00     0.017 A 
ATOM      6  C5  UNL d   1      -5.335   6.000   4.555  0.00  0.00     0.034 A 
ATOM      7 Cl   UNL d   1      -5.977   5.999   1.951  0.00  0.00    -0.070 Cl
ATOM      8 Cl1  UNL d   1      -2.761   5.999   1.450  0.00  0.00    -0.070 Cl
ENDROOT
TORSDOF 0
ENDMDL
