MODEL 1
REMARK minimizedAffinity -0.173360258
REMARK minimizedRMSD -1
REMARK  0 active torsions:
REMARK  status: ('A' for Active; 'I' for Inactive)
ROOT
ATOM      1  C   UNL d   1      -2.628   6.000   5.163  0.00  0.00     0.020 A 
ATOM      2  C1  UNL d   1      -3.986   5.999   5.479  0.00  0.00     0.020 A 
ATOM      3  C2  UNL d   1      -4.940   5.997   4.460  0.00  0.00     0.034 A 
ATOM      4  C3  UNL d   1      -4.538   5.997   3.119  0.00  0.00     0.017 A 
ATOM      5  C4  UNL d   1      -3.174   5.998   2.803  0.00  0.00     0.017 A 
ATOM      6  C5  UNL d   1      -2.223   6.000   3.828  0.00  0.00     0.034 A 
ATOM      7 Cl   UNL d   1      -2.601   5.998   1.173  0.00  0.00    -0.070 Cl
ATOM      8 Cl1  UNL d   1      -5.772   5.995   1.910  0.00  0.00    -0.070 Cl
ENDROOT
TORSDOF 0
ENDMDL
