MODEL 1
REMARK minimizedAffinity 4.69618893
REMARK minimizedRMSD -1
REMARK  0 active torsions:
REMARK  status: ('A' for Active; 'I' for Inactive)
ROOT
ATOM      1  C   UNL d   1      -2.978   5.917   5.280  0.00  0.00     0.020 A 
ATOM      2  C1  UNL d   1      -4.259   5.508   5.650  0.00  0.00     0.020 A 
ATOM      3  C2  UNL d   1      -5.159   5.068   4.678  0.00  0.00     0.034 A 
ATOM      4  C3  UNL d   1      -4.781   5.037   3.331  0.00  0.00     0.017 A 
ATOM      5  C4  UNL d   1      -3.495   5.448   2.960  0.00  0.00     0.017 A 
ATOM      6  C5  UNL d   1      -2.597   5.887   3.938  0.00  0.00     0.034 A 
ATOM      7 Cl   UNL d   1      -2.955   5.437   1.319  0.00  0.00    -0.070 Cl
ATOM      8 Cl1  UNL d   1      -5.945   4.481   2.182  0.00  0.00    -0.070 Cl
ENDROOT
TORSDOF 0
ENDMDL
