MODEL 1
REMARK minimizedAffinity 5.64101362
REMARK minimizedRMSD -1
REMARK  0 active torsions:
REMARK  status: ('A' for Active; 'I' for Inactive)
ROOT
ATOM      1  C   UNL d   1      -3.945   5.948   1.487  0.00  0.00     0.020 A 
ATOM      2  C1  UNL d   1      -5.260   5.956   1.950  0.00  0.00     0.020 A 
ATOM      3  C2  UNL d   1      -5.517   5.968   3.322  0.00  0.00     0.034 A 
ATOM      4  C3  UNL d   1      -4.457   5.972   4.237  0.00  0.00     0.017 A 
ATOM      5  C4  UNL d   1      -3.137   5.963   3.771  0.00  0.00     0.017 A 
ATOM      6  C5  UNL d   1      -2.886   5.951   2.395  0.00  0.00     0.034 A 
ATOM      7 Cl   UNL d   1      -1.778   5.967   4.838  0.00  0.00    -0.070 Cl
ATOM      8 Cl1  UNL d   1      -4.848   5.987   5.920  0.00  0.00    -0.070 Cl
ENDROOT
TORSDOF 0
ENDMDL
