MODEL 1
REMARK minimizedAffinity 3.63637233
REMARK minimizedRMSD -1
REMARK  0 active torsions:
REMARK  status: ('A' for Active; 'I' for Inactive)
ROOT
ATOM      1  C   UNL d   1      -2.592   5.984   5.443  0.00  0.00     0.020 A 
ATOM      2  C1  UNL d   1      -3.947   5.993   5.772  0.00  0.00     0.020 A 
ATOM      3  C2  UNL d   1      -4.911   5.998   4.762  0.00  0.00     0.034 A 
ATOM      4  C3  UNL d   1      -4.522   5.993   3.418  0.00  0.00     0.017 A 
ATOM      5  C4  UNL d   1      -3.162   5.984   3.088  0.00  0.00     0.017 A 
ATOM      6  C5  UNL d   1      -2.201   5.979   4.103  0.00  0.00     0.034 A 
ATOM      7 Cl   UNL d   1      -2.606   5.977   1.452  0.00  0.00    -0.070 Cl
ATOM      8 Cl1  UNL d   1      -5.769   6.000   2.221  0.00  0.00    -0.070 Cl
ENDROOT
TORSDOF 0
ENDMDL
