MODEL 1
REMARK minimizedAffinity -0.584595025
REMARK minimizedRMSD -1
REMARK  0 active torsions:
REMARK  status: ('A' for Active; 'I' for Inactive)
ROOT
ATOM      1  C   UNL d   1      -3.951   5.995   5.564  0.00  0.00     0.020 A 
ATOM      2  C1  UNL d   1      -2.579   5.986   5.314  0.00  0.00     0.020 A 
ATOM      3  C2  UNL d   1      -2.109   5.962   4.000  0.00  0.00     0.034 A 
ATOM      4  C3  UNL d   1      -3.011   5.948   2.930  0.00  0.00     0.017 A 
ATOM      5  C4  UNL d   1      -4.388   5.958   3.181  0.00  0.00     0.017 A 
ATOM      6  C5  UNL d   1      -4.853   5.981   4.500  0.00  0.00     0.034 A 
ATOM      7 Cl   UNL d   1      -5.562   5.942   1.913  0.00  0.00    -0.070 Cl
ATOM      8 Cl1  UNL d   1      -2.360   5.919   1.330  0.00  0.00    -0.070 Cl
ENDROOT
TORSDOF 0
ENDMDL
