MODEL 1
REMARK minimizedAffinity 2.77580118
REMARK minimizedRMSD -1
REMARK  0 active torsions:
REMARK  status: ('A' for Active; 'I' for Inactive)
ROOT
ATOM      1  C   UNL d   1      -2.631   5.398   4.963  0.00  0.00     0.020 A 
ATOM      2  C1  UNL d   1      -3.853   6.000   5.260  0.00  0.00     0.020 A 
ATOM      3  C2  UNL d   1      -4.879   6.000   4.313  0.00  0.00     0.034 A 
ATOM      4  C3  UNL d   1      -4.686   5.397   3.065  0.00  0.00     0.017 A 
ATOM      5  C4  UNL d   1      -3.459   4.792   2.768  0.00  0.00     0.017 A 
ATOM      6  C5  UNL d   1      -2.434   4.795   3.720  0.00  0.00     0.034 A 
ATOM      7 Cl   UNL d   1      -3.145   4.028   1.250  0.00  0.00    -0.070 Cl
ATOM      8 Cl1  UNL d   1      -5.999   5.434   1.942  0.00  0.00    -0.070 Cl
ENDROOT
TORSDOF 0
ENDMDL
