MODEL 1
REMARK minimizedAffinity -1.04261196
REMARK minimizedRMSD -1
REMARK  0 active torsions:
REMARK  status: ('A' for Active; 'I' for Inactive)
ROOT
ATOM      1  C   UNL d   1      -4.861   5.989   5.994  0.00  0.00     0.020 A 
ATOM      2  C1  UNL d   1      -3.468   5.982   5.942  0.00  0.00     0.020 A 
ATOM      3  C2  UNL d   1      -2.816   5.971   4.707  0.00  0.00     0.034 A 
ATOM      4  C3  UNL d   1      -3.556   5.968   3.520  0.00  0.00     0.017 A 
ATOM      5  C4  UNL d   1      -4.955   5.975   3.573  0.00  0.00     0.017 A 
ATOM      6  C5  UNL d   1      -5.603   5.986   4.812  0.00  0.00     0.034 A 
ATOM      7 Cl   UNL d   1      -5.937   5.971   2.151  0.00  0.00    -0.070 Cl
ATOM      8 Cl1  UNL d   1      -2.684   5.954   2.029  0.00  0.00    -0.070 Cl
ENDROOT
TORSDOF 0
ENDMDL
