MODEL 1
REMARK minimizedAffinity 0.326178819
REMARK minimizedRMSD -1
REMARK  0 active torsions:
REMARK  status: ('A' for Active; 'I' for Inactive)
ROOT
ATOM      1  C   UNL d   1      -1.958   5.809   4.592  0.00  0.00     0.020 A 
ATOM      2  C1  UNL d   1      -3.181   6.000   5.233  0.00  0.00     0.020 A 
ATOM      3  C2  UNL d   1      -4.365   5.996   4.493  0.00  0.00     0.034 A 
ATOM      4  C3  UNL d   1      -4.329   5.801   3.108  0.00  0.00     0.017 A 
ATOM      5  C4  UNL d   1      -3.100   5.609   2.465  0.00  0.00     0.017 A 
ATOM      6  C5  UNL d   1      -1.918   5.614   3.211  0.00  0.00     0.034 A 
ATOM      7 Cl   UNL d   1      -2.975   5.362   0.759  0.00  0.00    -0.070 Cl
ATOM      8 Cl1  UNL d   1      -5.832   5.807   2.255  0.00  0.00    -0.070 Cl
ENDROOT
TORSDOF 0
ENDMDL
