MODEL 1
REMARK minimizedAffinity -0.891724765
REMARK minimizedRMSD -1
REMARK  0 active torsions:
REMARK  status: ('A' for Active; 'I' for Inactive)
ROOT
ATOM      1  C   UNL d   1      -2.950   5.997   5.482  0.00  0.00     0.020 A 
ATOM      2  C1  UNL d   1      -4.318   5.998   5.753  0.00  0.00     0.020 A 
ATOM      3  C2  UNL d   1      -5.238   5.994   4.702  0.00  0.00     0.034 A 
ATOM      4  C3  UNL d   1      -4.791   5.991   3.376  0.00  0.00     0.017 A 
ATOM      5  C4  UNL d   1      -3.418   5.990   3.105  0.00  0.00     0.017 A 
ATOM      6  C5  UNL d   1      -2.501   5.994   4.161  0.00  0.00     0.034 A 
ATOM      7 Cl   UNL d   1      -2.790   5.986   1.495  0.00  0.00    -0.070 Cl
ATOM      8 Cl1  UNL d   1      -5.984   5.987   2.126  0.00  0.00    -0.070 Cl
ENDROOT
TORSDOF 0
ENDMDL
