MODEL 1
REMARK minimizedAffinity 5.40977859
REMARK minimizedRMSD -1
REMARK  0 active torsions:
REMARK  status: ('A' for Active; 'I' for Inactive)
ROOT
ATOM      1  C   UNL d   1      -3.854   5.997   1.522  0.00  0.00     0.020 A 
ATOM      2  C1  UNL d   1      -2.527   5.997   1.948  0.00  0.00     0.020 A 
ATOM      3  C2  UNL d   1      -2.231   5.998   3.313  0.00  0.00     0.034 A 
ATOM      4  C3  UNL d   1      -3.265   5.999   4.257  0.00  0.00     0.017 A 
ATOM      5  C4  UNL d   1      -4.597   5.999   3.828  0.00  0.00     0.017 A 
ATOM      6  C5  UNL d   1      -4.887   5.998   2.460  0.00  0.00     0.034 A 
ATOM      7 Cl   UNL d   1      -5.926   5.999   4.933  0.00  0.00    -0.070 Cl
ATOM      8 Cl1  UNL d   1      -2.827   6.000   5.928  0.00  0.00    -0.070 Cl
ENDROOT
TORSDOF 0
ENDMDL
