MODEL 1
REMARK minimizedAffinity 5.60833883
REMARK minimizedRMSD -1
REMARK  0 active torsions:
REMARK  status: ('A' for Active; 'I' for Inactive)
ROOT
ATOM      1  C   UNL d   1      -2.614   6.000   5.046  0.00  0.00     0.020 A 
ATOM      2  C1  UNL d   1      -3.963   6.000   5.401  0.00  0.00     0.020 A 
ATOM      3  C2  UNL d   1      -4.946   6.000   4.409  0.00  0.00     0.034 A 
ATOM      4  C3  UNL d   1      -4.582   6.000   3.058  0.00  0.00     0.017 A 
ATOM      5  C4  UNL d   1      -3.228   6.000   2.702  0.00  0.00     0.017 A 
ATOM      6  C5  UNL d   1      -2.248   6.000   3.700  0.00  0.00     0.034 A 
ATOM      7 Cl   UNL d   1      -2.702   6.000   1.056  0.00  0.00    -0.070 Cl
ATOM      8 Cl1  UNL d   1      -5.850   6.000   1.884  0.00  0.00    -0.070 Cl
ENDROOT
TORSDOF 0
ENDMDL
