MODEL 1
REMARK minimizedAffinity 6.38934469
REMARK minimizedRMSD -1
REMARK  0 active torsions:
REMARK  status: ('A' for Active; 'I' for Inactive)
ROOT
ATOM      1  C   UNL d   1      -5.635   5.999   3.611  0.00  0.00     0.020 A 
ATOM      2  C1  UNL d   1      -5.386   5.998   2.239  0.00  0.00     0.020 A 
ATOM      3  C2  UNL d   1      -4.071   5.997   1.767  0.00  0.00     0.034 A 
ATOM      4  C3  UNL d   1      -3.001   5.998   2.669  0.00  0.00     0.017 A 
ATOM      5  C4  UNL d   1      -3.251   5.999   4.046  0.00  0.00     0.017 A 
ATOM      6  C5  UNL d   1      -4.569   6.000   4.512  0.00  0.00     0.034 A 
ATOM      7 Cl   UNL d   1      -1.982   5.999   5.219  0.00  0.00    -0.070 Cl
ATOM      8 Cl1  UNL d   1      -1.401   5.996   2.016  0.00  0.00    -0.070 Cl
ENDROOT
TORSDOF 0
ENDMDL
