MODEL 1
REMARK minimizedAffinity -0.310198396
REMARK minimizedRMSD -1
REMARK  0 active torsions:
REMARK  status: ('A' for Active; 'I' for Inactive)
ROOT
ATOM      1  C   UNL d   1      -3.591   6.000   5.421  0.00  0.00     0.020 A 
ATOM      2  C1  UNL d   1      -2.273   6.000   4.967  0.00  0.00     0.020 A 
ATOM      3  C2  UNL d   1      -2.007   5.994   3.596  0.00  0.00     0.034 A 
ATOM      4  C3  UNL d   1      -3.061   5.988   2.675  0.00  0.00     0.017 A 
ATOM      5  C4  UNL d   1      -4.384   5.988   3.132  0.00  0.00     0.017 A 
ATOM      6  C5  UNL d   1      -4.644   5.994   4.506  0.00  0.00     0.034 A 
ATOM      7 Cl   UNL d   1      -5.736   5.981   2.056  0.00  0.00    -0.070 Cl
ATOM      8 Cl1  UNL d   1      -2.659   5.982   0.994  0.00  0.00    -0.070 Cl
ENDROOT
TORSDOF 0
ENDMDL
