MODEL 1
REMARK minimizedAffinity 4.3136611
REMARK minimizedRMSD -1
REMARK  0 active torsions:
REMARK  status: ('A' for Active; 'I' for Inactive)
ROOT
ATOM      1  C2' OXE d   1       2.163  -5.778   2.249  0.00  0.00     0.078 C 
ATOM      2  C1' OXE d   1       2.238  -5.999   5.047  0.00  0.00     0.078 C 
ATOM      3  C1  OXE d   1       3.553  -5.935   4.311  0.00  0.00    -0.078 A 
ATOM      4  C2  OXE d   1       3.507  -5.874   2.939  0.00  0.00    -0.078 A 
ATOM      5  C3  OXE d   1       4.690  -5.757   2.214  0.00  0.00     0.003 A 
ATOM      6  C4  OXE d   1       5.929  -5.856   2.859  0.00  0.00    -0.002 A 
ATOM      7  C5  OXE d   1       5.998  -5.959   4.252  0.00  0.00    -0.002 A 
ATOM      8  C6  OXE d   1       4.822  -5.957   4.995  0.00  0.00     0.003 A 
ENDROOT
TORSDOF 0
ENDMDL
