MODEL 1
REMARK minimizedAffinity 0.924487889
REMARK minimizedRMSD -1
REMARK  0 active torsions:
REMARK  status: ('A' for Active; 'I' for Inactive)
ROOT
ATOM      1  C2' OXE d   1       0.018   2.791   3.946  0.00  0.00     0.078 C 
ATOM      2  C1' OXE d   1       0.440   0.079   3.354  0.00  0.00     0.078 C 
ATOM      3  C1  OXE d   1      -0.880   0.690   2.954  0.00  0.00    -0.078 A 
ATOM      4  C2  OXE d   1      -1.096   2.005   3.289  0.00  0.00    -0.078 A 
ATOM      5  C3  OXE d   1      -2.275   2.632   2.895  0.00  0.00     0.003 A 
ATOM      6  C4  OXE d   1      -3.304   1.895   2.297  0.00  0.00    -0.002 A 
ATOM      7  C5  OXE d   1      -3.120   0.544   1.983  0.00  0.00    -0.002 A 
ATOM      8  C6  OXE d   1      -1.901  -0.061   2.265  0.00  0.00     0.003 A 
ENDROOT
TORSDOF 0
ENDMDL
