MODEL 1
REMARK minimizedAffinity 2.668823
REMARK minimizedRMSD -1
REMARK  0 active torsions:
REMARK  status: ('A' for Active; 'I' for Inactive)
ROOT
ATOM      1  C2' OXE d   1      -2.849  -1.608  -5.950  0.00  0.00     0.078 C 
ATOM      2  C1' OXE d   1      -5.351  -2.880  -5.997  0.00  0.00     0.078 C 
ATOM      3  C1  OXE d   1      -4.120  -3.751  -5.974  0.00  0.00    -0.078 A 
ATOM      4  C2  OXE d   1      -2.899  -3.120  -5.999  0.00  0.00    -0.078 A 
ATOM      5  C3  OXE d   1      -1.732  -3.875  -5.925  0.00  0.00     0.003 A 
ATOM      6  C4  OXE d   1      -1.787  -5.273  -5.980  0.00  0.00    -0.002 A 
ATOM      7  C5  OXE d   1      -3.019  -5.935  -5.996  0.00  0.00    -0.002 A 
ATOM      8  C6  OXE d   1      -4.193  -5.191  -5.950  0.00  0.00     0.003 A 
ENDROOT
TORSDOF 0
ENDMDL
