MODEL 1
REMARK minimizedAffinity 6.58115673
REMARK minimizedRMSD -1
REMARK  0 active torsions:
REMARK  status: ('A' for Active; 'I' for Inactive)
ROOT
ATOM      1  C2' OXE d   1      -2.948  -1.330  -5.946  0.00  0.00     0.078 C 
ATOM      2  C1' OXE d   1      -1.199  -3.526  -5.940  0.00  0.00     0.078 C 
ATOM      3  C1  OXE d   1      -2.681  -3.807  -5.957  0.00  0.00    -0.078 A 
ATOM      4  C2  OXE d   1      -3.529  -2.727  -5.913  0.00  0.00    -0.078 A 
ATOM      5  C3  OXE d   1      -4.905  -2.929  -5.981  0.00  0.00     0.003 A 
ATOM      6  C4  OXE d   1      -5.435  -4.224  -5.940  0.00  0.00    -0.002 A 
ATOM      7  C5  OXE d   1      -4.588  -5.338  -5.945  0.00  0.00    -0.002 A 
ATOM      8  C6  OXE d   1      -3.212  -5.147  -5.996  0.00  0.00     0.003 A 
ENDROOT
TORSDOF 0
ENDMDL
