MODEL 1
REMARK minimizedAffinity 2.97748065
REMARK minimizedRMSD -1
REMARK  0 active torsions:
REMARK  status: ('A' for Active; 'I' for Inactive)
ROOT
ATOM      1  C2' OXE d   1      -0.401   2.607   3.667  0.00  0.00     0.078 C 
ATOM      2  C1' OXE d   1       0.251   0.024   2.784  0.00  0.00     0.078 C 
ATOM      3  C1  OXE d   1      -1.064   0.610   2.334  0.00  0.00    -0.078 A 
ATOM      4  C2  OXE d   1      -1.396   1.856   2.809  0.00  0.00    -0.078 A 
ATOM      5  C3  OXE d   1      -2.572   2.466   2.382  0.00  0.00     0.003 A 
ATOM      6  C4  OXE d   1      -3.492   1.760   1.597  0.00  0.00    -0.002 A 
ATOM      7  C5  OXE d   1      -3.191   0.474   1.134  0.00  0.00    -0.002 A 
ATOM      8  C6  OXE d   1      -1.965  -0.097   1.458  0.00  0.00     0.003 A 
ENDROOT
TORSDOF 0
ENDMDL
