MODEL 1
REMARK minimizedAffinity 9.01542091
REMARK minimizedRMSD -1
REMARK  0 active torsions:
REMARK  status: ('A' for Active; 'I' for Inactive)
ROOT
ATOM      1  C2' OXE d   1      -0.983  -2.762  -5.738  0.00  0.00     0.078 C 
ATOM      2  C1' OXE d   1      -2.007  -0.157  -5.949  0.00  0.00     0.078 C 
ATOM      3  C1  OXE d   1      -2.991  -1.300  -5.918  0.00  0.00    -0.078 A 
ATOM      4  C2  OXE d   1      -2.479  -2.574  -5.861  0.00  0.00    -0.078 A 
ATOM      5  C3  OXE d   1      -3.344  -3.661  -5.775  0.00  0.00     0.003 A 
ATOM      6  C4  OXE d   1      -4.727  -3.478  -5.900  0.00  0.00    -0.002 A 
ATOM      7  C5  OXE d   1      -5.267  -2.192  -5.998  0.00  0.00    -0.002 A 
ATOM      8  C6  OXE d   1      -4.417  -1.092  -5.966  0.00  0.00     0.003 A 
ENDROOT
TORSDOF 0
ENDMDL
