MODEL 1
REMARK minimizedAffinity 11.3059826
REMARK minimizedRMSD -1
REMARK  0 active torsions:
REMARK  status: ('A' for Active; 'I' for Inactive)
ROOT
ATOM      1  C2' OXE d   1      -5.213  -1.107  -0.713  0.00  0.00     0.078 C 
ATOM      2  C1' OXE d   1      -3.302  -2.863   0.356  0.00  0.00     0.078 C 
ATOM      3  C1  OXE d   1      -3.140  -1.390   0.639  0.00  0.00    -0.078 A 
ATOM      4  C2  OXE d   1      -4.054  -0.534   0.073  0.00  0.00    -0.078 A 
ATOM      5  C3  OXE d   1      -3.982   0.829   0.346  0.00  0.00     0.003 A 
ATOM      6  C4  OXE d   1      -2.901   1.352   1.066  0.00  0.00    -0.002 A 
ATOM      7  C5  OXE d   1      -1.937   0.501   1.618  0.00  0.00    -0.002 A 
ATOM      8  C6  OXE d   1      -2.065  -0.873   1.450  0.00  0.00     0.003 A 
ENDROOT
TORSDOF 0
ENDMDL
