MODEL 1
REMARK minimizedAffinity 7.51900339
REMARK minimizedRMSD -1
REMARK  0 active torsions:
REMARK  status: ('A' for Active; 'I' for Inactive)
ROOT
ATOM      1  C2' OXE d   1      -5.124   0.606   3.565  0.00  0.00     0.078 C 
ATOM      2  C1' OXE d   1      -5.013   0.865   0.772  0.00  0.00     0.078 C 
ATOM      3  C1  OXE d   1      -3.719   0.619   1.508  0.00  0.00    -0.078 A 
ATOM      4  C2  OXE d   1      -3.777   0.540   2.879  0.00  0.00    -0.078 A 
ATOM      5  C3  OXE d   1      -2.621   0.259   3.602  0.00  0.00     0.003 A 
ATOM      6  C4  OXE d   1      -1.378   0.208   2.960  0.00  0.00    -0.002 A 
ATOM      7  C5  OXE d   1      -1.292   0.326   1.569  0.00  0.00    -0.002 A 
ATOM      8  C6  OXE d   1      -2.456   0.488   0.825  0.00  0.00     0.003 A 
ENDROOT
TORSDOF 0
ENDMDL
