MODEL 1
REMARK minimizedAffinity 3.78997016
REMARK minimizedRMSD -1
REMARK  0 active torsions:
REMARK  status: ('A' for Active; 'I' for Inactive)
ROOT
ATOM      1  C2' OXE d   1       4.516  -5.942   4.522  0.00  0.00     0.078 C 
ATOM      2  C1' OXE d   1       5.531  -5.996   1.905  0.00  0.00     0.078 C 
ATOM      3  C1  OXE d   1       4.033  -5.973   2.078  0.00  0.00    -0.078 A 
ATOM      4  C2  OXE d   1       3.544  -5.994   3.362  0.00  0.00    -0.078 A 
ATOM      5  C3  OXE d   1       2.172  -5.919   3.579  0.00  0.00     0.003 A 
ATOM      6  C4  OXE d   1       1.280  -5.978   2.501  0.00  0.00    -0.002 A 
ATOM      7  C5  OXE d   1       1.756  -5.997   1.186  0.00  0.00    -0.002 A 
ATOM      8  C6  OXE d   1       3.126  -5.953   0.957  0.00  0.00     0.003 A 
ENDROOT
TORSDOF 0
ENDMDL
