MODEL 1
REMARK minimizedAffinity 5.12729311
REMARK minimizedRMSD -1
REMARK  0 active torsions:
REMARK  status: ('A' for Active; 'I' for Inactive)
ROOT
ATOM      1  C2' OXE d   1       2.349  -5.998   4.490  0.00  0.00     0.078 C 
ATOM      2  C1' OXE d   1       1.814  -5.990   1.734  0.00  0.00     0.078 C 
ATOM      3  C1  OXE d   1       3.258  -5.984   2.171  0.00  0.00    -0.078 A 
ATOM      4  C2  OXE d   1       3.510  -5.940   3.521  0.00  0.00    -0.078 A 
ATOM      5  C3  OXE d   1       4.824  -5.988   3.979  0.00  0.00     0.003 A 
ATOM      6  C4  OXE d   1       5.892  -5.925   3.076  0.00  0.00    -0.002 A 
ATOM      7  C5  OXE d   1       5.657  -5.928   1.697  0.00  0.00    -0.002 A 
ATOM      8  C6  OXE d   1       4.350  -6.000   1.228  0.00  0.00     0.003 A 
ENDROOT
TORSDOF 0
ENDMDL
