MODEL 1
REMARK minimizedAffinity 7.56879282
REMARK minimizedRMSD -1
REMARK  0 active torsions:
REMARK  status: ('A' for Active; 'I' for Inactive)
ROOT
ATOM      1  C2' OXE d   1       0.834  -5.220   1.459  0.00  0.00     0.078 C 
ATOM      2  C1' OXE d   1       0.029  -2.592   0.885  0.00  0.00     0.078 C 
ATOM      3  C1  OXE d   1      -1.016  -3.678   0.823  0.00  0.00    -0.078 A 
ATOM      4  C2  OXE d   1      -0.603  -4.967   1.059  0.00  0.00    -0.078 A 
ATOM      5  C3  OXE d   1      -1.537  -5.999   1.068  0.00  0.00     0.003 A 
ATOM      6  C4  OXE d   1      -2.863  -5.759   0.687  0.00  0.00    -0.002 A 
ATOM      7  C5  OXE d   1      -3.296  -4.459   0.404  0.00  0.00    -0.002 A 
ATOM      8  C6  OXE d   1      -2.396  -3.403   0.508  0.00  0.00     0.003 A 
ENDROOT
TORSDOF 0
ENDMDL
