MODEL 1
REMARK minimizedAffinity 0.385250688
REMARK minimizedRMSD -1
REMARK  0 active torsions:
REMARK  status: ('A' for Active; 'I' for Inactive)
ROOT
ATOM      1  C2' OXE d   1       2.844   0.663  -0.649  0.00  0.00     0.078 C 
ATOM      2  C1' OXE d   1       4.755  -0.155   1.239  0.00  0.00     0.078 C 
ATOM      3  C1  OXE d   1       3.339   0.054   1.716  0.00  0.00    -0.078 A 
ATOM      4  C2  OXE d   1       2.421   0.499   0.795  0.00  0.00    -0.078 A 
ATOM      5  C3  OXE d   1       1.090   0.656   1.170  0.00  0.00     0.003 A 
ATOM      6  C4  OXE d   1       0.709   0.512   2.510  0.00  0.00    -0.002 A 
ATOM      7  C5  OXE d   1       1.637   0.098   3.471  0.00  0.00    -0.002 A 
ATOM      8  C6  OXE d   1       2.944  -0.176   3.083  0.00  0.00     0.003 A 
ENDROOT
TORSDOF 0
ENDMDL
