MODEL 1
REMARK minimizedAffinity 6.91992521
REMARK minimizedRMSD -1
REMARK  0 active torsions:
REMARK  status: ('A' for Active; 'I' for Inactive)
ROOT
ATOM      1  C2' OXE d   1       0.495   0.399   2.237  0.00  0.00     0.078 C 
ATOM      2  C1' OXE d   1      -0.577   2.612   3.590  0.00  0.00     0.078 C 
ATOM      3  C1  OXE d   1      -1.520   1.760   2.778  0.00  0.00    -0.078 A 
ATOM      4  C2  OXE d   1      -0.979   0.706   2.082  0.00  0.00    -0.078 A 
ATOM      5  C3  OXE d   1      -1.812  -0.145   1.361  0.00  0.00     0.003 A 
ATOM      6  C4  OXE d   1      -3.173   0.152   1.214  0.00  0.00    -0.002 A 
ATOM      7  C5  OXE d   1      -3.737   1.244   1.883  0.00  0.00    -0.002 A 
ATOM      8  C6  OXE d   1      -2.934   2.031   2.702  0.00  0.00     0.003 A 
ENDROOT
TORSDOF 0
ENDMDL
