MODEL 1
REMARK minimizedAffinity 5.45953274
REMARK minimizedRMSD -1
REMARK  0 active torsions:
REMARK  status: ('A' for Active; 'I' for Inactive)
ROOT
ATOM      1  C2' OXE d   1      -3.376  -0.267   1.040  0.00  0.00     0.078 C 
ATOM      2  C1' OXE d   1      -3.886   0.843   3.568  0.00  0.00     0.078 C 
ATOM      3  C1  OXE d   1      -2.534   1.095   2.949  0.00  0.00    -0.078 A 
ATOM      4  C2  OXE d   1      -2.276   0.509   1.733  0.00  0.00    -0.078 A 
ATOM      5  C3  OXE d   1      -1.065   0.754   1.093  0.00  0.00     0.003 A 
ATOM      6  C4  OXE d   1      -0.050   1.464   1.745  0.00  0.00    -0.002 A 
ATOM      7  C5  OXE d   1      -0.277   2.036   3.001  0.00  0.00    -0.002 A 
ATOM      8  C6  OXE d   1      -1.526   1.897   3.597  0.00  0.00     0.003 A 
ENDROOT
TORSDOF 0
ENDMDL
