MODEL 1
REMARK minimizedAffinity 9.22202969
REMARK minimizedRMSD -1
REMARK  0 active torsions:
REMARK  status: ('A' for Active; 'I' for Inactive)
ROOT
ATOM      1  C2' OXE d   1      -4.904  -0.320   0.700  0.00  0.00     0.078 C 
ATOM      2  C1' OXE d   1      -4.415   1.154   3.038  0.00  0.00     0.078 C 
ATOM      3  C1  OXE d   1      -3.238   0.824   2.155  0.00  0.00    -0.078 A 
ATOM      4  C2  OXE d   1      -3.479   0.063   1.038  0.00  0.00    -0.078 A 
ATOM      5  C3  OXE d   1      -2.437  -0.224   0.160  0.00  0.00     0.003 A 
ATOM      6  C4  OXE d   1      -1.121   0.126   0.485  0.00  0.00    -0.002 A 
ATOM      7  C5  OXE d   1      -0.847   0.867   1.639  0.00  0.00    -0.002 A 
ATOM      8  C6  OXE d   1      -1.898   1.261   2.461  0.00  0.00     0.003 A 
ENDROOT
TORSDOF 0
ENDMDL
