MODEL 1
REMARK minimizedAffinity 8.50797653
REMARK minimizedRMSD -1
REMARK  0 active torsions:
REMARK  status: ('A' for Active; 'I' for Inactive)
ROOT
ATOM      1  C2' OXE d   1      -0.224   0.189   0.534  0.00  0.00     0.078 C 
ATOM      2  C1' OXE d   1       2.018   0.302   2.219  0.00  0.00     0.078 C 
ATOM      3  C1  OXE d   1       0.756   0.988   2.680  0.00  0.00    -0.078 A 
ATOM      4  C2  OXE d   1      -0.322   0.968   1.828  0.00  0.00    -0.078 A 
ATOM      5  C3  OXE d   1      -1.527   1.539   2.227  0.00  0.00     0.003 A 
ATOM      6  C4  OXE d   1      -1.606   2.265   3.422  0.00  0.00    -0.002 A 
ATOM      7  C5  OXE d   1      -0.508   2.332   4.286  0.00  0.00    -0.002 A 
ATOM      8  C6  OXE d   1       0.665   1.665   3.950  0.00  0.00     0.003 A 
ENDROOT
TORSDOF 0
ENDMDL
