MODEL 1
REMARK minimizedAffinity 2.77667356
REMARK minimizedRMSD -1
REMARK  0 active torsions:
REMARK  status: ('A' for Active; 'I' for Inactive)
ROOT
ATOM      1  C2' OXE d   1      -4.520   0.371   4.037  0.00  0.00     0.078 C 
ATOM      2  C1' OXE d   1      -4.647   0.211   1.237  0.00  0.00     0.078 C 
ATOM      3  C1  OXE d   1      -3.293   0.418   1.869  0.00  0.00    -0.078 A 
ATOM      4  C2  OXE d   1      -3.246   0.542   3.237  0.00  0.00    -0.078 A 
ATOM      5  C3  OXE d   1      -2.017   0.680   3.874  0.00  0.00     0.003 A 
ATOM      6  C4  OXE d   1      -0.845   0.847   3.127  0.00  0.00    -0.002 A 
ATOM      7  C5  OXE d   1      -0.876   0.764   1.730  0.00  0.00    -0.002 A 
ATOM      8  C6  OXE d   1      -2.083   0.508   1.090  0.00  0.00     0.003 A 
ENDROOT
TORSDOF 0
ENDMDL
