MODEL 1
REMARK minimizedAffinity -3.41292667
REMARK minimizedRMSD -1
REMARK  0 active torsions:
REMARK  status: ('A' for Active; 'I' for Inactive)
ROOT
ATOM      1  C   UNL d   1      -0.640   2.490   2.238  0.00  0.00     0.023 A 
ATOM      2  C1  UNL d   1      -0.068   1.309   2.712  0.00  0.00     0.003 A 
ATOM      3  C2  UNL d   1       0.137   0.233   1.846  0.00  0.00     0.048 A 
ATOM      4  C3  UNL d   1      -0.231   0.346   0.505  0.00  0.00     0.023 A 
ATOM      5  C4  UNL d   1      -0.802   1.525   0.026  0.00  0.00     0.048 A 
ATOM      6  C5  UNL d   1      -1.006   2.598   0.896  0.00  0.00     0.003 A 
ATOM      7  I   UNL d   1       0.074  -1.254  -0.786  0.00  0.00    -0.146 I 
ENDROOT
TORSDOF 0
ENDMDL
