MODEL 1
REMARK minimizedAffinity -1.32420039
REMARK minimizedRMSD -1
REMARK  0 active torsions:
REMARK  status: ('A' for Active; 'I' for Inactive)
ROOT
ATOM      1  C   UNL d   1       0.131   2.184   1.268  0.00  0.00     0.023 A 
ATOM      2  C1  UNL d   1       0.008   2.084  -0.118  0.00  0.00     0.003 A 
ATOM      3  C2  UNL d   1       0.033   0.831  -0.734  0.00  0.00     0.048 A 
ATOM      4  C3  UNL d   1       0.181  -0.318   0.042  0.00  0.00     0.023 A 
ATOM      5  C4  UNL d   1       0.303  -0.223   1.429  0.00  0.00     0.048 A 
ATOM      6  C5  UNL d   1       0.278   1.032   2.041  0.00  0.00     0.003 A 
ATOM      7  I   UNL d   1       0.218  -2.184  -0.873  0.00  0.00    -0.146 I 
ENDROOT
TORSDOF 0
ENDMDL
