MODEL 1
REMARK minimizedAffinity -3.21286106
REMARK minimizedRMSD -1
REMARK  0 active torsions:
REMARK  status: ('A' for Active; 'I' for Inactive)
ROOT
ATOM      1  C   UNL d   1      -0.000   1.148   2.113  0.00  0.00     0.023 A 
ATOM      2  C1  UNL d   1      -0.735   1.388   0.952  0.00  0.00     0.003 A 
ATOM      3  C2  UNL d   1      -0.573   0.562  -0.162  0.00  0.00     0.048 A 
ATOM      4  C3  UNL d   1       0.326  -0.503  -0.108  0.00  0.00     0.023 A 
ATOM      5  C4  UNL d   1       1.063  -0.748   1.052  0.00  0.00     0.048 A 
ATOM      6  C5  UNL d   1       0.898   0.082   2.163  0.00  0.00     0.003 A 
ATOM      7  I   UNL d   1       0.570  -1.734  -1.765  0.00  0.00    -0.146 I 
ENDROOT
TORSDOF 0
ENDMDL
