MODEL 1
REMARK minimizedAffinity -2.52362919
REMARK minimizedRMSD -1
REMARK  0 active torsions:
REMARK  status: ('A' for Active; 'I' for Inactive)
ROOT
ATOM      1  C   UNL d   1      -0.417   2.608   1.928  0.00  0.00     0.023 A 
ATOM      2  C1  UNL d   1      -0.749   2.610   0.573  0.00  0.00     0.003 A 
ATOM      3  C2  UNL d   1      -0.574   1.454  -0.192  0.00  0.00     0.048 A 
ATOM      4  C3  UNL d   1      -0.067   0.301   0.406  0.00  0.00     0.023 A 
ATOM      5  C4  UNL d   1       0.265   0.294   1.761  0.00  0.00     0.048 A 
ATOM      6  C5  UNL d   1       0.089   1.452   2.521  0.00  0.00     0.003 A 
ATOM      7  I   UNL d   1       0.194  -1.420  -0.730  0.00  0.00    -0.146 I 
ENDROOT
TORSDOF 0
ENDMDL
