MODEL 1
REMARK minimizedAffinity -1.90831101
REMARK minimizedRMSD -1
REMARK  0 active torsions:
REMARK  status: ('A' for Active; 'I' for Inactive)
ROOT
ATOM      1  C   UNL d   1       0.177   1.132   2.468  0.00  0.00     0.023 A 
ATOM      2  C1  UNL d   1      -0.734   1.951   1.801  0.00  0.00     0.003 A 
ATOM      3  C2  UNL d   1      -0.945   1.792   0.430  0.00  0.00     0.048 A 
ATOM      4  C3  UNL d   1      -0.241   0.812  -0.268  0.00  0.00     0.023 A 
ATOM      5  C4  UNL d   1       0.671  -0.011   0.395  0.00  0.00     0.048 A 
ATOM      6  C5  UNL d   1       0.879   0.152   1.766  0.00  0.00     0.003 A 
ATOM      7  I   UNL d   1      -0.552   0.573  -2.309  0.00  0.00    -0.146 I 
ENDROOT
TORSDOF 0
ENDMDL
