MODEL 1
REMARK minimizedAffinity 0.488667846
REMARK minimizedRMSD -1
REMARK  0 active torsions:
REMARK  status: ('A' for Active; 'I' for Inactive)
ROOT
ATOM      1  C   UNL d   1      -0.817   2.269   2.065  0.00  0.00     0.023 A 
ATOM      2  C1  UNL d   1      -1.570   2.284   0.890  0.00  0.00     0.003 A 
ATOM      3  C2  UNL d   1      -1.361   1.308  -0.086  0.00  0.00     0.048 A 
ATOM      4  C3  UNL d   1      -0.400   0.319   0.118  0.00  0.00     0.023 A 
ATOM      5  C4  UNL d   1       0.355   0.299   1.292  0.00  0.00     0.048 A 
ATOM      6  C5  UNL d   1       0.144   1.278   2.265  0.00  0.00     0.003 A 
ATOM      7  I   UNL d   1      -0.088  -1.135  -1.334  0.00  0.00    -0.146 I 
ENDROOT
TORSDOF 0
ENDMDL
