MODEL 1
REMARK minimizedAffinity -1.93132687
REMARK minimizedRMSD -1
REMARK  0 active torsions:
REMARK  status: ('A' for Active; 'I' for Inactive)
ROOT
ATOM      1  C   UNL d   1      -1.571   2.095  -0.960  0.00  0.00     0.023 A 
ATOM      2  C1  UNL d   1      -0.591   1.384  -1.653  0.00  0.00     0.003 A 
ATOM      3  C2  UNL d   1       0.283   0.543  -0.963  0.00  0.00     0.048 A 
ATOM      4  C3  UNL d   1       0.172   0.416   0.422  0.00  0.00     0.023 A 
ATOM      5  C4  UNL d   1      -0.807   1.124   1.120  0.00  0.00     0.048 A 
ATOM      6  C5  UNL d   1      -1.679   1.965   0.425  0.00  0.00     0.003 A 
ATOM      7  I   UNL d   1       1.472  -0.836   1.452  0.00  0.00    -0.146 I 
ENDROOT
TORSDOF 0
ENDMDL
