MODEL 1
REMARK minimizedAffinity 12.1547241
REMARK minimizedRMSD -1
REMARK  1 active torsions:
REMARK  status: ('A' for Active; 'I' for Inactive)
REMARK    1  A    between atoms: C1_2  and  C2_3 
ROOT
ATOM      1  C2  UNL d   1      -1.282  -3.988  -0.088  0.00  0.00    -0.076 A 
ATOM      2  C3  UNL d   1      -1.614  -4.660   1.102  0.00  0.00     0.004 A 
ATOM      3  C4  UNL d   1      -0.626  -5.222   1.908  0.00  0.00    -0.003 A 
ATOM      4  C5  UNL d   1       0.711  -5.122   1.538  0.00  0.00     0.000 A 
ATOM      5  C6  UNL d   1       1.060  -4.444   0.370  0.00  0.00     0.000 A 
ATOM      6  C7  UNL d   1       0.077  -3.857  -0.446  0.00  0.00    -0.073 A 
ATOM      7  C8  UNL d   1       0.509  -3.143  -1.697  0.00  0.00     0.078 C 
ENDROOT
BRANCH   1   8
ATOM      8  C1  UNL d   1      -2.398  -3.422  -0.936  0.00  0.00     0.053 C 
ATOM      9  C   UNL d   1      -3.407  -2.631  -0.118  0.00  0.00     0.018 C 
ENDBRANCH   1   8
TORSDOF 1
ENDMDL
