MODEL 1
REMARK minimizedAffinity 4.45396757
REMARK minimizedRMSD -1
REMARK  1 active torsions:
REMARK  status: ('A' for Active; 'I' for Inactive)
REMARK    1  A    between atoms: C1_2  and  C2_3 
ROOT
ATOM      1  C2  UNL d   1       2.379   0.851  -3.520  0.00  0.00    -0.076 A 
ATOM      2  C3  UNL d   1       2.743   0.244  -2.305  0.00  0.00     0.004 A 
ATOM      3  C4  UNL d   1       1.828  -0.522  -1.584  0.00  0.00    -0.003 A 
ATOM      4  C5  UNL d   1       0.536  -0.693  -2.066  0.00  0.00     0.000 A 
ATOM      5  C6  UNL d   1       0.163  -0.113  -3.278  0.00  0.00     0.000 A 
ATOM      6  C7  UNL d   1       1.078   0.648  -4.026  0.00  0.00    -0.073 A 
ATOM      7  C8  UNL d   1       0.620   1.256  -5.324  0.00  0.00     0.078 C 
ENDROOT
BRANCH   1   8
ATOM      8  C1  UNL d   1       3.406   1.693  -4.245  0.00  0.00     0.053 C 
ATOM      9  C   UNL d   1       4.739   0.978  -4.402  0.00  0.00     0.018 C 
ENDBRANCH   1   8
TORSDOF 1
ENDMDL
