MODEL 1
REMARK minimizedAffinity 14.2796316
REMARK minimizedRMSD -1
REMARK  1 active torsions:
REMARK  status: ('A' for Active; 'I' for Inactive)
REMARK    1  A    between atoms: C1_2  and  C2_3 
ROOT
ATOM      1  C2  UNL d   1       3.554  -5.978   4.171  0.00  0.00    -0.076 A 
ATOM      2  C3  UNL d   1       2.150  -5.992   4.094  0.00  0.00     0.004 A 
ATOM      3  C4  UNL d   1       1.499  -5.993   2.861  0.00  0.00    -0.003 A 
ATOM      4  C5  UNL d   1       2.241  -5.979   1.685  0.00  0.00     0.000 A 
ATOM      5  C6  UNL d   1       3.635  -5.982   1.743  0.00  0.00     0.000 A 
ATOM      6  C7  UNL d   1       4.307  -5.998   2.977  0.00  0.00    -0.073 A 
ATOM      7  C8  UNL d   1       5.811  -5.995   2.981  0.00  0.00     0.078 C 
ENDROOT
BRANCH   1   8
ATOM      8  C1  UNL d   1       4.204  -5.950   5.536  0.00  0.00     0.053 C 
ATOM      9  C   UNL d   1       5.635  -5.438   5.489  0.00  0.00     0.018 C 
ENDBRANCH   1   8
TORSDOF 1
ENDMDL
