MODEL 1
REMARK minimizedAffinity 12.1849527
REMARK minimizedRMSD -1
REMARK  1 active torsions:
REMARK  status: ('A' for Active; 'I' for Inactive)
REMARK    1  A    between atoms: C1_2  and  C2_3 
ROOT
ATOM      1  C2  UNL d   1       1.966   1.824  -2.300  0.00  0.00    -0.076 A 
ATOM      2  C3  UNL d   1       0.574   2.018  -2.274  0.00  0.00     0.004 A 
ATOM      3  C4  UNL d   1      -0.301   0.936  -2.188  0.00  0.00    -0.003 A 
ATOM      4  C5  UNL d   1       0.203  -0.358  -2.127  0.00  0.00     0.000 A 
ATOM      5  C6  UNL d   1       1.581  -0.569  -2.134  0.00  0.00     0.000 A 
ATOM      6  C7  UNL d   1       2.477   0.512  -2.204  0.00  0.00    -0.073 A 
ATOM      7  C8  UNL d   1       3.954   0.226  -2.214  0.00  0.00     0.078 C 
ENDROOT
BRANCH   1   8
ATOM      8  C1  UNL d   1       2.864   3.034  -2.422  0.00  0.00     0.053 C 
ATOM      9  C   UNL d   1       2.081   4.330  -2.557  0.00  0.00     0.018 C 
ENDBRANCH   1   8
TORSDOF 1
ENDMDL
