MODEL 1
REMARK minimizedAffinity 12.4923286
REMARK minimizedRMSD -1
REMARK  1 active torsions:
REMARK  status: ('A' for Active; 'I' for Inactive)
REMARK    1  A    between atoms: C1_2  and  C2_3 
ROOT
ATOM      1  C2  UNL d   1      -3.519   3.974   3.825  0.00  0.00    -0.076 A 
ATOM      2  C3  UNL d   1      -2.318   4.165   4.531  0.00  0.00     0.004 A 
ATOM      3  C4  UNL d   1      -2.253   5.046   5.609  0.00  0.00    -0.003 A 
ATOM      4  C5  UNL d   1      -3.387   5.750   5.999  0.00  0.00     0.000 A 
ATOM      5  C6  UNL d   1      -4.590   5.559   5.322  0.00  0.00     0.000 A 
ATOM      6  C7  UNL d   1      -4.678   4.663   4.243  0.00  0.00    -0.073 A 
ATOM      7  C8  UNL d   1      -6.000   4.500   3.544  0.00  0.00     0.078 C 
ENDROOT
BRANCH   1   8
ATOM      8  C1  UNL d   1      -3.523   3.026   2.647  0.00  0.00     0.053 C 
ATOM      9  C   UNL d   1      -3.000   1.645   3.009  0.00  0.00     0.018 C 
ENDBRANCH   1   8
TORSDOF 1
ENDMDL
