MODEL 1
REMARK minimizedAffinity 1.50049436
REMARK minimizedRMSD -1
REMARK  1 active torsions:
REMARK  status: ('A' for Active; 'I' for Inactive)
REMARK    1  A    between atoms: C1_2  and  C2_3 
ROOT
ATOM      1  C2  UNL d   1       1.445   0.540  -2.832  0.00  0.00    -0.076 A 
ATOM      2  C3  UNL d   1       1.641   0.636  -4.220  0.00  0.00     0.004 A 
ATOM      3  C4  UNL d   1       2.185   1.785  -4.791  0.00  0.00    -0.003 A 
ATOM      4  C5  UNL d   1       2.543   2.858  -3.981  0.00  0.00     0.000 A 
ATOM      5  C6  UNL d   1       2.372   2.773  -2.600  0.00  0.00     0.000 A 
ATOM      6  C7  UNL d   1       1.840   1.615  -2.007  0.00  0.00    -0.073 A 
ATOM      7  C8  UNL d   1       1.672   1.581  -0.513  0.00  0.00     0.078 C 
ENDROOT
BRANCH   1   8
ATOM      8  C1  UNL d   1       0.826  -0.721  -2.273  0.00  0.00     0.053 C 
ATOM      9  C   UNL d   1       1.864  -1.781  -1.938  0.00  0.00     0.018 C 
ENDBRANCH   1   8
TORSDOF 1
ENDMDL
