MODEL 1
REMARK minimizedAffinity 12.9622517
REMARK minimizedRMSD -1
REMARK  1 active torsions:
REMARK  status: ('A' for Active; 'I' for Inactive)
REMARK    1  A    between atoms: C1_2  and  C2_3 
ROOT
ATOM      1  C2  UNL d   1       2.158  -3.400  -1.204  0.00  0.00    -0.076 A 
ATOM      2  C3  UNL d   1       1.179  -3.502  -2.208  0.00  0.00     0.004 A 
ATOM      3  C4  UNL d   1       0.873  -2.415  -3.026  0.00  0.00    -0.003 A 
ATOM      4  C5  UNL d   1       1.543  -1.209  -2.854  0.00  0.00     0.000 A 
ATOM      5  C6  UNL d   1       2.529  -1.094  -1.875  0.00  0.00     0.000 A 
ATOM      6  C7  UNL d   1       2.861  -2.185  -1.053  0.00  0.00    -0.073 A 
ATOM      7  C8  UNL d   1       3.928  -2.004  -0.009  0.00  0.00     0.078 C 
ENDROOT
BRANCH   1   8
ATOM      8  C1  UNL d   1       2.427  -4.603  -0.330  0.00  0.00     0.053 C 
ATOM      9  C   UNL d   1       1.252  -4.941   0.575  0.00  0.00     0.018 C 
ENDBRANCH   1   8
TORSDOF 1
ENDMDL
