MODEL 1
REMARK minimizedAffinity 12.5505772
REMARK minimizedRMSD -1
REMARK  1 active torsions:
REMARK  status: ('A' for Active; 'I' for Inactive)
REMARK    1  A    between atoms: C1_2  and  C2_3 
ROOT
ATOM      1  C2  UNL d   1       1.145   0.678  -3.416  0.00  0.00    -0.076 A 
ATOM      2  C3  UNL d   1       0.774  -0.638  -3.087  0.00  0.00     0.004 A 
ATOM      3  C4  UNL d   1       1.325  -1.284  -1.982  0.00  0.00    -0.003 A 
ATOM      4  C5  UNL d   1       2.256  -0.626  -1.187  0.00  0.00     0.000 A 
ATOM      5  C6  UNL d   1       2.623   0.686  -1.488  0.00  0.00     0.000 A 
ATOM      6  C7  UNL d   1       2.065   1.358  -2.589  0.00  0.00    -0.073 A 
ATOM      7  C8  UNL d   1       2.502   2.769  -2.870  0.00  0.00     0.078 C 
ENDROOT
BRANCH   1   8
ATOM      8  C1  UNL d   1       0.535   1.318  -4.642  0.00  0.00     0.053 C 
ATOM      9  C   UNL d   1       1.340   1.046  -5.903  0.00  0.00     0.018 C 
ENDBRANCH   1   8
TORSDOF 1
ENDMDL
