MODEL 1
REMARK minimizedAffinity 15.7801094
REMARK minimizedRMSD -1
REMARK  1 active torsions:
REMARK  status: ('A' for Active; 'I' for Inactive)
REMARK    1  A    between atoms: C1_2  and  C2_3 
ROOT
ATOM      1  C2  UNL d   1       3.457   0.772  -2.744  0.00  0.00    -0.076 A 
ATOM      2  C3  UNL d   1       3.472  -0.071  -1.619  0.00  0.00     0.004 A 
ATOM      3  C4  UNL d   1       2.297  -0.645  -1.138  0.00  0.00    -0.003 A 
ATOM      4  C5  UNL d   1       1.087  -0.386  -1.774  0.00  0.00     0.000 A 
ATOM      5  C6  UNL d   1       1.057   0.433  -2.902  0.00  0.00     0.000 A 
ATOM      6  C7  UNL d   1       2.235   1.007  -3.410  0.00  0.00    -0.073 A 
ATOM      7  C8  UNL d   1       2.143   1.887  -4.626  0.00  0.00     0.078 C 
ENDROOT
BRANCH   1   8
ATOM      8  C1  UNL d   1       4.759   1.388  -3.205  0.00  0.00     0.053 C 
ATOM      9  C   UNL d   1       5.968   0.548  -2.822  0.00  0.00     0.018 C 
ENDBRANCH   1   8
TORSDOF 1
ENDMDL
