MODEL 1
REMARK minimizedAffinity 9.14075947
REMARK minimizedRMSD -1
REMARK  1 active torsions:
REMARK  status: ('A' for Active; 'I' for Inactive)
REMARK    1  A    between atoms: C1_2  and  C2_3 
ROOT
ATOM      1  C2  UNL d   1       0.057   0.159  -1.799  0.00  0.00    -0.076 A 
ATOM      2  C3  UNL d   1       0.788   0.436  -0.630  0.00  0.00     0.004 A 
ATOM      3  C4  UNL d   1       1.587   1.575  -0.537  0.00  0.00    -0.003 A 
ATOM      4  C5  UNL d   1       1.667   2.455  -1.610  0.00  0.00     0.000 A 
ATOM      5  C6  UNL d   1       0.935   2.205  -2.770  0.00  0.00     0.000 A 
ATOM      6  C7  UNL d   1       0.113   1.071  -2.875  0.00  0.00    -0.073 A 
ATOM      7  C8  UNL d   1      -0.650   0.848  -4.152  0.00  0.00     0.078 C 
ENDROOT
BRANCH   1   8
ATOM      8  C1  UNL d   1      -0.771  -1.105  -1.853  0.00  0.00     0.053 C 
ATOM      9  C   UNL d   1      -1.521  -1.366  -0.556  0.00  0.00     0.018 C 
ENDBRANCH   1   8
TORSDOF 1
ENDMDL
