MODEL 1
REMARK minimizedAffinity 11.4700422
REMARK minimizedRMSD -1
REMARK  1 active torsions:
REMARK  status: ('A' for Active; 'I' for Inactive)
REMARK    1  A    between atoms: C1_2  and  C2_3 
ROOT
ATOM      1  C2  UNL d   1       1.123   1.267  -3.269  0.00  0.00    -0.076 A 
ATOM      2  C3  UNL d   1       1.494   1.996  -4.412  0.00  0.00     0.004 A 
ATOM      3  C4  UNL d   1       0.824   1.823  -5.622  0.00  0.00    -0.003 A 
ATOM      4  C5  UNL d   1      -0.230   0.920  -5.708  0.00  0.00     0.000 A 
ATOM      5  C6  UNL d   1      -0.623   0.202  -4.579  0.00  0.00     0.000 A 
ATOM      6  C7  UNL d   1       0.031   0.376  -3.348  0.00  0.00    -0.073 A 
ATOM      7  C8  UNL d   1      -0.431  -0.429  -2.164  0.00  0.00     0.078 C 
ENDROOT
BRANCH   1   8
ATOM      8  C1  UNL d   1       1.904   1.477  -1.991  0.00  0.00     0.053 C 
ATOM      9  C   UNL d   1       1.929   2.933  -1.555  0.00  0.00     0.018 C 
ENDBRANCH   1   8
TORSDOF 1
ENDMDL
