MODEL 1
REMARK minimizedAffinity 12.8920527
REMARK minimizedRMSD -1
REMARK  1 active torsions:
REMARK  status: ('A' for Active; 'I' for Inactive)
REMARK    1  A    between atoms: C1_2  and  C2_3 
ROOT
ATOM      1  C2  UNL d   1      -4.694   4.738   3.622  0.00  0.00    -0.076 A 
ATOM      2  C3  UNL d   1      -5.431   4.655   4.816  0.00  0.00     0.004 A 
ATOM      3  C4  UNL d   1      -4.956   5.227   5.994  0.00  0.00    -0.003 A 
ATOM      4  C5  UNL d   1      -3.735   5.893   5.998  0.00  0.00     0.000 A 
ATOM      5  C6  UNL d   1      -2.998   6.000   4.818  0.00  0.00     0.000 A 
ATOM      6  C7  UNL d   1      -3.471   5.442   3.618  0.00  0.00    -0.073 A 
ATOM      7  C8  UNL d   1      -2.633   5.583   2.377  0.00  0.00     0.078 C 
ENDROOT
BRANCH   1   8
ATOM      8  C1  UNL d   1      -5.247   4.074   2.381  0.00  0.00     0.053 C 
ATOM      9  C   UNL d   1      -5.740   2.660   2.647  0.00  0.00     0.018 C 
ENDBRANCH   1   8
TORSDOF 1
ENDMDL
