MODEL 1
REMARK minimizedAffinity -6.49687481
REMARK minimizedRMSD -1
REMARK  1 active torsions:
REMARK  status: ('A' for Active; 'I' for Inactive)
REMARK    1  A    between atoms: C1_2  and  C2_3 
ROOT
ATOM      1  C2  UNL d   1      -3.365   0.522   1.780  0.00  0.00    -0.076 A 
ATOM      2  C3  UNL d   1      -3.804  -0.477   2.666  0.00  0.00     0.004 A 
ATOM      3  C4  UNL d   1      -3.983  -0.205   4.022  0.00  0.00    -0.003 A 
ATOM      4  C5  UNL d   1      -3.727   1.070   4.512  0.00  0.00     0.000 A 
ATOM      5  C6  UNL d   1      -3.309   2.078   3.644  0.00  0.00     0.000 A 
ATOM      6  C7  UNL d   1      -3.139   1.825   2.272  0.00  0.00    -0.073 A 
ATOM      7  C8  UNL d   1      -2.680   2.948   1.383  0.00  0.00     0.078 C 
ENDROOT
BRANCH   1   8
ATOM      8  C1  UNL d   1      -3.163   0.162   0.325  0.00  0.00     0.053 C 
ATOM      9  C   UNL d   1      -2.749  -1.289   0.137  0.00  0.00     0.018 C 
ENDBRANCH   1   8
TORSDOF 1
ENDMDL
