MODEL 1
REMARK minimizedAffinity 0.937652946
REMARK minimizedRMSD -1
REMARK  0 active torsions:
REMARK  status: ('A' for Active; 'I' for Inactive)
ROOT
ATOM      1  C   UNL d   1      -0.831  -0.748   2.981  0.00  0.00     0.078 C 
ATOM      2  C1  UNL d   1      -1.807  -0.351   1.914  0.00  0.00    -0.077 A 
ATOM      3  C2  UNL d   1      -1.962  -1.122   0.756  0.00  0.00    -0.001 A 
ATOM      4  C3  UNL d   1      -2.868  -0.736  -0.234  0.00  0.00     0.003 A 
ATOM      5  C4  UNL d   1      -3.625   0.424  -0.075  0.00  0.00    -0.005 A 
ATOM      6  C5  UNL d   1      -3.476   1.198   1.073  0.00  0.00     0.003 A 
ATOM      7  C6  UNL d   1      -2.571   0.813   2.064  0.00  0.00    -0.001 A 
ENDROOT
TORSDOF 0
ENDMDL
