MODEL 1
REMARK minimizedAffinity -2.17513514
REMARK minimizedRMSD -1
REMARK  0 active torsions:
REMARK  status: ('A' for Active; 'I' for Inactive)
ROOT
ATOM      1  C   UNL d   1      -0.028  -3.541  -5.247  0.00  0.00     0.078 C 
ATOM      2  C1  UNL d   1      -0.071  -2.049  -5.102  0.00  0.00    -0.077 A 
ATOM      3  C2  UNL d   1       0.616  -1.217  -5.995  0.00  0.00    -0.001 A 
ATOM      4  C3  UNL d   1       0.575   0.169  -5.843  0.00  0.00     0.003 A 
ATOM      5  C4  UNL d   1      -0.152   0.737  -4.798  0.00  0.00    -0.005 A 
ATOM      6  C5  UNL d   1      -0.837  -0.082  -3.903  0.00  0.00     0.003 A 
ATOM      7  C6  UNL d   1      -0.797  -1.469  -4.054  0.00  0.00    -0.001 A 
ENDROOT
TORSDOF 0
ENDMDL
