MODEL 1
REMARK minimizedAffinity -2.12806368
REMARK minimizedRMSD -1
REMARK  0 active torsions:
REMARK  status: ('A' for Active; 'I' for Inactive)
ROOT
ATOM      1  C   UNL d   1       1.467   1.099   1.809  0.00  0.00     0.078 C 
ATOM      2  C1  UNL d   1       0.396   0.080   2.060  0.00  0.00    -0.077 A 
ATOM      3  C2  UNL d   1       0.716  -1.213   2.489  0.00  0.00    -0.001 A 
ATOM      4  C3  UNL d   1      -0.291  -2.154   2.710  0.00  0.00     0.003 A 
ATOM      5  C4  UNL d   1      -1.626  -1.811   2.502  0.00  0.00    -0.005 A 
ATOM      6  C5  UNL d   1      -1.954  -0.527   2.073  0.00  0.00     0.003 A 
ATOM      7  C6  UNL d   1      -0.948   0.415   1.852  0.00  0.00    -0.001 A 
ENDROOT
TORSDOF 0
ENDMDL
