MODEL 1
REMARK minimizedAffinity 5.29391861
REMARK minimizedRMSD -1
REMARK  0 active torsions:
REMARK  status: ('A' for Active; 'I' for Inactive)
ROOT
ATOM      1  C   UNL d   1      -1.125  -1.051  -5.013  0.00  0.00     0.078 C 
ATOM      2  C1  UNL d   1       0.357  -0.818  -5.015  0.00  0.00    -0.077 A 
ATOM      3  C2  UNL d   1       1.179  -1.398  -4.041  0.00  0.00    -0.001 A 
ATOM      4  C3  UNL d   1       2.555  -1.164  -4.049  0.00  0.00     0.003 A 
ATOM      5  C4  UNL d   1       3.121  -0.350  -5.028  0.00  0.00    -0.005 A 
ATOM      6  C5  UNL d   1       2.310   0.233  -6.000  0.00  0.00     0.003 A 
ATOM      7  C6  UNL d   1       0.934   0.001  -5.993  0.00  0.00    -0.001 A 
ENDROOT
TORSDOF 0
ENDMDL
