MODEL 1
REMARK minimizedAffinity -2.74163699
REMARK minimizedRMSD -1
REMARK  0 active torsions:
REMARK  status: ('A' for Active; 'I' for Inactive)
ROOT
ATOM      1  C   UNL d   1      -1.871   0.495   2.954  0.00  0.00     0.078 C 
ATOM      2  C1  UNL d   1      -1.765  -0.217   1.639  0.00  0.00    -0.077 A 
ATOM      3  C2  UNL d   1      -0.523  -0.636   1.144  0.00  0.00    -0.001 A 
ATOM      4  C3  UNL d   1      -0.438  -1.289  -0.086  0.00  0.00     0.003 A 
ATOM      5  C4  UNL d   1      -1.590  -1.529  -0.833  0.00  0.00    -0.005 A 
ATOM      6  C5  UNL d   1      -2.830  -1.115  -0.349  0.00  0.00     0.003 A 
ATOM      7  C6  UNL d   1      -2.917  -0.461   0.881  0.00  0.00    -0.001 A 
ENDROOT
TORSDOF 0
ENDMDL
