MODEL 1
REMARK minimizedAffinity -2.71215606
REMARK minimizedRMSD -1
REMARK  0 active torsions:
REMARK  status: ('A' for Active; 'I' for Inactive)
ROOT
ATOM      1  C   UNL d   1      -4.269   0.171   0.049  0.00  0.00     0.078 C 
ATOM      2  C1  UNL d   1      -3.005  -0.039   0.829  0.00  0.00    -0.077 A 
ATOM      3  C2  UNL d   1      -2.012  -0.913   0.372  0.00  0.00    -0.001 A 
ATOM      4  C3  UNL d   1      -0.845  -1.105   1.113  0.00  0.00     0.003 A 
ATOM      5  C4  UNL d   1      -0.661  -0.428   2.317  0.00  0.00    -0.005 A 
ATOM      6  C5  UNL d   1      -1.645   0.442   2.782  0.00  0.00     0.003 A 
ATOM      7  C6  UNL d   1      -2.813   0.636   2.042  0.00  0.00    -0.001 A 
ENDROOT
TORSDOF 0
ENDMDL
