MODEL 1
REMARK minimizedAffinity 0.159795478
REMARK minimizedRMSD -1
REMARK  2 active torsions:
REMARK  status: ('A' for Active; 'I' for Inactive)
REMARK    1  A    between atoms: C1_2  and  C2_3 
REMARK    2  A    between atoms: C2_3  and  C3_4 
ROOT
ATOM      1  C3  UNL d   1      -0.502  -0.650   0.226  0.00  0.00    -0.075 A 
ATOM      2  C4  UNL d   1      -0.272   0.576  -0.415  0.00  0.00     0.002 A 
ATOM      3  C5  UNL d   1      -1.026   0.945  -1.529  0.00  0.00     0.002 A 
ATOM      4  C6  UNL d   1      -2.009   0.091  -2.023  0.00  0.00    -0.004 A 
ATOM      5  C7  UNL d   1      -2.235  -1.137  -1.404  0.00  0.00     0.002 A 
ATOM      6  C8  UNL d   1      -1.485  -1.507  -0.286  0.00  0.00     0.002 A 
ENDROOT
BRANCH   1   7
ATOM      7  C2  UNL d   1       0.290  -1.042   1.451  0.00  0.00     0.056 C 
BRANCH   7   8
ATOM      8  C1  UNL d   1      -0.129  -0.304   2.727  0.00  0.00     0.007 C 
ATOM      9  C   UNL d   1       0.793   0.855   3.079  0.00  0.00     0.009 C 
ENDBRANCH   7   8
ENDBRANCH   1   7
TORSDOF 2
ENDMDL
