MODEL 1
REMARK minimizedAffinity 0.459536493
REMARK minimizedRMSD -1
REMARK  2 active torsions:
REMARK  status: ('A' for Active; 'I' for Inactive)
REMARK    1  A    between atoms: C1_2  and  C2_3 
REMARK    2  A    between atoms: C2_3  and  C3_4 
ROOT
ATOM      1  C3  UNL d   1       0.968   0.509   0.581  0.00  0.00    -0.075 A 
ATOM      2  C4  UNL d   1       0.592   0.441   1.930  0.00  0.00     0.002 A 
ATOM      3  C5  UNL d   1       1.121   1.338   2.859  0.00  0.00     0.002 A 
ATOM      4  C6  UNL d   1       2.038   2.305   2.454  0.00  0.00    -0.004 A 
ATOM      5  C7  UNL d   1       2.431   2.372   1.119  0.00  0.00     0.002 A 
ATOM      6  C8  UNL d   1       1.900   1.479   0.187  0.00  0.00     0.002 A 
ENDROOT
BRANCH   1   7
ATOM      7  C2  UNL d   1       0.377  -0.439  -0.434  0.00  0.00     0.056 C 
BRANCH   7   8
ATOM      8  C1  UNL d   1      -0.414   0.254  -1.549  0.00  0.00     0.007 C 
ATOM      9  C   UNL d   1      -1.794  -0.352  -1.772  0.00  0.00     0.009 C 
ENDBRANCH   7   8
ENDBRANCH   1   7
TORSDOF 2
ENDMDL
