MODEL 1
REMARK minimizedAffinity 0.902895391
REMARK minimizedRMSD -1
REMARK  2 active torsions:
REMARK  status: ('A' for Active; 'I' for Inactive)
REMARK    1  A    between atoms: C1_2  and  C2_3 
REMARK    2  A    between atoms: C2_3  and  C3_4 
ROOT
ATOM      1  C3  UNL d   1       1.546   0.878  -0.174  0.00  0.00    -0.075 A 
ATOM      2  C4  UNL d   1       1.272  -0.213   0.664  0.00  0.00     0.002 A 
ATOM      3  C5  UNL d   1       0.119  -0.976   0.479  0.00  0.00     0.002 A 
ATOM      4  C6  UNL d   1      -0.779  -0.652  -0.536  0.00  0.00    -0.004 A 
ATOM      5  C7  UNL d   1      -0.525   0.440  -1.364  0.00  0.00     0.002 A 
ATOM      6  C8  UNL d   1       0.631   1.202  -1.184  0.00  0.00     0.002 A 
ENDROOT
BRANCH   1   7
ATOM      7  C2  UNL d   1       2.808   1.690   0.003  0.00  0.00     0.056 C 
BRANCH   7   8
ATOM      8  C1  UNL d   1       2.590   3.205  -0.070  0.00  0.00     0.007 C 
ATOM      9  C   UNL d   1       2.943   3.925   1.224  0.00  0.00     0.009 C 
ENDBRANCH   7   8
ENDBRANCH   1   7
TORSDOF 2
ENDMDL
