MODEL 1
REMARK minimizedAffinity 2.06429291
REMARK minimizedRMSD -1
REMARK  2 active torsions:
REMARK  status: ('A' for Active; 'I' for Inactive)
REMARK    1  A    between atoms: C1_2  and  C2_3 
REMARK    2  A    between atoms: C2_3  and  C3_4 
ROOT
ATOM      1  C3  UNL d   1       1.138   1.094   1.614  0.00  0.00    -0.075 A 
ATOM      2  C4  UNL d   1       0.039   1.044   2.483  0.00  0.00     0.002 A 
ATOM      3  C5  UNL d   1      -0.673  -0.143   2.657  0.00  0.00     0.002 A 
ATOM      4  C6  UNL d   1      -0.303  -1.290   1.959  0.00  0.00    -0.004 A 
ATOM      5  C7  UNL d   1       0.777  -1.248   1.081  0.00  0.00     0.002 A 
ATOM      6  C8  UNL d   1       1.494  -0.063   0.907  0.00  0.00     0.002 A 
ENDROOT
BRANCH   1   7
ATOM      7  C2  UNL d   1       1.931   2.367   1.442  0.00  0.00     0.056 C 
BRANCH   7   8
ATOM      8  C1  UNL d   1       2.578   2.518   0.062  0.00  0.00     0.007 C 
ATOM      9  C   UNL d   1       3.684   3.565   0.028  0.00  0.00     0.009 C 
ENDBRANCH   7   8
ENDBRANCH   1   7
TORSDOF 2
ENDMDL
