MODEL 1
REMARK minimizedAffinity 0.372198254
REMARK minimizedRMSD -1
REMARK  2 active torsions:
REMARK  status: ('A' for Active; 'I' for Inactive)
REMARK    1  A    between atoms: C1_2  and  C2_3 
REMARK    2  A    between atoms: C2_3  and  C3_4 
ROOT
ATOM      1  C3  UNL d   1      -2.843  -1.071  -0.298  0.00  0.00    -0.075 A 
ATOM      2  C4  UNL d   1      -3.389   0.051  -0.939  0.00  0.00     0.002 A 
ATOM      3  C5  UNL d   1      -2.632   0.780  -1.856  0.00  0.00     0.002 A 
ATOM      4  C6  UNL d   1      -1.320   0.406  -2.136  0.00  0.00    -0.004 A 
ATOM      5  C7  UNL d   1      -0.762  -0.697  -1.492  0.00  0.00     0.002 A 
ATOM      6  C8  UNL d   1      -1.518  -1.432  -0.577  0.00  0.00     0.002 A 
ENDROOT
BRANCH   1   7
ATOM      7  C2  UNL d   1      -3.667  -1.883   0.674  0.00  0.00     0.056 C 
BRANCH   7   8
ATOM      8  C1  UNL d   1      -5.175  -1.631   0.575  0.00  0.00     0.007 C 
ATOM      9  C   UNL d   1      -5.999  -2.576   1.440  0.00  0.00     0.009 C 
ENDBRANCH   7   8
ENDBRANCH   1   7
TORSDOF 2
ENDMDL
