MODEL 1
REMARK minimizedAffinity 5.5496254
REMARK minimizedRMSD -1
REMARK  2 active torsions:
REMARK  status: ('A' for Active; 'I' for Inactive)
REMARK    1  A    between atoms: C1_2  and  C2_3 
REMARK    2  A    between atoms: C2_3  and  C3_4 
ROOT
ATOM      1  C3  UNL d   1      -3.019   0.553  -0.972  0.00  0.00    -0.075 A 
ATOM      2  C4  UNL d   1      -2.898  -0.809  -0.661  0.00  0.00     0.002 A 
ATOM      3  C5  UNL d   1      -1.908  -1.587  -1.262  0.00  0.00     0.002 A 
ATOM      4  C6  UNL d   1      -1.036  -1.017  -2.187  0.00  0.00    -0.004 A 
ATOM      5  C7  UNL d   1      -1.158   0.331  -2.516  0.00  0.00     0.002 A 
ATOM      6  C8  UNL d   1      -2.145   1.113  -1.912  0.00  0.00     0.002 A 
ENDROOT
BRANCH   1   7
ATOM      7  C2  UNL d   1      -4.069   1.408  -0.302  0.00  0.00     0.056 C 
BRANCH   7   8
ATOM      8  C1  UNL d   1      -3.497   2.522   0.581  0.00  0.00     0.007 C 
ATOM      9  C   UNL d   1      -4.505   3.621   0.890  0.00  0.00     0.009 C 
ENDBRANCH   7   8
ENDBRANCH   1   7
TORSDOF 2
ENDMDL
