MODEL 1
REMARK minimizedAffinity 2.06992888
REMARK minimizedRMSD -1
REMARK  2 active torsions:
REMARK  status: ('A' for Active; 'I' for Inactive)
REMARK    1  A    between atoms: C1_2  and  C2_3 
REMARK    2  A    between atoms: C2_3  and  C3_4 
ROOT
ATOM      1  C3  UNL d   1      -0.792   1.261  -3.210  0.00  0.00    -0.075 A 
ATOM      2  C4  UNL d   1      -0.479   0.025  -2.627  0.00  0.00     0.002 A 
ATOM      3  C5  UNL d   1      -1.427  -0.660  -1.866  0.00  0.00     0.002 A 
ATOM      4  C6  UNL d   1      -2.694  -0.113  -1.670  0.00  0.00    -0.004 A 
ATOM      5  C7  UNL d   1      -3.010   1.122  -2.231  0.00  0.00     0.002 A 
ATOM      6  C8  UNL d   1      -2.064   1.807  -2.996  0.00  0.00     0.002 A 
ENDROOT
BRANCH   1   7
ATOM      7  C2  UNL d   1       0.220   1.993  -4.059  0.00  0.00     0.056 C 
BRANCH   7   8
ATOM      8  C1  UNL d   1       0.756   1.173  -5.237  0.00  0.00     0.007 C 
ATOM      9  C   UNL d   1       1.871   1.875  -6.000  0.00  0.00     0.009 C 
ENDBRANCH   7   8
ENDBRANCH   1   7
TORSDOF 2
ENDMDL
