MODEL 1
REMARK minimizedAffinity 6.66816711
REMARK minimizedRMSD -1
REMARK  2 active torsions:
REMARK  status: ('A' for Active; 'I' for Inactive)
REMARK    1  A    between atoms: C1_2  and  C2_3 
REMARK    2  A    between atoms: C2_3  and  C3_4 
ROOT
ATOM      1  C3  UNL d   1       1.866   1.035   1.238  0.00  0.00    -0.075 A 
ATOM      2  C4  UNL d   1       1.924  -0.075   0.382  0.00  0.00     0.002 A 
ATOM      3  C5  UNL d   1       1.207  -1.235   0.677  0.00  0.00     0.002 A 
ATOM      4  C6  UNL d   1       0.433  -1.304   1.833  0.00  0.00    -0.004 A 
ATOM      5  C7  UNL d   1       0.381  -0.214   2.699  0.00  0.00     0.002 A 
ATOM      6  C8  UNL d   1       1.094   0.950   2.404  0.00  0.00     0.002 A 
ENDROOT
BRANCH   1   7
ATOM      7  C2  UNL d   1       2.616   2.304   0.909  0.00  0.00     0.056 C 
BRANCH   7   8
ATOM      8  C1  UNL d   1       3.393   2.245  -0.410  0.00  0.00     0.007 C 
ATOM      9  C   UNL d   1       3.044   3.379  -1.364  0.00  0.00     0.009 C 
ENDBRANCH   7   8
ENDBRANCH   1   7
TORSDOF 2
ENDMDL
