MODEL 1
REMARK minimizedAffinity 8.97842979
REMARK minimizedRMSD -1
REMARK  0 active torsions:
REMARK  status: ('A' for Active; 'I' for Inactive)
ROOT
ATOM      1  C   UNL d   1      -3.771   3.908   5.998  0.00  0.00     0.077 C 
ATOM      2  C1  UNL d   1      -4.054   2.437   5.931  0.00  0.00    -0.074 A 
ATOM      3  C2  UNL d   1      -5.365   1.953   5.995  0.00  0.00    -0.005 A 
ATOM      4  C3  UNL d   1      -5.613   0.583   5.921  0.00  0.00     0.006 A 
ATOM      5  C4  UNL d   1      -4.555  -0.317   5.783  0.00  0.00    -0.005 A 
ATOM      6  C5  UNL d   1      -3.238   0.148   5.717  0.00  0.00    -0.074 A 
ATOM      7  C6  UNL d   1      -2.090  -0.804   5.559  0.00  0.00     0.077 C 
ATOM      8  C7  UNL d   1      -2.997   1.527   5.784  0.00  0.00    -0.001 A 
ENDROOT
TORSDOF 0
ENDMDL
