MODEL 1
REMARK minimizedAffinity 15.1598701
REMARK minimizedRMSD -1
REMARK  0 active torsions:
REMARK  status: ('A' for Active; 'I' for Inactive)
ROOT
ATOM      1  C   UNL d   1      -2.974   3.762  -4.131  0.00  0.00     0.077 C 
ATOM      2  C1  UNL d   1      -1.656   3.088  -4.373  0.00  0.00    -0.074 A 
ATOM      3  C2  UNL d   1      -1.434   1.772  -3.956  0.00  0.00    -0.005 A 
ATOM      4  C3  UNL d   1      -0.206   1.155  -4.197  0.00  0.00     0.006 A 
ATOM      5  C4  UNL d   1       0.811   1.847  -4.856  0.00  0.00    -0.005 A 
ATOM      6  C5  UNL d   1       0.607   3.164  -5.281  0.00  0.00    -0.074 A 
ATOM      7  C6  UNL d   1       1.686   3.919  -6.000  0.00  0.00     0.077 C 
ATOM      8  C7  UNL d   1      -0.632   3.774  -5.042  0.00  0.00    -0.001 A 
ENDROOT
TORSDOF 0
ENDMDL
