MODEL 1
REMARK minimizedAffinity 13.4230728
REMARK minimizedRMSD -1
REMARK  0 active torsions:
REMARK  status: ('A' for Active; 'I' for Inactive)
ROOT
ATOM      1  C   UNL d   1       0.749   4.054  -4.869  0.00  0.00     0.077 C 
ATOM      2  C1  UNL d   1      -0.586   3.370  -4.887  0.00  0.00    -0.074 A 
ATOM      3  C2  UNL d   1      -1.434   3.479  -5.994  0.00  0.00    -0.005 A 
ATOM      4  C3  UNL d   1      -2.668   2.830  -6.000  0.00  0.00     0.006 A 
ATOM      5  C4  UNL d   1      -3.067   2.067  -4.901  0.00  0.00    -0.005 A 
ATOM      6  C5  UNL d   1      -2.232   1.946  -3.786  0.00  0.00    -0.074 A 
ATOM      7  C6  UNL d   1      -2.640   1.123  -2.601  0.00  0.00     0.077 C 
ATOM      8  C7  UNL d   1      -0.990   2.596  -3.790  0.00  0.00    -0.001 A 
ENDROOT
TORSDOF 0
ENDMDL
