MODEL 1
REMARK minimizedAffinity 11.5062904
REMARK minimizedRMSD -1
REMARK  0 active torsions:
REMARK  status: ('A' for Active; 'I' for Inactive)
ROOT
ATOM      1  C   UNL d   1       4.875   6.000   1.167  0.00  0.00     0.077 C 
ATOM      2  C1  UNL d   1       4.937   4.851   0.204  0.00  0.00    -0.074 A 
ATOM      3  C2  UNL d   1       5.949   4.773  -0.757  0.00  0.00    -0.005 A 
ATOM      4  C3  UNL d   1       5.999   3.694  -1.640  0.00  0.00     0.006 A 
ATOM      5  C4  UNL d   1       5.039   2.685  -1.570  0.00  0.00    -0.005 A 
ATOM      6  C5  UNL d   1       4.019   2.745  -0.615  0.00  0.00    -0.074 A 
ATOM      7  C6  UNL d   1       2.985   1.663  -0.520  0.00  0.00     0.077 C 
ATOM      8  C7  UNL d   1       3.980   3.829   0.273  0.00  0.00    -0.001 A 
ENDROOT
TORSDOF 0
ENDMDL
