MODEL 1
REMARK minimizedAffinity 14.2542429
REMARK minimizedRMSD -1
REMARK  0 active torsions:
REMARK  status: ('A' for Active; 'I' for Inactive)
ROOT
ATOM      1  C   UNL d   1      -2.536  -2.403   3.641  0.00  0.00     0.077 C 
ATOM      2  C1  UNL d   1      -1.809  -2.812   2.394  0.00  0.00    -0.074 A 
ATOM      3  C2  UNL d   1      -1.033  -3.975   2.363  0.00  0.00    -0.005 A 
ATOM      4  C3  UNL d   1      -0.371  -4.347   1.194  0.00  0.00     0.006 A 
ATOM      5  C4  UNL d   1      -0.477  -3.562   0.045  0.00  0.00    -0.005 A 
ATOM      6  C5  UNL d   1      -1.249  -2.396   0.057  0.00  0.00    -0.074 A 
ATOM      7  C6  UNL d   1      -1.382  -1.545  -1.171  0.00  0.00     0.077 C 
ATOM      8  C7  UNL d   1      -1.917  -2.032   1.234  0.00  0.00    -0.001 A 
ENDROOT
TORSDOF 0
ENDMDL
