MODEL 1
REMARK minimizedAffinity 5.20533705
REMARK minimizedRMSD -1
REMARK  0 active torsions:
REMARK  status: ('A' for Active; 'I' for Inactive)
ROOT
ATOM      1  C   UNL d   1      -0.059  -5.615   0.758  0.00  0.00     0.077 C 
ATOM      2  C1  UNL d   1      -0.783  -4.304   0.832  0.00  0.00    -0.074 A 
ATOM      3  C2  UNL d   1      -0.822  -3.441  -0.268  0.00  0.00    -0.005 A 
ATOM      4  C3  UNL d   1      -1.508  -2.229  -0.187  0.00  0.00     0.006 A 
ATOM      5  C4  UNL d   1      -2.161  -1.868   0.993  0.00  0.00    -0.005 A 
ATOM      6  C5  UNL d   1      -2.133  -2.719   2.102  0.00  0.00    -0.074 A 
ATOM      7  C6  UNL d   1      -2.838  -2.351   3.374  0.00  0.00     0.077 C 
ATOM      8  C7  UNL d   1      -1.448  -3.938   2.011  0.00  0.00    -0.001 A 
ENDROOT
TORSDOF 0
ENDMDL
