MODEL 1
REMARK minimizedAffinity 14.670392
REMARK minimizedRMSD -1
REMARK  0 active torsions:
REMARK  status: ('A' for Active; 'I' for Inactive)
ROOT
ATOM      1  C   UNL d   1      -0.754  -1.010  -3.056  0.00  0.00     0.077 C 
ATOM      2  C1  UNL d   1      -1.303   0.344  -3.399  0.00  0.00    -0.074 A 
ATOM      3  C2  UNL d   1      -2.657   0.638  -3.211  0.00  0.00    -0.005 A 
ATOM      4  C3  UNL d   1      -3.151   1.904  -3.526  0.00  0.00     0.006 A 
ATOM      5  C4  UNL d   1      -2.298   2.886  -4.030  0.00  0.00    -0.005 A 
ATOM      6  C5  UNL d   1      -0.941   2.610  -4.223  0.00  0.00    -0.074 A 
ATOM      7  C6  UNL d   1      -0.008   3.657  -4.755  0.00  0.00     0.077 C 
ATOM      8  C7  UNL d   1      -0.450   1.338  -3.898  0.00  0.00    -0.001 A 
ENDROOT
TORSDOF 0
ENDMDL
