MODEL 1
REMARK minimizedAffinity 18.2006359
REMARK minimizedRMSD -1
REMARK  0 active torsions:
REMARK  status: ('A' for Active; 'I' for Inactive)
ROOT
ATOM      1  C   UNL d   1      -5.845   2.918   5.999  0.00  0.00     0.077 C 
ATOM      2  C1  UNL d   1      -4.793   2.128   5.280  0.00  0.00    -0.074 A 
ATOM      3  C2  UNL d   1      -3.867   1.354   5.986  0.00  0.00    -0.005 A 
ATOM      4  C3  UNL d   1      -2.900   0.616   5.303  0.00  0.00     0.006 A 
ATOM      5  C4  UNL d   1      -2.849   0.646   3.908  0.00  0.00    -0.005 A 
ATOM      6  C5  UNL d   1      -3.767   1.414   3.185  0.00  0.00    -0.074 A 
ATOM      7  C6  UNL d   1      -3.732   1.449   1.686  0.00  0.00     0.077 C 
ATOM      8  C7  UNL d   1      -4.740   2.146   3.879  0.00  0.00    -0.001 A 
ENDROOT
TORSDOF 0
ENDMDL
