MODEL 1
REMARK minimizedAffinity 20.8509769
REMARK minimizedRMSD -1
REMARK  0 active torsions:
REMARK  status: ('A' for Active; 'I' for Inactive)
ROOT
ATOM      1  C   UNL d   1       0.069  -5.159   0.974  0.00  0.00     0.077 C 
ATOM      2  C1  UNL d   1      -0.826  -3.957   1.028  0.00  0.00    -0.074 A 
ATOM      3  C2  UNL d   1      -0.944  -3.098  -0.069  0.00  0.00    -0.005 A 
ATOM      4  C3  UNL d   1      -1.788  -1.990  -0.007  0.00  0.00     0.006 A 
ATOM      5  C4  UNL d   1      -2.522  -1.729   1.151  0.00  0.00    -0.005 A 
ATOM      6  C5  UNL d   1      -2.417  -2.577   2.258  0.00  0.00    -0.074 A 
ATOM      7  C6  UNL d   1      -3.206  -2.317   3.507  0.00  0.00     0.077 C 
ATOM      8  C7  UNL d   1      -1.572  -3.693   2.185  0.00  0.00    -0.001 A 
ENDROOT
TORSDOF 0
ENDMDL
