MODEL 1
REMARK minimizedAffinity 4.9791832
REMARK minimizedRMSD -1
REMARK  0 active torsions:
REMARK  status: ('A' for Active; 'I' for Inactive)
ROOT
ATOM      1  C   UNL d   1      -1.118  -1.778  -1.519  0.00  0.00     0.077 C 
ATOM      2  C1  UNL d   1      -1.354  -2.443  -0.196  0.00  0.00    -0.074 A 
ATOM      3  C2  UNL d   1      -2.138  -1.832   0.787  0.00  0.00    -0.005 A 
ATOM      4  C3  UNL d   1      -2.356  -2.467   2.009  0.00  0.00     0.006 A 
ATOM      5  C4  UNL d   1      -1.793  -3.719   2.261  0.00  0.00    -0.005 A 
ATOM      6  C5  UNL d   1      -1.006  -4.346   1.290  0.00  0.00    -0.074 A 
ATOM      7  C6  UNL d   1      -0.401  -5.696   1.540  0.00  0.00     0.077 C 
ATOM      8  C7  UNL d   1      -0.798  -3.704   0.061  0.00  0.00    -0.001 A 
ENDROOT
TORSDOF 0
ENDMDL
