MODEL 1
REMARK minimizedAffinity 18.8518944
REMARK minimizedRMSD -1
REMARK  0 active torsions:
REMARK  status: ('A' for Active; 'I' for Inactive)
ROOT
ATOM      1  C   UNL d   1       2.647   1.701  -0.486  0.00  0.00     0.077 C 
ATOM      2  C1  UNL d   1       3.808   2.642  -0.615  0.00  0.00    -0.074 A 
ATOM      3  C2  UNL d   1       4.871   2.357  -1.478  0.00  0.00    -0.005 A 
ATOM      4  C3  UNL d   1       5.939   3.247  -1.595  0.00  0.00     0.006 A 
ATOM      5  C4  UNL d   1       5.955   4.427  -0.852  0.00  0.00    -0.005 A 
ATOM      6  C5  UNL d   1       4.900   4.729   0.016  0.00  0.00    -0.074 A 
ATOM      7  C6  UNL d   1       4.897   5.998   0.815  0.00  0.00     0.077 C 
ATOM      8  C7  UNL d   1       3.827   3.834   0.122  0.00  0.00    -0.001 A 
ENDROOT
TORSDOF 0
ENDMDL
