MODEL 1
REMARK minimizedAffinity 12.918973
REMARK minimizedRMSD -1
REMARK  0 active torsions:
REMARK  status: ('A' for Active; 'I' for Inactive)
ROOT
ATOM      1  C   UNL d   1      -6.000   0.394   5.976  0.00  0.00     0.077 C 
ATOM      2  C1  UNL d   1      -4.548   0.107   5.732  0.00  0.00    -0.074 A 
ATOM      3  C2  UNL d   1      -3.570   1.071   5.999  0.00  0.00    -0.005 A 
ATOM      4  C3  UNL d   1      -2.223   0.786   5.776  0.00  0.00     0.006 A 
ATOM      5  C4  UNL d   1      -1.841  -0.463   5.285  0.00  0.00    -0.005 A 
ATOM      6  C5  UNL d   1      -2.805  -1.439   5.013  0.00  0.00    -0.074 A 
ATOM      7  C6  UNL d   1      -2.410  -2.790   4.493  0.00  0.00     0.077 C 
ATOM      8  C7  UNL d   1      -4.156  -1.148   5.246  0.00  0.00    -0.001 A 
ENDROOT
TORSDOF 0
ENDMDL
