MODEL 1
REMARK minimizedAffinity 23.2990303
REMARK minimizedRMSD -1
REMARK  0 active torsions:
REMARK  status: ('A' for Active; 'I' for Inactive)
ROOT
ATOM      1  C   UNL d   1       4.150   1.127   2.673  0.00  0.00     0.077 C 
ATOM      2  C1  UNL d   1       3.827   1.852   1.401  0.00  0.00    -0.074 A 
ATOM      3  C2  UNL d   1       2.791   1.417   0.568  0.00  0.00    -0.005 A 
ATOM      4  C3  UNL d   1       2.497   2.107  -0.608  0.00  0.00     0.006 A 
ATOM      5  C4  UNL d   1       3.234   3.238  -0.962  0.00  0.00    -0.005 A 
ATOM      6  C5  UNL d   1       4.272   3.688  -0.142  0.00  0.00    -0.074 A 
ATOM      7  C6  UNL d   1       5.068   4.907  -0.503  0.00  0.00     0.077 C 
ATOM      8  C7  UNL d   1       4.558   2.993   1.042  0.00  0.00    -0.001 A 
ENDROOT
TORSDOF 0
ENDMDL
