MODEL 1
REMARK minimizedAffinity 9.25354576
REMARK minimizedRMSD -1
REMARK  0 active torsions:
REMARK  status: ('A' for Active; 'I' for Inactive)
ROOT
ATOM      1  C   UNL d   1      -3.254   0.741   5.510  0.00  0.00     0.077 C 
ATOM      2  C1  UNL d   1      -2.400  -0.421   5.100  0.00  0.00    -0.074 A 
ATOM      3  C2  UNL d   1      -1.283  -0.794   5.854  0.00  0.00    -0.005 A 
ATOM      4  C3  UNL d   1      -0.503  -1.883   5.465  0.00  0.00     0.006 A 
ATOM      5  C4  UNL d   1      -0.832  -2.610   4.319  0.00  0.00    -0.005 A 
ATOM      6  C5  UNL d   1      -1.946  -2.252   3.553  0.00  0.00    -0.074 A 
ATOM      7  C6  UNL d   1      -2.319  -3.028   2.325  0.00  0.00     0.077 C 
ATOM      8  C7  UNL d   1      -2.729  -1.161   3.955  0.00  0.00    -0.001 A 
ENDROOT
TORSDOF 0
ENDMDL
