MODEL 1
REMARK minimizedAffinity 14.6939354
REMARK minimizedRMSD -1
REMARK  0 active torsions:
REMARK  status: ('A' for Active; 'I' for Inactive)
ROOT
ATOM      1  C   UNL d   1       4.872   6.000   1.113  0.00  0.00     0.077 C 
ATOM      2  C1  UNL d   1       4.930   4.787   0.233  0.00  0.00    -0.074 A 
ATOM      3  C2  UNL d   1       5.953   4.629  -0.707  0.00  0.00    -0.005 A 
ATOM      4  C3  UNL d   1       5.999   3.490  -1.512  0.00  0.00     0.006 A 
ATOM      5  C4  UNL d   1       5.024   2.500  -1.384  0.00  0.00    -0.005 A 
ATOM      6  C5  UNL d   1       3.994   2.640  -0.448  0.00  0.00    -0.074 A 
ATOM      7  C6  UNL d   1       2.945   1.580  -0.291  0.00  0.00     0.077 C 
ATOM      8  C7  UNL d   1       3.959   3.783   0.361  0.00  0.00    -0.001 A 
ENDROOT
TORSDOF 0
ENDMDL
