MODEL 1
REMARK minimizedAffinity 17.0616112
REMARK minimizedRMSD -1
REMARK  0 active torsions:
REMARK  status: ('A' for Active; 'I' for Inactive)
ROOT
ATOM      1  C   UNL d   1       3.265   1.278   0.342  0.00  0.00     0.077 C 
ATOM      2  C1  UNL d   1       4.193   2.397  -0.028  0.00  0.00    -0.074 A 
ATOM      3  C2  UNL d   1       5.145   2.237  -1.040  0.00  0.00    -0.005 A 
ATOM      4  C3  UNL d   1       5.994   3.289  -1.379  0.00  0.00     0.006 A 
ATOM      5  C4  UNL d   1       5.901   4.511  -0.712  0.00  0.00    -0.005 A 
ATOM      6  C5  UNL d   1       4.955   4.690   0.302  0.00  0.00    -0.074 A 
ATOM      7  C6  UNL d   1       4.834   6.000   1.023  0.00  0.00     0.077 C 
ATOM      8  C7  UNL d   1       4.100   3.630   0.633  0.00  0.00    -0.001 A 
ENDROOT
TORSDOF 0
ENDMDL
