MODEL 1
REMARK minimizedAffinity 2.04426169
REMARK minimizedRMSD -1
REMARK  3 active torsions:
REMARK  status: ('A' for Active; 'I' for Inactive)
REMARK    1  A    between atoms: C3'_2  and  C2'_3 
REMARK    2  A    between atoms: C2'_3  and  C1'_4 
REMARK    3  A    between atoms: C1'_4  and  C1_5 
ROOT
ATOM      1  C1  N4B d   1       5.221   3.033   4.211  0.00  0.00    -0.075 A 
ATOM      2  C2  N4B d   1       5.999   4.212   4.224  0.00  0.00     0.002 A 
ATOM      3  C3  N4B d   1       5.715   5.212   5.122  0.00  0.00     0.002 A 
ATOM      4  C4  N4B d   1       4.651   5.064   6.000  0.00  0.00    -0.004 A 
ATOM      5  C5  N4B d   1       3.921   3.911   5.998  0.00  0.00     0.002 A 
ATOM      6  C6  N4B d   1       4.198   2.897   5.104  0.00  0.00     0.002 A 
ENDROOT
BRANCH   1   7
ATOM      7  C1' N4B d   1       5.439   1.950   3.191  0.00  0.00     0.057 C 
BRANCH   7   8
ATOM      8  C2' N4B d   1       5.505   2.576   1.801  0.00  0.00     0.009 C 
BRANCH   8   9
ATOM      9  C3' N4B d   1       4.153   2.567   1.110  0.00  0.00     0.004 C 
ATOM     10  C4' N4B d   1       4.056   1.526   0.035  0.00  0.00     0.003 C 
ENDBRANCH   8   9
ENDBRANCH   7   8
ENDBRANCH   1   7
TORSDOF 3
ENDMDL
