MODEL 1
REMARK minimizedAffinity -0.511215031
REMARK minimizedRMSD -1
REMARK  3 active torsions:
REMARK  status: ('A' for Active; 'I' for Inactive)
REMARK    1  A    between atoms: C3'_2  and  C2'_3 
REMARK    2  A    between atoms: C2'_3  and  C1'_4 
REMARK    3  A    between atoms: C1'_4  and  C1_5 
ROOT
ATOM      1  C1  N4B d   1       4.552   3.172   3.586  0.00  0.00    -0.075 A 
ATOM      2  C2  N4B d   1       5.262   3.740   4.666  0.00  0.00     0.002 A 
ATOM      3  C3  N4B d   1       4.629   3.961   5.865  0.00  0.00     0.002 A 
ATOM      4  C4  N4B d   1       3.286   3.641   6.000  0.00  0.00    -0.004 A 
ATOM      5  C5  N4B d   1       2.614   3.069   4.960  0.00  0.00     0.002 A 
ATOM      6  C6  N4B d   1       3.239   2.837   3.751  0.00  0.00     0.002 A 
ENDROOT
BRANCH   1   7
ATOM      7  C1' N4B d   1       5.179   2.991   2.231  0.00  0.00     0.057 C 
BRANCH   7   8
ATOM      8  C2' N4B d   1       4.451   1.875   1.487  0.00  0.00     0.009 C 
BRANCH   8   9
ATOM      9  C3' N4B d   1       4.656   1.966  -0.015  0.00  0.00     0.004 C 
ATOM     10  C4' N4B d   1       3.679   1.129  -0.786  0.00  0.00     0.003 C 
ENDBRANCH   8   9
ENDBRANCH   7   8
ENDBRANCH   1   7
TORSDOF 3
ENDMDL
