MODEL 1
REMARK minimizedAffinity -4.2064743
REMARK minimizedRMSD -1
REMARK  3 active torsions:
REMARK  status: ('A' for Active; 'I' for Inactive)
REMARK    1  A    between atoms: C3'_2  and  C2'_3 
REMARK    2  A    between atoms: C2'_3  and  C1'_4 
REMARK    3  A    between atoms: C1'_4  and  C1_5 
ROOT
ATOM      1  C1  N4B d   1       3.931   2.653   4.930  0.00  0.00    -0.075 A 
ATOM      2  C2  N4B d   1       3.874   1.572   5.837  0.00  0.00     0.002 A 
ATOM      3  C3  N4B d   1       2.703   0.874   6.000  0.00  0.00     0.002 A 
ATOM      4  C4  N4B d   1       1.576   1.248   5.284  0.00  0.00    -0.004 A 
ATOM      5  C5  N4B d   1       1.646   2.277   4.391  0.00  0.00     0.002 A 
ATOM      6  C6  N4B d   1       2.817   2.985   4.214  0.00  0.00     0.002 A 
ENDROOT
BRANCH   1   7
ATOM      7  C1' N4B d   1       5.164   3.501   4.781  0.00  0.00     0.057 C 
BRANCH   7   8
ATOM      8  C2' N4B d   1       5.297   4.410   5.999  0.00  0.00     0.009 C 
BRANCH   8   9
ATOM      9  C3' N4B d   1       4.986   5.859   5.665  0.00  0.00     0.004 C 
ATOM     10  C4' N4B d   1       4.102   6.000   4.462  0.00  0.00     0.003 C 
ENDBRANCH   8   9
ENDBRANCH   7   8
ENDBRANCH   1   7
TORSDOF 3
ENDMDL
