MODEL 1
REMARK minimizedAffinity -3.56633449
REMARK minimizedRMSD -1
REMARK  3 active torsions:
REMARK  status: ('A' for Active; 'I' for Inactive)
REMARK    1  A    between atoms: C3'_2  and  C2'_3 
REMARK    2  A    between atoms: C2'_3  and  C1'_4 
REMARK    3  A    between atoms: C1'_4  and  C1_5 
ROOT
ATOM      1  C1  N4B d   1       3.847   2.875   5.388  0.00  0.00    -0.075 A 
ATOM      2  C2  N4B d   1       5.115   2.974   6.000  0.00  0.00     0.002 A 
ATOM      3  C3  N4B d   1       5.872   4.107   5.831  0.00  0.00     0.002 A 
ATOM      4  C4  N4B d   1       5.392   5.142   5.043  0.00  0.00    -0.004 A 
ATOM      5  C5  N4B d   1       4.154   5.049   4.476  0.00  0.00     0.002 A 
ATOM      6  C6  N4B d   1       3.381   3.918   4.640  0.00  0.00     0.002 A 
ENDROOT
BRANCH   1   7
ATOM      7  C1' N4B d   1       3.020   1.621   5.473  0.00  0.00     0.057 C 
BRANCH   7   8
ATOM      8  C2' N4B d   1       2.199   1.475   4.194  0.00  0.00     0.009 C 
BRANCH   8   9
ATOM      9  C3' N4B d   1       1.730   0.046   3.981  0.00  0.00     0.004 C 
ATOM     10  C4' N4B d   1       0.525  -0.043   3.093  0.00  0.00     0.003 C 
ENDBRANCH   8   9
ENDBRANCH   7   8
ENDBRANCH   1   7
TORSDOF 3
ENDMDL
