MODEL 1
REMARK minimizedAffinity 4.28766918
REMARK minimizedRMSD -1
REMARK  3 active torsions:
REMARK  status: ('A' for Active; 'I' for Inactive)
REMARK    1  A    between atoms: C3'_2  and  C2'_3 
REMARK    2  A    between atoms: C2'_3  and  C1'_4 
REMARK    3  A    between atoms: C1'_4  and  C1_5 
ROOT
ATOM      1  C1  N4B d   1       4.116   3.647   4.297  0.00  0.00    -0.075 A 
ATOM      2  C2  N4B d   1       4.845   3.645   5.507  0.00  0.00     0.002 A 
ATOM      3  C3  N4B d   1       5.361   4.819   5.999  0.00  0.00     0.002 A 
ATOM      4  C4  N4B d   1       5.178   5.999   5.293  0.00  0.00    -0.004 A 
ATOM      5  C5  N4B d   1       4.450   5.996   4.139  0.00  0.00     0.002 A 
ATOM      6  C6  N4B d   1       3.923   4.824   3.634  0.00  0.00     0.002 A 
ENDROOT
BRANCH   1   7
ATOM      7  C1' N4B d   1       3.607   2.376   3.676  0.00  0.00     0.057 C 
BRANCH   7   8
ATOM      8  C2' N4B d   1       3.254   1.384   4.780  0.00  0.00     0.009 C 
BRANCH   8   9
ATOM      9  C3' N4B d   1       1.774   1.043   4.788  0.00  0.00     0.004 C 
ATOM     10  C4' N4B d   1       1.369   0.189   3.623  0.00  0.00     0.003 C 
ENDBRANCH   8   9
ENDBRANCH   7   8
ENDBRANCH   1   7
TORSDOF 3
ENDMDL
