MODEL 1
REMARK minimizedAffinity -5.36950207
REMARK minimizedRMSD -1
REMARK  3 active torsions:
REMARK  status: ('A' for Active; 'I' for Inactive)
REMARK    1  A    between atoms: C3'_2  and  C2'_3 
REMARK    2  A    between atoms: C2'_3  and  C1'_4 
REMARK    3  A    between atoms: C1'_4  and  C1_5 
ROOT
ATOM      1  C1  N4B d   1       1.933   3.560   4.981  0.00  0.00    -0.075 A 
ATOM      2  C2  N4B d   1       1.029   3.934   5.999  0.00  0.00     0.002 A 
ATOM      3  C3  N4B d   1       0.050   4.862   5.741  0.00  0.00     0.002 A 
ATOM      4  C4  N4B d   1      -0.033   5.440   4.483  0.00  0.00    -0.004 A 
ATOM      5  C5  N4B d   1       0.828   5.054   3.498  0.00  0.00     0.002 A 
ATOM      6  C6  N4B d   1       1.815   4.120   3.742  0.00  0.00     0.002 A 
ENDROOT
BRANCH   1   7
ATOM      7  C1' N4B d   1       3.074   2.614   5.240  0.00  0.00     0.057 C 
BRANCH   7   8
ATOM      8  C2' N4B d   1       4.325   3.135   4.540  0.00  0.00     0.009 C 
BRANCH   8   9
ATOM      9  C3' N4B d   1       5.213   3.930   5.482  0.00  0.00     0.004 C 
ATOM     10  C4' N4B d   1       5.202   5.401   5.188  0.00  0.00     0.003 C 
ENDBRANCH   8   9
ENDBRANCH   7   8
ENDBRANCH   1   7
TORSDOF 3
ENDMDL
