MODEL 1
REMARK minimizedAffinity -1.85784709
REMARK minimizedRMSD -1
REMARK  3 active torsions:
REMARK  status: ('A' for Active; 'I' for Inactive)
REMARK    1  A    between atoms: C3'_2  and  C2'_3 
REMARK    2  A    between atoms: C2'_3  and  C1'_4 
REMARK    3  A    between atoms: C1'_4  and  C1_5 
ROOT
ATOM      1  C1  N4B d   1       2.650   4.745   5.767  0.00  0.00    -0.075 A 
ATOM      2  C2  N4B d   1       2.152   3.437   5.950  0.00  0.00     0.002 A 
ATOM      3  C3  N4B d   1       2.943   2.354   5.653  0.00  0.00     0.002 A 
ATOM      4  C4  N4B d   1       4.222   2.554   5.156  0.00  0.00    -0.004 A 
ATOM      5  C5  N4B d   1       4.704   3.821   5.007  0.00  0.00     0.002 A 
ATOM      6  C6  N4B d   1       3.922   4.919   5.305  0.00  0.00     0.002 A 
ENDROOT
BRANCH   1   7
ATOM      7  C1' N4B d   1       1.793   5.960   5.997  0.00  0.00     0.057 C 
BRANCH   7   8
ATOM      8  C2' N4B d   1       0.325   5.574   5.842  0.00  0.00     0.009 C 
BRANCH   8   9
ATOM      9  C3' N4B d   1      -0.230   5.982   4.489  0.00  0.00     0.004 C 
ATOM     10  C4' N4B d   1       0.815   6.000   3.413  0.00  0.00     0.003 C 
ENDBRANCH   8   9
ENDBRANCH   7   8
ENDBRANCH   1   7
TORSDOF 3
ENDMDL
