MODEL 1
REMARK minimizedAffinity 11.1120834
REMARK minimizedRMSD -1
REMARK  0 active torsions:
REMARK  status: ('A' for Active; 'I' for Inactive)
ROOT
ATOM      1  C2' OXE d   1       5.999   2.021   1.958  0.00  0.00     0.078 C 
ATOM      2  C1' OXE d   1       6.000  -0.750   1.510  0.00  0.00     0.078 C 
ATOM      3  C1  OXE d   1       4.738   0.013   1.194  0.00  0.00    -0.078 A 
ATOM      4  C2  OXE d   1       4.731   1.361   1.461  0.00  0.00    -0.078 A 
ATOM      5  C3  OXE d   1       3.611   2.122   1.137  0.00  0.00     0.003 A 
ATOM      6  C4  OXE d   1       2.439   1.502   0.687  0.00  0.00    -0.002 A 
ATOM      7  C5  OXE d   1       2.412   0.124   0.446  0.00  0.00    -0.002 A 
ATOM      8  C6  OXE d   1       3.564  -0.627   0.654  0.00  0.00     0.003 A 
ENDROOT
TORSDOF 0
ENDMDL
