MODEL 1
REMARK minimizedAffinity 11.714159
REMARK minimizedRMSD -1
REMARK  0 active torsions:
REMARK  status: ('A' for Active; 'I' for Inactive)
ROOT
ATOM      1  C2' OXE d   1       3.440  -0.786   0.366  0.00  0.00     0.078 C 
ATOM      2  C1' OXE d   1       5.999  -0.736   1.517  0.00  0.00     0.078 C 
ATOM      3  C1  OXE d   1       5.357   0.584   1.172  0.00  0.00    -0.078 A 
ATOM      4  C2  OXE d   1       4.124   0.549   0.567  0.00  0.00    -0.078 A 
ATOM      5  C3  OXE d   1       3.463   1.739   0.278  0.00  0.00     0.003 A 
ATOM      6  C4  OXE d   1       4.108   2.969   0.458  0.00  0.00    -0.002 A 
ATOM      7  C5  OXE d   1       5.380   3.026   1.036  0.00  0.00    -0.002 A 
ATOM      8  C6  OXE d   1       6.000   1.848   1.438  0.00  0.00     0.003 A 
ENDROOT
TORSDOF 0
ENDMDL
