MODEL 1
REMARK minimizedAffinity 5.14431429
REMARK minimizedRMSD -1
REMARK  0 active torsions:
REMARK  status: ('A' for Active; 'I' for Inactive)
ROOT
ATOM      1  C2' OXE d   1       0.768   2.895   0.981  0.00  0.00     0.078 C 
ATOM      2  C1' OXE d   1       0.834   0.741   2.781  0.00  0.00     0.078 C 
ATOM      3  C1  OXE d   1       1.812   0.729   1.632  0.00  0.00    -0.078 A 
ATOM      4  C2  OXE d   1       1.741   1.763   0.730  0.00  0.00    -0.078 A 
ATOM      5  C3  OXE d   1       2.656   1.828  -0.317  0.00  0.00     0.003 A 
ATOM      6  C4  OXE d   1       3.546   0.772  -0.547  0.00  0.00    -0.002 A 
ATOM      7  C5  OXE d   1       3.608  -0.310   0.337  0.00  0.00    -0.002 A 
ATOM      8  C6  OXE d   1       2.779  -0.326   1.453  0.00  0.00     0.003 A 
ENDROOT
TORSDOF 0
ENDMDL
