MODEL 1
REMARK minimizedAffinity 8.11905956
REMARK minimizedRMSD -1
REMARK  0 active torsions:
REMARK  status: ('A' for Active; 'I' for Inactive)
ROOT
ATOM      1  C2' OXE d   1      -0.794  -3.687  -3.317  0.00  0.00     0.078 C 
ATOM      2  C1' OXE d   1      -2.058  -1.796  -1.672  0.00  0.00     0.078 C 
ATOM      3  C1  OXE d   1      -2.904  -2.903  -2.249  0.00  0.00    -0.078 A 
ATOM      4  C2  OXE d   1      -2.286  -3.798  -3.090  0.00  0.00    -0.078 A 
ATOM      5  C3  OXE d   1      -3.008  -4.870  -3.606  0.00  0.00     0.003 A 
ATOM      6  C4  OXE d   1      -4.390  -4.959  -3.400  0.00  0.00    -0.002 A 
ATOM      7  C5  OXE d   1      -5.046  -4.036  -2.578  0.00  0.00    -0.002 A 
ATOM      8  C6  OXE d   1      -4.312  -3.029  -1.962  0.00  0.00     0.003 A 
ENDROOT
TORSDOF 0
ENDMDL
