MODEL 1
REMARK minimizedAffinity 5.12364578
REMARK minimizedRMSD -1
REMARK  0 active torsions:
REMARK  status: ('A' for Active; 'I' for Inactive)
ROOT
ATOM      1  C2' OXE d   1       1.439   0.761   3.258  0.00  0.00     0.078 C 
ATOM      2  C1' OXE d   1       3.785  -0.779   3.305  0.00  0.00     0.078 C 
ATOM      3  C1  OXE d   1       3.288  -0.296   1.966  0.00  0.00    -0.078 A 
ATOM      4  C2  OXE d   1       2.114   0.417   1.947  0.00  0.00    -0.078 A 
ATOM      5  C3  OXE d   1       1.639   0.933   0.745  0.00  0.00     0.003 A 
ATOM      6  C4  OXE d   1       2.263   0.602  -0.464  0.00  0.00    -0.002 A 
ATOM      7  C5  OXE d   1       3.439  -0.157  -0.471  0.00  0.00    -0.002 A 
ATOM      8  C6  OXE d   1       3.986  -0.577   0.736  0.00  0.00     0.003 A 
ENDROOT
TORSDOF 0
ENDMDL
