MODEL 1
REMARK minimizedAffinity 7.84310293
REMARK minimizedRMSD -1
REMARK  0 active torsions:
REMARK  status: ('A' for Active; 'I' for Inactive)
ROOT
ATOM      1  C2' OXE d   1      -0.770  -4.562  -3.162  0.00  0.00     0.078 C 
ATOM      2  C1' OXE d   1      -2.859  -2.688  -3.101  0.00  0.00     0.078 C 
ATOM      3  C1  OXE d   1      -2.017  -2.843  -1.860  0.00  0.00    -0.078 A 
ATOM      4  C2  OXE d   1      -1.027  -3.795  -1.883  0.00  0.00    -0.078 A 
ATOM      5  C3  OXE d   1      -0.186  -3.941  -0.783  0.00  0.00     0.003 A 
ATOM      6  C4  OXE d   1      -0.436  -3.235   0.400  0.00  0.00    -0.002 A 
ATOM      7  C5  OXE d   1      -1.465  -2.289   0.457  0.00  0.00    -0.002 A 
ATOM      8  C6  OXE d   1      -2.236  -2.051  -0.675  0.00  0.00     0.003 A 
ENDROOT
TORSDOF 0
ENDMDL
