MODEL 1
REMARK minimizedAffinity 21.0532246
REMARK minimizedRMSD -1
REMARK  0 active torsions:
REMARK  status: ('A' for Active; 'I' for Inactive)
ROOT
ATOM      1  C2' OXE d   1       5.729  -1.482   0.483  0.00  0.00     0.078 C 
ATOM      2  C1' OXE d   1       4.090  -0.808  -1.694  0.00  0.00     0.078 C 
ATOM      3  C1  OXE d   1       3.640  -0.387  -0.317  0.00  0.00    -0.078 A 
ATOM      4  C2  OXE d   1       4.425  -0.761   0.746  0.00  0.00    -0.078 A 
ATOM      5  C3  OXE d   1       4.084  -0.352   2.032  0.00  0.00     0.003 A 
ATOM      6  C4  OXE d   1       2.871   0.306   2.269  0.00  0.00    -0.002 A 
ATOM      7  C5  OXE d   1       2.037   0.662   1.203  0.00  0.00    -0.002 A 
ATOM      8  C6  OXE d   1       2.427   0.361  -0.097  0.00  0.00     0.003 A 
ENDROOT
TORSDOF 0
ENDMDL
