MODEL 1
REMARK minimizedAffinity -0.182930425
REMARK minimizedRMSD -1
REMARK  0 active torsions:
REMARK  status: ('A' for Active; 'I' for Inactive)
ROOT
ATOM      1  C2' OXE d   1       3.915  -0.893   0.662  0.00  0.00     0.078 C 
ATOM      2  C1' OXE d   1       2.566   1.476  -0.009  0.00  0.00     0.078 C 
ATOM      3  C1  OXE d   1       2.287   0.866   1.342  0.00  0.00    -0.078 A 
ATOM      4  C2  OXE d   1       2.916  -0.318   1.643  0.00  0.00    -0.078 A 
ATOM      5  C3  OXE d   1       2.735  -0.895   2.897  0.00  0.00     0.003 A 
ATOM      6  C4  OXE d   1       1.802  -0.363   3.794  0.00  0.00    -0.002 A 
ATOM      7  C5  OXE d   1       1.121   0.821   3.491  0.00  0.00    -0.002 A 
ATOM      8  C6  OXE d   1       1.383   1.469   2.289  0.00  0.00     0.003 A 
ENDROOT
TORSDOF 0
ENDMDL
