MODEL 1
REMARK minimizedAffinity 10.4692631
REMARK minimizedRMSD -1
REMARK  0 active torsions:
REMARK  status: ('A' for Active; 'I' for Inactive)
ROOT
ATOM      1  C2' OXE d   1      -4.404   0.367   3.082  0.00  0.00     0.078 C 
ATOM      2  C1' OXE d   1      -5.996  -0.008   5.364  0.00  0.00     0.078 C 
ATOM      3  C1  OXE d   1      -5.427   1.368   5.121  0.00  0.00    -0.078 A 
ATOM      4  C2  OXE d   1      -4.611   1.530   4.028  0.00  0.00    -0.078 A 
ATOM      5  C3  OXE d   1      -4.104   2.791   3.727  0.00  0.00     0.003 A 
ATOM      6  C4  OXE d   1      -4.292   3.860   4.612  0.00  0.00    -0.002 A 
ATOM      7  C5  OXE d   1      -5.088   3.706   5.753  0.00  0.00    -0.002 A 
ATOM      8  C6  OXE d   1      -5.696   2.480   5.999  0.00  0.00     0.003 A 
ENDROOT
TORSDOF 0
ENDMDL
