MODEL 1
REMARK minimizedAffinity 7.66360092
REMARK minimizedRMSD -1
REMARK  0 active torsions:
REMARK  status: ('A' for Active; 'I' for Inactive)
ROOT
ATOM      1  C2' OXE d   1       6.000  -1.123   0.741  0.00  0.00     0.078 C 
ATOM      2  C1' OXE d   1       4.555  -1.131   3.148  0.00  0.00     0.078 C 
ATOM      3  C1  OXE d   1       3.898  -0.521   1.935  0.00  0.00    -0.078 A 
ATOM      4  C2  OXE d   1       4.631  -0.479   0.773  0.00  0.00    -0.078 A 
ATOM      5  C3  OXE d   1       4.052   0.023  -0.389  0.00  0.00     0.003 A 
ATOM      6  C4  OXE d   1       2.789   0.626  -0.349  0.00  0.00    -0.002 A 
ATOM      7  C5  OXE d   1       2.042   0.630   0.833  0.00  0.00    -0.002 A 
ATOM      8  C6  OXE d   1       2.563   0.024   1.971  0.00  0.00     0.003 A 
ENDROOT
TORSDOF 0
ENDMDL
