MODEL 1
REMARK minimizedAffinity 0.700934291
REMARK minimizedRMSD -1
REMARK  0 active torsions:
REMARK  status: ('A' for Active; 'I' for Inactive)
ROOT
ATOM      1  C2' OXE d   1       3.604  -0.589   0.620  0.00  0.00     0.078 C 
ATOM      2  C1' OXE d   1       2.320   1.854   0.106  0.00  0.00     0.078 C 
ATOM      3  C1  OXE d   1       2.015   1.159   1.409  0.00  0.00    -0.078 A 
ATOM      4  C2  OXE d   1       2.611  -0.058   1.632  0.00  0.00    -0.078 A 
ATOM      5  C3  OXE d   1       2.407  -0.716   2.842  0.00  0.00     0.003 A 
ATOM      6  C4  OXE d   1       1.480  -0.223   3.768  0.00  0.00    -0.002 A 
ATOM      7  C5  OXE d   1       0.831   0.996   3.543  0.00  0.00    -0.002 A 
ATOM      8  C6  OXE d   1       1.119   1.719   2.391  0.00  0.00     0.003 A 
ENDROOT
TORSDOF 0
ENDMDL
