MODEL 1
REMARK minimizedAffinity 20.4701042
REMARK minimizedRMSD -1
REMARK  0 active torsions:
REMARK  status: ('A' for Active; 'I' for Inactive)
ROOT
ATOM      1  C2' OXE d   1      -1.894  -1.639  -1.787  0.00  0.00     0.078 C 
ATOM      2  C1' OXE d   1      -3.708  -1.807   0.348  0.00  0.00     0.078 C 
ATOM      3  C1  OXE d   1      -2.377  -2.499   0.500  0.00  0.00    -0.078 A 
ATOM      4  C2  OXE d   1      -1.514  -2.451  -0.568  0.00  0.00    -0.078 A 
ATOM      5  C3  OXE d   1      -0.251  -3.026  -0.460  0.00  0.00     0.003 A 
ATOM      6  C4  OXE d   1       0.089  -3.784   0.667  0.00  0.00    -0.002 A 
ATOM      7  C5  OXE d   1      -0.791  -3.879   1.751  0.00  0.00    -0.002 A 
ATOM      8  C6  OXE d   1      -2.008  -3.208   1.701  0.00  0.00     0.003 A 
ENDROOT
TORSDOF 0
ENDMDL
