MODEL 1
REMARK minimizedAffinity 11.4855213
REMARK minimizedRMSD -1
REMARK  0 active torsions:
REMARK  status: ('A' for Active; 'I' for Inactive)
ROOT
ATOM      1  C2' OXE d   1      -0.758  -2.399   0.426  0.00  0.00     0.078 C 
ATOM      2  C1' OXE d   1      -3.548  -2.341   0.732  0.00  0.00     0.078 C 
ATOM      3  C1  OXE d   1      -2.835  -3.638   1.023  0.00  0.00    -0.078 A 
ATOM      4  C2  OXE d   1      -1.476  -3.670   0.825  0.00  0.00    -0.078 A 
ATOM      5  C3  OXE d   1      -0.762  -4.826   1.131  0.00  0.00     0.003 A 
ATOM      6  C4  OXE d   1      -1.435  -6.000   1.491  0.00  0.00    -0.002 A 
ATOM      7  C5  OXE d   1      -2.824  -5.999   1.659  0.00  0.00    -0.002 A 
ATOM      8  C6  OXE d   1      -3.533  -4.818   1.471  0.00  0.00     0.003 A 
ENDROOT
TORSDOF 0
ENDMDL
