MODEL 1
REMARK minimizedAffinity 2.20298529
REMARK minimizedRMSD -1
REMARK  0 active torsions:
REMARK  status: ('A' for Active; 'I' for Inactive)
ROOT
ATOM      1  C2' OXE d   1       0.965   1.733   2.128  0.00  0.00     0.078 C 
ATOM      2  C1' OXE d   1       2.515   0.333   4.004  0.00  0.00     0.078 C 
ATOM      3  C1  OXE d   1       2.907   0.231   2.551  0.00  0.00    -0.078 A 
ATOM      4  C2  OXE d   1       2.115   0.881   1.635  0.00  0.00    -0.078 A 
ATOM      5  C3  OXE d   1       2.464   0.865   0.288  0.00  0.00     0.003 A 
ATOM      6  C4  OXE d   1       3.523   0.066  -0.161  0.00  0.00    -0.002 A 
ATOM      7  C5  OXE d   1       4.318  -0.636   0.751  0.00  0.00    -0.002 A 
ATOM      8  C6  OXE d   1       4.050  -0.530   2.111  0.00  0.00     0.003 A 
ENDROOT
TORSDOF 0
ENDMDL
