MODEL 1
REMARK minimizedAffinity 5.85594034
REMARK minimizedRMSD -1
REMARK  0 active torsions:
REMARK  status: ('A' for Active; 'I' for Inactive)
ROOT
ATOM      1  C2' OXE d   1      -1.178  -2.207   0.002  0.00  0.00     0.078 C 
ATOM      2  C1' OXE d   1      -3.157  -3.194  -1.727  0.00  0.00     0.078 C 
ATOM      3  C1  OXE d   1      -2.817  -4.013  -0.507  0.00  0.00    -0.078 A 
ATOM      4  C2  OXE d   1      -1.814  -3.546   0.309  0.00  0.00    -0.078 A 
ATOM      5  C3  OXE d   1      -1.498  -4.235   1.476  0.00  0.00     0.003 A 
ATOM      6  C4  OXE d   1      -2.084  -5.477   1.747  0.00  0.00    -0.002 A 
ATOM      7  C5  OXE d   1      -3.079  -5.991   0.908  0.00  0.00    -0.002 A 
ATOM      8  C6  OXE d   1      -3.486  -5.252  -0.198  0.00  0.00     0.003 A 
ENDROOT
TORSDOF 0
ENDMDL
