MODEL 1
REMARK minimizedAffinity 3.38329363
REMARK minimizedRMSD -1
REMARK  0 active torsions:
REMARK  status: ('A' for Active; 'I' for Inactive)
ROOT
ATOM      1  C2' OXE d   1      -3.833   2.972   3.160  0.00  0.00     0.078 C 
ATOM      2  C1' OXE d   1      -4.536   3.468   5.833  0.00  0.00     0.078 C 
ATOM      3  C1  OXE d   1      -4.925   2.138   5.238  0.00  0.00    -0.078 A 
ATOM      4  C2  OXE d   1      -4.618   1.922   3.916  0.00  0.00    -0.078 A 
ATOM      5  C3  OXE d   1      -4.906   0.691   3.333  0.00  0.00     0.003 A 
ATOM      6  C4  OXE d   1      -5.642  -0.271   4.036  0.00  0.00    -0.002 A 
ATOM      7  C5  OXE d   1      -5.999  -0.056   5.372  0.00  0.00    -0.002 A 
ATOM      8  C6  OXE d   1      -5.612   1.123   5.999  0.00  0.00     0.003 A 
ENDROOT
TORSDOF 0
ENDMDL
