MODEL 1
REMARK minimizedAffinity 5.26557302
REMARK minimizedRMSD -1
REMARK  0 active torsions:
REMARK  status: ('A' for Active; 'I' for Inactive)
ROOT
ATOM      1  C2' OXE d   1      -1.428  -4.273  -4.466  0.00  0.00     0.078 C 
ATOM      2  C1' OXE d   1      -3.782  -3.542  -3.123  0.00  0.00     0.078 C 
ATOM      3  C1  OXE d   1      -2.484  -3.468  -2.359  0.00  0.00    -0.078 A 
ATOM      4  C2  OXE d   1      -1.343  -3.872  -3.009  0.00  0.00    -0.078 A 
ATOM      5  C3  OXE d   1      -0.112  -3.772  -2.368  0.00  0.00     0.003 A 
ATOM      6  C4  OXE d   1      -0.043  -3.410  -1.018  0.00  0.00    -0.002 A 
ATOM      7  C5  OXE d   1      -1.198  -3.032  -0.324  0.00  0.00    -0.002 A 
ATOM      8  C6  OXE d   1      -2.418  -3.014  -0.991  0.00  0.00     0.003 A 
ENDROOT
TORSDOF 0
ENDMDL
