MODEL 1
REMARK minimizedAffinity 9.39731407
REMARK minimizedRMSD -1
REMARK  0 active torsions:
REMARK  status: ('A' for Active; 'I' for Inactive)
ROOT
ATOM      1  C2' OXE d   1      -4.179   1.987   3.747  0.00  0.00     0.078 C 
ATOM      2  C1' OXE d   1      -3.831   3.626   6.000  0.00  0.00     0.078 C 
ATOM      3  C1  OXE d   1      -4.612   4.185   4.837  0.00  0.00    -0.078 A 
ATOM      4  C2  OXE d   1      -4.738   3.393   3.720  0.00  0.00    -0.078 A 
ATOM      5  C3  OXE d   1      -5.495   3.839   2.641  0.00  0.00     0.003 A 
ATOM      6  C4  OXE d   1      -6.000   5.145   2.620  0.00  0.00    -0.002 A 
ATOM      7  C5  OXE d   1      -5.849   5.982   3.731  0.00  0.00    -0.002 A 
ATOM      8  C6  OXE d   1      -5.196   5.503   4.861  0.00  0.00     0.003 A 
ENDROOT
TORSDOF 0
ENDMDL
