MODEL 1
REMARK minimizedAffinity 11.5858812
REMARK minimizedRMSD -1
REMARK  0 active torsions:
REMARK  status: ('A' for Active; 'I' for Inactive)
ROOT
ATOM      1  C2' OXE d   1      -4.207   2.673   2.740  0.00  0.00     0.078 C 
ATOM      2  C1' OXE d   1      -5.896   4.561   1.530  0.00  0.00     0.078 C 
ATOM      3  C1  OXE d   1      -5.533   4.768   2.979  0.00  0.00    -0.078 A 
ATOM      4  C2  OXE d   1      -4.744   3.814   3.576  0.00  0.00    -0.078 A 
ATOM      5  C3  OXE d   1      -4.334   3.986   4.895  0.00  0.00     0.003 A 
ATOM      6  C4  OXE d   1      -4.843   5.039   5.665  0.00  0.00    -0.002 A 
ATOM      7  C5  OXE d   1      -5.680   6.000   5.087  0.00  0.00    -0.002 A 
ATOM      8  C6  OXE d   1      -6.000   5.903   3.738  0.00  0.00     0.003 A 
ENDROOT
TORSDOF 0
ENDMDL
