MODEL 1
REMARK minimizedAffinity -0.806043327
REMARK minimizedRMSD -1
REMARK  0 active torsions:
REMARK  status: ('A' for Active; 'I' for Inactive)
ROOT
ATOM      1  C   UNL d   1      -1.167   0.077   0.764  0.00  0.00     0.078 C 
ATOM      2  C1  UNL d   1      -1.177   0.976   1.964  0.00  0.00    -0.077 A 
ATOM      3  C2  UNL d   1      -2.380   1.353   2.573  0.00  0.00    -0.001 A 
ATOM      4  C3  UNL d   1      -2.375   2.198   3.683  0.00  0.00     0.003 A 
ATOM      5  C4  UNL d   1      -1.169   2.675   4.194  0.00  0.00    -0.005 A 
ATOM      6  C5  UNL d   1       0.033   2.307   3.594  0.00  0.00     0.003 A 
ATOM      7  C6  UNL d   1       0.030   1.462   2.483  0.00  0.00    -0.001 A 
ENDROOT
TORSDOF 0
ENDMDL
