MODEL 1
REMARK minimizedAffinity 7.88002062
REMARK minimizedRMSD -1
REMARK  0 active torsions:
REMARK  status: ('A' for Active; 'I' for Inactive)
ROOT
ATOM      1  C   UNL d   1      -2.732   1.501   1.198  0.00  0.00     0.078 C 
ATOM      2  C1  UNL d   1      -1.382   0.943   1.538  0.00  0.00    -0.077 A 
ATOM      3  C2  UNL d   1      -1.202  -0.430   1.746  0.00  0.00    -0.001 A 
ATOM      4  C3  UNL d   1       0.058  -0.935   2.071  0.00  0.00     0.003 A 
ATOM      5  C4  UNL d   1       1.148  -0.075   2.191  0.00  0.00    -0.005 A 
ATOM      6  C5  UNL d   1       0.977   1.293   1.987  0.00  0.00     0.003 A 
ATOM      7  C6  UNL d   1      -0.282   1.800   1.663  0.00  0.00    -0.001 A 
ENDROOT
TORSDOF 0
ENDMDL
