MODEL 1
REMARK minimizedAffinity 0.812962294
REMARK minimizedRMSD -1
REMARK  0 active torsions:
REMARK  status: ('A' for Active; 'I' for Inactive)
ROOT
ATOM      1  C   UNL d   1      -4.137   1.500   2.206  0.00  0.00     0.078 C 
ATOM      2  C1  UNL d   1      -4.617   0.968   3.523  0.00  0.00    -0.077 A 
ATOM      3  C2  UNL d   1      -5.555  -0.070   3.584  0.00  0.00    -0.001 A 
ATOM      4  C3  UNL d   1      -6.000  -0.548   4.817  0.00  0.00     0.003 A 
ATOM      5  C4  UNL d   1      -5.513   0.007   5.999  0.00  0.00    -0.005 A 
ATOM      6  C5  UNL d   1      -4.581   1.041   5.949  0.00  0.00     0.003 A 
ATOM      7  C6  UNL d   1      -4.135   1.521   4.717  0.00  0.00    -0.001 A 
ENDROOT
TORSDOF 0
ENDMDL
