MODEL 1
REMARK minimizedAffinity 0.921015382
REMARK minimizedRMSD -1
REMARK  0 active torsions:
REMARK  status: ('A' for Active; 'I' for Inactive)
ROOT
ATOM      1  C   UNL d   1       1.282  -0.576   1.498  0.00  0.00     0.078 C 
ATOM      2  C1  UNL d   1       0.390   0.498   2.045  0.00  0.00    -0.077 A 
ATOM      3  C2  UNL d   1      -0.973   0.534   1.727  0.00  0.00    -0.001 A 
ATOM      4  C3  UNL d   1      -1.791   1.545   2.236  0.00  0.00     0.003 A 
ATOM      5  C4  UNL d   1      -1.254   2.528   3.065  0.00  0.00    -0.005 A 
ATOM      6  C5  UNL d   1       0.102   2.501   3.385  0.00  0.00     0.003 A 
ATOM      7  C6  UNL d   1       0.921   1.491   2.878  0.00  0.00    -0.001 A 
ENDROOT
TORSDOF 0
ENDMDL
