MODEL 1
REMARK minimizedAffinity 0.539862871
REMARK minimizedRMSD -1
REMARK  0 active torsions:
REMARK  status: ('A' for Active; 'I' for Inactive)
ROOT
ATOM      1  C   UNL d   1       0.398   1.924   3.597  0.00  0.00     0.078 C 
ATOM      2  C1  UNL d   1      -0.650   1.488   2.616  0.00  0.00    -0.077 A 
ATOM      3  C2  UNL d   1      -0.323   0.668   1.529  0.00  0.00    -0.001 A 
ATOM      4  C3  UNL d   1      -1.306   0.279   0.618  0.00  0.00     0.003 A 
ATOM      5  C4  UNL d   1      -2.623   0.705   0.785  0.00  0.00    -0.005 A 
ATOM      6  C5  UNL d   1      -2.957   1.522   1.862  0.00  0.00     0.003 A 
ATOM      7  C6  UNL d   1      -1.975   1.913   2.774  0.00  0.00    -0.001 A 
ENDROOT
TORSDOF 0
ENDMDL
