MODEL 1
REMARK minimizedAffinity 0.657862008
REMARK minimizedRMSD -1
REMARK  0 active torsions:
REMARK  status: ('A' for Active; 'I' for Inactive)
ROOT
ATOM      1  C   UNL d   1      -1.706   4.722   5.689  0.00  0.00     0.078 C 
ATOM      2  C1  UNL d   1      -3.201   4.743   5.803  0.00  0.00    -0.077 A 
ATOM      3  C2  UNL d   1      -3.941   3.555   5.806  0.00  0.00    -0.001 A 
ATOM      4  C3  UNL d   1      -5.333   3.590   5.904  0.00  0.00     0.003 A 
ATOM      5  C4  UNL d   1      -5.997   4.812   5.997  0.00  0.00    -0.005 A 
ATOM      6  C5  UNL d   1      -5.269   6.000   5.993  0.00  0.00     0.003 A 
ATOM      7  C6  UNL d   1      -3.877   5.966   5.896  0.00  0.00    -0.001 A 
ENDROOT
TORSDOF 0
ENDMDL
