MODEL 1
REMARK minimizedAffinity 2.45609283
REMARK minimizedRMSD -1
REMARK  0 active torsions:
REMARK  status: ('A' for Active; 'I' for Inactive)
ROOT
ATOM      1  C   UNL d   1      -1.735   3.389   5.956  0.00  0.00     0.078 C 
ATOM      2  C1  UNL d   1      -3.212   3.651   5.978  0.00  0.00    -0.077 A 
ATOM      3  C2  UNL d   1      -4.132   2.595   5.989  0.00  0.00    -0.001 A 
ATOM      4  C3  UNL d   1      -5.503   2.854   5.999  0.00  0.00     0.003 A 
ATOM      5  C4  UNL d   1      -5.967   4.168   5.998  0.00  0.00    -0.005 A 
ATOM      6  C5  UNL d   1      -5.059   5.225   5.985  0.00  0.00     0.003 A 
ATOM      7  C6  UNL d   1      -3.687   4.968   5.974  0.00  0.00    -0.001 A 
ENDROOT
TORSDOF 0
ENDMDL
