MODEL 1
REMARK minimizedAffinity -1.777753
REMARK minimizedRMSD -1
REMARK  0 active torsions:
REMARK  status: ('A' for Active; 'I' for Inactive)
ROOT
ATOM      1  C   UNL d   1      -2.948  -1.452   5.999  0.00  0.00     0.078 C 
ATOM      2  C1  UNL d   1      -3.300  -2.400   4.892  0.00  0.00    -0.077 A 
ATOM      3  C2  UNL d   1      -3.252  -1.995   3.552  0.00  0.00    -0.001 A 
ATOM      4  C3  UNL d   1      -3.591  -2.885   2.532  0.00  0.00     0.003 A 
ATOM      5  C4  UNL d   1      -3.981  -4.187   2.841  0.00  0.00    -0.005 A 
ATOM      6  C5  UNL d   1      -4.034  -4.599   4.171  0.00  0.00     0.003 A 
ATOM      7  C6  UNL d   1      -3.696  -3.710   5.192  0.00  0.00    -0.001 A 
ENDROOT
TORSDOF 0
ENDMDL
