MODEL 1
REMARK minimizedAffinity -0.607333302
REMARK minimizedRMSD -1
REMARK  0 active torsions:
REMARK  status: ('A' for Active; 'I' for Inactive)
ROOT
ATOM      1  C   UNL d   1      -5.341   1.787   6.000  0.00  0.00     0.078 C 
ATOM      2  C1  UNL d   1      -4.872   3.212   5.992  0.00  0.00    -0.077 A 
ATOM      3  C2  UNL d   1      -3.506   3.521   5.994  0.00  0.00    -0.001 A 
ATOM      4  C3  UNL d   1      -3.084   4.851   5.996  0.00  0.00     0.003 A 
ATOM      5  C4  UNL d   1      -4.021   5.883   5.998  0.00  0.00    -0.005 A 
ATOM      6  C5  UNL d   1      -5.382   5.585   5.998  0.00  0.00     0.003 A 
ATOM      7  C6  UNL d   1      -5.806   4.255   5.996  0.00  0.00    -0.001 A 
ENDROOT
TORSDOF 0
ENDMDL
