MODEL 1
REMARK minimizedAffinity 4.73873186
REMARK minimizedRMSD -1
REMARK  0 active torsions:
REMARK  status: ('A' for Active; 'I' for Inactive)
ROOT
ATOM      1  C   UNL d   1      -5.699   2.694   5.991  0.00  0.00     0.078 C 
ATOM      2  C1  UNL d   1      -4.375   3.398   6.000  0.00  0.00    -0.077 A 
ATOM      3  C2  UNL d   1      -4.302   4.796   5.994  0.00  0.00    -0.001 A 
ATOM      4  C3  UNL d   1      -3.063   5.439   5.993  0.00  0.00     0.003 A 
ATOM      5  C4  UNL d   1      -1.887   4.691   5.995  0.00  0.00    -0.005 A 
ATOM      6  C5  UNL d   1      -1.950   3.299   5.998  0.00  0.00     0.003 A 
ATOM      7  C6  UNL d   1      -3.188   2.655   6.000  0.00  0.00    -0.001 A 
ENDROOT
TORSDOF 0
ENDMDL
