MODEL 1
REMARK minimizedAffinity 3.14107466
REMARK minimizedRMSD -1
REMARK  0 active torsions:
REMARK  status: ('A' for Active; 'I' for Inactive)
ROOT
ATOM      1  C   UNL d   1       0.229   3.845   4.199  0.00  0.00     0.078 C 
ATOM      2  C1  UNL d   1      -1.094   4.186   4.817  0.00  0.00    -0.077 A 
ATOM      3  C2  UNL d   1      -1.561   5.506   4.840  0.00  0.00    -0.001 A 
ATOM      4  C3  UNL d   1      -2.790   5.809   5.428  0.00  0.00     0.003 A 
ATOM      5  C4  UNL d   1      -3.562   4.799   5.997  0.00  0.00    -0.005 A 
ATOM      6  C5  UNL d   1      -3.105   3.483   5.981  0.00  0.00     0.003 A 
ATOM      7  C6  UNL d   1      -1.876   3.177   5.394  0.00  0.00    -0.001 A 
ENDROOT
TORSDOF 0
ENDMDL
