MODEL 1
REMARK minimizedAffinity 4.2275281
REMARK minimizedRMSD -1
REMARK  0 active torsions:
REMARK  status: ('A' for Active; 'I' for Inactive)
ROOT
ATOM      1  C   UNL d   1      -5.559   5.714   5.772  0.00  0.00     0.078 C 
ATOM      2  C1  UNL d   1      -4.339   4.847   5.855  0.00  0.00    -0.077 A 
ATOM      3  C2  UNL d   1      -3.059   5.409   5.929  0.00  0.00    -0.001 A 
ATOM      4  C3  UNL d   1      -1.931   4.590   5.996  0.00  0.00     0.003 A 
ATOM      5  C4  UNL d   1      -2.071   3.204   5.987  0.00  0.00    -0.005 A 
ATOM      6  C5  UNL d   1      -3.341   2.635   5.911  0.00  0.00     0.003 A 
ATOM      7  C6  UNL d   1      -4.470   3.453   5.845  0.00  0.00    -0.001 A 
ENDROOT
TORSDOF 0
ENDMDL
