MODEL 1
REMARK minimizedAffinity -2.21734762
REMARK minimizedRMSD -1
REMARK  0 active torsions:
REMARK  status: ('A' for Active; 'I' for Inactive)
ROOT
ATOM      1  C   UNL d   1       1.878  -2.553   2.782  0.00  0.00     0.078 C 
ATOM      2  C1  UNL d   1       2.697  -1.405   2.274  0.00  0.00    -0.077 A 
ATOM      3  C2  UNL d   1       4.063  -1.308   2.568  0.00  0.00    -0.001 A 
ATOM      4  C3  UNL d   1       4.811  -0.228   2.096  0.00  0.00     0.003 A 
ATOM      5  C4  UNL d   1       4.203   0.763   1.328  0.00  0.00    -0.005 A 
ATOM      6  C5  UNL d   1       2.845   0.675   1.032  0.00  0.00     0.003 A 
ATOM      7  C6  UNL d   1       2.094  -0.403   1.503  0.00  0.00    -0.001 A 
ENDROOT
TORSDOF 0
ENDMDL
