MODEL 1
REMARK minimizedAffinity -2.62228513
REMARK minimizedRMSD -1
REMARK  0 active torsions:
REMARK  status: ('A' for Active; 'I' for Inactive)
ROOT
ATOM      1  C   UNL d   1      -5.233   1.580   5.969  0.00  0.00     0.078 C 
ATOM      2  C1  UNL d   1      -4.802   3.016   5.970  0.00  0.00    -0.077 A 
ATOM      3  C2  UNL d   1      -3.445   3.361   5.968  0.00  0.00    -0.001 A 
ATOM      4  C3  UNL d   1      -3.057   4.702   5.979  0.00  0.00     0.003 A 
ATOM      5  C4  UNL d   1      -4.020   5.709   5.994  0.00  0.00    -0.005 A 
ATOM      6  C5  UNL d   1      -5.373   5.375   5.999  0.00  0.00     0.003 A 
ATOM      7  C6  UNL d   1      -5.763   4.035   5.988  0.00  0.00    -0.001 A 
ENDROOT
TORSDOF 0
ENDMDL
