MODEL 1
REMARK minimizedAffinity 6.74817896
REMARK minimizedRMSD -1
REMARK  0 active torsions:
REMARK  status: ('A' for Active; 'I' for Inactive)
ROOT
ATOM      1  C   UNL d   1      -4.102   1.730   5.992  0.00  0.00     0.078 C 
ATOM      2  C1  UNL d   1      -3.847   3.208   5.988  0.00  0.00    -0.077 A 
ATOM      3  C2  UNL d   1      -4.908   4.123   5.993  0.00  0.00    -0.001 A 
ATOM      4  C3  UNL d   1      -4.656   5.496   5.979  0.00  0.00     0.003 A 
ATOM      5  C4  UNL d   1      -3.345   5.966   5.959  0.00  0.00    -0.005 A 
ATOM      6  C5  UNL d   1      -2.283   5.064   5.952  0.00  0.00     0.003 A 
ATOM      7  C6  UNL d   1      -2.533   3.691   5.966  0.00  0.00    -0.001 A 
ENDROOT
TORSDOF 0
ENDMDL
