MODEL 1
REMARK minimizedAffinity 10.6607389
REMARK minimizedRMSD -1
REMARK  0 active torsions:
REMARK  status: ('A' for Active; 'I' for Inactive)
ROOT
ATOM      1  C   UNL d   1       1.995   1.904   0.099  0.00  0.00     0.078 C 
ATOM      2  C1  UNL d   1       3.018   1.242   0.973  0.00  0.00    -0.077 A 
ATOM      3  C2  UNL d   1       4.386   1.465   0.778  0.00  0.00    -0.001 A 
ATOM      4  C3  UNL d   1       5.327   0.835   1.593  0.00  0.00     0.003 A 
ATOM      5  C4  UNL d   1       4.911  -0.024   2.608  0.00  0.00    -0.005 A 
ATOM      6  C5  UNL d   1       3.551  -0.254   2.809  0.00  0.00     0.003 A 
ATOM      7  C6  UNL d   1       2.608   0.376   1.995  0.00  0.00    -0.001 A 
ENDROOT
TORSDOF 0
ENDMDL
