MODEL 1
REMARK minimizedAffinity -0.458134145
REMARK minimizedRMSD -1
REMARK  0 active torsions:
REMARK  status: ('A' for Active; 'I' for Inactive)
ROOT
ATOM      1  C   UNL d   1       5.725  -0.156   2.765  0.00  0.00     0.078 C 
ATOM      2  C1  UNL d   1       4.400  -0.036   2.072  0.00  0.00    -0.077 A 
ATOM      3  C2  UNL d   1       4.271   0.693   0.883  0.00  0.00    -0.001 A 
ATOM      4  C3  UNL d   1       3.030   0.804   0.255  0.00  0.00     0.003 A 
ATOM      5  C4  UNL d   1       1.908   0.190   0.807  0.00  0.00    -0.005 A 
ATOM      6  C5  UNL d   1       2.027  -0.536   1.991  0.00  0.00     0.003 A 
ATOM      7  C6  UNL d   1       3.267  -0.648   2.621  0.00  0.00    -0.001 A 
ENDROOT
TORSDOF 0
ENDMDL
