MODEL 1
REMARK minimizedAffinity 7.78435421
REMARK minimizedRMSD -1
REMARK  0 active torsions:
REMARK  status: ('A' for Active; 'I' for Inactive)
ROOT
ATOM      1  C   UNL d   1       1.225  -1.369   2.548  0.00  0.00     0.078 C 
ATOM      2  C1  UNL d   1       2.313  -0.492   2.004  0.00  0.00    -0.077 A 
ATOM      3  C2  UNL d   1       2.036   0.493   1.049  0.00  0.00    -0.001 A 
ATOM      4  C3  UNL d   1       3.060   1.296   0.545  0.00  0.00     0.003 A 
ATOM      5  C4  UNL d   1       4.369   1.121   0.989  0.00  0.00    -0.005 A 
ATOM      6  C5  UNL d   1       4.655   0.142   1.938  0.00  0.00     0.003 A 
ATOM      7  C6  UNL d   1       3.632  -0.662   2.443  0.00  0.00    -0.001 A 
ENDROOT
TORSDOF 0
ENDMDL
