MODEL 1
REMARK minimizedAffinity -3.02748966
REMARK minimizedRMSD -1
REMARK  2 active torsions:
REMARK  status: ('A' for Active; 'I' for Inactive)
REMARK    1  A    between atoms: C2'_3  and  C1'_4 
REMARK    2  A    between atoms: C1'_4  and  C1_5 
ROOT
ATOM      1  C1  I4B d   1       0.161   1.336   0.462  0.00  0.00    -0.075 A 
ATOM      2  C2  I4B d   1      -0.402   2.115   1.442  0.00  0.00     0.003 A 
ATOM      3  C3  I4B d   1      -0.550   3.510   1.246  0.00  0.00     0.002 A 
ATOM      4  C4  I4B d   1      -0.079   4.087   0.084  0.00  0.00    -0.004 A 
ATOM      5  C5  I4B d   1       0.471   3.292  -0.917  0.00  0.00     0.002 A 
ATOM      6  C6  I4B d   1       0.581   1.906  -0.733  0.00  0.00     0.003 A 
ENDROOT
BRANCH   1   7
ATOM      7  C1' I4B d   1       0.332  -0.128   0.716  0.00  0.00     0.060 C 
BRANCH   7   8
ATOM      8  C2' I4B d   1      -0.597  -0.876  -0.219  0.00  0.00    -0.013 C 
ATOM      9  C4' I4B d   1       0.174  -1.773  -1.152  0.00  0.00     0.013 C 
ATOM     10  C3' I4B d   1      -1.560  -1.664   0.617  0.00  0.00     0.013 C 
ENDBRANCH   7   8
ENDBRANCH   1   7
TORSDOF 2
ENDMDL
