MODEL 1
REMARK minimizedAffinity -1.63178909
REMARK minimizedRMSD -1
REMARK  2 active torsions:
REMARK  status: ('A' for Active; 'I' for Inactive)
REMARK    1  A    between atoms: C2'_3  and  C1'_4 
REMARK    2  A    between atoms: C1'_4  and  C1_5 
ROOT
ATOM      1  C1  I4B d   1       0.315  -1.216  -0.310  0.00  0.00    -0.075 A 
ATOM      2  C2  I4B d   1      -1.037  -1.435  -0.213  0.00  0.00     0.003 A 
ATOM      3  C3  I4B d   1      -1.833  -0.620   0.628  0.00  0.00     0.002 A 
ATOM      4  C4  I4B d   1      -1.232   0.364   1.387  0.00  0.00    -0.004 A 
ATOM      5  C5  I4B d   1       0.134   0.599   1.270  0.00  0.00     0.002 A 
ATOM      6  C6  I4B d   1       0.911  -0.187   0.407  0.00  0.00     0.003 A 
ENDROOT
BRANCH   1   7
ATOM      7  C1' I4B d   1       1.130  -2.117  -1.182  0.00  0.00     0.060 C 
BRANCH   7   8
ATOM      8  C2' I4B d   1       0.198  -2.764  -2.186  0.00  0.00    -0.013 C 
ATOM      9  C4' I4B d   1       0.715  -2.604  -3.592  0.00  0.00     0.013 C 
ATOM     10  C3' I4B d   1       0.059  -4.212  -1.822  0.00  0.00     0.013 C 
ENDBRANCH   7   8
ENDBRANCH   1   7
TORSDOF 2
ENDMDL
