MODEL 1
REMARK minimizedAffinity -4.38136625
REMARK minimizedRMSD -1
REMARK  2 active torsions:
REMARK  status: ('A' for Active; 'I' for Inactive)
REMARK    1  A    between atoms: C2'_3  and  C1'_4 
REMARK    2  A    between atoms: C1'_4  and  C1_5 
ROOT
ATOM      1  C1  I4B d   1      -0.188  -1.415  -0.605  0.00  0.00    -0.075 A 
ATOM      2  C2  I4B d   1      -0.816  -2.300  -1.445  0.00  0.00     0.003 A 
ATOM      3  C3  I4B d   1      -0.091  -2.932  -2.485  0.00  0.00     0.002 A 
ATOM      4  C4  I4B d   1       1.237  -2.614  -2.678  0.00  0.00    -0.004 A 
ATOM      5  C5  I4B d   1       1.878  -1.733  -1.811  0.00  0.00     0.002 A 
ATOM      6  C6  I4B d   1       1.164  -1.139  -0.760  0.00  0.00     0.003 A 
ENDROOT
BRANCH   1   7
ATOM      7  C1' I4B d   1      -0.991  -0.740   0.462  0.00  0.00     0.060 C 
BRANCH   7   8
ATOM      8  C2' I4B d   1      -0.102   0.284   1.138  0.00  0.00    -0.013 C 
ATOM      9  C4' I4B d   1      -0.919   1.370   1.786  0.00  0.00     0.013 C 
ATOM     10  C3' I4B d   1       0.745  -0.433   2.146  0.00  0.00     0.013 C 
ENDBRANCH   7   8
ENDBRANCH   1   7
TORSDOF 2
ENDMDL
