MODEL 1
REMARK minimizedAffinity -1.05237365
REMARK minimizedRMSD -1
REMARK  2 active torsions:
REMARK  status: ('A' for Active; 'I' for Inactive)
REMARK    1  A    between atoms: C2'_3  and  C1'_4 
REMARK    2  A    between atoms: C1'_4  and  C1_5 
ROOT
ATOM      1  C1  I4B d   1       0.061  -1.469  -0.574  0.00  0.00    -0.075 A 
ATOM      2  C2  I4B d   1      -1.206  -1.580  -0.058  0.00  0.00     0.003 A 
ATOM      3  C3  I4B d   1      -1.519  -0.998   1.195  0.00  0.00     0.002 A 
ATOM      4  C4  I4B d   1      -0.528  -0.363   1.916  0.00  0.00    -0.004 A 
ATOM      5  C5  I4B d   1       0.750  -0.233   1.381  0.00  0.00     0.002 A 
ATOM      6  C6  I4B d   1       1.044  -0.778   0.123  0.00  0.00     0.003 A 
ENDROOT
BRANCH   1   7
ATOM      7  C1' I4B d   1       0.365  -2.124  -1.884  0.00  0.00     0.060 C 
BRANCH   7   8
ATOM      8  C2' I4B d   1       0.342  -3.624  -1.673  0.00  0.00    -0.013 C 
ATOM      9  C4' I4B d   1       0.225  -4.358  -2.983  0.00  0.00     0.013 C 
ATOM     10  C3' I4B d   1       1.598  -4.009  -0.948  0.00  0.00     0.013 C 
ENDBRANCH   7   8
ENDBRANCH   1   7
TORSDOF 2
ENDMDL
