MODEL 1
REMARK minimizedAffinity -1.23720622
REMARK minimizedRMSD -1
REMARK  2 active torsions:
REMARK  status: ('A' for Active; 'I' for Inactive)
REMARK    1  A    between atoms: C2'_3  and  C1'_4 
REMARK    2  A    between atoms: C1'_4  and  C1_5 
ROOT
ATOM      1  C1  I4B d   1      -0.819   1.105   0.612  0.00  0.00    -0.075 A 
ATOM      2  C2  I4B d   1      -0.219   1.420  -0.582  0.00  0.00     0.003 A 
ATOM      3  C3  I4B d   1       0.313   2.715  -0.792  0.00  0.00     0.002 A 
ATOM      4  C4  I4B d   1       0.179   3.673   0.192  0.00  0.00    -0.004 A 
ATOM      5  C5  I4B d   1      -0.409   3.346   1.410  0.00  0.00     0.002 A 
ATOM      6  C6  I4B d   1      -0.900   2.050   1.627  0.00  0.00     0.003 A 
ENDROOT
BRANCH   1   7
ATOM      7  C1' I4B d   1      -1.398  -0.263   0.789  0.00  0.00     0.060 C 
BRANCH   7   8
ATOM      8  C2' I4B d   1      -0.254  -1.230   1.012  0.00  0.00    -0.013 C 
ATOM      9  C4' I4B d   1       0.787  -1.101  -0.069  0.00  0.00     0.013 C 
ATOM     10  C3' I4B d   1       0.332  -0.949   2.364  0.00  0.00     0.013 C 
ENDBRANCH   7   8
ENDBRANCH   1   7
TORSDOF 2
ENDMDL
