MODEL 1
REMARK minimizedAffinity -1.64215755
REMARK minimizedRMSD -1
REMARK  2 active torsions:
REMARK  status: ('A' for Active; 'I' for Inactive)
REMARK    1  A    between atoms: C2'_3  and  C1'_4 
REMARK    2  A    between atoms: C1'_4  and  C1_5 
ROOT
ATOM      1  C1  I4B d   1       0.460  -1.450  -1.190  0.00  0.00    -0.075 A 
ATOM      2  C2  I4B d   1       0.971  -2.618  -0.681  0.00  0.00     0.003 A 
ATOM      3  C3  I4B d   1       0.951  -3.802  -1.456  0.00  0.00     0.002 A 
ATOM      4  C4  I4B d   1       0.369  -3.786  -2.707  0.00  0.00    -0.004 A 
ATOM      5  C5  I4B d   1      -0.128  -2.596  -3.231  0.00  0.00     0.002 A 
ATOM      6  C6  I4B d   1      -0.071  -1.418  -2.473  0.00  0.00     0.003 A 
ENDROOT
BRANCH   1   7
ATOM      7  C1' I4B d   1       0.467  -0.225  -0.331  0.00  0.00     0.060 C 
BRANCH   7   8
ATOM      8  C2' I4B d   1      -0.287  -0.544   0.943  0.00  0.00    -0.013 C 
ATOM      9  C4' I4B d   1      -0.222   0.603   1.917  0.00  0.00     0.013 C 
ATOM     10  C3' I4B d   1      -1.706  -0.861   0.574  0.00  0.00     0.013 C 
ENDBRANCH   7   8
ENDBRANCH   1   7
TORSDOF 2
ENDMDL
