MODEL 1
REMARK minimizedAffinity -3.64758348
REMARK minimizedRMSD -1
REMARK  2 active torsions:
REMARK  status: ('A' for Active; 'I' for Inactive)
REMARK    1  A    between atoms: C2'_3  and  C1'_4 
REMARK    2  A    between atoms: C1'_4  and  C1_5 
ROOT
ATOM      1  C1  I4B d   1       0.345   0.089  -0.185  0.00  0.00    -0.075 A 
ATOM      2  C2  I4B d   1      -0.185  -0.599   0.879  0.00  0.00     0.003 A 
ATOM      3  C3  I4B d   1      -0.930   0.085   1.870  0.00  0.00     0.002 A 
ATOM      4  C4  I4B d   1      -1.076   1.455   1.786  0.00  0.00    -0.004 A 
ATOM      5  C5  I4B d   1      -0.557   2.147   0.696  0.00  0.00     0.002 A 
ATOM      6  C6  I4B d   1       0.147   1.458  -0.303  0.00  0.00     0.003 A 
ENDROOT
BRANCH   1   7
ATOM      7  C1' I4B d   1       1.154  -0.660  -1.196  0.00  0.00     0.060 C 
BRANCH   7   8
ATOM      8  C2' I4B d   1       0.506  -2.014  -1.402  0.00  0.00    -0.013 C 
ATOM      9  C4' I4B d   1       0.036  -2.183  -2.823  0.00  0.00     0.013 C 
ATOM     10  C3' I4B d   1       1.508  -3.067  -1.035  0.00  0.00     0.013 C 
ENDBRANCH   7   8
ENDBRANCH   1   7
TORSDOF 2
ENDMDL
