MODEL 1
REMARK minimizedAffinity -5.38622952
REMARK minimizedRMSD -1
REMARK  2 active torsions:
REMARK  status: ('A' for Active; 'I' for Inactive)
REMARK    1  A    between atoms: C2'_3  and  C1'_4 
REMARK    2  A    between atoms: C1'_4  and  C1_5 
ROOT
ATOM      1  C1  I4B d   1       0.103   0.441   0.323  0.00  0.00    -0.075 A 
ATOM      2  C2  I4B d   1       0.255   1.477  -0.563  0.00  0.00     0.003 A 
ATOM      3  C3  I4B d   1      -0.196   2.776  -0.225  0.00  0.00     0.002 A 
ATOM      4  C4  I4B d   1      -0.834   2.982   0.981  0.00  0.00    -0.004 A 
ATOM      5  C5  I4B d   1      -0.966   1.934   1.888  0.00  0.00     0.002 A 
ATOM      6  C6  I4B d   1      -0.484   0.658   1.563  0.00  0.00     0.003 A 
ENDROOT
BRANCH   1   7
ATOM      7  C1' I4B d   1       0.560  -0.925  -0.080  0.00  0.00     0.060 C 
BRANCH   7   8
ATOM      8  C2' I4B d   1      -0.591  -1.614  -0.786  0.00  0.00    -0.013 C 
ATOM      9  C4' I4B d   1      -0.104  -2.763  -1.629  0.00  0.00     0.013 C 
ATOM     10  C3' I4B d   1      -1.561  -2.080   0.258  0.00  0.00     0.013 C 
ENDBRANCH   7   8
ENDBRANCH   1   7
TORSDOF 2
ENDMDL
