MODEL 1
REMARK minimizedAffinity -3.5941608
REMARK minimizedRMSD -1
REMARK  2 active torsions:
REMARK  status: ('A' for Active; 'I' for Inactive)
REMARK    1  A    between atoms: C2'_3  and  C1'_4 
REMARK    2  A    between atoms: C1'_4  and  C1_5 
ROOT
ATOM      1  C1  I4B d   1       0.425   0.237   0.029  0.00  0.00    -0.075 A 
ATOM      2  C2  I4B d   1       0.404   1.607  -0.053  0.00  0.00     0.003 A 
ATOM      3  C3  I4B d   1      -0.363   2.365   0.865  0.00  0.00     0.002 A 
ATOM      4  C4  I4B d   1      -1.128   1.714   1.811  0.00  0.00    -0.004 A 
ATOM      5  C5  I4B d   1      -1.088   0.326   1.908  0.00  0.00     0.002 A 
ATOM      6  C6  I4B d   1      -0.297  -0.417   1.019  0.00  0.00     0.003 A 
ENDROOT
BRANCH   1   7
ATOM      7  C1' I4B d   1       1.220  -0.534  -0.977  0.00  0.00     0.060 C 
BRANCH   7   8
ATOM      8  C2' I4B d   1       0.650  -1.936  -1.047  0.00  0.00    -0.013 C 
ATOM      9  C4' I4B d   1       0.129  -2.245  -2.426  0.00  0.00     0.013 C 
ATOM     10  C3' I4B d   1       1.731  -2.896  -0.649  0.00  0.00     0.013 C 
ENDBRANCH   7   8
ENDBRANCH   1   7
TORSDOF 2
ENDMDL
