MODEL 1
REMARK minimizedAffinity -0.335330039
REMARK minimizedRMSD -1
REMARK  2 active torsions:
REMARK  status: ('A' for Active; 'I' for Inactive)
REMARK    1  A    between atoms: C2'_3  and  C1'_4 
REMARK    2  A    between atoms: C1'_4  and  C1_5 
ROOT
ATOM      1  C1  I4B d   1       0.639   1.027  -0.341  0.00  0.00    -0.075 A 
ATOM      2  C2  I4B d   1       1.326   1.219  -1.514  0.00  0.00     0.003 A 
ATOM      3  C3  I4B d   1       1.268   2.468  -2.177  0.00  0.00     0.002 A 
ATOM      4  C4  I4B d   1       0.477   3.475  -1.662  0.00  0.00    -0.004 A 
ATOM      5  C5  I4B d   1      -0.200   3.286  -0.461  0.00  0.00     0.002 A 
ATOM      6  C6  I4B d   1      -0.109   2.059   0.211  0.00  0.00     0.003 A 
ENDROOT
BRANCH   1   7
ATOM      7  C1' I4B d   1       0.695  -0.316   0.315  0.00  0.00     0.060 C 
BRANCH   7   8
ATOM      8  C2' I4B d   1      -0.440  -0.395   1.315  0.00  0.00    -0.013 C 
ATOM      9  C4' I4B d   1      -1.645  -1.075   0.720  0.00  0.00     0.013 C 
ATOM     10  C3' I4B d   1       0.056  -1.133   2.523  0.00  0.00     0.013 C 
ENDBRANCH   7   8
ENDBRANCH   1   7
TORSDOF 2
ENDMDL
