MODEL 1
REMARK minimizedAffinity -2.00475764
REMARK minimizedRMSD -1
REMARK  2 active torsions:
REMARK  status: ('A' for Active; 'I' for Inactive)
REMARK    1  A    between atoms: C2'_3  and  C1'_4 
REMARK    2  A    between atoms: C1'_4  and  C1_5 
ROOT
ATOM      1  C1  I4B d   1      -0.568  -0.670  -0.068  0.00  0.00    -0.075 A 
ATOM      2  C2  I4B d   1       0.157   0.457  -0.363  0.00  0.00     0.003 A 
ATOM      3  C3  I4B d   1       0.306   1.483   0.601  0.00  0.00     0.002 A 
ATOM      4  C4  I4B d   1      -0.326   1.364   1.822  0.00  0.00    -0.004 A 
ATOM      5  C5  I4B d   1      -1.042   0.210   2.129  0.00  0.00     0.002 A 
ATOM      6  C6  I4B d   1      -1.154  -0.819   1.183  0.00  0.00     0.003 A 
ENDROOT
BRANCH   1   7
ATOM      7  C1' I4B d   1      -0.732  -1.719  -1.121  0.00  0.00     0.060 C 
BRANCH   7   8
ATOM      8  C2' I4B d   1       0.627  -1.975  -1.740  0.00  0.00    -0.013 C 
ATOM      9  C4' I4B d   1       1.367  -3.059  -1.001  0.00  0.00     0.013 C 
ATOM     10  C3' I4B d   1       0.419  -2.346  -3.178  0.00  0.00     0.013 C 
ENDBRANCH   7   8
ENDBRANCH   1   7
TORSDOF 2
ENDMDL
