MODEL 1
REMARK minimizedAffinity -4.51742411
REMARK minimizedRMSD -1
REMARK  2 active torsions:
REMARK  status: ('A' for Active; 'I' for Inactive)
REMARK    1  A    between atoms: C2'_3  and  C1'_4 
REMARK    2  A    between atoms: C1'_4  and  C1_5 
ROOT
ATOM      1  C1  I4B d   1       0.502   0.316   0.044  0.00  0.00    -0.075 A 
ATOM      2  C2  I4B d   1       0.780   1.396  -0.757  0.00  0.00     0.003 A 
ATOM      3  C3  I4B d   1       0.526   2.710  -0.296  0.00  0.00     0.002 A 
ATOM      4  C4  I4B d   1      -0.050   2.895   0.945  0.00  0.00    -0.004 A 
ATOM      5  C5  I4B d   1      -0.310   1.801   1.765  0.00  0.00     0.002 A 
ATOM      6  C6  I4B d   1      -0.021   0.504   1.317  0.00  0.00     0.003 A 
ENDROOT
BRANCH   1   7
ATOM      7  C1' I4B d   1       0.752  -1.059  -0.488  0.00  0.00     0.060 C 
BRANCH   7   8
ATOM      8  C2' I4B d   1      -0.282  -1.340  -1.559  0.00  0.00    -0.013 C 
ATOM      9  C4' I4B d   1       0.049  -2.598  -2.320  0.00  0.00     0.013 C 
ATOM     10  C3' I4B d   1      -1.622  -1.447  -0.894  0.00  0.00     0.013 C 
ENDBRANCH   7   8
ENDBRANCH   1   7
TORSDOF 2
ENDMDL
