MODEL 1
REMARK minimizedAffinity -2.73159552
REMARK minimizedRMSD -1
REMARK  2 active torsions:
REMARK  status: ('A' for Active; 'I' for Inactive)
REMARK    1  A    between atoms: C2'_3  and  C1'_4 
REMARK    2  A    between atoms: C1'_4  and  C1_5 
ROOT
ATOM      1  C1  I4B d   1       0.761  -0.192  -0.014  0.00  0.00    -0.075 A 
ATOM      2  C2  I4B d   1       0.469   1.139  -0.179  0.00  0.00     0.003 A 
ATOM      3  C3  I4B d   1      -0.276   1.833   0.805  0.00  0.00     0.002 A 
ATOM      4  C4  I4B d   1      -0.748   1.150   1.907  0.00  0.00    -0.004 A 
ATOM      5  C5  I4B d   1      -0.431  -0.194   2.084  0.00  0.00     0.002 A 
ATOM      6  C6  I4B d   1       0.338  -0.867   1.124  0.00  0.00     0.003 A 
ENDROOT
BRANCH   1   7
ATOM      7  C1' I4B d   1       1.521  -0.902  -1.089  0.00  0.00     0.060 C 
BRANCH   7   8
ATOM      8  C2' I4B d   1       0.726  -2.127  -1.491  0.00  0.00    -0.013 C 
ATOM      9  C4' I4B d   1       0.053  -1.927  -2.823  0.00  0.00     0.013 C 
ATOM     10  C3' I4B d   1       1.665  -3.296  -1.530  0.00  0.00     0.013 C 
ENDBRANCH   7   8
ENDBRANCH   1   7
TORSDOF 2
ENDMDL
