MODEL 1
REMARK minimizedAffinity -4.22723007
REMARK minimizedRMSD -1
REMARK  2 active torsions:
REMARK  status: ('A' for Active; 'I' for Inactive)
REMARK    1  A    between atoms: C2'_3  and  C1'_4 
REMARK    2  A    between atoms: C1'_4  and  C1_5 
ROOT
ATOM      1  C1  I4B d   1      -0.386   1.547   0.255  0.00  0.00    -0.075 A 
ATOM      2  C2  I4B d   1       0.182   2.354  -0.700  0.00  0.00     0.003 A 
ATOM      3  C3  I4B d   1       0.251   3.754  -0.501  0.00  0.00     0.002 A 
ATOM      4  C4  I4B d   1      -0.302   4.307   0.636  0.00  0.00    -0.004 A 
ATOM      5  C5  I4B d   1      -0.857   3.486   1.613  0.00  0.00     0.002 A 
ATOM      6  C6  I4B d   1      -0.888   2.096   1.427  0.00  0.00     0.003 A 
ENDROOT
BRANCH   1   7
ATOM      7  C1' I4B d   1      -0.471   0.076  -0.002  0.00  0.00     0.060 C 
BRANCH   7   8
ATOM      8  C2' I4B d   1       0.939  -0.478  -0.016  0.00  0.00    -0.013 C 
ATOM      9  C4' I4B d   1       1.414  -0.793   1.378  0.00  0.00     0.013 C 
ATOM     10  C3' I4B d   1       0.947  -1.703  -0.881  0.00  0.00     0.013 C 
ENDBRANCH   7   8
ENDBRANCH   1   7
TORSDOF 2
ENDMDL
