MODEL 1
REMARK minimizedAffinity -1.57157803
REMARK minimizedRMSD -1
REMARK  2 active torsions:
REMARK  status: ('A' for Active; 'I' for Inactive)
REMARK    1  A    between atoms: C2'_3  and  C1'_4 
REMARK    2  A    between atoms: C1'_4  and  C1_5 
ROOT
ATOM      1  C1  I4B d   1       0.525  -0.048   0.373  0.00  0.00    -0.075 A 
ATOM      2  C2  I4B d   1       0.450   1.103  -0.371  0.00  0.00     0.003 A 
ATOM      3  C3  I4B d   1      -0.140   2.268   0.177  0.00  0.00     0.002 A 
ATOM      4  C4  I4B d   1      -0.682   2.224   1.445  0.00  0.00    -0.004 A 
ATOM      5  C5  I4B d   1      -0.584   1.063   2.206  0.00  0.00     0.002 A 
ATOM      6  C6  I4B d   1       0.034  -0.077   1.672  0.00  0.00     0.003 A 
ENDROOT
BRANCH   1   7
ATOM      7  C1' I4B d   1       1.125  -1.269  -0.249  0.00  0.00     0.060 C 
BRANCH   7   8
ATOM      8  C2' I4B d   1       0.110  -1.848  -1.213  0.00  0.00    -0.013 C 
ATOM      9  C4' I4B d   1       0.357  -3.315  -1.449  0.00  0.00     0.013 C 
ATOM     10  C3' I4B d   1      -1.257  -1.614  -0.642  0.00  0.00     0.013 C 
ENDBRANCH   7   8
ENDBRANCH   1   7
TORSDOF 2
ENDMDL
