MODEL 1
REMARK minimizedAffinity -3.68714213
REMARK minimizedRMSD -1
REMARK  2 active torsions:
REMARK  status: ('A' for Active; 'I' for Inactive)
REMARK    1  A    between atoms: C2'_3  and  C1'_4 
REMARK    2  A    between atoms: C1'_4  and  C1_5 
ROOT
ATOM      1  C1  I4B d   1      -0.451   2.056   0.828  0.00  0.00    -0.075 A 
ATOM      2  C2  I4B d   1      -0.669   3.236   1.494  0.00  0.00     0.003 A 
ATOM      3  C3  I4B d   1      -0.238   4.462   0.932  0.00  0.00     0.002 A 
ATOM      4  C4  I4B d   1       0.447   4.457  -0.266  0.00  0.00    -0.004 A 
ATOM      5  C5  I4B d   1       0.648   3.262  -0.950  0.00  0.00     0.002 A 
ATOM      6  C6  I4B d   1       0.185   2.055  -0.407  0.00  0.00     0.003 A 
ENDROOT
BRANCH   1   7
ATOM      7  C1' I4B d   1      -0.890   0.776   1.466  0.00  0.00     0.060 C 
BRANCH   7   8
ATOM      8  C2' I4B d   1      -0.541  -0.358   0.525  0.00  0.00    -0.013 C 
ATOM      9  C4' I4B d   1       0.943  -0.614   0.505  0.00  0.00     0.013 C 
ATOM     10  C3' I4B d   1      -1.295  -1.576   0.969  0.00  0.00     0.013 C 
ENDBRANCH   7   8
ENDBRANCH   1   7
TORSDOF 2
ENDMDL
