MODEL 1
REMARK minimizedAffinity -3.89628649
REMARK minimizedRMSD -1
REMARK  0 active torsions:
REMARK  status: ('A' for Active; 'I' for Inactive)
ROOT
ATOM      1  C   UNL d   1       0.156  -0.755  -0.906  0.00  0.00     0.020 A 
ATOM      2  C1  UNL d   1      -1.082  -0.187  -0.610  0.00  0.00     0.020 A 
ATOM      3  C2  UNL d   1      -1.278   0.464   0.611  0.00  0.00     0.034 A 
ATOM      4  C3  UNL d   1      -0.234   0.547   1.539  0.00  0.00     0.017 A 
ATOM      5  C4  UNL d   1       1.009  -0.023   1.241  0.00  0.00     0.017 A 
ATOM      6  C5  UNL d   1       1.199  -0.673   0.018  0.00  0.00     0.034 A 
ATOM      7 Cl   UNL d   1       2.344   0.040   2.336  0.00  0.00    -0.070 Cl
ATOM      8 Cl1  UNL d   1      -0.547   1.367   3.028  0.00  0.00    -0.070 Cl
ENDROOT
TORSDOF 0
ENDMDL
