MODEL 1
REMARK minimizedAffinity -3.52464843
REMARK minimizedRMSD -1
REMARK  0 active torsions:
REMARK  status: ('A' for Active; 'I' for Inactive)
ROOT
ATOM      1  C   UNL d   1      -1.380  -0.621  -5.282  0.00  0.00     0.020 A 
ATOM      2  C1  UNL d   1      -0.461   0.238  -5.883  0.00  0.00     0.020 A 
ATOM      3  C2  UNL d   1       0.662   0.667  -5.172  0.00  0.00     0.034 A 
ATOM      4  C3  UNL d   1       0.868   0.238  -3.856  0.00  0.00     0.017 A 
ATOM      5  C4  UNL d   1      -0.055  -0.625  -3.254  0.00  0.00     0.017 A 
ATOM      6  C5  UNL d   1      -1.178  -1.052  -3.970  0.00  0.00     0.034 A 
ATOM      7 Cl   UNL d   1       0.131  -1.198  -1.634  0.00  0.00    -0.070 Cl
ATOM      8 Cl1  UNL d   1       2.278   0.808  -3.036  0.00  0.00    -0.070 Cl
ENDROOT
TORSDOF 0
ENDMDL
