MODEL 1
REMARK minimizedAffinity -1.87884283
REMARK minimizedRMSD -1
REMARK  0 active torsions:
REMARK  status: ('A' for Active; 'I' for Inactive)
ROOT
ATOM      1  C   UNL d   1      -0.887   0.276  -3.835  0.00  0.00     0.020 A 
ATOM      2  C1  UNL d   1      -0.032   1.105  -4.560  0.00  0.00     0.020 A 
ATOM      3  C2  UNL d   1       1.328   1.151  -4.246  0.00  0.00     0.034 A 
ATOM      4  C3  UNL d   1       1.836   0.367  -3.204  0.00  0.00     0.017 A 
ATOM      5  C4  UNL d   1       0.977  -0.465  -2.477  0.00  0.00     0.017 A 
ATOM      6  C5  UNL d   1      -0.384  -0.507  -2.796  0.00  0.00     0.034 A 
ATOM      7 Cl   UNL d   1       1.531  -1.462  -1.178  0.00  0.00    -0.070 Cl
ATOM      8 Cl1  UNL d   1       3.528   0.473  -2.871  0.00  0.00    -0.070 Cl
ENDROOT
TORSDOF 0
ENDMDL
