MODEL 1
REMARK minimizedAffinity -4.10182047
REMARK minimizedRMSD -1
REMARK  0 active torsions:
REMARK  status: ('A' for Active; 'I' for Inactive)
ROOT
ATOM      1  C   UNL d   1       1.494   0.745   2.774  0.00  0.00     0.020 A 
ATOM      2  C1  UNL d   1       0.299   1.310   3.219  0.00  0.00     0.020 A 
ATOM      3  C2  UNL d   1      -0.887   1.075   2.520  0.00  0.00     0.034 A 
ATOM      4  C3  UNL d   1      -0.881   0.274   1.372  0.00  0.00     0.017 A 
ATOM      5  C4  UNL d   1       0.319  -0.292   0.927  0.00  0.00     0.017 A 
ATOM      6  C5  UNL d   1       1.504  -0.054   1.631  0.00  0.00     0.034 A 
ATOM      7 Cl   UNL d   1       0.406  -1.291  -0.481  0.00  0.00    -0.070 Cl
ATOM      8 Cl1  UNL d   1      -2.384   0.026   0.557  0.00  0.00    -0.070 Cl
ENDROOT
TORSDOF 0
ENDMDL
