MODEL 1
REMARK minimizedAffinity 1.90684688
REMARK minimizedRMSD -1
REMARK  0 active torsions:
REMARK  status: ('A' for Active; 'I' for Inactive)
ROOT
ATOM      1  C   UNL d   1      -1.671  -0.006   2.338  0.00  0.00     0.020 A 
ATOM      2  C1  UNL d   1      -2.185   0.550   1.167  0.00  0.00     0.020 A 
ATOM      3  C2  UNL d   1      -1.344   0.786   0.078  0.00  0.00     0.034 A 
ATOM      4  C3  UNL d   1       0.016   0.467   0.157  0.00  0.00     0.017 A 
ATOM      5  C4  UNL d   1       0.532  -0.091   1.333  0.00  0.00     0.017 A 
ATOM      6  C5  UNL d   1      -0.315  -0.326   2.420  0.00  0.00     0.034 A 
ATOM      7 Cl   UNL d   1       2.199  -0.512   1.505  0.00  0.00    -0.070 Cl
ATOM      8 Cl1  UNL d   1       0.998   0.786  -1.228  0.00  0.00    -0.070 Cl
ENDROOT
TORSDOF 0
ENDMDL
