MODEL 1
REMARK minimizedAffinity -3.40082788
REMARK minimizedRMSD -1
REMARK  0 active torsions:
REMARK  status: ('A' for Active; 'I' for Inactive)
ROOT
ATOM      1  C   UNL d   1      -1.206   1.367   2.570  0.00  0.00     0.020 A 
ATOM      2  C1  UNL d   1      -2.002   1.147   1.447  0.00  0.00     0.020 A 
ATOM      3  C2  UNL d   1      -1.496   0.429   0.362  0.00  0.00     0.034 A 
ATOM      4  C3  UNL d   1      -0.189  -0.071   0.397  0.00  0.00     0.017 A 
ATOM      5  C4  UNL d   1       0.610   0.151   1.525  0.00  0.00     0.017 A 
ATOM      6  C5  UNL d   1       0.097   0.870   2.609  0.00  0.00     0.034 A 
ATOM      7 Cl   UNL d   1       2.232  -0.435   1.642  0.00  0.00    -0.070 Cl
ATOM      8 Cl1  UNL d   1       0.372  -0.950  -0.980  0.00  0.00    -0.070 Cl
ENDROOT
TORSDOF 0
ENDMDL
