MODEL 1
REMARK minimizedAffinity -0.728742599
REMARK minimizedRMSD -1
REMARK  0 active torsions:
REMARK  status: ('A' for Active; 'I' for Inactive)
ROOT
ATOM      1  C   UNL d   1       2.439   2.454   0.201  0.00  0.00     0.023 A 
ATOM      2  C1  UNL d   1       1.154   2.988   0.300  0.00  0.00     0.003 A 
ATOM      3  C2  UNL d   1       0.044   2.142   0.303  0.00  0.00     0.048 A 
ATOM      4  C3  UNL d   1       0.225   0.762   0.207  0.00  0.00     0.023 A 
ATOM      5  C4  UNL d   1       1.509   0.224   0.108  0.00  0.00     0.048 A 
ATOM      6  C5  UNL d   1       2.617   1.074   0.105  0.00  0.00     0.003 A 
ATOM      7  I   UNL d   1      -1.426  -0.499   0.211  0.00  0.00    -0.146 I 
ENDROOT
TORSDOF 0
ENDMDL
