MODEL 1
REMARK minimizedAffinity -2.74968505
REMARK minimizedRMSD -1
REMARK  0 active torsions:
REMARK  status: ('A' for Active; 'I' for Inactive)
ROOT
ATOM      1  C   UNL d   1      -2.727  -1.410  -0.985  0.00  0.00     0.023 A 
ATOM      2  C1  UNL d   1      -2.332  -1.410   0.353  0.00  0.00     0.003 A 
ATOM      3  C2  UNL d   1      -1.130  -0.806   0.727  0.00  0.00     0.048 A 
ATOM      4  C3  UNL d   1      -0.328  -0.203  -0.241  0.00  0.00     0.023 A 
ATOM      5  C4  UNL d   1      -0.720  -0.200  -1.581  0.00  0.00     0.048 A 
ATOM      6  C5  UNL d   1      -1.922  -0.805  -1.951  0.00  0.00     0.003 A 
ATOM      7  I   UNL d   1       1.462   0.696   0.314  0.00  0.00    -0.146 I 
ENDROOT
TORSDOF 0
ENDMDL
