MODEL 1
REMARK minimizedAffinity -4.22066879
REMARK minimizedRMSD -1
REMARK  0 active torsions:
REMARK  status: ('A' for Active; 'I' for Inactive)
ROOT
ATOM      1  C   UNL d   1      -2.952  -0.903  -1.445  0.00  0.00     0.023 A 
ATOM      2  C1  UNL d   1      -2.704  -0.722  -0.084  0.00  0.00     0.003 A 
ATOM      3  C2  UNL d   1      -1.410  -0.444   0.360  0.00  0.00     0.048 A 
ATOM      4  C3  UNL d   1      -0.368  -0.348  -0.563  0.00  0.00     0.023 A 
ATOM      5  C4  UNL d   1      -0.612  -0.527  -1.925  0.00  0.00     0.048 A 
ATOM      6  C5  UNL d   1      -1.908  -0.806  -2.364  0.00  0.00     0.003 A 
ATOM      7  I   UNL d   1       1.559   0.066   0.096  0.00  0.00    -0.146 I 
ENDROOT
TORSDOF 0
ENDMDL
