MODEL 1
REMARK minimizedAffinity 0.154424608
REMARK minimizedRMSD -1
REMARK  0 active torsions:
REMARK  status: ('A' for Active; 'I' for Inactive)
ROOT
ATOM      1  C   UNL d   1      -0.948  -1.500   0.956  0.00  0.00     0.023 A 
ATOM      2  C1  UNL d   1      -1.219  -0.516   0.005  0.00  0.00     0.003 A 
ATOM      3  C2  UNL d   1      -0.241   0.425  -0.326  0.00  0.00     0.048 A 
ATOM      4  C3  UNL d   1       1.005   0.376   0.298  0.00  0.00     0.023 A 
ATOM      5  C4  UNL d   1       1.281  -0.608   1.249  0.00  0.00     0.048 A 
ATOM      6  C5  UNL d   1       0.301  -1.546   1.577  0.00  0.00     0.003 A 
ATOM      7  I   UNL d   1       2.461   1.775  -0.193  0.00  0.00    -0.146 I 
ENDROOT
TORSDOF 0
ENDMDL
