MODEL 1
REMARK minimizedAffinity -2.12446189
REMARK minimizedRMSD -1
REMARK  0 active torsions:
REMARK  status: ('A' for Active; 'I' for Inactive)
ROOT
ATOM      1  C   UNL d   1      -1.216  -0.165  -2.654  0.00  0.00     0.023 A 
ATOM      2  C1  UNL d   1      -0.275   0.336  -1.755  0.00  0.00     0.003 A 
ATOM      3  C2  UNL d   1      -0.333  -0.025  -0.408  0.00  0.00     0.048 A 
ATOM      4  C3  UNL d   1      -1.335  -0.889   0.034  0.00  0.00     0.023 A 
ATOM      5  C4  UNL d   1      -2.279  -1.394  -0.862  0.00  0.00     0.048 A 
ATOM      6  C5  UNL d   1      -2.217  -1.029  -2.209  0.00  0.00     0.003 A 
ATOM      7  I   UNL d   1      -1.424  -1.429   2.039  0.00  0.00    -0.146 I 
ENDROOT
TORSDOF 0
ENDMDL
