MODEL 1
REMARK minimizedAffinity -3.99357176
REMARK minimizedRMSD -1
REMARK  0 active torsions:
REMARK  status: ('A' for Active; 'I' for Inactive)
ROOT
ATOM      1  C   UNL d   1      -2.894  -0.970  -0.721  0.00  0.00     0.023 A 
ATOM      2  C1  UNL d   1      -2.277  -1.123   0.521  0.00  0.00     0.003 A 
ATOM      3  C2  UNL d   1      -0.982  -0.641   0.722  0.00  0.00     0.048 A 
ATOM      4  C3  UNL d   1      -0.311  -0.004  -0.322  0.00  0.00     0.023 A 
ATOM      5  C4  UNL d   1      -0.925   0.152  -1.565  0.00  0.00     0.048 A 
ATOM      6  C5  UNL d   1      -2.219  -0.333  -1.762  0.00  0.00     0.003 A 
ATOM      7  I   UNL d   1       1.616   0.715  -0.024  0.00  0.00    -0.146 I 
ENDROOT
TORSDOF 0
ENDMDL
