MODEL 1
REMARK minimizedAffinity -3.48455477
REMARK minimizedRMSD -1
REMARK  0 active torsions:
REMARK  status: ('A' for Active; 'I' for Inactive)
ROOT
ATOM      1  C   UNL d   1      -3.367  -0.435  -1.002  0.00  0.00     0.023 A 
ATOM      2  C1  UNL d   1      -2.529   0.374  -1.769  0.00  0.00     0.003 A 
ATOM      3  C2  UNL d   1      -1.193   0.547  -1.400  0.00  0.00     0.048 A 
ATOM      4  C3  UNL d   1      -0.702  -0.093  -0.263  0.00  0.00     0.023 A 
ATOM      5  C4  UNL d   1      -1.536  -0.905   0.507  0.00  0.00     0.048 A 
ATOM      6  C5  UNL d   1      -2.871  -1.074   0.135  0.00  0.00     0.003 A 
ATOM      7  I   UNL d   1       1.286   0.162   0.288  0.00  0.00    -0.146 I 
ENDROOT
TORSDOF 0
ENDMDL
