MODEL 1
REMARK minimizedAffinity -3.33362556
REMARK minimizedRMSD -1
REMARK  0 active torsions:
REMARK  status: ('A' for Active; 'I' for Inactive)
ROOT
ATOM      1  C   UNL d   1       1.580   0.457   0.088  0.00  0.00     0.023 A 
ATOM      2  C1  UNL d   1       0.968   0.790  -1.121  0.00  0.00     0.003 A 
ATOM      3  C2  UNL d   1      -0.342   0.379  -1.378  0.00  0.00     0.048 A 
ATOM      4  C3  UNL d   1      -1.033  -0.364  -0.423  0.00  0.00     0.023 A 
ATOM      5  C4  UNL d   1      -0.425  -0.699   0.788  0.00  0.00     0.048 A 
ATOM      6  C5  UNL d   1       0.884  -0.287   1.041  0.00  0.00     0.003 A 
ATOM      7  I   UNL d   1      -2.982  -0.978  -0.803  0.00  0.00    -0.146 I 
ENDROOT
TORSDOF 0
ENDMDL
