MODEL 1
REMARK minimizedAffinity -4.24707031
REMARK minimizedRMSD -1
REMARK  0 active torsions:
REMARK  status: ('A' for Active; 'I' for Inactive)
ROOT
ATOM      1  C   UNL d   1      -3.642  -1.116  -0.945  0.00  0.00     0.023 A 
ATOM      2  C1  UNL d   1      -2.633  -1.340  -1.882  0.00  0.00     0.003 A 
ATOM      3  C2  UNL d   1      -1.336  -0.885  -1.635  0.00  0.00     0.048 A 
ATOM      4  C3  UNL d   1      -1.054  -0.209  -0.449  0.00  0.00     0.023 A 
ATOM      5  C4  UNL d   1      -2.060   0.016   0.492  0.00  0.00     0.048 A 
ATOM      6  C5  UNL d   1      -3.356  -0.439   0.241  0.00  0.00     0.003 A 
ATOM      7  I   UNL d   1       0.876   0.468  -0.079  0.00  0.00    -0.146 I 
ENDROOT
TORSDOF 0
ENDMDL
