MODEL 1
REMARK minimizedAffinity 1.14434803
REMARK minimizedRMSD -1
REMARK  0 active torsions:
REMARK  status: ('A' for Active; 'I' for Inactive)
ROOT
ATOM      1  C   UNL d   1       3.132   3.996   1.203  0.00  0.00     0.023 A 
ATOM      2  C1  UNL d   1       2.620   3.280   2.285  0.00  0.00     0.003 A 
ATOM      3  C2  UNL d   1       2.019   2.037   2.080  0.00  0.00     0.048 A 
ATOM      4  C3  UNL d   1       1.934   1.514   0.790  0.00  0.00     0.023 A 
ATOM      5  C4  UNL d   1       2.445   2.226  -0.296  0.00  0.00     0.048 A 
ATOM      6  C5  UNL d   1       3.045   3.470  -0.086  0.00  0.00     0.003 A 
ATOM      7  I   UNL d   1       1.039  -0.336   0.482  0.00  0.00    -0.146 I 
ENDROOT
TORSDOF 0
ENDMDL
