MODEL 1
REMARK minimizedAffinity -4.46553993
REMARK minimizedRMSD -1
REMARK  0 active torsions:
REMARK  status: ('A' for Active; 'I' for Inactive)
ROOT
ATOM      1  C   UNL d   1      -2.354  -0.690  -0.950  0.00  0.00     0.023 A 
ATOM      2  C1  UNL d   1      -1.491   0.016  -1.788  0.00  0.00     0.003 A 
ATOM      3  C2  UNL d   1      -0.312   0.563  -1.278  0.00  0.00     0.048 A 
ATOM      4  C3  UNL d   1      -0.001   0.399   0.071  0.00  0.00     0.023 A 
ATOM      5  C4  UNL d   1      -0.861  -0.308   0.914  0.00  0.00     0.048 A 
ATOM      6  C5  UNL d   1      -2.039  -0.852   0.400  0.00  0.00     0.003 A 
ATOM      7  I   UNL d   1       1.753   1.211   0.833  0.00  0.00    -0.146 I 
ENDROOT
TORSDOF 0
ENDMDL
