MODEL 1
REMARK minimizedAffinity -1.33373356
REMARK minimizedRMSD -1
REMARK  0 active torsions:
REMARK  status: ('A' for Active; 'I' for Inactive)
ROOT
ATOM      1  C   UNL d   1       1.662   0.169  -0.683  0.00  0.00     0.023 A 
ATOM      2  C1  UNL d   1       1.306  -0.450   0.515  0.00  0.00     0.003 A 
ATOM      3  C2  UNL d   1      -0.039  -0.692   0.805  0.00  0.00     0.048 A 
ATOM      4  C3  UNL d   1      -1.022  -0.313  -0.109  0.00  0.00     0.023 A 
ATOM      5  C4  UNL d   1      -0.670   0.306  -1.310  0.00  0.00     0.048 A 
ATOM      6  C5  UNL d   1       0.675   0.547  -1.594  0.00  0.00     0.003 A 
ATOM      7  I   UNL d   1      -3.023  -0.673   0.320  0.00  0.00    -0.146 I 
ENDROOT
TORSDOF 0
ENDMDL
