MODEL 1
REMARK minimizedAffinity -3.70084167
REMARK minimizedRMSD -1
REMARK  0 active torsions:
REMARK  status: ('A' for Active; 'I' for Inactive)
ROOT
ATOM      1  C   UNL d   1      -2.532  -0.439  -1.775  0.00  0.00     0.023 A 
ATOM      2  C1  UNL d   1      -1.462   0.123  -2.470  0.00  0.00     0.003 A 
ATOM      3  C2  UNL d   1      -0.300   0.489  -1.788  0.00  0.00     0.048 A 
ATOM      4  C3  UNL d   1      -0.214   0.290  -0.411  0.00  0.00     0.023 A 
ATOM      5  C4  UNL d   1      -1.283  -0.273   0.289  0.00  0.00     0.048 A 
ATOM      6  C5  UNL d   1      -2.443  -0.637  -0.397  0.00  0.00     0.003 A 
ATOM      7  I   UNL d   1       1.515   0.834   0.606  0.00  0.00    -0.146 I 
ENDROOT
TORSDOF 0
ENDMDL
