MODEL 1
REMARK minimizedAffinity -3.15891171
REMARK minimizedRMSD -1
REMARK  0 active torsions:
REMARK  status: ('A' for Active; 'I' for Inactive)
ROOT
ATOM      1  C   UNL d   1      -2.864  -0.845  -0.178  0.00  0.00     0.023 A 
ATOM      2  C1  UNL d   1      -2.003  -0.815  -1.276  0.00  0.00     0.003 A 
ATOM      3  C2  UNL d   1      -0.660  -0.475  -1.102  0.00  0.00     0.048 A 
ATOM      4  C3  UNL d   1      -0.184  -0.167   0.172  0.00  0.00     0.023 A 
ATOM      5  C4  UNL d   1      -1.041  -0.197   1.273  0.00  0.00     0.048 A 
ATOM      6  C5  UNL d   1      -2.384  -0.536   1.094  0.00  0.00     0.003 A 
ATOM      7  I   UNL d   1       1.815   0.339   0.434  0.00  0.00    -0.146 I 
ENDROOT
TORSDOF 0
ENDMDL
