MODEL 1
REMARK minimizedAffinity 21.2784138
REMARK minimizedRMSD -1
REMARK  0 active torsions:
REMARK  status: ('A' for Active; 'I' for Inactive)
ROOT
ATOM      1  C1  DEN d   1       1.235  -3.320   2.710  0.00  0.00     0.130 A 
ATOM      2  C2  DEN d   1       2.110  -2.613   3.641  0.00  0.00    -0.031 A 
ATOM      3  C3  DEN d   1       1.498  -1.302   3.936  0.00  0.00     0.027 A 
ATOM      4  C4  DEN d   1      -0.710  -0.306   3.050  0.00  0.00     0.027 A 
ATOM      5  C5  DEN d   1      -1.792  -0.528   2.226  0.00  0.00    -0.003 A 
ATOM      6  C6  DEN d   1      -1.922  -1.674   1.486  0.00  0.00     0.001 A 
ATOM      7  C7  DEN d   1      -0.977  -2.660   1.589  0.00  0.00     0.017 A 
ATOM      8  C8  DEN d   1       0.120  -2.439   2.412  0.00  0.00    -0.094 A 
ATOM      9  C9  DEN d   1       0.228  -1.280   3.161  0.00  0.00    -0.072 A 
ENDROOT
TORSDOF 0
ENDMDL
