MODEL 1
REMARK minimizedAffinity 11.8083277
REMARK minimizedRMSD -1
REMARK  0 active torsions:
REMARK  status: ('A' for Active; 'I' for Inactive)
ROOT
ATOM      1  C1  DEN d   1      -0.808   3.482  -5.366  0.00  0.00     0.130 A 
ATOM      2  C2  DEN d   1      -1.710   4.625  -5.247  0.00  0.00    -0.031 A 
ATOM      3  C3  DEN d   1      -1.262   5.443  -4.102  0.00  0.00     0.027 A 
ATOM      4  C4  DEN d   1       0.732   5.056  -2.513  0.00  0.00     0.027 A 
ATOM      5  C5  DEN d   1       1.780   4.214  -2.211  0.00  0.00    -0.003 A 
ATOM      6  C6  DEN d   1       2.016   3.061  -2.912  0.00  0.00     0.001 A 
ATOM      7  C7  DEN d   1       1.220   2.741  -3.980  0.00  0.00     0.017 A 
ATOM      8  C8  DEN d   1       0.157   3.581  -4.286  0.00  0.00    -0.094 A 
ATOM      9  C9  DEN d   1      -0.058   4.748  -3.573  0.00  0.00    -0.072 A 
ENDROOT
TORSDOF 0
ENDMDL
