MODEL 1
REMARK minimizedAffinity 6.99716997
REMARK minimizedRMSD -1
REMARK  0 active torsions:
REMARK  status: ('A' for Active; 'I' for Inactive)
ROOT
ATOM      1  C1  DEN d   1       3.222   1.460  -0.538  0.00  0.00     0.130 A 
ATOM      2  C2  DEN d   1       2.000   1.371   0.256  0.00  0.00    -0.031 A 
ATOM      3  C3  DEN d   1       2.125   2.302   1.395  0.00  0.00     0.027 A 
ATOM      4  C4  DEN d   1       4.082   3.870   2.000  0.00  0.00     0.027 A 
ATOM      5  C5  DEN d   1       5.342   4.287   1.631  0.00  0.00    -0.003 A 
ATOM      6  C6  DEN d   1       5.992   3.770   0.541  0.00  0.00     0.001 A 
ATOM      7  C7  DEN d   1       5.366   2.839  -0.244  0.00  0.00     0.017 A 
ATOM      8  C8  DEN d   1       4.098   2.408   0.126  0.00  0.00    -0.094 A 
ATOM      9  C9  DEN d   1       3.453   2.952   1.224  0.00  0.00    -0.072 A 
ENDROOT
TORSDOF 0
ENDMDL
