MODEL 1
REMARK minimizedAffinity 14.3208923
REMARK minimizedRMSD -1
REMARK  0 active torsions:
REMARK  status: ('A' for Active; 'I' for Inactive)
ROOT
ATOM      1  C1  DEN d   1       2.839   3.844  -2.158  0.00  0.00     0.130 A 
ATOM      2  C2  DEN d   1       1.630   3.211  -2.677  0.00  0.00    -0.031 A 
ATOM      3  C3  DEN d   1       1.897   2.783  -4.065  0.00  0.00     0.027 A 
ATOM      4  C4  DEN d   1       4.056   3.035  -5.453  0.00  0.00     0.027 A 
ATOM      5  C5  DEN d   1       5.346   3.518  -5.444  0.00  0.00    -0.003 A 
ATOM      6  C6  DEN d   1       5.875   4.168  -4.361  0.00  0.00     0.001 A 
ATOM      7  C7  DEN d   1       5.126   4.313  -3.223  0.00  0.00     0.017 A 
ATOM      8  C8  DEN d   1       3.822   3.836  -3.227  0.00  0.00    -0.094 A 
ATOM      9  C9  DEN d   1       3.309   3.171  -4.328  0.00  0.00    -0.072 A 
ENDROOT
TORSDOF 0
ENDMDL
