MODEL 1
REMARK minimizedAffinity 19.6873932
REMARK minimizedRMSD -1
REMARK  0 active torsions:
REMARK  status: ('A' for Active; 'I' for Inactive)
ROOT
ATOM      1  C1  DEN d   1      -3.957  -0.940   0.219  0.00  0.00     0.130 A 
ATOM      2  C2  DEN d   1      -4.887   0.104   0.642  0.00  0.00    -0.031 A 
ATOM      3  C3  DEN d   1      -4.280   0.821   1.781  0.00  0.00     0.027 A 
ATOM      4  C4  DEN d   1      -2.001   0.422   2.922  0.00  0.00     0.027 A 
ATOM      5  C5  DEN d   1      -0.867  -0.360   2.921  0.00  0.00    -0.003 A 
ATOM      6  C6  DEN d   1      -0.700  -1.403   2.048  0.00  0.00     0.001 A 
ATOM      7  C7  DEN d   1      -1.663  -1.664   1.110  0.00  0.00     0.017 A 
ATOM      8  C8  DEN d   1      -2.812  -0.885   1.110  0.00  0.00    -0.094 A 
ATOM      9  C9  DEN d   1      -2.958   0.172   1.992  0.00  0.00    -0.072 A 
ENDROOT
TORSDOF 0
ENDMDL
