MODEL 1
REMARK minimizedAffinity 16.6524353
REMARK minimizedRMSD -1
REMARK  0 active torsions:
REMARK  status: ('A' for Active; 'I' for Inactive)
ROOT
ATOM      1  C1  DEN d   1      -1.236  -2.531   1.460  0.00  0.00     0.130 A 
ATOM      2  C2  DEN d   1      -1.601  -1.297   2.150  0.00  0.00    -0.031 A 
ATOM      3  C3  DEN d   1      -0.362  -0.674   2.658  0.00  0.00     0.027 A 
ATOM      4  C4  DEN d   1       2.073  -1.494   2.440  0.00  0.00     0.027 A 
ATOM      5  C5  DEN d   1       2.880  -2.497   1.950  0.00  0.00    -0.003 A 
ATOM      6  C6  DEN d   1       2.373  -3.590   1.298  0.00  0.00     0.001 A 
ATOM      7  C7  DEN d   1       1.024  -3.683   1.078  0.00  0.00     0.017 A 
ATOM      8  C8  DEN d   1       0.204  -2.680   1.575  0.00  0.00    -0.094 A 
ATOM      9  C9  DEN d   1       0.737  -1.577   2.221  0.00  0.00    -0.072 A 
ENDROOT
TORSDOF 0
ENDMDL
