MODEL 1
REMARK minimizedAffinity 13.8857374
REMARK minimizedRMSD -1
REMARK  0 active torsions:
REMARK  status: ('A' for Active; 'I' for Inactive)
ROOT
ATOM      1  C1  DEN d   1      -1.876  -2.335   1.677  0.00  0.00     0.130 A 
ATOM      2  C2  DEN d   1      -0.596  -1.876   2.209  0.00  0.00    -0.031 A 
ATOM      3  C3  DEN d   1      -0.744  -0.459   2.597  0.00  0.00     0.027 A 
ATOM      4  C4  DEN d   1      -2.823   1.060   2.430  0.00  0.00     0.027 A 
ATOM      5  C5  DEN d   1      -4.140   1.120   2.033  0.00  0.00    -0.003 A 
ATOM      6  C6  DEN d   1      -4.780   0.051   1.463  0.00  0.00     0.001 A 
ATOM      7  C7  DEN d   1      -4.116  -1.138   1.315  0.00  0.00     0.017 A 
ATOM      8  C8  DEN d   1      -2.786  -1.204   1.706  0.00  0.00    -0.094 A 
ATOM      9  C9  DEN d   1      -2.160  -0.116   2.292  0.00  0.00    -0.072 A 
ENDROOT
TORSDOF 0
ENDMDL
