MODEL 1
REMARK minimizedAffinity 24.610939
REMARK minimizedRMSD -1
REMARK  0 active torsions:
REMARK  status: ('A' for Active; 'I' for Inactive)
ROOT
ATOM      1  C1  DEN d   1      -3.744   5.028   5.993  0.00  0.00     0.130 A 
ATOM      2  C2  DEN d   1      -4.935   5.872   5.954  0.00  0.00    -0.031 A 
ATOM      3  C3  DEN d   1      -5.999   5.129   5.250  0.00  0.00     0.027 A 
ATOM      4  C4  DEN d   1      -5.921   2.762   4.228  0.00  0.00     0.027 A 
ATOM      5  C5  DEN d   1      -5.123   1.661   4.004  0.00  0.00    -0.003 A 
ATOM      6  C6  DEN d   1      -3.811   1.620   4.394  0.00  0.00     0.001 A 
ATOM      7  C7  DEN d   1      -3.269   2.681   5.069  0.00  0.00     0.017 A 
ATOM      8  C8  DEN d   1      -4.065   3.797   5.292  0.00  0.00    -0.094 A 
ATOM      9  C9  DEN d   1      -5.393   3.815   4.901  0.00  0.00    -0.072 A 
ENDROOT
TORSDOF 0
ENDMDL
