MODEL 1
REMARK minimizedAffinity 21.1675129
REMARK minimizedRMSD -1
REMARK  0 active torsions:
REMARK  status: ('A' for Active; 'I' for Inactive)
ROOT
ATOM      1  C1  DEN d   1       2.866   4.121  -6.000  0.00  0.00     0.130 A 
ATOM      2  C2  DEN d   1       4.115   3.365  -5.999  0.00  0.00    -0.031 A 
ATOM      3  C3  DEN d   1       4.216   2.651  -4.710  0.00  0.00     0.027 A 
ATOM      4  C4  DEN d   1       2.566   2.639  -2.728  0.00  0.00     0.027 A 
ATOM      5  C5  DEN d   1       1.371   3.139  -2.260  0.00  0.00    -0.003 A 
ATOM      6  C6  DEN d   1       0.613   4.020  -2.985  0.00  0.00     0.001 A 
ATOM      7  C7  DEN d   1       1.020   4.394  -4.238  0.00  0.00     0.017 A 
ATOM      8  C8  DEN d   1       2.228   3.900  -4.714  0.00  0.00    -0.094 A 
ATOM      9  C9  DEN d   1       2.974   3.001  -3.971  0.00  0.00    -0.072 A 
ENDROOT
TORSDOF 0
ENDMDL
