MODEL 1
REMARK minimizedAffinity 22.0394878
REMARK minimizedRMSD -1
REMARK  0 active torsions:
REMARK  status: ('A' for Active; 'I' for Inactive)
ROOT
ATOM      1  C1  DEN d   1       3.040   2.828  -4.543  0.00  0.00     0.130 A 
ATOM      2  C2  DEN d   1       2.202   2.628  -3.364  0.00  0.00    -0.031 A 
ATOM      3  C3  DEN d   1       2.735   3.473  -2.276  0.00  0.00     0.027 A 
ATOM      4  C4  DEN d   1       4.763   5.067  -2.305  0.00  0.00     0.027 A 
ATOM      5  C5  DEN d   1       5.791   5.562  -3.077  0.00  0.00    -0.003 A 
ATOM      6  C6  DEN d   1       5.993   5.158  -4.370  0.00  0.00     0.001 A 
ATOM      7  C7  DEN d   1       5.127   4.265  -4.945  0.00  0.00     0.017 A 
ATOM      8  C8  DEN d   1       4.093   3.757  -4.171  0.00  0.00    -0.094 A 
ATOM      9  C9  DEN d   1       3.898   4.187  -2.870  0.00  0.00    -0.072 A 
ENDROOT
TORSDOF 0
ENDMDL
