MODEL 1
REMARK minimizedAffinity 15.0218735
REMARK minimizedRMSD -1
REMARK  0 active torsions:
REMARK  status: ('A' for Active; 'I' for Inactive)
ROOT
ATOM      1  C1  DEN d   1       0.355  -0.198   4.237  0.00  0.00     0.130 A 
ATOM      2  C2  DEN d   1       1.216  -1.333   3.918  0.00  0.00    -0.031 A 
ATOM      3  C3  DEN d   1       0.680  -1.987   2.707  0.00  0.00     0.027 A 
ATOM      4  C4  DEN d   1      -1.386  -1.352   1.300  0.00  0.00     0.027 A 
ATOM      5  C5  DEN d   1      -2.438  -0.471   1.185  0.00  0.00    -0.003 A 
ATOM      6  C6  DEN d   1      -2.651   0.534   2.091  0.00  0.00     0.001 A 
ATOM      7  C7  DEN d   1      -1.773   0.711   3.128  0.00  0.00     0.017 A 
ATOM      8  C8  DEN d   1      -0.714  -0.179   3.254  0.00  0.00    -0.094 A 
ATOM      9  C9  DEN d   1      -0.509  -1.181   2.321  0.00  0.00    -0.072 A 
ENDROOT
TORSDOF 0
ENDMDL
