MODEL 1
REMARK minimizedAffinity 13.7439384
REMARK minimizedRMSD -1
REMARK  0 active torsions:
REMARK  status: ('A' for Active; 'I' for Inactive)
ROOT
ATOM      1  C1  DEN d   1      -0.671  -1.409   2.051  0.00  0.00     0.130 A 
ATOM      2  C2  DEN d   1      -1.742  -1.064   1.121  0.00  0.00    -0.031 A 
ATOM      3  C3  DEN d   1      -2.601  -0.053   1.768  0.00  0.00     0.027 A 
ATOM      4  C4  DEN d   1      -2.377   1.010   4.107  0.00  0.00     0.027 A 
ATOM      5  C5  DEN d   1      -1.633   1.025   5.266  0.00  0.00    -0.003 A 
ATOM      6  C6  DEN d   1      -0.545   0.213   5.447  0.00  0.00     0.001 A 
ATOM      7  C7  DEN d   1      -0.143  -0.618   4.435  0.00  0.00     0.017 A 
ATOM      8  C8  DEN d   1      -0.892  -0.645   3.266  0.00  0.00    -0.094 A 
ATOM      9  C9  DEN d   1      -1.982   0.194   3.098  0.00  0.00    -0.072 A 
ENDROOT
TORSDOF 0
ENDMDL
