MODEL 1
REMARK minimizedAffinity 11.2992506
REMARK minimizedRMSD -1
REMARK  0 active torsions:
REMARK  status: ('A' for Active; 'I' for Inactive)
ROOT
ATOM      1  C1  DEN d   1      -1.215  -0.028   3.035  0.00  0.00     0.130 A 
ATOM      2  C2  DEN d   1      -1.783   1.311   2.912  0.00  0.00    -0.031 A 
ATOM      3  C3  DEN d   1      -0.857   2.127   2.101  0.00  0.00     0.027 A 
ATOM      4  C4  DEN d   1       1.388   1.448   1.026  0.00  0.00     0.027 A 
ATOM      5  C5  DEN d   1       2.289   0.419   0.865  0.00  0.00    -0.003 A 
ATOM      6  C6  DEN d   1       2.104  -0.811   1.439  0.00  0.00     0.001 A 
ATOM      7  C7  DEN d   1       0.969  -1.057   2.165  0.00  0.00     0.017 A 
ATOM      8  C8  DEN d   1       0.059  -0.022   2.338  0.00  0.00    -0.094 A 
ATOM      9  C9  DEN d   1       0.258   1.210   1.740  0.00  0.00    -0.072 A 
ENDROOT
TORSDOF 0
ENDMDL
