MODEL 1
REMARK minimizedAffinity 12.0848589
REMARK minimizedRMSD -1
REMARK  0 active torsions:
REMARK  status: ('A' for Active; 'I' for Inactive)
ROOT
ATOM      1  C1  DEN d   1      -1.373  -2.075   1.125  0.00  0.00     0.130 A 
ATOM      2  C2  DEN d   1      -0.114  -1.951   1.854  0.00  0.00    -0.031 A 
ATOM      3  C3  DEN d   1      -0.216  -0.777   2.744  0.00  0.00     0.027 A 
ATOM      4  C4  DEN d   1      -2.192   0.849   3.065  0.00  0.00     0.027 A 
ATOM      5  C5  DEN d   1      -3.471   1.156   2.656  0.00  0.00    -0.003 A 
ATOM      6  C6  DEN d   1      -4.122   0.434   1.691  0.00  0.00     0.001 A 
ATOM      7  C7  DEN d   1      -3.513  -0.660   1.135  0.00  0.00     0.017 A 
ATOM      8  C8  DEN d   1      -2.221  -0.971   1.537  0.00  0.00    -0.094 A 
ATOM      9  C9  DEN d   1      -1.584  -0.236   2.523  0.00  0.00    -0.072 A 
ENDROOT
TORSDOF 0
ENDMDL
