MODEL 1
REMARK minimizedAffinity 12.688303
REMARK minimizedRMSD -1
REMARK  0 active torsions:
REMARK  status: ('A' for Active; 'I' for Inactive)
ROOT
ATOM      1  C1  DEN d   1      -4.116  -0.418   0.364  0.00  0.00     0.130 A 
ATOM      2  C2  DEN d   1      -4.997   0.725   0.590  0.00  0.00    -0.031 A 
ATOM      3  C3  DEN d   1      -4.433   1.524   1.696  0.00  0.00     0.027 A 
ATOM      4  C4  DEN d   1      -2.291   1.108   3.071  0.00  0.00     0.027 A 
ATOM      5  C5  DEN d   1      -1.222   0.259   3.253  0.00  0.00    -0.003 A 
ATOM      6  C6  DEN d   1      -1.062  -0.883   2.515  0.00  0.00     0.001 A 
ATOM      7  C7  DEN d   1      -1.962  -1.185   1.527  0.00  0.00     0.017 A 
ATOM      8  C8  DEN d   1      -3.047  -0.338   1.342  0.00  0.00    -0.094 A 
ATOM      9  C9  DEN d   1      -3.184   0.819   2.091  0.00  0.00    -0.072 A 
ENDROOT
TORSDOF 0
ENDMDL
