MODEL 1
REMARK minimizedAffinity 14.2055197
REMARK minimizedRMSD -1
REMARK  0 active torsions:
REMARK  status: ('A' for Active; 'I' for Inactive)
ROOT
ATOM      1  C1  DEN d   1       1.534   4.461  -2.324  0.00  0.00     0.130 A 
ATOM      2  C2  DEN d   1       1.491   3.167  -2.999  0.00  0.00    -0.031 A 
ATOM      3  C3  DEN d   1       2.881   2.699  -3.177  0.00  0.00     0.027 A 
ATOM      4  C4  DEN d   1       5.082   3.845  -2.473  0.00  0.00     0.027 A 
ATOM      5  C5  DEN d   1       5.625   4.962  -1.879  0.00  0.00    -0.003 A 
ATOM      6  C6  DEN d   1       4.852   5.998  -1.426  0.00  0.00     0.001 A 
ATOM      7  C7  DEN d   1       3.487   5.917  -1.519  0.00  0.00     0.017 A 
ATOM      8  C8  DEN d   1       2.932   4.797  -2.123  0.00  0.00    -0.094 A 
ATOM      9  C9  DEN d   1       3.731   3.755  -2.564  0.00  0.00    -0.072 A 
ENDROOT
TORSDOF 0
ENDMDL
