MODEL 1
REMARK minimizedAffinity 1.48717928
REMARK minimizedRMSD -1
REMARK  0 active torsions:
REMARK  status: ('A' for Active; 'I' for Inactive)
ROOT
ATOM      1  C   UNL d   1      -2.596   1.054   0.730  0.00  0.00     0.023 A 
ATOM      2  C1  UNL d   1      -2.017   2.252   0.313  0.00  0.00     0.003 A 
ATOM      3  C2  UNL d   1      -0.645   2.459   0.472  0.00  0.00     0.048 A 
ATOM      4  C3  UNL d   1       0.142   1.463   1.049  0.00  0.00     0.023 A 
ATOM      5  C4  UNL d   1      -0.433   0.261   1.467  0.00  0.00     0.048 A 
ATOM      6  C5  UNL d   1      -1.805   0.060   1.306  0.00  0.00     0.003 A 
ATOM      7  I   UNL d   1       2.184   1.768   1.287  0.00  0.00    -0.146 I 
ENDROOT
TORSDOF 0
ENDMDL
