MODEL 1
REMARK minimizedAffinity -1.90886819
REMARK minimizedRMSD -1
REMARK  0 active torsions:
REMARK  status: ('A' for Active; 'I' for Inactive)
ROOT
ATOM      1  C   UNL d   1      -0.425   0.895   0.889  0.00  0.00     0.023 A 
ATOM      2  C1  UNL d   1      -1.533   0.798   0.048  0.00  0.00     0.003 A 
ATOM      3  C2  UNL d   1      -1.654  -0.282  -0.829  0.00  0.00     0.048 A 
ATOM      4  C3  UNL d   1      -0.664  -1.263  -0.858  0.00  0.00     0.023 A 
ATOM      5  C4  UNL d   1       0.447  -1.171  -0.017  0.00  0.00     0.048 A 
ATOM      6  C5  UNL d   1       0.564  -0.089   0.856  0.00  0.00     0.003 A 
ATOM      7  I   UNL d   1      -0.842  -2.872  -2.161  0.00  0.00    -0.146 I 
ENDROOT
TORSDOF 0
ENDMDL
