MODEL 1
REMARK minimizedAffinity -4.88528252
REMARK minimizedRMSD -1
REMARK  0 active torsions:
REMARK  status: ('A' for Active; 'I' for Inactive)
ROOT
ATOM      1  C   UNL d   1       1.700   3.362   0.193  0.00  0.00     0.023 A 
ATOM      2  C1  UNL d   1       0.328   3.142   0.061  0.00  0.00     0.003 A 
ATOM      3  C2  UNL d   1      -0.159   1.843  -0.099  0.00  0.00     0.048 A 
ATOM      4  C3  UNL d   1       0.730   0.769  -0.126  0.00  0.00     0.023 A 
ATOM      5  C4  UNL d   1       2.102   0.985   0.006  0.00  0.00     0.048 A 
ATOM      6  C5  UNL d   1       2.585   2.285   0.166  0.00  0.00     0.003 A 
ATOM      7  I   UNL d   1       0.006  -1.164  -0.365  0.00  0.00    -0.146 I 
ENDROOT
TORSDOF 0
ENDMDL
