MODEL 1
REMARK minimizedAffinity 4.85954237
REMARK minimizedRMSD -1
REMARK  0 active torsions:
REMARK  status: ('A' for Active; 'I' for Inactive)
ROOT
ATOM      1  C   UNL d   1      -1.105   2.459   1.325  0.00  0.00     0.023 A 
ATOM      2  C1  UNL d   1      -1.958   2.144   0.267  0.00  0.00     0.003 A 
ATOM      3  C2  UNL d   1      -2.070   0.823  -0.171  0.00  0.00     0.048 A 
ATOM      4  C3  UNL d   1      -1.327  -0.178   0.453  0.00  0.00     0.023 A 
ATOM      5  C4  UNL d   1      -0.472   0.133   1.512  0.00  0.00     0.048 A 
ATOM      6  C5  UNL d   1      -0.363   1.455   1.947  0.00  0.00     0.003 A 
ATOM      7  I   UNL d   1      -1.491  -2.145  -0.198  0.00  0.00    -0.146 I 
ENDROOT
TORSDOF 0
ENDMDL
