MODEL 1
REMARK minimizedAffinity -2.94063735
REMARK minimizedRMSD -1
REMARK  0 active torsions:
REMARK  status: ('A' for Active; 'I' for Inactive)
ROOT
ATOM      1  C   UNL d   1       2.264   2.741   0.186  0.00  0.00     0.023 A 
ATOM      2  C1  UNL d   1       1.125   3.453   0.560  0.00  0.00     0.003 A 
ATOM      3  C2  UNL d   1      -0.074   2.779   0.802  0.00  0.00     0.048 A 
ATOM      4  C3  UNL d   1      -0.126   1.392   0.669  0.00  0.00     0.023 A 
ATOM      5  C4  UNL d   1       1.012   0.674   0.296  0.00  0.00     0.048 A 
ATOM      6  C5  UNL d   1       2.208   1.353   0.054  0.00  0.00     0.003 A 
ATOM      7  I   UNL d   1      -1.908   0.386   1.028  0.00  0.00    -0.146 I 
ENDROOT
TORSDOF 0
ENDMDL
