MODEL 1
REMARK minimizedAffinity -1.30961812
REMARK minimizedRMSD -1
REMARK  0 active torsions:
REMARK  status: ('A' for Active; 'I' for Inactive)
ROOT
ATOM      1  C   UNL d   1      -0.499   2.816   1.028  0.00  0.00     0.023 A 
ATOM      2  C1  UNL d   1      -0.972   1.564   0.638  0.00  0.00     0.003 A 
ATOM      3  C2  UNL d   1      -0.079   0.583   0.203  0.00  0.00     0.048 A 
ATOM      4  C3  UNL d   1       1.287   0.861   0.162  0.00  0.00     0.023 A 
ATOM      5  C4  UNL d   1       1.765   2.112   0.553  0.00  0.00     0.048 A 
ATOM      6  C5  UNL d   1       0.868   3.090   0.986  0.00  0.00     0.003 A 
ATOM      7  I   UNL d   1       2.619  -0.598  -0.485  0.00  0.00    -0.146 I 
ENDROOT
TORSDOF 0
ENDMDL
