MODEL 1
REMARK minimizedAffinity -3.99386978
REMARK minimizedRMSD -1
REMARK  0 active torsions:
REMARK  status: ('A' for Active; 'I' for Inactive)
ROOT
ATOM      1  C   UNL d   1      -1.458  -3.722  -1.964  0.00  0.00     0.023 A 
ATOM      2  C1  UNL d   1      -1.269  -3.805  -0.584  0.00  0.00     0.003 A 
ATOM      3  C2  UNL d   1      -0.365  -2.950   0.051  0.00  0.00     0.048 A 
ATOM      4  C3  UNL d   1       0.346  -2.015  -0.700  0.00  0.00     0.023 A 
ATOM      5  C4  UNL d   1       0.160  -1.928  -2.081  0.00  0.00     0.048 A 
ATOM      6  C5  UNL d   1      -0.744  -2.785  -2.711  0.00  0.00     0.003 A 
ATOM      7  I   UNL d   1       1.692  -0.742   0.243  0.00  0.00    -0.146 I 
ENDROOT
TORSDOF 0
ENDMDL
