MODEL 1
REMARK minimizedAffinity 0.0964627489
REMARK minimizedRMSD -1
REMARK  0 active torsions:
REMARK  status: ('A' for Active; 'I' for Inactive)
ROOT
ATOM      1  C   UNL d   1      -0.402  -1.593  -0.756  0.00  0.00     0.023 A 
ATOM      2  C1  UNL d   1       0.653  -1.158   0.046  0.00  0.00     0.003 A 
ATOM      3  C2  UNL d   1       0.683   0.160   0.508  0.00  0.00     0.048 A 
ATOM      4  C3  UNL d   1      -0.346   1.036   0.164  0.00  0.00     0.023 A 
ATOM      5  C4  UNL d   1      -1.404   0.605  -0.638  0.00  0.00     0.048 A 
ATOM      6  C5  UNL d   1      -1.429  -0.713  -1.098  0.00  0.00     0.003 A 
ATOM      7  I   UNL d   1      -0.304   2.998   0.851  0.00  0.00    -0.146 I 
ENDROOT
TORSDOF 0
ENDMDL
