MODEL 1
REMARK minimizedAffinity -3.22130752
REMARK minimizedRMSD -1
REMARK  0 active torsions:
REMARK  status: ('A' for Active; 'I' for Inactive)
ROOT
ATOM      1  C   UNL d   1       0.215   2.271   0.805  0.00  0.00     0.023 A 
ATOM      2  C1  UNL d   1      -1.040   1.766   0.465  0.00  0.00     0.003 A 
ATOM      3  C2  UNL d   1      -1.184   0.419   0.127  0.00  0.00     0.048 A 
ATOM      4  C3  UNL d   1      -0.069  -0.418   0.132  0.00  0.00     0.023 A 
ATOM      5  C4  UNL d   1       1.189   0.082   0.473  0.00  0.00     0.048 A 
ATOM      6  C5  UNL d   1       1.328   1.430   0.809  0.00  0.00     0.003 A 
ATOM      7  I   UNL d   1      -0.281  -2.424  -0.370  0.00  0.00    -0.146 I 
ENDROOT
TORSDOF 0
ENDMDL
