MODEL 1
REMARK minimizedAffinity -5.01243734
REMARK minimizedRMSD -1
REMARK  0 active torsions:
REMARK  status: ('A' for Active; 'I' for Inactive)
ROOT
ATOM      1  C   UNL d   1       1.134   2.999   1.202  0.00  0.00     0.023 A 
ATOM      2  C1  UNL d   1      -0.148   2.608   0.814  0.00  0.00     0.003 A 
ATOM      3  C2  UNL d   1      -0.378   1.302   0.376  0.00  0.00     0.048 A 
ATOM      4  C3  UNL d   1       0.677   0.392   0.329  0.00  0.00     0.023 A 
ATOM      5  C4  UNL d   1       1.961   0.779   0.717  0.00  0.00     0.048 A 
ATOM      6  C5  UNL d   1       2.187   2.086   1.153  0.00  0.00     0.003 A 
ATOM      7  I   UNL d   1       0.337  -1.552  -0.323  0.00  0.00    -0.146 I 
ENDROOT
TORSDOF 0
ENDMDL
