MODEL 1
REMARK minimizedAffinity -4.04496813
REMARK minimizedRMSD -1
REMARK  0 active torsions:
REMARK  status: ('A' for Active; 'I' for Inactive)
ROOT
ATOM      1  C   UNL d   1       2.221   3.533   0.125  0.00  0.00     0.023 A 
ATOM      2  C1  UNL d   1       0.842   3.711   0.022  0.00  0.00     0.003 A 
ATOM      3  C2  UNL d   1      -0.001   2.602  -0.082  0.00  0.00     0.048 A 
ATOM      4  C3  UNL d   1       0.544   1.318  -0.082  0.00  0.00     0.023 A 
ATOM      5  C4  UNL d   1       1.924   1.135   0.022  0.00  0.00     0.048 A 
ATOM      6  C5  UNL d   1       2.762   2.247   0.125  0.00  0.00     0.003 A 
ATOM      7  I   UNL d   1      -0.708  -0.334  -0.237  0.00  0.00    -0.146 I 
ENDROOT
TORSDOF 0
ENDMDL
