MODEL 1
REMARK minimizedAffinity -3.54029536
REMARK minimizedRMSD -1
REMARK  0 active torsions:
REMARK  status: ('A' for Active; 'I' for Inactive)
ROOT
ATOM      1  C   UNL d   1       0.056  -1.349   0.644  0.00  0.00     0.023 A 
ATOM      2  C1  UNL d   1       1.333  -0.799   0.531  0.00  0.00     0.003 A 
ATOM      3  C2  UNL d   1       1.501   0.588   0.543  0.00  0.00     0.048 A 
ATOM      4  C3  UNL d   1       0.388   1.418   0.670  0.00  0.00     0.023 A 
ATOM      5  C4  UNL d   1      -0.892   0.872   0.784  0.00  0.00     0.048 A 
ATOM      6  C5  UNL d   1      -1.055  -0.515   0.770  0.00  0.00     0.003 A 
ATOM      7  I   UNL d   1       0.635   3.481   0.688  0.00  0.00    -0.146 I 
ENDROOT
TORSDOF 0
ENDMDL
