MODEL 1
REMARK minimizedAffinity -5.36450863
REMARK minimizedRMSD -1
REMARK  0 active torsions:
REMARK  status: ('A' for Active; 'I' for Inactive)
ROOT
ATOM      1  C   UNL d   1       1.788  -1.487   0.347  0.00  0.00     0.023 A 
ATOM      2  C1  UNL d   1       0.421  -1.227   0.445  0.00  0.00     0.003 A 
ATOM      3  C2  UNL d   1      -0.049   0.086   0.373  0.00  0.00     0.048 A 
ATOM      4  C3  UNL d   1       0.854   1.134   0.203  0.00  0.00     0.023 A 
ATOM      5  C4  UNL d   1       2.223   0.879   0.104  0.00  0.00     0.048 A 
ATOM      6  C5  UNL d   1       2.688  -0.435   0.177  0.00  0.00     0.003 A 
ATOM      7  I   UNL d   1       0.158   3.090   0.095  0.00  0.00    -0.146 I 
ENDROOT
TORSDOF 0
ENDMDL
