MODEL 1
REMARK minimizedAffinity 1.35766923
REMARK minimizedRMSD -1
REMARK  0 active torsions:
REMARK  status: ('A' for Active; 'I' for Inactive)
ROOT
ATOM      1  C   UNL d   1      -0.931  -3.721  -2.903  0.00  0.00     0.023 A 
ATOM      2  C1  UNL d   1      -1.482  -3.238  -1.716  0.00  0.00     0.003 A 
ATOM      3  C2  UNL d   1      -0.714  -2.447  -0.859  0.00  0.00     0.048 A 
ATOM      4  C3  UNL d   1       0.604  -2.141  -1.196  0.00  0.00     0.023 A 
ATOM      5  C4  UNL d   1       1.159  -2.621  -2.383  0.00  0.00     0.048 A 
ATOM      6  C5  UNL d   1       0.388  -3.413  -3.236  0.00  0.00     0.003 A 
ATOM      7  I   UNL d   1       1.748  -0.963   0.078  0.00  0.00    -0.146 I 
ENDROOT
TORSDOF 0
ENDMDL
