MODEL 1
REMARK minimizedAffinity -3.22859693
REMARK minimizedRMSD -1
REMARK  0 active torsions:
REMARK  status: ('A' for Active; 'I' for Inactive)
ROOT
ATOM      1  C   UNL d   1       1.130   3.308   0.364  0.00  0.00     0.023 A 
ATOM      2  C1  UNL d   1       2.104   2.326   0.182  0.00  0.00     0.003 A 
ATOM      3  C2  UNL d   1       1.736   0.981   0.108  0.00  0.00     0.048 A 
ATOM      4  C3  UNL d   1       0.392   0.625   0.216  0.00  0.00     0.023 A 
ATOM      5  C4  UNL d   1      -0.586   1.604   0.397  0.00  0.00     0.048 A 
ATOM      6  C5  UNL d   1      -0.213   2.947   0.472  0.00  0.00     0.003 A 
ATOM      7  I   UNL d   1      -0.158  -1.376   0.105  0.00  0.00    -0.146 I 
ENDROOT
TORSDOF 0
ENDMDL
