MODEL 1
REMARK minimizedAffinity -3.95565438
REMARK minimizedRMSD -1
REMARK  0 active torsions:
REMARK  status: ('A' for Active; 'I' for Inactive)
ROOT
ATOM      1  C   UNL d   1       0.145  -1.011   0.183  0.00  0.00     0.023 A 
ATOM      2  C1  UNL d   1      -0.962  -0.164   0.238  0.00  0.00     0.003 A 
ATOM      3  C2  UNL d   1      -0.783   1.221   0.257  0.00  0.00     0.048 A 
ATOM      4  C3  UNL d   1       0.506   1.752   0.220  0.00  0.00     0.023 A 
ATOM      5  C4  UNL d   1       1.617   0.908   0.164  0.00  0.00     0.048 A 
ATOM      6  C5  UNL d   1       1.433  -0.476   0.146  0.00  0.00     0.003 A 
ATOM      7  I   UNL d   1       0.775   3.812   0.249  0.00  0.00    -0.146 I 
ENDROOT
TORSDOF 0
ENDMDL
