MODEL 1
REMARK minimizedAffinity -3.72324133
REMARK minimizedRMSD -1
REMARK  0 active torsions:
REMARK  status: ('A' for Active; 'I' for Inactive)
ROOT
ATOM      1  C   UNL d   1      -0.726   1.017   2.567  0.00  0.00     0.023 A 
ATOM      2  C1  UNL d   1       0.603   0.932   2.151  0.00  0.00     0.003 A 
ATOM      3  C2  UNL d   1       0.904   0.542   0.844  0.00  0.00     0.048 A 
ATOM      4  C3  UNL d   1      -0.130   0.239  -0.042  0.00  0.00     0.023 A 
ATOM      5  C4  UNL d   1      -1.461   0.324   0.370  0.00  0.00     0.048 A 
ATOM      6  C5  UNL d   1      -1.756   0.713   1.677  0.00  0.00     0.003 A 
ATOM      7  I   UNL d   1       0.315  -0.341  -1.987  0.00  0.00    -0.146 I 
ENDROOT
TORSDOF 0
ENDMDL
