MODEL 1
REMARK minimizedAffinity -4.63901424
REMARK minimizedRMSD -1
REMARK  0 active torsions:
REMARK  status: ('A' for Active; 'I' for Inactive)
ROOT
ATOM      1  C   UNL d   1      -0.510   0.954   3.355  0.00  0.00     0.023 A 
ATOM      2  C1  UNL d   1       0.831   0.685   3.080  0.00  0.00     0.003 A 
ATOM      3  C2  UNL d   1       1.220   0.318   1.790  0.00  0.00     0.048 A 
ATOM      4  C3  UNL d   1       0.263   0.224   0.780  0.00  0.00     0.023 A 
ATOM      5  C4  UNL d   1      -1.079   0.494   1.050  0.00  0.00     0.048 A 
ATOM      6  C5  UNL d   1      -1.464   0.859   2.342  0.00  0.00     0.003 A 
ATOM      7  I   UNL d   1       0.840  -0.321  -1.141  0.00  0.00    -0.146 I 
ENDROOT
TORSDOF 0
ENDMDL
