MODEL 1
REMARK minimizedAffinity -3.78742838
REMARK minimizedRMSD -1
REMARK  0 active torsions:
REMARK  status: ('A' for Active; 'I' for Inactive)
ROOT
ATOM      1  C   UNL d   1      -0.006   0.010   3.207  0.00  0.00     0.023 A 
ATOM      2  C1  UNL d   1      -1.014   0.430   2.339  0.00  0.00     0.003 A 
ATOM      3  C2  UNL d   1      -0.832   0.339   0.958  0.00  0.00     0.048 A 
ATOM      4  C3  UNL d   1       0.361  -0.173   0.450  0.00  0.00     0.023 A 
ATOM      5  C4  UNL d   1       1.373  -0.596   1.314  0.00  0.00     0.048 A 
ATOM      6  C5  UNL d   1       1.186  -0.503   2.695  0.00  0.00     0.003 A 
ATOM      7  I   UNL d   1       0.635  -0.309  -1.605  0.00  0.00    -0.146 I 
ENDROOT
TORSDOF 0
ENDMDL
