MODEL 1
REMARK minimizedAffinity 5.3287878
REMARK minimizedRMSD -1
REMARK  2 active torsions:
REMARK  status: ('A' for Active; 'I' for Inactive)
REMARK    1  A    between atoms: C2'_3  and  C1'_4 
REMARK    2  A    between atoms: C1'_4  and  C1_5 
ROOT
ATOM      1  C1  I4B d   1       2.015  -0.056   1.185  0.00  0.00    -0.075 A 
ATOM      2  C2  I4B d   1       2.744  -0.906   1.979  0.00  0.00     0.003 A 
ATOM      3  C3  I4B d   1       3.020  -2.225   1.546  0.00  0.00     0.002 A 
ATOM      4  C4  I4B d   1       2.508  -2.667   0.343  0.00  0.00    -0.004 A 
ATOM      5  C5  I4B d   1       1.789  -1.796  -0.471  0.00  0.00     0.002 A 
ATOM      6  C6  I4B d   1       1.551  -0.479  -0.054  0.00  0.00     0.003 A 
ENDROOT
BRANCH   1   7
ATOM      7  C1' I4B d   1       1.715   1.320   1.688  0.00  0.00     0.060 C 
BRANCH   7   8
ATOM      8  C2' I4B d   1       2.104   2.308   0.607  0.00  0.00    -0.013 C 
ATOM      9  C4' I4B d   1       0.921   3.130   0.169  0.00  0.00     0.013 C 
ATOM     10  C3' I4B d   1       3.198   3.179   1.148  0.00  0.00     0.013 C 
ENDBRANCH   7   8
ENDBRANCH   1   7
TORSDOF 2
ENDMDL
