MODEL 1
REMARK minimizedAffinity 0.613968909
REMARK minimizedRMSD -1
REMARK  2 active torsions:
REMARK  status: ('A' for Active; 'I' for Inactive)
REMARK    1  A    between atoms: C2'_3  and  C1'_4 
REMARK    2  A    between atoms: C1'_4  and  C1_5 
ROOT
ATOM      1  C1  I4B d   1       1.866  -1.707  -0.527  0.00  0.00    -0.075 A 
ATOM      2  C2  I4B d   1       2.756  -1.389   0.468  0.00  0.00     0.003 A 
ATOM      3  C3  I4B d   1       2.607  -0.187   1.201  0.00  0.00     0.002 A 
ATOM      4  C4  I4B d   1       1.589   0.686   0.874  0.00  0.00    -0.004 A 
ATOM      5  C5  I4B d   1       0.674   0.352  -0.120  0.00  0.00     0.002 A 
ATOM      6  C6  I4B d   1       0.805  -0.858  -0.817  0.00  0.00     0.003 A 
ENDROOT
BRANCH   1   7
ATOM      7  C1' I4B d   1       2.073  -2.969  -1.303  0.00  0.00     0.060 C 
BRANCH   7   8
ATOM      8  C2' I4B d   1       2.547  -2.590  -2.692  0.00  0.00    -0.013 C 
ATOM      9  C4' I4B d   1       3.868  -3.238  -3.012  0.00  0.00     0.013 C 
ATOM     10  C3' I4B d   1       1.489  -3.004  -3.671  0.00  0.00     0.013 C 
ENDBRANCH   7   8
ENDBRANCH   1   7
TORSDOF 2
ENDMDL
