MODEL 1
REMARK minimizedAffinity 11.418066
REMARK minimizedRMSD -1
REMARK  2 active torsions:
REMARK  status: ('A' for Active; 'I' for Inactive)
REMARK    1  A    between atoms: C2'_3  and  C1'_4 
REMARK    2  A    between atoms: C1'_4  and  C1_5 
ROOT
ATOM      1  C1  I4B d   1       1.114   2.535   3.604  0.00  0.00    -0.075 A 
ATOM      2  C2  I4B d   1       0.012   1.807   3.979  0.00  0.00     0.003 A 
ATOM      3  C3  I4B d   1      -1.119   1.738   3.130  0.00  0.00     0.002 A 
ATOM      4  C4  I4B d   1      -1.125   2.449   1.947  0.00  0.00    -0.004 A 
ATOM      5  C5  I4B d   1       0.002   3.168   1.558  0.00  0.00     0.002 A 
ATOM      6  C6  I4B d   1       1.134   3.202   2.386  0.00  0.00     0.003 A 
ENDROOT
BRANCH   1   7
ATOM      7  C1' I4B d   1       2.279   2.613   4.540  0.00  0.00     0.060 C 
BRANCH   7   8
ATOM      8  C2' I4B d   1       3.424   3.280   3.806  0.00  0.00    -0.013 C 
ATOM      9  C4' I4B d   1       4.028   4.387   4.629  0.00  0.00     0.013 C 
ATOM     10  C3' I4B d   1       4.442   2.228   3.482  0.00  0.00     0.013 C 
ENDBRANCH   7   8
ENDBRANCH   1   7
TORSDOF 2
ENDMDL
