MODEL 1
REMARK minimizedAffinity 3.47964907
REMARK minimizedRMSD -1
REMARK  2 active torsions:
REMARK  status: ('A' for Active; 'I' for Inactive)
REMARK    1  A    between atoms: C2'_3  and  C1'_4 
REMARK    2  A    between atoms: C1'_4  and  C1_5 
ROOT
ATOM      1  C1  I4B d   1       0.096   2.137   0.429  0.00  0.00    -0.075 A 
ATOM      2  C2  I4B d   1       0.415   3.451   0.667  0.00  0.00     0.003 A 
ATOM      3  C3  I4B d   1       1.769   3.844   0.794  0.00  0.00     0.002 A 
ATOM      4  C4  I4B d   1       2.763   2.889   0.726  0.00  0.00    -0.004 A 
ATOM      5  C5  I4B d   1       2.439   1.561   0.462  0.00  0.00     0.002 A 
ATOM      6  C6  I4B d   1       1.098   1.184   0.300  0.00  0.00     0.003 A 
ENDROOT
BRANCH   1   7
ATOM      7  C1' I4B d   1      -1.346   1.751   0.334  0.00  0.00     0.060 C 
BRANCH   7   8
ATOM      8  C2' I4B d   1      -2.023   2.152   1.629  0.00  0.00    -0.013 C 
ATOM      9  C4' I4B d   1      -3.478   1.762   1.627  0.00  0.00     0.013 C 
ATOM     10  C3' I4B d   1      -1.288   1.494   2.758  0.00  0.00     0.013 C 
ENDBRANCH   7   8
ENDBRANCH   1   7
TORSDOF 2
ENDMDL
