MODEL 1
REMARK minimizedAffinity -1.34342599
REMARK minimizedRMSD -1
REMARK  2 active torsions:
REMARK  status: ('A' for Active; 'I' for Inactive)
REMARK    1  A    between atoms: C2'_3  and  C1'_4 
REMARK    2  A    between atoms: C1'_4  and  C1_5 
ROOT
ATOM      1  C1  I4B d   1       2.498  -1.372  -1.031  0.00  0.00    -0.075 A 
ATOM      2  C2  I4B d   1       3.113  -0.286  -0.461  0.00  0.00     0.003 A 
ATOM      3  C3  I4B d   1       4.081   0.448  -1.188  0.00  0.00     0.002 A 
ATOM      4  C4  I4B d   1       4.437   0.034  -2.455  0.00  0.00    -0.004 A 
ATOM      5  C5  I4B d   1       3.796  -1.054  -3.040  0.00  0.00     0.002 A 
ATOM      6  C6  I4B d   1       2.811  -1.754  -2.329  0.00  0.00     0.003 A 
ENDROOT
BRANCH   1   7
ATOM      7  C1' I4B d   1       1.504  -2.145  -0.223  0.00  0.00     0.060 C 
BRANCH   7   8
ATOM      8  C2' I4B d   1       0.205  -2.194  -1.002  0.00  0.00    -0.013 C 
ATOM      9  C4' I4B d   1      -0.253  -3.613  -1.209  0.00  0.00     0.013 C 
ATOM     10  C3' I4B d   1      -0.818  -1.399  -0.247  0.00  0.00     0.013 C 
ENDBRANCH   7   8
ENDBRANCH   1   7
TORSDOF 2
ENDMDL
