MODEL 1
REMARK minimizedAffinity -1.26781178
REMARK minimizedRMSD -1
REMARK  2 active torsions:
REMARK  status: ('A' for Active; 'I' for Inactive)
REMARK    1  A    between atoms: C2'_3  and  C1'_4 
REMARK    2  A    between atoms: C1'_4  and  C1_5 
ROOT
ATOM      1  C1  I4B d   1       2.167  -1.026  -0.481  0.00  0.00    -0.075 A 
ATOM      2  C2  I4B d   1       1.489  -2.115  -0.970  0.00  0.00     0.003 A 
ATOM      3  C3  I4B d   1       0.114  -2.014  -1.291  0.00  0.00     0.002 A 
ATOM      4  C4  I4B d   1      -0.552  -0.827  -1.063  0.00  0.00    -0.004 A 
ATOM      5  C5  I4B d   1       0.141   0.283  -0.590  0.00  0.00     0.002 A 
ATOM      6  C6  I4B d   1       1.512   0.187  -0.308  0.00  0.00     0.003 A 
ENDROOT
BRANCH   1   7
ATOM      7  C1' I4B d   1       3.610  -1.176  -0.121  0.00  0.00     0.060 C 
BRANCH   7   8
ATOM      8  C2' I4B d   1       4.277   0.174  -0.288  0.00  0.00    -0.013 C 
ATOM      9  C4' I4B d   1       5.665   0.173   0.297  0.00  0.00     0.013 C 
ATOM     10  C3' I4B d   1       4.306   0.498  -1.752  0.00  0.00     0.013 C 
ENDBRANCH   7   8
ENDBRANCH   1   7
TORSDOF 2
ENDMDL
