MODEL 1
REMARK minimizedAffinity 13.7017269
REMARK minimizedRMSD -1
REMARK  2 active torsions:
REMARK  status: ('A' for Active; 'I' for Inactive)
REMARK    1  A    between atoms: C2'_3  and  C1'_4 
REMARK    2  A    between atoms: C1'_4  and  C1_5 
ROOT
ATOM      1  C1  I4B d   1      -0.218  -2.276  -1.537  0.00  0.00    -0.075 A 
ATOM      2  C2  I4B d   1       0.986  -2.400  -0.890  0.00  0.00     0.003 A 
ATOM      3  C3  I4B d   1       1.538  -1.297  -0.194  0.00  0.00     0.002 A 
ATOM      4  C4  I4B d   1       0.882  -0.083  -0.213  0.00  0.00    -0.004 A 
ATOM      5  C5  I4B d   1      -0.350   0.034  -0.850  0.00  0.00     0.002 A 
ATOM      6  C6  I4B d   1      -0.910  -1.072  -1.506  0.00  0.00     0.003 A 
ENDROOT
BRANCH   1   7
ATOM      7  C1' I4B d   1      -0.756  -3.451  -2.289  0.00  0.00     0.060 C 
BRANCH   7   8
ATOM      8  C2' I4B d   1      -1.280  -2.953  -3.621  0.00  0.00    -0.013 C 
ATOM      9  C4' I4B d   1      -0.162  -2.433  -4.486  0.00  0.00     0.013 C 
ATOM     10  C3' I4B d   1      -1.999  -4.086  -4.289  0.00  0.00     0.013 C 
ENDBRANCH   7   8
ENDBRANCH   1   7
TORSDOF 2
ENDMDL
