MODEL 1
REMARK minimizedAffinity -1.43196869
REMARK minimizedRMSD -1
REMARK  0 active torsions:
REMARK  status: ('A' for Active; 'I' for Inactive)
ROOT
ATOM      1  C   UNL d   1      -1.826  -1.996  -1.168  0.00  0.00     0.077 C 
ATOM      2  C1  UNL d   1      -0.491  -2.095  -1.843  0.00  0.00    -0.074 A 
ATOM      3  C2  UNL d   1      -0.389  -2.483  -3.183  0.00  0.00    -0.005 A 
ATOM      4  C3  UNL d   1       0.859  -2.561  -3.800  0.00  0.00     0.006 A 
ATOM      5  C4  UNL d   1       2.017  -2.253  -3.085  0.00  0.00    -0.005 A 
ATOM      6  C5  UNL d   1       1.935  -1.863  -1.744  0.00  0.00    -0.074 A 
ATOM      7  C6  UNL d   1       3.169  -1.519  -0.964  0.00  0.00     0.077 C 
ATOM      8  C7  UNL d   1       0.676  -1.780  -1.133  0.00  0.00    -0.001 A 
ENDROOT
TORSDOF 0
ENDMDL
