MODEL 1
REMARK minimizedAffinity 4.47624588
REMARK minimizedRMSD -1
REMARK  0 active torsions:
REMARK  status: ('A' for Active; 'I' for Inactive)
ROOT
ATOM      1  C   UNL d   1       0.942  -1.810  -2.631  0.00  0.00     0.077 C 
ATOM      2  C1  UNL d   1      -0.352  -2.081  -1.922  0.00  0.00    -0.074 A 
ATOM      3  C2  UNL d   1      -1.549  -2.205  -2.634  0.00  0.00    -0.005 A 
ATOM      4  C3  UNL d   1      -2.743  -2.466  -1.962  0.00  0.00     0.006 A 
ATOM      5  C4  UNL d   1      -2.752  -2.606  -0.574  0.00  0.00    -0.005 A 
ATOM      6  C5  UNL d   1      -1.564  -2.486   0.155  0.00  0.00    -0.074 A 
ATOM      7  C6  UNL d   1      -1.555  -2.644   1.647  0.00  0.00     0.077 C 
ATOM      8  C7  UNL d   1      -0.368  -2.231  -0.528  0.00  0.00    -0.001 A 
ENDROOT
TORSDOF 0
ENDMDL
