MODEL 1
REMARK minimizedAffinity -0.789274275
REMARK minimizedRMSD -1
REMARK  0 active torsions:
REMARK  status: ('A' for Active; 'I' for Inactive)
ROOT
ATOM      1  C   UNL d   1       6.000   5.974  -1.012  0.00  0.00     0.077 C 
ATOM      2  C1  UNL d   1       5.698   5.056  -2.159  0.00  0.00    -0.074 A 
ATOM      3  C2  UNL d   1       5.957   3.684  -2.069  0.00  0.00    -0.005 A 
ATOM      4  C3  UNL d   1       5.662   2.841  -3.140  0.00  0.00     0.006 A 
ATOM      5  C4  UNL d   1       5.107   3.360  -4.310  0.00  0.00    -0.005 A 
ATOM      6  C5  UNL d   1       4.841   4.728  -4.419  0.00  0.00    -0.074 A 
ATOM      7  C6  UNL d   1       4.235   5.301  -5.666  0.00  0.00     0.077 C 
ATOM      8  C7  UNL d   1       5.133   5.568  -3.335  0.00  0.00    -0.001 A 
ENDROOT
TORSDOF 0
ENDMDL
