MODEL 1
REMARK minimizedAffinity 0.382682264
REMARK minimizedRMSD -1
REMARK  0 active torsions:
REMARK  status: ('A' for Active; 'I' for Inactive)
ROOT
ATOM      1  C   UNL d   1       5.989   4.907  -1.491  0.00  0.00     0.077 C 
ATOM      2  C1  UNL d   1       5.449   4.917  -2.890  0.00  0.00    -0.074 A 
ATOM      3  C2  UNL d   1       4.700   5.999  -3.364  0.00  0.00    -0.005 A 
ATOM      4  C3  UNL d   1       4.212   5.999  -4.671  0.00  0.00     0.006 A 
ATOM      5  C4  UNL d   1       4.468   4.918  -5.516  0.00  0.00    -0.005 A 
ATOM      6  C5  UNL d   1       5.216   3.828  -5.060  0.00  0.00    -0.074 A 
ATOM      7  C6  UNL d   1       5.508   2.663  -5.958  0.00  0.00     0.077 C 
ATOM      8  C7  UNL d   1       5.708   3.839  -3.748  0.00  0.00    -0.001 A 
ENDROOT
TORSDOF 0
ENDMDL
