MODEL 1
REMARK minimizedAffinity -4.04600811
REMARK minimizedRMSD -1
REMARK  0 active torsions:
REMARK  status: ('A' for Active; 'I' for Inactive)
ROOT
ATOM      1  C   UNL d   1       0.737  -2.020  -2.589  0.00  0.00     0.077 C 
ATOM      2  C1  UNL d   1      -0.498  -2.377  -1.815  0.00  0.00    -0.074 A 
ATOM      3  C2  UNL d   1      -1.710  -2.623  -2.468  0.00  0.00    -0.005 A 
ATOM      4  C3  UNL d   1      -2.847  -2.963  -1.735  0.00  0.00     0.006 A 
ATOM      5  C4  UNL d   1      -2.784  -3.060  -0.345  0.00  0.00    -0.005 A 
ATOM      6  C5  UNL d   1      -1.581  -2.818   0.326  0.00  0.00    -0.074 A 
ATOM      7  C6  UNL d   1      -1.493  -2.927   1.819  0.00  0.00     0.077 C 
ATOM      8  C7  UNL d   1      -0.441  -2.483  -0.418  0.00  0.00    -0.001 A 
ENDROOT
TORSDOF 0
ENDMDL
