MODEL 1
REMARK minimizedAffinity -1.77796555
REMARK minimizedRMSD -1
REMARK  0 active torsions:
REMARK  status: ('A' for Active; 'I' for Inactive)
ROOT
ATOM      1  C   UNL d   1      -3.694  -3.967  -3.113  0.00  0.00     0.077 C 
ATOM      2  C1  UNL d   1      -2.659  -3.200  -2.346  0.00  0.00    -0.074 A 
ATOM      3  C2  UNL d   1      -2.719  -3.107  -0.951  0.00  0.00    -0.005 A 
ATOM      4  C3  UNL d   1      -1.744  -2.398  -0.251  0.00  0.00     0.006 A 
ATOM      5  C4  UNL d   1      -0.700  -1.774  -0.935  0.00  0.00    -0.005 A 
ATOM      6  C5  UNL d   1      -0.623  -1.856  -2.329  0.00  0.00    -0.074 A 
ATOM      7  C6  UNL d   1       0.498  -1.200  -3.080  0.00  0.00     0.077 C 
ATOM      8  C7  UNL d   1      -1.603  -2.577  -3.026  0.00  0.00    -0.001 A 
ENDROOT
TORSDOF 0
ENDMDL
