MODEL 1
REMARK minimizedAffinity -1.22313118
REMARK minimizedRMSD -1
REMARK  0 active torsions:
REMARK  status: ('A' for Active; 'I' for Inactive)
ROOT
ATOM      1  C   UNL d   1       5.997   4.432  -6.000  0.00  0.00     0.077 C 
ATOM      2  C1  UNL d   1       5.303   4.963  -4.781  0.00  0.00    -0.074 A 
ATOM      3  C2  UNL d   1       4.021   5.515  -4.868  0.00  0.00    -0.005 A 
ATOM      4  C3  UNL d   1       3.383   5.996  -3.725  0.00  0.00     0.006 A 
ATOM      5  C4  UNL d   1       4.020   5.930  -2.485  0.00  0.00    -0.005 A 
ATOM      6  C5  UNL d   1       5.302   5.381  -2.379  0.00  0.00    -0.074 A 
ATOM      7  C6  UNL d   1       5.997   5.294  -1.052  0.00  0.00     0.077 C 
ATOM      8  C7  UNL d   1       5.933   4.893  -3.531  0.00  0.00    -0.001 A 
ENDROOT
TORSDOF 0
ENDMDL
