MODEL 1
REMARK minimizedAffinity -0.147286654
REMARK minimizedRMSD -1
REMARK  0 active torsions:
REMARK  status: ('A' for Active; 'I' for Inactive)
ROOT
ATOM      1  C   UNL d   1       5.625   2.471  -5.285  0.00  0.00     0.077 C 
ATOM      2  C1  UNL d   1       5.297   3.707  -4.501  0.00  0.00    -0.074 A 
ATOM      3  C2  UNL d   1       4.504   4.718  -5.052  0.00  0.00    -0.005 A 
ATOM      4  C3  UNL d   1       4.199   5.858  -4.308  0.00  0.00     0.006 A 
ATOM      5  C4  UNL d   1       4.684   5.997  -3.007  0.00  0.00    -0.005 A 
ATOM      6  C5  UNL d   1       5.478   4.996  -2.439  0.00  0.00    -0.074 A 
ATOM      7  C6  UNL d   1       5.999   5.125  -1.038  0.00  0.00     0.077 C 
ATOM      8  C7  UNL d   1       5.774   3.851  -3.191  0.00  0.00    -0.001 A 
ENDROOT
TORSDOF 0
ENDMDL
