MODEL 1
REMARK minimizedAffinity 11.5290365
REMARK minimizedRMSD -1
REMARK  0 active torsions:
REMARK  status: ('A' for Active; 'I' for Inactive)
ROOT
ATOM      1  C   UNL d   1       1.745   5.478  -4.467  0.00  0.00     0.077 C 
ATOM      2  C1  UNL d   1       3.203   5.125  -4.489  0.00  0.00    -0.074 A 
ATOM      3  C2  UNL d   1       3.962   5.280  -5.653  0.00  0.00    -0.005 A 
ATOM      4  C3  UNL d   1       5.319   4.957  -5.656  0.00  0.00     0.006 A 
ATOM      5  C4  UNL d   1       5.929   4.476  -4.497  0.00  0.00    -0.005 A 
ATOM      6  C5  UNL d   1       5.186   4.315  -3.323  0.00  0.00    -0.074 A 
ATOM      7  C6  UNL d   1       5.828   3.809  -2.066  0.00  0.00     0.077 C 
ATOM      8  C7  UNL d   1       3.825   4.649  -3.326  0.00  0.00    -0.001 A 
ENDROOT
TORSDOF 0
ENDMDL
