MODEL 1
REMARK minimizedAffinity 0.798696876
REMARK minimizedRMSD -1
REMARK  0 active torsions:
REMARK  status: ('A' for Active; 'I' for Inactive)
ROOT
ATOM      1  C   UNL d   1      -2.555  -0.783   4.808  0.00  0.00     0.077 C 
ATOM      2  C1  UNL d   1      -2.084  -0.796   3.384  0.00  0.00    -0.074 A 
ATOM      3  C2  UNL d   1      -1.799  -2.001   2.733  0.00  0.00    -0.005 A 
ATOM      4  C3  UNL d   1      -1.371  -1.998   1.405  0.00  0.00     0.006 A 
ATOM      5  C4  UNL d   1      -1.224  -0.793   0.717  0.00  0.00    -0.005 A 
ATOM      6  C5  UNL d   1      -1.505   0.421   1.352  0.00  0.00    -0.074 A 
ATOM      7  C6  UNL d   1      -1.362   1.724   0.624  0.00  0.00     0.077 C 
ATOM      8  C7  UNL d   1      -1.942   0.410   2.684  0.00  0.00    -0.001 A 
ENDROOT
TORSDOF 0
ENDMDL
