MODEL 1
REMARK minimizedAffinity -1.82969677
REMARK minimizedRMSD -1
REMARK  0 active torsions:
REMARK  status: ('A' for Active; 'I' for Inactive)
ROOT
ATOM      1  C   UNL d   1       5.881   5.338  -1.330  0.00  0.00     0.077 C 
ATOM      2  C1  UNL d   1       5.284   5.259  -2.704  0.00  0.00    -0.074 A 
ATOM      3  C2  UNL d   1       4.145   5.999  -3.037  0.00  0.00    -0.005 A 
ATOM      4  C3  UNL d   1       3.608   5.923  -4.321  0.00  0.00     0.006 A 
ATOM      5  C4  UNL d   1       4.202   5.107  -5.285  0.00  0.00    -0.005 A 
ATOM      6  C5  UNL d   1       5.342   4.360  -4.971  0.00  0.00    -0.074 A 
ATOM      7  C6  UNL d   1       5.999   3.486  -5.997  0.00  0.00     0.077 C 
ATOM      8  C7  UNL d   1       5.880   4.447  -3.680  0.00  0.00    -0.001 A 
ENDROOT
TORSDOF 0
ENDMDL
