MODEL 1
REMARK minimizedAffinity 1.14385676
REMARK minimizedRMSD -1
REMARK  0 active torsions:
REMARK  status: ('A' for Active; 'I' for Inactive)
ROOT
ATOM      1  C   UNL d   1      -0.821  -2.770  -3.791  0.00  0.00     0.077 C 
ATOM      2  C1  UNL d   1      -1.525  -2.975  -2.483  0.00  0.00    -0.074 A 
ATOM      3  C2  UNL d   1      -2.922  -2.993  -2.413  0.00  0.00    -0.005 A 
ATOM      4  C3  UNL d   1      -3.563  -3.195  -1.191  0.00  0.00     0.006 A 
ATOM      5  C4  UNL d   1      -2.815  -3.380  -0.028  0.00  0.00    -0.005 A 
ATOM      6  C5  UNL d   1      -1.417  -3.366  -0.077  0.00  0.00    -0.074 A 
ATOM      7  C6  UNL d   1      -0.599  -3.573   1.162  0.00  0.00     0.077 C 
ATOM      8  C7  UNL d   1      -0.781  -3.170  -1.311  0.00  0.00    -0.001 A 
ENDROOT
TORSDOF 0
ENDMDL
