MODEL 1
REMARK minimizedAffinity -2.16705394
REMARK minimizedRMSD -1
REMARK  0 active torsions:
REMARK  status: ('A' for Active; 'I' for Inactive)
ROOT
ATOM      1  C   UNL d   1      -1.756   2.141   5.999  0.00  0.00     0.077 C 
ATOM      2  C1  UNL d   1      -1.956   0.844   5.273  0.00  0.00    -0.074 A 
ATOM      3  C2  UNL d   1      -1.535   0.689   3.949  0.00  0.00    -0.005 A 
ATOM      4  C3  UNL d   1      -1.719  -0.526   3.289  0.00  0.00     0.006 A 
ATOM      5  C4  UNL d   1      -2.326  -1.597   3.947  0.00  0.00    -0.005 A 
ATOM      6  C5  UNL d   1      -2.752  -1.461   5.271  0.00  0.00    -0.074 A 
ATOM      7  C6  UNL d   1      -3.397  -2.606   5.996  0.00  0.00     0.077 C 
ATOM      8  C7  UNL d   1      -2.557  -0.239   5.929  0.00  0.00    -0.001 A 
ENDROOT
TORSDOF 0
ENDMDL
