MODEL 1
REMARK minimizedAffinity 2.8329103
REMARK minimizedRMSD -1
REMARK  0 active torsions:
REMARK  status: ('A' for Active; 'I' for Inactive)
ROOT
ATOM      1  C   UNL d   1      -1.254  -3.501  -3.223  0.00  0.00     0.077 C 
ATOM      2  C1  UNL d   1      -1.525  -3.259  -1.768  0.00  0.00    -0.074 A 
ATOM      3  C2  UNL d   1      -2.806  -2.913  -1.324  0.00  0.00    -0.005 A 
ATOM      4  C3  UNL d   1      -3.045  -2.701   0.034  0.00  0.00     0.006 A 
ATOM      5  C4  UNL d   1      -2.009  -2.832   0.959  0.00  0.00    -0.005 A 
ATOM      6  C5  UNL d   1      -0.723  -3.178   0.533  0.00  0.00    -0.074 A 
ATOM      7  C6  UNL d   1       0.400  -3.333   1.516  0.00  0.00     0.077 C 
ATOM      8  C7  UNL d   1      -0.491  -3.397  -0.832  0.00  0.00    -0.001 A 
ENDROOT
TORSDOF 0
ENDMDL
