MODEL 1
REMARK minimizedAffinity -0.637631536
REMARK minimizedRMSD -1
REMARK  0 active torsions:
REMARK  status: ('A' for Active; 'I' for Inactive)
ROOT
ATOM      1  C   UNL d   1      -0.320  -2.871  -3.190  0.00  0.00     0.077 C 
ATOM      2  C1  UNL d   1      -1.075  -2.840  -1.895  0.00  0.00    -0.074 A 
ATOM      3  C2  UNL d   1      -2.471  -2.915  -1.875  0.00  0.00    -0.005 A 
ATOM      4  C3  UNL d   1      -3.159  -2.895  -0.661  0.00  0.00     0.006 A 
ATOM      5  C4  UNL d   1      -2.459  -2.800   0.542  0.00  0.00    -0.005 A 
ATOM      6  C5  UNL d   1      -1.063  -2.724   0.541  0.00  0.00    -0.074 A 
ATOM      7  C6  UNL d   1      -0.294  -2.631   1.826  0.00  0.00     0.077 C 
ATOM      8  C7  UNL d   1      -0.378  -2.752  -0.681  0.00  0.00    -0.001 A 
ENDROOT
TORSDOF 0
ENDMDL
