MODEL 1
REMARK minimizedAffinity 0.817924082
REMARK minimizedRMSD -1
REMARK  0 active torsions:
REMARK  status: ('A' for Active; 'I' for Inactive)
ROOT
ATOM      1  C1  DEN d   1       1.182   3.279   1.890  0.00  0.00     0.130 A 
ATOM      2  C2  DEN d   1       1.001   4.100   0.695  0.00  0.00    -0.031 A 
ATOM      3  C3  DEN d   1       0.465   3.235  -0.375  0.00  0.00     0.027 A 
ATOM      4  C4  DEN d   1      -0.106   0.721  -0.298  0.00  0.00     0.027 A 
ATOM      5  C5  DEN d   1      -0.110  -0.405   0.496  0.00  0.00    -0.003 A 
ATOM      6  C6  DEN d   1       0.343  -0.390   1.788  0.00  0.00     0.001 A 
ATOM      7  C7  DEN d   1       0.779   0.786   2.341  0.00  0.00     0.017 A 
ATOM      8  C8  DEN d   1       0.794   1.924   1.545  0.00  0.00    -0.094 A 
ATOM      9  C9  DEN d   1       0.320   1.890   0.244  0.00  0.00    -0.072 A 
ENDROOT
TORSDOF 0
ENDMDL
