MODEL 1
REMARK minimizedAffinity 8.58395195
REMARK minimizedRMSD -1
REMARK  0 active torsions:
REMARK  status: ('A' for Active; 'I' for Inactive)
ROOT
ATOM      1  C1  DEN d   1      -1.983   3.431   0.592  0.00  0.00     0.130 A 
ATOM      2  C2  DEN d   1      -1.434   3.583  -0.753  0.00  0.00    -0.031 A 
ATOM      3  C3  DEN d   1      -0.166   2.830  -0.816  0.00  0.00     0.027 A 
ATOM      4  C4  DEN d   1       0.994   1.447   1.027  0.00  0.00     0.027 A 
ATOM      5  C5  DEN d   1       0.914   1.035   2.339  0.00  0.00    -0.003 A 
ATOM      6  C6  DEN d   1      -0.111   1.416   3.163  0.00  0.00     0.001 A 
ATOM      7  C7  DEN d   1      -1.122   2.199   2.671  0.00  0.00     0.017 A 
ATOM      8  C8  DEN d   1      -1.045   2.625   1.352  0.00  0.00    -0.094 A 
ATOM      9  C9  DEN d   1      -0.007   2.218   0.531  0.00  0.00    -0.072 A 
ENDROOT
TORSDOF 0
ENDMDL
