MODEL 1
REMARK minimizedAffinity 4.160182
REMARK minimizedRMSD -1
REMARK  0 active torsions:
REMARK  status: ('A' for Active; 'I' for Inactive)
ROOT
ATOM      1  C1  DEN d   1      -1.156   4.344   0.954  0.00  0.00     0.130 A 
ATOM      2  C2  DEN d   1      -1.144   4.366  -0.506  0.00  0.00    -0.031 A 
ATOM      3  C3  DEN d   1      -0.655   3.055  -0.978  0.00  0.00     0.027 A 
ATOM      4  C4  DEN d   1       0.077   1.003   0.403  0.00  0.00     0.027 A 
ATOM      5  C5  DEN d   1       0.252   0.513   1.678  0.00  0.00    -0.003 A 
ATOM      6  C6  DEN d   1       0.004   1.270   2.792  0.00  0.00     0.001 A 
ATOM      7  C7  DEN d   1      -0.476   2.546   2.653  0.00  0.00     0.017 A 
ATOM      8  C8  DEN d   1      -0.648   3.050   1.370  0.00  0.00    -0.094 A 
ATOM      9  C9  DEN d   1      -0.403   2.264   0.256  0.00  0.00    -0.072 A 
ENDROOT
TORSDOF 0
ENDMDL
