MODEL 1
REMARK minimizedAffinity 2.28552818
REMARK minimizedRMSD -1
REMARK  0 active torsions:
REMARK  status: ('A' for Active; 'I' for Inactive)
ROOT
ATOM      1  C1  DEN d   1      -0.015   0.676   1.474  0.00  0.00     0.130 A 
ATOM      2  C2  DEN d   1      -0.036   0.664   2.934  0.00  0.00    -0.031 A 
ATOM      3  C3  DEN d   1      -0.555   1.968   3.395  0.00  0.00     0.027 A 
ATOM      4  C4  DEN d   1      -1.329   3.992   1.996  0.00  0.00     0.027 A 
ATOM      5  C5  DEN d   1      -1.485   4.478   0.717  0.00  0.00    -0.003 A 
ATOM      6  C6  DEN d   1      -1.133   3.751  -0.389  0.00  0.00     0.001 A 
ATOM      7  C7  DEN d   1      -0.649   2.478  -0.239  0.00  0.00     0.017 A 
ATOM      8  C8  DEN d   1      -0.482   1.983   1.048  0.00  0.00    -0.094 A 
ATOM      9  C9  DEN d   1      -0.855   2.730   2.153  0.00  0.00    -0.072 A 
ENDROOT
TORSDOF 0
ENDMDL
