MODEL 1
REMARK minimizedAffinity 2.73178244
REMARK minimizedRMSD -1
REMARK  0 active torsions:
REMARK  status: ('A' for Active; 'I' for Inactive)
ROOT
ATOM      1  C1  DEN d   1       0.939   3.203   3.256  0.00  0.00     0.130 A 
ATOM      2  C2  DEN d   1       2.140   3.729   2.613  0.00  0.00    -0.031 A 
ATOM      3  C3  DEN d   1       1.802   4.057   1.213  0.00  0.00     0.027 A 
ATOM      4  C4  DEN d   1      -0.453   3.805  -0.013  0.00  0.00     0.027 A 
ATOM      5  C5  DEN d   1      -1.761   3.391   0.116  0.00  0.00    -0.003 A 
ATOM      6  C6  DEN d   1      -2.247   2.859   1.280  0.00  0.00     0.001 A 
ATOM      7  C7  DEN d   1      -1.432   2.767   2.377  0.00  0.00     0.017 A 
ATOM      8  C8  DEN d   1      -0.110   3.175   2.253  0.00  0.00    -0.094 A 
ATOM      9  C9  DEN d   1       0.359   3.722   1.071  0.00  0.00    -0.072 A 
ENDROOT
TORSDOF 0
ENDMDL
