MODEL 1
REMARK minimizedAffinity 0.627742112
REMARK minimizedRMSD -1
REMARK  0 active torsions:
REMARK  status: ('A' for Active; 'I' for Inactive)
ROOT
ATOM      1  C1  DEN d   1       1.526   4.076   1.867  0.00  0.00     0.130 A 
ATOM      2  C2  DEN d   1       1.815   3.093   2.907  0.00  0.00    -0.031 A 
ATOM      3  C3  DEN d   1       0.572   2.347   3.187  0.00  0.00     0.027 A 
ATOM      4  C4  DEN d   1      -1.758   2.615   2.114  0.00  0.00     0.027 A 
ATOM      5  C5  DEN d   1      -2.495   3.327   1.194  0.00  0.00    -0.003 A 
ATOM      6  C6  DEN d   1      -1.956   4.353   0.463  0.00  0.00     0.001 A 
ATOM      7  C7  DEN d   1      -0.631   4.666   0.609  0.00  0.00     0.017 A 
ATOM      8  C8  DEN d   1       0.117   3.957   1.540  0.00  0.00    -0.094 A 
ATOM      9  C9  DEN d   1      -0.443   2.916   2.260  0.00  0.00    -0.072 A 
ENDROOT
TORSDOF 0
ENDMDL
