MODEL 1
REMARK minimizedAffinity 4.38595629
REMARK minimizedRMSD -1
REMARK  0 active torsions:
REMARK  status: ('A' for Active; 'I' for Inactive)
ROOT
ATOM      1  C1  DEN d   1       0.906  -0.570   2.351  0.00  0.00     0.130 A 
ATOM      2  C2  DEN d   1      -0.052   0.490   2.653  0.00  0.00    -0.031 A 
ATOM      3  C3  DEN d   1      -0.444   1.128   1.380  0.00  0.00     0.027 A 
ATOM      4  C4  DEN d   1       0.331   0.576  -1.017  0.00  0.00     0.027 A 
ATOM      5  C5  DEN d   1       1.146  -0.237  -1.774  0.00  0.00    -0.003 A 
ATOM      6  C6  DEN d   1       1.957  -1.186  -1.211  0.00  0.00     0.001 A 
ATOM      7  C7  DEN d   1       1.937  -1.378   0.145  0.00  0.00     0.017 A 
ATOM      8  C8  DEN d   1       1.124  -0.558   0.916  0.00  0.00    -0.094 A 
ATOM      9  C9  DEN d   1       0.302   0.388   0.326  0.00  0.00    -0.072 A 
ENDROOT
TORSDOF 0
ENDMDL
