MODEL 1
REMARK minimizedAffinity 1.51348126
REMARK minimizedRMSD -1
REMARK  1 active torsions:
REMARK  status: ('A' for Active; 'I' for Inactive)
REMARK    1  A    between atoms: C3_4  and  O_7 
ROOT
ATOM      1  C   UNL d   1       5.747   3.775   1.150  0.00  0.00    -0.033 A 
ATOM      2  C1  UNL d   1       4.725   4.587   1.646  0.00  0.00     0.039 A 
ATOM      3  C2  UNL d   1       3.391   4.200   1.500  0.00  0.00    -0.080 A 
ATOM      4  C3  UNL d   1       3.094   3.001   0.859  0.00  0.00     0.150 A 
ATOM      5  C4  UNL d   1       4.107   2.186   0.365  0.00  0.00    -0.007 A 
ATOM      6  C5  UNL d   1       5.438   2.574   0.511  0.00  0.00     0.039 A 
ENDROOT
BRANCH   4   7
ATOM      7  O   UNL d   1       1.807   2.584   0.689  0.00  0.00    -0.526 OA
ATOM      8  H5  UNL d   1       1.213   3.261   1.054  0.00  0.00     0.418 HD
ENDBRANCH   4   7
TORSDOF 1
ENDMDL
