MODEL 1
REMARK minimizedAffinity -3.88048816
REMARK minimizedRMSD -1
REMARK  1 active torsions:
REMARK  status: ('A' for Active; 'I' for Inactive)
REMARK    1  A    between atoms: C3_4  and  O_7 
ROOT
ATOM      1  C   UNL d   1       5.639  -5.372  -3.886  0.00  0.00    -0.033 A 
ATOM      2  C1  UNL d   1       5.620  -5.144  -5.264  0.00  0.00     0.039 A 
ATOM      3  C2  UNL d   1       4.445  -5.346  -5.990  0.00  0.00    -0.080 A 
ATOM      4  C3  UNL d   1       3.297  -5.773  -5.328  0.00  0.00     0.150 A 
ATOM      5  C4  UNL d   1       3.308  -5.998  -3.956  0.00  0.00    -0.007 A 
ATOM      6  C5  UNL d   1       4.483  -5.798  -3.232  0.00  0.00     0.039 A 
ENDROOT
BRANCH   4   7
ATOM      7  O   UNL d   1       2.128  -5.987  -5.996  0.00  0.00    -0.526 OA
ATOM      8  H5  UNL d   1       2.278  -5.819  -6.941  0.00  0.00     0.418 HD
ENDBRANCH   4   7
TORSDOF 1
ENDMDL
