MODEL 1
REMARK minimizedAffinity -0.365460455
REMARK minimizedRMSD -1
REMARK  1 active torsions:
REMARK  status: ('A' for Active; 'I' for Inactive)
REMARK    1  A    between atoms: C3_4  and  O_7 
ROOT
ATOM      1  C   UNL d   1       3.888  -5.998  -5.941  0.00  0.00    -0.033 A 
ATOM      2  C1  UNL d   1       5.283  -5.978  -5.997  0.00  0.00     0.039 A 
ATOM      3  C2  UNL d   1       5.998  -5.016  -5.281  0.00  0.00    -0.080 A 
ATOM      4  C3  UNL d   1       5.307  -4.082  -4.514  0.00  0.00     0.150 A 
ATOM      5  C4  UNL d   1       3.918  -4.098  -4.451  0.00  0.00    -0.007 A 
ATOM      6  C5  UNL d   1       3.205  -5.059  -5.167  0.00  0.00     0.039 A 
ENDROOT
BRANCH   4   7
ATOM      7  O   UNL d   1       5.962  -3.121  -3.802  0.00  0.00    -0.526 OA
ATOM      8  H5  UNL d   1       6.915  -3.214  -3.964  0.00  0.00     0.418 HD
ENDBRANCH   4   7
TORSDOF 1
ENDMDL
