MODEL 1
REMARK minimizedAffinity 8.49261379
REMARK minimizedRMSD -1
REMARK  1 active torsions:
REMARK  status: ('A' for Active; 'I' for Inactive)
REMARK    1  A    between atoms: C3_4  and  O_7 
ROOT
ATOM      1  C   UNL d   1      -0.191   2.255   0.377  0.00  0.00    -0.033 A 
ATOM      2  C1  UNL d   1      -0.705   2.407   1.667  0.00  0.00     0.039 A 
ATOM      3  C2  UNL d   1       0.122   2.222   2.776  0.00  0.00    -0.080 A 
ATOM      4  C3  UNL d   1       1.460   1.887   2.583  0.00  0.00     0.150 A 
ATOM      5  C4  UNL d   1       1.979   1.738   1.301  0.00  0.00    -0.007 A 
ATOM      6  C5  UNL d   1       1.151   1.922   0.195  0.00  0.00     0.039 A 
ENDROOT
BRANCH   4   7
ATOM      7  O   UNL d   1       2.305   1.692   3.635  0.00  0.00    -0.526 OA
ATOM      8  H5  UNL d   1       1.800   1.800   4.459  0.00  0.00     0.418 HD
ENDBRANCH   4   7
TORSDOF 1
ENDMDL
