MODEL 1
REMARK minimizedAffinity 11.4865303
REMARK minimizedRMSD -1
REMARK  1 active torsions:
REMARK  status: ('A' for Active; 'I' for Inactive)
REMARK    1  A    between atoms: C3_4  and  O_7 
ROOT
ATOM      1  C   UNL d   1       4.669  -3.308  -3.974  0.00  0.00    -0.033 A 
ATOM      2  C1  UNL d   1       3.652  -3.968  -3.282  0.00  0.00     0.039 A 
ATOM      3  C2  UNL d   1       2.829  -4.878  -3.948  0.00  0.00    -0.080 A 
ATOM      4  C3  UNL d   1       3.033  -5.119  -5.304  0.00  0.00     0.150 A 
ATOM      5  C4  UNL d   1       4.047  -4.467  -5.999  0.00  0.00    -0.007 A 
ATOM      6  C5  UNL d   1       4.867  -3.558  -5.332  0.00  0.00     0.039 A 
ENDROOT
BRANCH   4   7
ATOM      7  O   UNL d   1       2.252  -5.995  -5.998  0.00  0.00    -0.526 OA
ATOM      8  H5  UNL d   1       1.576  -6.348  -5.396  0.00  0.00     0.418 HD
ENDBRANCH   4   7
TORSDOF 1
ENDMDL
