MODEL 1
REMARK minimizedAffinity 3.09523487
REMARK minimizedRMSD -1
REMARK  1 active torsions:
REMARK  status: ('A' for Active; 'I' for Inactive)
REMARK    1  A    between atoms: C3_4  and  O_7 
ROOT
ATOM      1  C   UNL d   1       4.196  -5.994  -6.000  0.00  0.00    -0.033 A 
ATOM      2  C1  UNL d   1       3.329  -5.573  -4.989  0.00  0.00     0.039 A 
ATOM      3  C2  UNL d   1       3.797  -4.746  -3.966  0.00  0.00    -0.080 A 
ATOM      4  C3  UNL d   1       5.130  -4.346  -3.966  0.00  0.00     0.150 A 
ATOM      5  C4  UNL d   1       5.998  -4.759  -4.972  0.00  0.00    -0.007 A 
ATOM      6  C5  UNL d   1       5.530  -5.586  -5.992  0.00  0.00     0.039 A 
ENDROOT
BRANCH   4   7
ATOM      7  O   UNL d   1       5.633  -3.543  -2.986  0.00  0.00    -0.526 OA
ATOM      8  H5  UNL d   1       4.927  -3.362  -2.344  0.00  0.00     0.418 HD
ENDBRANCH   4   7
TORSDOF 1
ENDMDL
