MODEL 1
REMARK minimizedAffinity 2.35835004
REMARK minimizedRMSD -1
REMARK  1 active torsions:
REMARK  status: ('A' for Active; 'I' for Inactive)
REMARK    1  A    between atoms: C3_4  and  O_7 
ROOT
ATOM      1  C   UNL d   1      -4.606   2.991  -5.348  0.00  0.00    -0.033 A 
ATOM      2  C1  UNL d   1      -3.614   2.764  -4.392  0.00  0.00     0.039 A 
ATOM      3  C2  UNL d   1      -2.692   3.767  -4.088  0.00  0.00    -0.080 A 
ATOM      4  C3  UNL d   1      -2.772   4.991  -4.746  0.00  0.00     0.150 A 
ATOM      5  C4  UNL d   1      -3.760   5.226  -5.697  0.00  0.00    -0.007 A 
ATOM      6  C5  UNL d   1      -4.680   4.222  -6.000  0.00  0.00     0.039 A 
ENDROOT
BRANCH   4   7
ATOM      7  O   UNL d   1      -1.891   5.999  -4.487  0.00  0.00    -0.526 OA
ATOM      8  H5  UNL d   1      -1.248   5.684  -3.830  0.00  0.00     0.418 HD
ENDBRANCH   4   7
TORSDOF 1
ENDMDL
