MODEL 1
REMARK minimizedAffinity -1.08763111
REMARK minimizedRMSD -1
REMARK  1 active torsions:
REMARK  status: ('A' for Active; 'I' for Inactive)
REMARK    1  A    between atoms: C3_4  and  O_7 
ROOT
ATOM      1  C   UNL d   1       3.555   2.228   0.955  0.00  0.00    -0.033 A 
ATOM      2  C1  UNL d   1       2.770   2.053  -0.186  0.00  0.00     0.039 A 
ATOM      3  C2  UNL d   1       1.394   2.283  -0.131  0.00  0.00    -0.080 A 
ATOM      4  C3  UNL d   1       0.817   2.689   1.069  0.00  0.00     0.150 A 
ATOM      5  C4  UNL d   1       1.594   2.870   2.209  0.00  0.00    -0.007 A 
ATOM      6  C5  UNL d   1       2.967   2.638   2.152  0.00  0.00     0.039 A 
ENDROOT
BRANCH   4   7
ATOM      7  O   UNL d   1      -0.523   2.922   1.173  0.00  0.00    -0.526 OA
ATOM      8  H5  UNL d   1      -0.936   2.729   0.315  0.00  0.00     0.418 HD
ENDBRANCH   4   7
TORSDOF 1
ENDMDL
