MODEL 1
REMARK minimizedAffinity 3.78882527
REMARK minimizedRMSD -1
REMARK  1 active torsions:
REMARK  status: ('A' for Active; 'I' for Inactive)
REMARK    1  A    between atoms: C3_4  and  O_7 
ROOT
ATOM      1  C   UNL d   1       4.094   2.073  -0.199  0.00  0.00    -0.033 A 
ATOM      2  C1  UNL d   1       3.116   1.758  -1.146  0.00  0.00     0.039 A 
ATOM      3  C2  UNL d   1       1.805   1.505  -0.740  0.00  0.00    -0.080 A 
ATOM      4  C3  UNL d   1       1.483   1.572   0.613  0.00  0.00     0.150 A 
ATOM      5  C4  UNL d   1       2.451   1.890   1.561  0.00  0.00    -0.007 A 
ATOM      6  C5  UNL d   1       3.760   2.141   1.154  0.00  0.00     0.039 A 
ENDROOT
BRANCH   4   7
ATOM      7  O   UNL d   1       0.218   1.329   1.058  0.00  0.00    -0.526 OA
ATOM      8  H5  UNL d   1      -0.337   1.095   0.295  0.00  0.00     0.418 HD
ENDBRANCH   4   7
TORSDOF 1
ENDMDL
