MODEL 1
REMARK minimizedAffinity 3.98450422
REMARK minimizedRMSD -1
REMARK  1 active torsions:
REMARK  status: ('A' for Active; 'I' for Inactive)
REMARK    1  A    between atoms: C3_4  and  O_7 
ROOT
ATOM      1  C   UNL d   1      -3.943   2.121  -5.315  0.00  0.00    -0.033 A 
ATOM      2  C1  UNL d   1      -3.245   3.242  -5.769  0.00  0.00     0.039 A 
ATOM      3  C2  UNL d   1      -3.921   4.441  -6.000  0.00  0.00    -0.080 A 
ATOM      4  C3  UNL d   1      -5.293   4.507  -5.772  0.00  0.00     0.150 A 
ATOM      5  C4  UNL d   1      -5.994   3.395  -5.317  0.00  0.00    -0.007 A 
ATOM      6  C5  UNL d   1      -5.318   2.198  -5.088  0.00  0.00     0.039 A 
ENDROOT
BRANCH   4   7
ATOM      7  O   UNL d   1      -5.997   5.655  -5.988  0.00  0.00    -0.526 OA
ATOM      8  H5  UNL d   1      -5.387   6.330  -6.329  0.00  0.00     0.418 HD
ENDBRANCH   4   7
TORSDOF 1
ENDMDL
