MODEL 1
REMARK minimizedAffinity 2.11157656
REMARK minimizedRMSD -1
REMARK  1 active torsions:
REMARK  status: ('A' for Active; 'I' for Inactive)
REMARK    1  A    between atoms: C3_4  and  O_7 
ROOT
ATOM      1  C   UNL d   1      -0.407  -4.115   1.493  0.00  0.00    -0.033 A 
ATOM      2  C1  UNL d   1      -0.264  -3.248   2.578  0.00  0.00     0.039 A 
ATOM      3  C2  UNL d   1       0.016  -3.755   3.848  0.00  0.00    -0.080 A 
ATOM      4  C3  UNL d   1       0.151  -5.130   4.020  0.00  0.00     0.150 A 
ATOM      5  C4  UNL d   1       0.014  -6.000   2.943  0.00  0.00    -0.007 A 
ATOM      6  C5  UNL d   1      -0.267  -5.491   1.676  0.00  0.00     0.039 A 
ENDROOT
BRANCH   4   7
ATOM      7  O   UNL d   1       0.419  -5.672   5.242  0.00  0.00    -0.526 OA
ATOM      8  H5  UNL d   1       0.459  -4.954   5.895  0.00  0.00     0.418 HD
ENDBRANCH   4   7
TORSDOF 1
ENDMDL
