MODEL 1
REMARK minimizedAffinity 6.56261206
REMARK minimizedRMSD -1
REMARK  1 active torsions:
REMARK  status: ('A' for Active; 'I' for Inactive)
REMARK    1  A    between atoms: C3_4  and  O_7 
ROOT
ATOM      1  C   UNL d   1      -2.914  -4.860   0.987  0.00  0.00    -0.033 A 
ATOM      2  C1  UNL d   1      -1.635  -4.352   0.748  0.00  0.00     0.039 A 
ATOM      3  C2  UNL d   1      -1.292  -3.889  -0.523  0.00  0.00    -0.080 A 
ATOM      4  C3  UNL d   1      -2.235  -3.939  -1.546  0.00  0.00     0.150 A 
ATOM      5  C4  UNL d   1      -3.511  -4.440  -1.315  0.00  0.00    -0.007 A 
ATOM      6  C5  UNL d   1      -3.852  -4.903  -0.045  0.00  0.00     0.039 A 
ENDROOT
BRANCH   4   7
ATOM      7  O   UNL d   1      -1.944  -3.504  -2.805  0.00  0.00    -0.526 OA
ATOM      8  H5  UNL d   1      -1.017  -3.212  -2.824  0.00  0.00     0.418 HD
ENDBRANCH   4   7
TORSDOF 1
ENDMDL
