MODEL 1
REMARK minimizedAffinity 6.89326811
REMARK minimizedRMSD -1
REMARK  1 active torsions:
REMARK  status: ('A' for Active; 'I' for Inactive)
REMARK    1  A    between atoms: C3_4  and  O_7 
ROOT
ATOM      1  C   UNL d   1       4.201   6.000   5.980  0.00  0.00    -0.033 A 
ATOM      2  C1  UNL d   1       5.218   5.044   5.947  0.00  0.00     0.039 A 
ATOM      3  C2  UNL d   1       4.901   3.685   5.902  0.00  0.00    -0.080 A 
ATOM      4  C3  UNL d   1       3.564   3.296   5.891  0.00  0.00     0.150 A 
ATOM      5  C4  UNL d   1       2.546   4.243   5.920  0.00  0.00    -0.007 A 
ATOM      6  C5  UNL d   1       2.865   5.599   5.965  0.00  0.00     0.039 A 
ENDROOT
BRANCH   4   7
ATOM      7  O   UNL d   1       3.205   1.981   5.853  0.00  0.00    -0.526 OA
ATOM      8  H5  UNL d   1       4.013   1.441   5.865  0.00  0.00     0.418 HD
ENDBRANCH   4   7
TORSDOF 1
ENDMDL
