MODEL 1
REMARK minimizedAffinity 0.943230569
REMARK minimizedRMSD -1
REMARK  1 active torsions:
REMARK  status: ('A' for Active; 'I' for Inactive)
REMARK    1  A    between atoms: C3_4  and  O_7 
ROOT
ATOM      1  C   UNL d   1       2.834   0.992   0.385  0.00  0.00    -0.033 A 
ATOM      2  C1  UNL d   1       2.625  -0.359   0.102  0.00  0.00     0.039 A 
ATOM      3  C2  UNL d   1       2.206  -0.751  -1.171  0.00  0.00    -0.080 A 
ATOM      4  C3  UNL d   1       2.000   0.217  -2.150  0.00  0.00     0.150 A 
ATOM      5  C4  UNL d   1       2.210   1.565  -1.876  0.00  0.00    -0.007 A 
ATOM      6  C5  UNL d   1       2.628   1.954  -0.604  0.00  0.00     0.039 A 
ENDROOT
BRANCH   4   7
ATOM      7  O   UNL d   1       1.586  -0.116  -3.406  0.00  0.00    -0.526 OA
ATOM      8  H5  UNL d   1       1.454  -1.078  -3.441  0.00  0.00     0.418 HD
ENDBRANCH   4   7
TORSDOF 1
ENDMDL
