MODEL 1
REMARK minimizedAffinity 6.83392334
REMARK minimizedRMSD -1
REMARK  1 active torsions:
REMARK  status: ('A' for Active; 'I' for Inactive)
REMARK    1  A    between atoms: C3_4  and  O_7 
ROOT
ATOM      1  C   UNL d   1       0.016   3.138   0.157  0.00  0.00    -0.033 A 
ATOM      2  C1  UNL d   1       1.240   3.594  -0.334  0.00  0.00     0.039 A 
ATOM      3  C2  UNL d   1       2.434   3.070   0.166  0.00  0.00    -0.080 A 
ATOM      4  C3  UNL d   1       2.389   2.091   1.155  0.00  0.00     0.150 A 
ATOM      5  C4  UNL d   1       1.172   1.630   1.647  0.00  0.00    -0.007 A 
ATOM      6  C5  UNL d   1      -0.018   2.155   1.147  0.00  0.00     0.039 A 
ENDROOT
BRANCH   4   7
ATOM      7  O   UNL d   1       3.528   1.554   1.678  0.00  0.00    -0.526 OA
ATOM      8  H5  UNL d   1       4.292   1.989   1.264  0.00  0.00     0.418 HD
ENDBRANCH   4   7
TORSDOF 1
ENDMDL
