MODEL 1
REMARK minimizedAffinity 1.75741625
REMARK minimizedRMSD -1
REMARK  1 active torsions:
REMARK  status: ('A' for Active; 'I' for Inactive)
REMARK    1  A    between atoms: C3_4  and  O_7 
ROOT
ATOM      1  C   UNL d   1       1.103   3.448   0.381  0.00  0.00    -0.033 A 
ATOM      2  C1  UNL d   1       0.249   2.346   0.459  0.00  0.00     0.039 A 
ATOM      3  C2  UNL d   1       0.775   1.053   0.465  0.00  0.00    -0.080 A 
ATOM      4  C3  UNL d   1       2.154   0.875   0.395  0.00  0.00     0.150 A 
ATOM      5  C4  UNL d   1       3.011   1.969   0.321  0.00  0.00    -0.007 A 
ATOM      6  C5  UNL d   1       2.484   3.260   0.314  0.00  0.00     0.039 A 
ENDROOT
BRANCH   4   7
ATOM      7  O   UNL d   1       2.714  -0.368   0.393  0.00  0.00    -0.526 OA
ATOM      8  H5  UNL d   1       2.000  -1.026   0.419  0.00  0.00     0.418 HD
ENDBRANCH   4   7
TORSDOF 1
ENDMDL
