MODEL 1
REMARK minimizedAffinity -3.18883204
REMARK minimizedRMSD -1
REMARK  1 active torsions:
REMARK  status: ('A' for Active; 'I' for Inactive)
REMARK    1  A    between atoms: C3_4  and  O_7 
ROOT
ATOM      1  C   UNL d   1      -0.069   0.205  -0.111  0.00  0.00    -0.033 A 
ATOM      2  C1  UNL d   1       1.036   0.789   0.512  0.00  0.00     0.039 A 
ATOM      3  C2  UNL d   1       2.165   0.020   0.799  0.00  0.00    -0.080 A 
ATOM      4  C3  UNL d   1       2.177  -1.330   0.457  0.00  0.00     0.150 A 
ATOM      5  C4  UNL d   1       1.082  -1.917  -0.167  0.00  0.00    -0.007 A 
ATOM      6  C5  UNL d   1      -0.046  -1.147  -0.452  0.00  0.00     0.039 A 
ENDROOT
BRANCH   4   7
ATOM      7  O   UNL d   1       3.255  -2.122   0.722  0.00  0.00    -0.526 OA
ATOM      8  H5  UNL d   1       3.924  -1.588   1.181  0.00  0.00     0.418 HD
ENDBRANCH   4   7
TORSDOF 1
ENDMDL
