MODEL 1
REMARK minimizedAffinity -5.0432415
REMARK minimizedRMSD -1
REMARK  1 active torsions:
REMARK  status: ('A' for Active; 'I' for Inactive)
REMARK    1  A    between atoms: C3_4  and  O_7 
ROOT
ATOM      1  C   UNL d   1       3.216  -0.366   0.781  0.00  0.00    -0.033 A 
ATOM      2  C1  UNL d   1       2.856   0.905   0.329  0.00  0.00     0.039 A 
ATOM      3  C2  UNL d   1       1.526   1.184   0.009  0.00  0.00    -0.080 A 
ATOM      4  C3  UNL d   1       0.567   0.185   0.145  0.00  0.00     0.150 A 
ATOM      5  C4  UNL d   1       0.917  -1.083   0.598  0.00  0.00    -0.007 A 
ATOM      6  C5  UNL d   1       2.246  -1.360   0.917  0.00  0.00     0.039 A 
ENDROOT
BRANCH   4   7
ATOM      7  O   UNL d   1      -0.743   0.408  -0.160  0.00  0.00    -0.526 OA
ATOM      8  H5  UNL d   1      -0.832   1.319  -0.487  0.00  0.00     0.418 HD
ENDBRANCH   4   7
TORSDOF 1
ENDMDL
