MODEL 1
REMARK minimizedAffinity -3.42156696
REMARK minimizedRMSD -1
REMARK  1 active torsions:
REMARK  status: ('A' for Active; 'I' for Inactive)
REMARK    1  A    between atoms: C3_4  and  O_7 
ROOT
ATOM      1  C   UNL d   1      -0.145   0.600   0.111  0.00  0.00    -0.033 A 
ATOM      2  C1  UNL d   1      -0.027  -0.719  -0.331  0.00  0.00     0.039 A 
ATOM      3  C2  UNL d   1       1.103  -1.470   0.002  0.00  0.00    -0.080 A 
ATOM      4  C3  UNL d   1       2.104  -0.891   0.776  0.00  0.00     0.150 A 
ATOM      5  C4  UNL d   1       1.991   0.421   1.223  0.00  0.00    -0.007 A 
ATOM      6  C5  UNL d   1       0.863   1.170   0.889  0.00  0.00     0.039 A 
ENDROOT
BRANCH   4   7
ATOM      7  O   UNL d   1       3.227  -1.583   1.122  0.00  0.00    -0.526 OA
ATOM      8  H5  UNL d   1       3.180  -2.466   0.719  0.00  0.00     0.418 HD
ENDBRANCH   4   7
TORSDOF 1
ENDMDL
