MODEL 1
REMARK minimizedAffinity -5.39073563
REMARK minimizedRMSD -1
REMARK  1 active torsions:
REMARK  status: ('A' for Active; 'I' for Inactive)
REMARK    1  A    between atoms: C3_4  and  O_7 
ROOT
ATOM      1  C   UNL d   1       3.371  -0.125   0.930  0.00  0.00    -0.033 A 
ATOM      2  C1  UNL d   1       2.390  -1.107   1.072  0.00  0.00     0.039 A 
ATOM      3  C2  UNL d   1       1.066  -0.830   0.723  0.00  0.00    -0.080 A 
ATOM      4  C3  UNL d   1       0.739   0.431   0.233  0.00  0.00     0.150 A 
ATOM      5  C4  UNL d   1       1.712   1.414   0.086  0.00  0.00    -0.007 A 
ATOM      6  C5  UNL d   1       3.033   1.135   0.435  0.00  0.00     0.039 A 
ENDROOT
BRANCH   4   7
ATOM      7  O   UNL d   1      -0.540   0.750  -0.116  0.00  0.00    -0.526 OA
ATOM      8  H5  UNL d   1      -1.109  -0.016   0.067  0.00  0.00     0.418 HD
ENDBRANCH   4   7
TORSDOF 1
ENDMDL
