MODEL 1
REMARK minimizedAffinity -5.19023275
REMARK minimizedRMSD -1
REMARK  1 active torsions:
REMARK  status: ('A' for Active; 'I' for Inactive)
REMARK    1  A    between atoms: C3_4  and  O_7 
ROOT
ATOM      1  C   UNL d   1       3.174  -0.114   0.460  0.00  0.00    -0.033 A 
ATOM      2  C1  UNL d   1       2.803   1.226   0.331  0.00  0.00     0.039 A 
ATOM      3  C2  UNL d   1       1.470   1.564   0.090  0.00  0.00    -0.080 A 
ATOM      4  C3  UNL d   1       0.519   0.553  -0.020  0.00  0.00     0.150 A 
ATOM      5  C4  UNL d   1       0.880  -0.783   0.111  0.00  0.00    -0.007 A 
ATOM      6  C5  UNL d   1       2.212  -1.119   0.351  0.00  0.00     0.039 A 
ENDROOT
BRANCH   4   7
ATOM      7  O   UNL d   1      -0.794   0.834  -0.260  0.00  0.00    -0.526 OA
ATOM      8  H5  UNL d   1      -0.890   1.796  -0.356  0.00  0.00     0.418 HD
ENDBRANCH   4   7
TORSDOF 1
ENDMDL
