MODEL 1
REMARK minimizedAffinity -2.62961817
REMARK minimizedRMSD -1
REMARK  1 active torsions:
REMARK  status: ('A' for Active; 'I' for Inactive)
REMARK    1  A    between atoms: C3_4  and  O_7 
ROOT
ATOM      1  C   UNL d   1       0.704  -0.755   0.372  0.00  0.00    -0.033 A 
ATOM      2  C1  UNL d   1       1.726  -0.026   0.983  0.00  0.00     0.039 A 
ATOM      3  C2  UNL d   1       1.913   1.321   0.664  0.00  0.00    -0.080 A 
ATOM      4  C3  UNL d   1       1.071   1.926  -0.265  0.00  0.00     0.150 A 
ATOM      5  C4  UNL d   1       0.049   1.207  -0.875  0.00  0.00    -0.007 A 
ATOM      6  C5  UNL d   1      -0.136  -0.138  -0.556  0.00  0.00     0.039 A 
ENDROOT
BRANCH   4   7
ATOM      7  O   UNL d   1       1.218   3.236  -0.612  0.00  0.00    -0.526 OA
ATOM      8  H5  UNL d   1       1.982   3.598  -0.133  0.00  0.00     0.418 HD
ENDBRANCH   4   7
TORSDOF 1
ENDMDL
