MODEL 1
REMARK minimizedAffinity -4.57414389
REMARK minimizedRMSD -1
REMARK  1 active torsions:
REMARK  status: ('A' for Active; 'I' for Inactive)
REMARK    1  A    between atoms: C3_4  and  O_7 
ROOT
ATOM      1  C   UNL d   1       2.449  -1.355   0.342  0.00  0.00    -0.033 A 
ATOM      2  C1  UNL d   1       1.574  -1.818  -0.643  0.00  0.00     0.039 A 
ATOM      3  C2  UNL d   1       0.345  -1.186  -0.840  0.00  0.00    -0.080 A 
ATOM      4  C3  UNL d   1       0.003  -0.093  -0.047  0.00  0.00     0.150 A 
ATOM      5  C4  UNL d   1       0.872   0.376   0.933  0.00  0.00    -0.007 A 
ATOM      6  C5  UNL d   1       2.099  -0.257   1.129  0.00  0.00     0.039 A 
ENDROOT
BRANCH   4   7
ATOM      7  O   UNL d   1      -1.187   0.553  -0.199  0.00  0.00    -0.526 OA
ATOM      8  H5  UNL d   1      -1.696   0.101  -0.893  0.00  0.00     0.418 HD
ENDBRANCH   4   7
TORSDOF 1
ENDMDL
