MODEL 1
REMARK minimizedAffinity 7.64488697
REMARK minimizedRMSD -1
REMARK  0 active torsions:
REMARK  status: ('A' for Active; 'I' for Inactive)
ROOT
ATOM      1  C   UNL d   1       1.860  -0.597  -0.282  0.00  0.00    -0.002 A 
ATOM      2  C1  UNL d   1       2.702  -1.609   0.157  0.00  0.00     0.010 A 
ATOM      3  C2  UNL d   1       2.295  -2.944   0.105  0.00  0.00     0.041 A 
ATOM      4  C3  UNL d   1       1.016  -3.247  -0.403  0.00  0.00    -0.075 A 
ATOM      5  S   UNL d   1       0.306  -4.810  -0.563  0.00  0.00     0.015 SA
ATOM      6  C4  UNL d   1      -1.131  -4.171  -1.220  0.00  0.00     0.022 A 
ATOM      7  C5  UNL d   1      -1.087  -2.800  -1.321  0.00  0.00     0.026 A 
ATOM      8  C6  UNL d   1       0.151  -2.245  -0.853  0.00  0.00    -0.082 A 
ATOM      9  C7  UNL d   1       0.593  -0.902  -0.786  0.00  0.00     0.045 A 
ENDROOT
TORSDOF 0
ENDMDL
