MODEL 1
REMARK minimizedAffinity 8.02372646
REMARK minimizedRMSD -1
REMARK  0 active torsions:
REMARK  status: ('A' for Active; 'I' for Inactive)
ROOT
ATOM      1  C   UNL d   1       2.591  -1.832  -0.692  0.00  0.00    -0.002 A 
ATOM      2  C1  UNL d   1       2.752  -2.107   0.658  0.00  0.00     0.010 A 
ATOM      3  C2  UNL d   1       2.586  -1.102   1.613  0.00  0.00     0.041 A 
ATOM      4  C3  UNL d   1       2.250   0.197   1.183  0.00  0.00    -0.075 A 
ATOM      5  S   UNL d   1       1.995   1.586   2.173  0.00  0.00     0.015 SA
ATOM      6  C4  UNL d   1       1.665   2.577   0.826  0.00  0.00     0.022 A 
ATOM      7  C5  UNL d   1       1.744   1.882  -0.357  0.00  0.00     0.026 A 
ATOM      8  C6  UNL d   1       2.081   0.498  -0.171  0.00  0.00    -0.082 A 
ATOM      9  C7  UNL d   1       2.257  -0.542  -1.114  0.00  0.00     0.045 A 
ENDROOT
TORSDOF 0
ENDMDL
