MODEL 1
REMARK minimizedAffinity 7.53290558
REMARK minimizedRMSD -1
REMARK  0 active torsions:
REMARK  status: ('A' for Active; 'I' for Inactive)
ROOT
ATOM      1  C2' OXE d   1      -4.855   1.710  -2.762  0.00  0.00     0.078 C 
ATOM      2  C1' OXE d   1      -2.626   3.414  -2.846  0.00  0.00     0.078 C 
ATOM      3  C1  OXE d   1      -3.800   3.748  -3.732  0.00  0.00    -0.078 A 
ATOM      4  C2  OXE d   1      -4.868   2.883  -3.719  0.00  0.00    -0.078 A 
ATOM      5  C3  OXE d   1      -5.999   3.173  -4.477  0.00  0.00     0.003 A 
ATOM      6  C4  OXE d   1      -5.998   4.253  -5.367  0.00  0.00    -0.002 A 
ATOM      7  C5  OXE d   1      -4.905   5.124  -5.425  0.00  0.00    -0.002 A 
ATOM      8  C6  OXE d   1      -3.818   4.910  -4.585  0.00  0.00     0.003 A 
ENDROOT
TORSDOF 0
ENDMDL
