MODEL 1
REMARK minimizedAffinity 7.77708435
REMARK minimizedRMSD -1
REMARK  0 active torsions:
REMARK  status: ('A' for Active; 'I' for Inactive)
ROOT
ATOM      1  C2' OXE d   1       2.224   5.995  -1.363  0.00  0.00     0.078 C 
ATOM      2  C1' OXE d   1      -0.575   5.808  -1.455  0.00  0.00     0.078 C 
ATOM      3  C1  OXE d   1       0.169   4.814  -0.600  0.00  0.00    -0.078 A 
ATOM      4  C2  OXE d   1       1.541   4.883  -0.597  0.00  0.00    -0.078 A 
ATOM      5  C3  OXE d   1       2.273   4.025   0.218  0.00  0.00     0.003 A 
ATOM      6  C4  OXE d   1       1.634   2.992   0.915  0.00  0.00    -0.002 A 
ATOM      7  C5  OXE d   1       0.240   2.879   0.895  0.00  0.00    -0.002 A 
ATOM      8  C6  OXE d   1      -0.509   3.805   0.178  0.00  0.00     0.003 A 
ENDROOT
TORSDOF 0
ENDMDL
