MODEL 1
REMARK minimizedAffinity 8.10868359
REMARK minimizedRMSD -1
REMARK  0 active torsions:
REMARK  status: ('A' for Active; 'I' for Inactive)
ROOT
ATOM      1  C2' OXE d   1       2.023   5.998  -1.533  0.00  0.00     0.078 C 
ATOM      2  C1' OXE d   1      -0.747   5.596  -1.745  0.00  0.00     0.078 C 
ATOM      3  C1  OXE d   1       0.024   4.705  -0.803  0.00  0.00    -0.078 A 
ATOM      4  C2  OXE d   1       1.385   4.878  -0.740  0.00  0.00    -0.078 A 
ATOM      5  C3  OXE d   1       2.137   4.120   0.153  0.00  0.00     0.003 A 
ATOM      6  C4  OXE d   1       1.540   3.079   0.876  0.00  0.00    -0.002 A 
ATOM      7  C5  OXE d   1       0.161   2.860   0.797  0.00  0.00    -0.002 A 
ATOM      8  C6  OXE d   1      -0.617   3.690  -0.003  0.00  0.00     0.003 A 
ENDROOT
TORSDOF 0
ENDMDL
