MODEL 1
REMARK minimizedAffinity -3.50298381
REMARK minimizedRMSD -1
REMARK  1 active torsions:
REMARK  status: ('A' for Active; 'I' for Inactive)
REMARK    1  A    between atoms: N_2  and  C1_3 
ROOT
ATOM      1  C1  UNL d   1      -0.514   0.423  -1.482  0.00  0.00     0.143 A 
ATOM      2  C2  UNL d   1       0.383  -0.619  -1.742  0.00  0.00    -0.057 A 
ATOM      3  C3  UNL d   1       1.179  -1.162  -0.726  0.00  0.00     0.033 A 
ATOM      4  C4  UNL d   1       1.112  -0.652   0.566  0.00  0.00    -0.042 A 
ATOM      5  C5  UNL d   1       0.245   0.400   0.842  0.00  0.00     0.033 A 
ATOM      6  C6  UNL d   1      -0.552   0.934  -0.175  0.00  0.00    -0.057 A 
ENDROOT
BRANCH   1   7
ATOM      7  N   UNL d   1      -1.260   1.071  -2.470  0.00  0.00    -0.732 N 
ATOM      8  C   UNL d   1      -0.946   2.429  -2.859  0.00  0.00     0.284 C 
ATOM      9  H3  UNL d   1      -1.490   0.458  -3.248  0.00  0.00     0.395 HD
ENDBRANCH   1   7
TORSDOF 1
ENDMDL
