MODEL 1
REMARK minimizedAffinity -4.48628855
REMARK minimizedRMSD -1
REMARK  1 active torsions:
REMARK  status: ('A' for Active; 'I' for Inactive)
REMARK    1  A    between atoms: N_2  and  C1_3 
ROOT
ATOM      1  C1  UNL d   1       0.010  -0.135  -0.133  0.00  0.00     0.143 A 
ATOM      2  C2  UNL d   1      -1.049   0.033   0.765  0.00  0.00    -0.057 A 
ATOM      3  C3  UNL d   1      -0.897  -0.249   2.128  0.00  0.00     0.033 A 
ATOM      4  C4  UNL d   1       0.314  -0.732   2.614  0.00  0.00    -0.042 A 
ATOM      5  C5  UNL d   1       1.373  -0.929   1.735  0.00  0.00     0.033 A 
ATOM      6  C6  UNL d   1       1.216  -0.640   0.376  0.00  0.00    -0.057 A 
ENDROOT
BRANCH   1   7
ATOM      7  N   UNL d   1      -0.108   0.033  -1.515  0.00  0.00    -0.732 N 
ATOM      8  C   UNL d   1      -0.669   1.249  -2.064  0.00  0.00     0.284 C 
ATOM      9  H3  UNL d   1       0.704  -0.315  -2.019  0.00  0.00     0.395 HD
ENDBRANCH   1   7
TORSDOF 1
ENDMDL
