MODEL 1
REMARK minimizedAffinity -1.39556587
REMARK minimizedRMSD -1
REMARK  1 active torsions:
REMARK  status: ('A' for Active; 'I' for Inactive)
REMARK    1  A    between atoms: N_2  and  C1_3 
ROOT
ATOM      1  C1  UNL d   1      -0.185  -0.360  -0.229  0.00  0.00     0.143 A 
ATOM      2  C2  UNL d   1       0.969  -0.658   0.503  0.00  0.00    -0.057 A 
ATOM      3  C3  UNL d   1       0.930  -0.796   1.896  0.00  0.00     0.033 A 
ATOM      4  C4  UNL d   1      -0.263  -0.607   2.586  0.00  0.00    -0.042 A 
ATOM      5  C5  UNL d   1      -1.417  -0.286   1.881  0.00  0.00     0.033 A 
ATOM      6  C6  UNL d   1      -1.373  -0.157   0.490  0.00  0.00    -0.057 A 
ENDROOT
BRANCH   1   7
ATOM      7  N   UNL d   1      -0.191  -0.114  -1.604  0.00  0.00    -0.732 N 
ATOM      8  C   UNL d   1      -0.827   1.072  -2.138  0.00  0.00     0.284 C 
ATOM      9  H3  UNL d   1       0.697  -0.343  -2.044  0.00  0.00     0.395 HD
ENDBRANCH   1   7
TORSDOF 1
ENDMDL
