MODEL 1
REMARK minimizedAffinity -3.01565528
REMARK minimizedRMSD -1
REMARK  0 active torsions:
REMARK  status: ('A' for Active; 'I' for Inactive)
ROOT
ATOM      1  N1  IND d   1      -0.040  -4.174  -0.900  0.00  0.00    -0.196 N 
ATOM      2  C2  IND d   1       0.918  -4.195  -1.874  0.00  0.00     0.054 A 
ATOM      3  C3  IND d   1       1.439  -2.960  -2.048  0.00  0.00    -0.031 A 
ATOM      4  C4  IND d   1       0.942  -0.780  -0.772  0.00  0.00     0.051 A 
ATOM      5  C5  IND d   1       0.116  -0.255   0.182  0.00  0.00    -0.031 A 
ATOM      6  C6  IND d   1      -0.822  -1.026   0.839  0.00  0.00     0.015 A 
ATOM      7  C7  IND d   1      -0.961  -2.359   0.574  0.00  0.00    -0.016 A 
ATOM      8  C8  IND d   1      -0.128  -2.894  -0.399  0.00  0.00    -0.047 A 
ATOM      9  C9  IND d   1       0.795  -2.108  -1.099  0.00  0.00    -0.096 A 
ATOM     10  HN1 IND d   1      -0.509  -4.847  -0.642  0.00  0.00     0.298 HD
ENDROOT
TORSDOF 0
ENDMDL
