MODEL 1
REMARK minimizedAffinity -3.92076421
REMARK minimizedRMSD -1
REMARK  0 active torsions:
REMARK  status: ('A' for Active; 'I' for Inactive)
ROOT
ATOM      1  N1  IND d   1      -0.071   0.276  -1.240  0.00  0.00    -0.196 N 
ATOM      2  C2  IND d   1       1.011  -0.529  -1.014  0.00  0.00     0.054 A 
ATOM      3  C3  IND d   1       1.245  -0.641   0.313  0.00  0.00    -0.031 A 
ATOM      4  C4  IND d   1      -0.081   0.326   2.295  0.00  0.00     0.051 A 
ATOM      5  C5  IND d   1      -1.126   1.156   2.590  0.00  0.00    -0.031 A 
ATOM      6  C6  IND d   1      -1.890   1.745   1.603  0.00  0.00     0.015 A 
ATOM      7  C7  IND d   1      -1.643   1.516   0.279  0.00  0.00    -0.016 A 
ATOM      8  C8  IND d   1      -0.578   0.679  -0.024  0.00  0.00    -0.047 A 
ATOM      9  C9  IND d   1       0.227   0.112   0.973  0.00  0.00    -0.096 A 
ATOM     10  HN1 IND d   1      -0.382   0.494  -2.011  0.00  0.00     0.298 HD
ENDROOT
TORSDOF 0
ENDMDL
