MODEL 1
REMARK minimizedAffinity -2.73945355
REMARK minimizedRMSD -1
REMARK  0 active torsions:
REMARK  status: ('A' for Active; 'I' for Inactive)
ROOT
ATOM      1  N1  IND d   1      -1.410   2.570   0.428  0.00  0.00    -0.196 N 
ATOM      2  C2  IND d   1      -1.991   1.917   1.479  0.00  0.00     0.054 A 
ATOM      3  C3  IND d   1      -1.466   0.679   1.612  0.00  0.00    -0.031 A 
ATOM      4  C4  IND d   1       0.429  -0.446   0.281  0.00  0.00     0.051 A 
ATOM      5  C5  IND d   1       1.245  -0.258  -0.799  0.00  0.00    -0.031 A 
ATOM      6  C6  IND d   1       1.220   0.906  -1.538  0.00  0.00     0.015 A 
ATOM      7  C7  IND d   1       0.381   1.936  -1.217  0.00  0.00    -0.016 A 
ATOM      8  C8  IND d   1      -0.454   1.746  -0.125  0.00  0.00    -0.047 A 
ATOM      9  C9  IND d   1      -0.463   0.549   0.603  0.00  0.00    -0.096 A 
ATOM     10  HN1 IND d   1      -1.607   3.362   0.158  0.00  0.00     0.298 HD
ENDROOT
TORSDOF 0
ENDMDL
