MODEL 1
REMARK minimizedAffinity -3.9431951
REMARK minimizedRMSD -1
REMARK  0 active torsions:
REMARK  status: ('A' for Active; 'I' for Inactive)
ROOT
ATOM      1  N1  IND d   1      -1.039   0.193   2.247  0.00  0.00    -0.196 N 
ATOM      2  C2  IND d   1      -0.225  -0.883   2.027  0.00  0.00     0.054 A 
ATOM      3  C3  IND d   1       0.441  -0.737   0.859  0.00  0.00    -0.031 A 
ATOM      4  C4  IND d   1       0.423   1.232  -0.799  0.00  0.00     0.051 A 
ATOM      5  C5  IND d   1      -0.194   2.427  -1.046  0.00  0.00    -0.031 A 
ATOM      6  C6  IND d   1      -1.140   2.950  -0.189  0.00  0.00     0.015 A 
ATOM      7  C7  IND d   1      -1.499   2.300   0.958  0.00  0.00    -0.016 A 
ATOM      8  C8  IND d   1      -0.881   1.083   1.208  0.00  0.00    -0.047 A 
ATOM      9  C9  IND d   1       0.049   0.527   0.321  0.00  0.00    -0.096 A 
ATOM     10  HN1 IND d   1      -1.563   0.296   2.922  0.00  0.00     0.298 HD
ENDROOT
TORSDOF 0
ENDMDL
