MODEL 1
REMARK minimizedAffinity -3.33515072
REMARK minimizedRMSD -1
REMARK  0 active torsions:
REMARK  status: ('A' for Active; 'I' for Inactive)
ROOT
ATOM      1  N1  IND d   1      -0.191  -0.057  -1.575  0.00  0.00    -0.196 N 
ATOM      2  C2  IND d   1       0.675  -1.111  -1.492  0.00  0.00     0.054 A 
ATOM      3  C3  IND d   1       0.938  -1.403  -0.198  0.00  0.00    -0.031 A 
ATOM      4  C4  IND d   1      -0.022  -0.346   1.944  0.00  0.00     0.051 A 
ATOM      5  C5  IND d   1      -0.822   0.674   2.377  0.00  0.00    -0.031 A 
ATOM      6  C6  IND d   1      -1.468   1.518   1.497  0.00  0.00     0.015 A 
ATOM      7  C7  IND d   1      -1.346   1.365   0.145  0.00  0.00    -0.016 A 
ATOM      8  C8  IND d   1      -0.529   0.335  -0.298  0.00  0.00    -0.047 A 
ATOM      9  C9  IND d   1       0.163  -0.498   0.590  0.00  0.00    -0.096 A 
ATOM     10  HN1 IND d   1      -0.477   0.301  -2.303  0.00  0.00     0.298 HD
ENDROOT
TORSDOF 0
ENDMDL
