MODEL 1
REMARK minimizedAffinity 0.732026935
REMARK minimizedRMSD -1
REMARK  0 active torsions:
REMARK  status: ('A' for Active; 'I' for Inactive)
ROOT
ATOM      1  N1  IND d   1       0.238  -0.904  -0.756  0.00  0.00    -0.196 N 
ATOM      2  C2  IND d   1       1.090  -1.323   0.227  0.00  0.00     0.054 A 
ATOM      3  C3  IND d   1       0.946  -0.558   1.332  0.00  0.00    -0.031 A 
ATOM      4  C4  IND d   1      -0.699   1.370   1.783  0.00  0.00     0.051 A 
ATOM      5  C5  IND d   1      -1.650   2.140   1.174  0.00  0.00    -0.031 A 
ATOM      6  C6  IND d   1      -2.030   1.928  -0.136  0.00  0.00     0.015 A 
ATOM      7  C7  IND d   1      -1.478   0.927  -0.885  0.00  0.00    -0.016 A 
ATOM      8  C8  IND d   1      -0.508   0.148  -0.271  0.00  0.00    -0.047 A 
ATOM      9  C9  IND d   1      -0.088   0.385   1.044  0.00  0.00    -0.096 A 
ATOM     10  HN1 IND d   1       0.178  -1.240  -1.545  0.00  0.00     0.298 HD
ENDROOT
TORSDOF 0
ENDMDL
