MODEL 1
REMARK minimizedAffinity -5.98634911
REMARK minimizedRMSD -1
REMARK  0 active torsions:
REMARK  status: ('A' for Active; 'I' for Inactive)
ROOT
ATOM      1  N1  IND d   1       1.268   1.631  -1.340  0.00  0.00    -0.196 N 
ATOM      2  C2  IND d   1       1.626   0.318  -1.210  0.00  0.00     0.054 A 
ATOM      3  C3  IND d   1       0.800  -0.311  -0.345  0.00  0.00    -0.031 A 
ATOM      4  C4  IND d   1      -1.267   0.594   0.896  0.00  0.00     0.051 A 
ATOM      5  C5  IND d   1      -1.968   1.745   1.123  0.00  0.00    -0.031 A 
ATOM      6  C6  IND d   1      -1.621   2.940   0.527  0.00  0.00     0.015 A 
ATOM      7  C7  IND d   1      -0.562   3.027  -0.332  0.00  0.00    -0.016 A 
ATOM      8  C8  IND d   1       0.157   1.862  -0.560  0.00  0.00    -0.047 A 
ATOM      9  C9  IND d   1      -0.165   0.656   0.076  0.00  0.00    -0.096 A 
ATOM     10  HN1 IND d   1       1.669   2.215  -1.828  0.00  0.00     0.298 HD
ENDROOT
TORSDOF 0
ENDMDL
