MODEL 1
REMARK minimizedAffinity -3.88424492
REMARK minimizedRMSD -1
REMARK  0 active torsions:
REMARK  status: ('A' for Active; 'I' for Inactive)
ROOT
ATOM      1  N1  IND d   1       0.124   2.084  -1.314  0.00  0.00    -0.196 N 
ATOM      2  C2  IND d   1      -0.983   2.619  -0.716  0.00  0.00     0.054 A 
ATOM      3  C3  IND d   1      -1.366   1.857   0.333  0.00  0.00    -0.031 A 
ATOM      4  C4  IND d   1      -0.263  -0.255   1.309  0.00  0.00     0.051 A 
ATOM      5  C5  IND d   1       0.749  -1.145   1.082  0.00  0.00    -0.031 A 
ATOM      6  C6  IND d   1       1.624  -0.999   0.024  0.00  0.00     0.015 A 
ATOM      7  C7  IND d   1       1.525   0.052  -0.842  0.00  0.00    -0.016 A 
ATOM      8  C8  IND d   1       0.495   0.954  -0.619  0.00  0.00    -0.047 A 
ATOM      9  C9  IND d   1      -0.422   0.789   0.428  0.00  0.00    -0.096 A 
ATOM     10  HN1 IND d   1       0.522   2.400  -2.008  0.00  0.00     0.298 HD
ENDROOT
TORSDOF 0
ENDMDL
