MODEL 1
REMARK minimizedAffinity -3.10315061
REMARK minimizedRMSD -1
REMARK  0 active torsions:
REMARK  status: ('A' for Active; 'I' for Inactive)
ROOT
ATOM      1  N1  IND d   1      -0.172   0.268  -1.108  0.00  0.00    -0.196 N 
ATOM      2  C2  IND d   1       0.037   0.279   0.243  0.00  0.00     0.054 A 
ATOM      3  C3  IND d   1       0.691  -0.840   0.626  0.00  0.00    -0.031 A 
ATOM      4  C4  IND d   1       1.604  -2.774  -0.807  0.00  0.00     0.051 A 
ATOM      5  C5  IND d   1       1.625  -3.248  -2.089  0.00  0.00    -0.031 A 
ATOM      6  C6  IND d   1       1.039  -2.559  -3.131  0.00  0.00     0.015 A 
ATOM      7  C7  IND d   1       0.417  -1.359  -2.931  0.00  0.00    -0.016 A 
ATOM      8  C8  IND d   1       0.387  -0.878  -1.629  0.00  0.00    -0.047 A 
ATOM      9  C9  IND d   1       0.943  -1.594  -0.561  0.00  0.00    -0.096 A 
ATOM     10  HN1 IND d   1      -0.584   0.875  -1.557  0.00  0.00     0.298 HD
ENDROOT
TORSDOF 0
ENDMDL
