MODEL 1
REMARK minimizedAffinity -5.61228514
REMARK minimizedRMSD -1
REMARK  0 active torsions:
REMARK  status: ('A' for Active; 'I' for Inactive)
ROOT
ATOM      1  N1  IND d   1       0.548   0.348  -0.779  0.00  0.00    -0.196 N 
ATOM      2  C2  IND d   1       0.442  -0.781  -0.015  0.00  0.00     0.054 A 
ATOM      3  C3  IND d   1      -0.372  -0.558   1.042  0.00  0.00    -0.031 A 
ATOM      4  C4  IND d   1      -1.717   1.549   1.655  0.00  0.00     0.051 A 
ATOM      5  C5  IND d   1      -1.916   2.848   1.278  0.00  0.00    -0.031 A 
ATOM      6  C6  IND d   1      -1.293   3.390   0.172  0.00  0.00     0.015 A 
ATOM      7  C7  IND d   1      -0.453   2.646  -0.608  0.00  0.00    -0.016 A 
ATOM      8  C8  IND d   1      -0.244   1.329  -0.224  0.00  0.00    -0.047 A 
ATOM      9  C9  IND d   1      -0.840   0.786   0.921  0.00  0.00    -0.096 A 
ATOM     10  HN1 IND d   1       1.028   0.430  -1.488  0.00  0.00     0.298 HD
ENDROOT
TORSDOF 0
ENDMDL
