MODEL 1
REMARK minimizedAffinity -2.64159393
REMARK minimizedRMSD -1
REMARK  0 active torsions:
REMARK  status: ('A' for Active; 'I' for Inactive)
ROOT
ATOM      1  N1  IND d   1      -1.516   1.651   0.773  0.00  0.00    -0.196 N 
ATOM      2  C2  IND d   1      -1.607   1.642   2.137  0.00  0.00     0.054 A 
ATOM      3  C3  IND d   1      -0.785   0.702   2.656  0.00  0.00    -0.031 A 
ATOM      4  C4  IND d   1       0.871  -0.864   1.460  0.00  0.00     0.051 A 
ATOM      5  C5  IND d   1       1.283  -1.248   0.215  0.00  0.00    -0.031 A 
ATOM      6  C6  IND d   1       0.774  -0.672  -0.931  0.00  0.00     0.015 A 
ATOM      7  C7  IND d   1      -0.161   0.322  -0.874  0.00  0.00    -0.016 A 
ATOM      8  C8  IND d   1      -0.586   0.710   0.389  0.00  0.00    -0.047 A 
ATOM      9  C9  IND d   1      -0.105   0.099   1.554  0.00  0.00    -0.096 A 
ATOM     10  HN1 IND d   1      -1.965   2.159   0.244  0.00  0.00     0.298 HD
ENDROOT
TORSDOF 0
ENDMDL
