MODEL 1
REMARK minimizedAffinity -2.81493759
REMARK minimizedRMSD -1
REMARK  0 active torsions:
REMARK  status: ('A' for Active; 'I' for Inactive)
ROOT
ATOM      1  N1  IND d   1      -0.056  -0.027  -1.159  0.00  0.00    -0.196 N 
ATOM      2  C2  IND d   1       0.632  -1.187  -0.935  0.00  0.00     0.054 A 
ATOM      3  C3  IND d   1       0.766  -1.406   0.392  0.00  0.00    -0.031 A 
ATOM      4  C4  IND d   1      -0.155  -0.046   2.375  0.00  0.00     0.051 A 
ATOM      5  C5  IND d   1      -0.816   1.113   2.672  0.00  0.00    -0.031 A 
ATOM      6  C6  IND d   1      -1.269   1.967   1.687  0.00  0.00     0.015 A 
ATOM      7  C7  IND d   1      -1.087   1.687   0.362  0.00  0.00    -0.016 A 
ATOM      8  C8  IND d   1      -0.410   0.514   0.057  0.00  0.00    -0.047 A 
ATOM      9  C9  IND d   1       0.089  -0.335   1.053  0.00  0.00    -0.096 A 
ATOM     10  HN1 IND d   1      -0.237   0.308  -1.930  0.00  0.00     0.298 HD
ENDROOT
TORSDOF 0
ENDMDL
