MODEL 1
REMARK minimizedAffinity -4.85293055
REMARK minimizedRMSD -1
REMARK  0 active torsions:
REMARK  status: ('A' for Active; 'I' for Inactive)
ROOT
ATOM      1  N1  IND d   1       0.945   1.830  -0.918  0.00  0.00    -0.196 N 
ATOM      2  C2  IND d   1       1.773   0.857  -1.404  0.00  0.00     0.054 A 
ATOM      3  C3  IND d   1       1.262  -0.368  -1.147  0.00  0.00    -0.031 A 
ATOM      4  C4  IND d   1      -0.969  -1.007  -0.031  0.00  0.00     0.051 A 
ATOM      5  C5  IND d   1      -2.047  -0.465   0.611  0.00  0.00    -0.031 A 
ATOM      6  C6  IND d   1      -2.187   0.898   0.776  0.00  0.00     0.015 A 
ATOM      7  C7  IND d   1      -1.255   1.773   0.294  0.00  0.00    -0.016 A 
ATOM      8  C8  IND d   1      -0.156   1.226  -0.351  0.00  0.00    -0.047 A 
ATOM      9  C9  IND d   1       0.013  -0.158  -0.485  0.00  0.00    -0.096 A 
ATOM     10  HN1 IND d   1       1.088   2.677  -0.959  0.00  0.00     0.298 HD
ENDROOT
TORSDOF 0
ENDMDL
