MODEL 1
REMARK minimizedAffinity -3.6425643
REMARK minimizedRMSD -1
REMARK  0 active torsions:
REMARK  status: ('A' for Active; 'I' for Inactive)
ROOT
ATOM      1  N1  IND d   1      -0.530   1.285   2.035  0.00  0.00    -0.196 N 
ATOM      2  C2  IND d   1      -1.647   1.866   1.501  0.00  0.00     0.054 A 
ATOM      3  C3  IND d   1      -1.835   1.445   0.230  0.00  0.00    -0.031 A 
ATOM      4  C4  IND d   1      -0.491  -0.272  -1.139  0.00  0.00     0.051 A 
ATOM      5  C5  IND d   1       0.636  -1.044  -1.091  0.00  0.00    -0.031 A 
ATOM      6  C6  IND d   1       1.446  -1.082   0.025  0.00  0.00     0.015 A 
ATOM      7  C7  IND d   1       1.152  -0.355   1.144  0.00  0.00    -0.016 A 
ATOM      8  C8  IND d   1       0.013   0.436   1.096  0.00  0.00    -0.047 A 
ATOM      9  C9  IND d   1      -0.790   0.511  -0.049  0.00  0.00    -0.096 A 
ATOM     10  HN1 IND d   1      -0.220   1.426   2.824  0.00  0.00     0.298 HD
ENDROOT
TORSDOF 0
ENDMDL
