MODEL 1
REMARK minimizedAffinity -3.8602047
REMARK minimizedRMSD -1
REMARK  0 active torsions:
REMARK  status: ('A' for Active; 'I' for Inactive)
ROOT
ATOM      1  N1  IND d   1       0.963  -0.439   0.171  0.00  0.00    -0.196 N 
ATOM      2  C2  IND d   1       0.434  -0.895  -1.004  0.00  0.00     0.054 A 
ATOM      3  C3  IND d   1      -0.774  -0.330  -1.227  0.00  0.00    -0.031 A 
ATOM      4  C4  IND d   1      -2.028   1.446   0.152  0.00  0.00     0.051 A 
ATOM      5  C5  IND d   1      -1.961   2.143   1.326  0.00  0.00    -0.031 A 
ATOM      6  C6  IND d   1      -0.894   2.015   2.191  0.00  0.00     0.015 A 
ATOM      7  C7  IND d   1       0.157   1.190   1.907  0.00  0.00    -0.016 A 
ATOM      8  C8  IND d   1       0.090   0.474   0.720  0.00  0.00    -0.047 A 
ATOM      9  C9  IND d   1      -1.011   0.568  -0.141  0.00  0.00    -0.096 A 
ATOM     10  HN1 IND d   1       1.715  -0.682   0.511  0.00  0.00     0.298 HD
ENDROOT
TORSDOF 0
ENDMDL
