MODEL 1
REMARK minimizedAffinity -4.32262421
REMARK minimizedRMSD -1
REMARK  0 active torsions:
REMARK  status: ('A' for Active; 'I' for Inactive)
ROOT
ATOM      1  N1  IND d   1       0.932  -0.226   1.244  0.00  0.00    -0.196 N 
ATOM      2  C2  IND d   1       1.239  -0.705   0.001  0.00  0.00     0.054 A 
ATOM      3  C3  IND d   1       0.425  -0.157  -0.928  0.00  0.00    -0.031 A 
ATOM      4  C4  IND d   1      -1.414   1.623  -0.647  0.00  0.00     0.051 A 
ATOM      5  C5  IND d   1      -2.084   2.338   0.306  0.00  0.00    -0.031 A 
ATOM      6  C6  IND d   1      -1.775   2.235   1.647  0.00  0.00     0.015 A 
ATOM      7  C7  IND d   1      -0.772   1.417   2.086  0.00  0.00    -0.016 A 
ATOM      8  C8  IND d   1      -0.094   0.685   1.122  0.00  0.00    -0.047 A 
ATOM      9  C9  IND d   1      -0.432   0.753  -0.236  0.00  0.00    -0.096 A 
ATOM     10  HN1 IND d   1       1.316  -0.455   1.979  0.00  0.00     0.298 HD
ENDROOT
TORSDOF 0
ENDMDL
