MODEL 1
REMARK minimizedAffinity -1.97719061
REMARK minimizedRMSD -1
REMARK  0 active torsions:
REMARK  status: ('A' for Active; 'I' for Inactive)
ROOT
ATOM      1  N1  IND d   1       0.644   1.960  -1.099  0.00  0.00    -0.196 N 
ATOM      2  C2  IND d   1       1.526   0.940  -1.329  0.00  0.00     0.054 A 
ATOM      3  C3  IND d   1       1.374  -0.032  -0.402  0.00  0.00    -0.031 A 
ATOM      4  C4  IND d   1      -0.328  -0.204   1.523  0.00  0.00     0.051 A 
ATOM      5  C5  IND d   1      -1.313   0.500   2.155  0.00  0.00    -0.031 A 
ATOM      6  C6  IND d   1      -1.707   1.751   1.725  0.00  0.00     0.015 A 
ATOM      7  C7  IND d   1      -1.134   2.342   0.635  0.00  0.00    -0.016 A 
ATOM      8  C8  IND d   1      -0.128   1.633  -0.006  0.00  0.00    -0.047 A 
ATOM      9  C9  IND d   1       0.305   0.381   0.451  0.00  0.00    -0.096 A 
ATOM     10  HN1 IND d   1       0.583   2.683  -1.559  0.00  0.00     0.298 HD
ENDROOT
TORSDOF 0
ENDMDL
