MODEL 1
REMARK minimizedAffinity -0.918947577
REMARK minimizedRMSD -1
REMARK  0 active torsions:
REMARK  status: ('A' for Active; 'I' for Inactive)
ROOT
ATOM      1  N1  IND d   1      -0.159  -0.513  -1.540  0.00  0.00    -0.196 N 
ATOM      2  C2  IND d   1       0.720  -1.487  -1.155  0.00  0.00     0.054 A 
ATOM      3  C3  IND d   1       0.888  -1.464   0.186  0.00  0.00    -0.031 A 
ATOM      4  C4  IND d   1      -0.254   0.019   1.954  0.00  0.00     0.051 A 
ATOM      5  C5  IND d   1      -1.105   1.080   2.082  0.00  0.00    -0.031 A 
ATOM      6  C6  IND d   1      -1.699   1.675   0.988  0.00  0.00     0.015 A 
ATOM      7  C7  IND d   1      -1.471   1.221  -0.281  0.00  0.00    -0.016 A 
ATOM      8  C8  IND d   1      -0.601   0.148  -0.415  0.00  0.00    -0.047 A 
ATOM      9  C9  IND d   1       0.037  -0.433   0.688  0.00  0.00    -0.096 A 
ATOM     10  HN1 IND d   1      -0.395  -0.342  -2.349  0.00  0.00     0.298 HD
ENDROOT
TORSDOF 0
ENDMDL
