MODEL 1
REMARK minimizedAffinity -5.99025917
REMARK minimizedRMSD -1
REMARK  0 active torsions:
REMARK  status: ('A' for Active; 'I' for Inactive)
ROOT
ATOM      1  N1  IND d   1       0.704   1.697  -1.174  0.00  0.00    -0.196 N 
ATOM      2  C2  IND d   1       1.496   0.587  -1.271  0.00  0.00     0.054 A 
ATOM      3  C3  IND d   1       1.058  -0.377  -0.430  0.00  0.00    -0.031 A 
ATOM      4  C4  IND d   1      -0.995  -0.385   1.122  0.00  0.00     0.051 A 
ATOM      5  C5  IND d   1      -2.002   0.418   1.581  0.00  0.00    -0.031 A 
ATOM      6  C6  IND d   1      -2.163   1.713   1.133  0.00  0.00     0.015 A 
ATOM      7  C7  IND d   1      -1.326   2.253   0.198  0.00  0.00    -0.016 A 
ATOM      8  C8  IND d   1      -0.299   1.443  -0.265  0.00  0.00    -0.047 A 
ATOM      9  C9  IND d   1      -0.105   0.142   0.217  0.00  0.00    -0.096 A 
ATOM     10  HN1 IND d   1       0.815   2.431  -1.609  0.00  0.00     0.298 HD
ENDROOT
TORSDOF 0
ENDMDL
