MODEL 1
REMARK minimizedAffinity 3.3236196
REMARK minimizedRMSD -1
REMARK  0 active torsions:
REMARK  status: ('A' for Active; 'I' for Inactive)
ROOT
ATOM      1  C   UNL d   1      -1.601   2.241   2.312  0.00  0.00     0.124 A 
ATOM      2  C1  UNL d   1      -2.834   2.515   1.736  0.00  0.00     0.062 A 
ATOM      3  C2  UNL d   1      -3.614   1.481   1.226  0.00  0.00     0.162 A 
ATOM      4  C3  UNL d   1      -3.164   0.163   1.290  0.00  0.00    -0.034 A 
ATOM      5  C4  UNL d   1      -1.923  -0.106   1.871  0.00  0.00     0.162 A 
ATOM      6  C5  UNL d   1      -1.147   0.931   2.379  0.00  0.00     0.062 A 
ATOM      7  F   UNL d   1       0.044   0.664   2.935  0.00  0.00    -0.097 F 
ATOM      8  F1  UNL d   1      -1.460  -1.362   1.949  0.00  0.00    -0.096 F 
ATOM      9  I   UNL d   1      -4.327  -1.386   0.529  0.00  0.00    -0.060 I 
ATOM     10  F2  UNL d   1      -4.800   1.776   0.675  0.00  0.00    -0.096 F 
ATOM     11  F3  UNL d   1      -3.274   3.780   1.670  0.00  0.00    -0.097 F 
ATOM     12  F4  UNL d   1      -0.852   3.237   2.802  0.00  0.00    -0.092 F 
ENDROOT
TORSDOF 0
ENDMDL
