MODEL 1
REMARK minimizedAffinity 14.8878422
REMARK minimizedRMSD -1
REMARK  0 active torsions:
REMARK  status: ('A' for Active; 'I' for Inactive)
ROOT
ATOM      1  C   UNL d   1      -1.155   1.558   1.901  0.00  0.00     0.124 A 
ATOM      2  C1  UNL d   1      -0.027   0.751   1.838  0.00  0.00     0.062 A 
ATOM      3  C2  UNL d   1       0.622   0.549   0.624  0.00  0.00     0.162 A 
ATOM      4  C3  UNL d   1       0.145   1.155  -0.539  0.00  0.00    -0.034 A 
ATOM      5  C4  UNL d   1      -0.990   1.964  -0.468  0.00  0.00     0.162 A 
ATOM      6  C5  UNL d   1      -1.635   2.163   0.748  0.00  0.00     0.062 A 
ATOM      7  F   UNL d   1      -2.725   2.942   0.807  0.00  0.00    -0.097 F 
ATOM      8  F1  UNL d   1      -1.475   2.562  -1.566  0.00  0.00    -0.096 F 
ATOM      9  I   UNL d   1       1.113   0.855  -2.357  0.00  0.00    -0.060 I 
ATOM     10  F2  UNL d   1       1.710  -0.235   0.592  0.00  0.00    -0.096 F 
ATOM     11  F3  UNL d   1       0.438   0.164   2.950  0.00  0.00    -0.097 F 
ATOM     12  F4  UNL d   1      -1.778   1.750   3.070  0.00  0.00    -0.092 F 
ENDROOT
TORSDOF 0
ENDMDL
