MODEL 1
REMARK minimizedAffinity 13.0434942
REMARK minimizedRMSD -1
REMARK  0 active torsions:
REMARK  status: ('A' for Active; 'I' for Inactive)
ROOT
ATOM      1  C   UNL d   1      -1.383   2.425   0.930  0.00  0.00     0.124 A 
ATOM      2  C1  UNL d   1      -0.585   2.254  -0.192  0.00  0.00     0.062 A 
ATOM      3  C2  UNL d   1       0.418   1.289  -0.197  0.00  0.00     0.162 A 
ATOM      4  C3  UNL d   1       0.628   0.486   0.924  0.00  0.00    -0.034 A 
ATOM      5  C4  UNL d   1      -0.178   0.665   2.050  0.00  0.00     0.162 A 
ATOM      6  C5  UNL d   1      -1.179   1.631   2.050  0.00  0.00     0.062 A 
ATOM      7  F   UNL d   1      -1.949   1.795   3.135  0.00  0.00    -0.097 F 
ATOM      8  F1  UNL d   1      -0.004  -0.090   3.145  0.00  0.00    -0.096 F 
ATOM      9  I   UNL d   1       2.126  -0.958   0.920  0.00  0.00    -0.060 I 
ATOM     10  F2  UNL d   1       1.174   1.145  -1.296  0.00  0.00    -0.096 F 
ATOM     11  F3  UNL d   1      -0.779   3.021  -1.275  0.00  0.00    -0.097 F 
ATOM     12  F4  UNL d   1      -2.346   3.356   0.933  0.00  0.00    -0.092 F 
ENDROOT
TORSDOF 0
ENDMDL
