MODEL 1
REMARK minimizedAffinity 1.991413
REMARK minimizedRMSD -1
REMARK  0 active torsions:
REMARK  status: ('A' for Active; 'I' for Inactive)
ROOT
ATOM      1  C   UNL d   1      -1.587   2.211   0.795  0.00  0.00     0.124 A 
ATOM      2  C1  UNL d   1      -1.259   1.222   1.711  0.00  0.00     0.062 A 
ATOM      3  C2  UNL d   1      -0.181   0.374   1.471  0.00  0.00     0.162 A 
ATOM      4  C3  UNL d   1       0.579   0.514   0.310  0.00  0.00    -0.034 A 
ATOM      5  C4  UNL d   1       0.242   1.511  -0.608  0.00  0.00     0.162 A 
ATOM      6  C5  UNL d   1      -0.836   2.355  -0.363  0.00  0.00     0.062 A 
ATOM      7  F   UNL d   1      -1.151   3.311  -1.250  0.00  0.00    -0.097 F 
ATOM      8  F1  UNL d   1       0.952   1.673  -1.735  0.00  0.00    -0.096 F 
ATOM      9  I   UNL d   1       2.191  -0.751  -0.053  0.00  0.00    -0.060 I 
ATOM     10  F2  UNL d   1       0.113  -0.573   2.374  0.00  0.00    -0.096 F 
ATOM     11  F3  UNL d   1      -1.983   1.080   2.831  0.00  0.00    -0.097 F 
ATOM     12  F4  UNL d   1      -2.625   3.024   1.028  0.00  0.00    -0.092 F 
ENDROOT
TORSDOF 0
ENDMDL
