MODEL 1
REMARK minimizedAffinity 16.0215702
REMARK minimizedRMSD -1
REMARK  0 active torsions:
REMARK  status: ('A' for Active; 'I' for Inactive)
ROOT
ATOM      1  C   UNL d   1      -1.444   2.673  -0.634  0.00  0.00     0.124 A 
ATOM      2  C1  UNL d   1      -2.022   2.714   0.627  0.00  0.00     0.062 A 
ATOM      3  C2  UNL d   1      -1.424   2.049   1.693  0.00  0.00     0.162 A 
ATOM      4  C3  UNL d   1      -0.239   1.338   1.503  0.00  0.00    -0.034 A 
ATOM      5  C4  UNL d   1       0.336   1.301   0.232  0.00  0.00     0.162 A 
ATOM      6  C5  UNL d   1      -0.266   1.967  -0.831  0.00  0.00     0.062 A 
ATOM      7  F   UNL d   1       0.295   1.927  -2.048  0.00  0.00    -0.097 F 
ATOM      8  F1  UNL d   1       1.476   0.627   0.014  0.00  0.00    -0.096 F 
ATOM      9  I   UNL d   1       0.659   0.342   3.095  0.00  0.00    -0.060 I 
ATOM     10  F2  UNL d   1      -2.005   2.105   2.901  0.00  0.00    -0.096 F 
ATOM     11  F3  UNL d   1      -3.162   3.394   0.819  0.00  0.00    -0.097 F 
ATOM     12  F4  UNL d   1      -2.023   3.313  -1.658  0.00  0.00    -0.092 F 
ENDROOT
TORSDOF 0
ENDMDL
