MODEL 1
REMARK minimizedAffinity 12.9618349
REMARK minimizedRMSD -1
REMARK  0 active torsions:
REMARK  status: ('A' for Active; 'I' for Inactive)
ROOT
ATOM      1  C   UNL d   1      -1.765   1.363   2.336  0.00  0.00     0.124 A 
ATOM      2  C1  UNL d   1      -0.677   0.502   2.325  0.00  0.00     0.062 A 
ATOM      3  C2  UNL d   1       0.112   0.385   1.184  0.00  0.00     0.162 A 
ATOM      4  C3  UNL d   1      -0.184   1.133   0.044  0.00  0.00    -0.034 A 
ATOM      5  C4  UNL d   1      -1.281   1.997   0.063  0.00  0.00     0.162 A 
ATOM      6  C5  UNL d   1      -2.066   2.110   1.206  0.00  0.00     0.062 A 
ATOM      7  F   UNL d   1      -3.117   2.942   1.215  0.00  0.00    -0.097 F 
ATOM      8  F1  UNL d   1      -1.594   2.731  -1.015  0.00  0.00    -0.096 F 
ATOM      9  I   UNL d   1       0.992   0.962  -1.664  0.00  0.00    -0.060 I 
ATOM     10  F2  UNL d   1       1.157  -0.455   1.201  0.00  0.00    -0.096 F 
ATOM     11  F3  UNL d   1      -0.384  -0.222   3.415  0.00  0.00    -0.097 F 
ATOM     12  F4  UNL d   1      -2.523   1.472   3.435  0.00  0.00    -0.092 F 
ENDROOT
TORSDOF 0
ENDMDL
