MODEL 1
REMARK minimizedAffinity 4.16245937
REMARK minimizedRMSD -1
REMARK  0 active torsions:
REMARK  status: ('A' for Active; 'I' for Inactive)
ROOT
ATOM      1  C   UNL d   1      -0.452   2.525  -1.214  0.00  0.00     0.124 A 
ATOM      2  C1  UNL d   1      -1.561   2.944  -0.492  0.00  0.00     0.062 A 
ATOM      3  C2  UNL d   1      -1.869   2.347   0.726  0.00  0.00     0.162 A 
ATOM      4  C3  UNL d   1      -1.067   1.324   1.232  0.00  0.00    -0.034 A 
ATOM      5  C4  UNL d   1       0.046   0.907   0.500  0.00  0.00     0.162 A 
ATOM      6  C5  UNL d   1       0.350   1.507  -0.718  0.00  0.00     0.062 A 
ATOM      7  F   UNL d   1       1.422   1.101  -1.414  0.00  0.00    -0.097 F 
ATOM      8  F1  UNL d   1       0.839  -0.074   0.956  0.00  0.00    -0.096 F 
ATOM      9  I   UNL d   1      -1.525   0.428   3.054  0.00  0.00    -0.060 I 
ATOM     10  F2  UNL d   1      -2.947   2.772   1.403  0.00  0.00    -0.096 F 
ATOM     11  F3  UNL d   1      -2.338   3.927  -0.970  0.00  0.00    -0.097 F 
ATOM     12  F4  UNL d   1      -0.158   3.101  -2.387  0.00  0.00    -0.092 F 
ENDROOT
TORSDOF 0
ENDMDL
