MODEL 1
REMARK minimizedAffinity 5.3168335
REMARK minimizedRMSD -1
REMARK  0 active torsions:
REMARK  status: ('A' for Active; 'I' for Inactive)
ROOT
ATOM      1  C   UNL d   1      -2.242   2.205   1.024  0.00  0.00     0.124 A 
ATOM      2  C1  UNL d   1      -1.634   2.534  -0.180  0.00  0.00     0.062 A 
ATOM      3  C2  UNL d   1      -0.432   1.935  -0.544  0.00  0.00     0.162 A 
ATOM      4  C3  UNL d   1       0.171   0.999   0.296  0.00  0.00    -0.034 A 
ATOM      5  C4  UNL d   1      -0.446   0.673   1.506  0.00  0.00     0.162 A 
ATOM      6  C5  UNL d   1      -1.648   1.275   1.865  0.00  0.00     0.062 A 
ATOM      7  F   UNL d   1      -2.234   0.956   3.028  0.00  0.00    -0.097 F 
ATOM      8  F1  UNL d   1       0.105  -0.223   2.337  0.00  0.00    -0.096 F 
ATOM      9  I   UNL d   1       1.968   0.100  -0.244  0.00  0.00    -0.060 I 
ATOM     10  F2  UNL d   1       0.133   2.272  -1.713  0.00  0.00    -0.096 F 
ATOM     11  F3  UNL d   1      -2.206   3.433  -0.994  0.00  0.00    -0.097 F 
ATOM     12  F4  UNL d   1      -3.398   2.784   1.372  0.00  0.00    -0.092 F 
ENDROOT
TORSDOF 0
ENDMDL
