MODEL 1
REMARK minimizedAffinity 20.2345428
REMARK minimizedRMSD -1
REMARK  0 active torsions:
REMARK  status: ('A' for Active; 'I' for Inactive)
ROOT
ATOM      1  C   UNL d   1      -0.908   1.747   2.803  0.00  0.00     0.124 A 
ATOM      2  C1  UNL d   1      -1.908   0.785   2.754  0.00  0.00     0.062 A 
ATOM      3  C2  UNL d   1      -1.639  -0.524   3.142  0.00  0.00     0.162 A 
ATOM      4  C3  UNL d   1      -0.365  -0.879   3.584  0.00  0.00    -0.034 A 
ATOM      5  C4  UNL d   1       0.636   0.093   3.630  0.00  0.00     0.162 A 
ATOM      6  C5  UNL d   1       0.362   1.400   3.241  0.00  0.00     0.062 A 
ATOM      7  F   UNL d   1       1.329   2.328   3.289  0.00  0.00    -0.097 F 
ATOM      8  F1  UNL d   1       1.872  -0.214   4.050  0.00  0.00    -0.096 F 
ATOM      9  I   UNL d   1       0.041  -2.836   4.166  0.00  0.00    -0.060 I 
ATOM     10  F2  UNL d   1      -2.624  -1.433   3.084  0.00  0.00    -0.096 F 
ATOM     11  F3  UNL d   1      -3.136   1.118   2.330  0.00  0.00    -0.097 F 
ATOM     12  F4  UNL d   1      -1.169   3.006   2.428  0.00  0.00    -0.092 F 
ENDROOT
TORSDOF 0
ENDMDL
