MODEL 1
REMARK minimizedAffinity 22.8715992
REMARK minimizedRMSD -1
REMARK  0 active torsions:
REMARK  status: ('A' for Active; 'I' for Inactive)
ROOT
ATOM      1  C   UNL d   1      -1.821   1.524   2.433  0.00  0.00     0.124 A 
ATOM      2  C1  UNL d   1      -0.718   0.755   2.086  0.00  0.00     0.062 A 
ATOM      3  C2  UNL d   1      -0.066   0.971   0.876  0.00  0.00     0.162 A 
ATOM      4  C3  UNL d   1      -0.513   1.963   0.003  0.00  0.00    -0.034 A 
ATOM      5  C4  UNL d   1      -1.623   2.732   0.358  0.00  0.00     0.162 A 
ATOM      6  C5  UNL d   1      -2.272   2.512   1.568  0.00  0.00     0.062 A 
ATOM      7  F   UNL d   1      -3.336   3.256   1.901  0.00  0.00    -0.097 F 
ATOM      8  F1  UNL d   1      -2.079   3.694  -0.458  0.00  0.00    -0.096 F 
ATOM      9  I   UNL d   1       0.460   2.290  -1.807  0.00  0.00    -0.060 I 
ATOM     10  F2  UNL d   1       0.997   0.213   0.568  0.00  0.00    -0.096 F 
ATOM     11  F3  UNL d   1      -0.281  -0.201   2.919  0.00  0.00    -0.097 F 
ATOM     12  F4  UNL d   1      -2.447   1.313   3.597  0.00  0.00    -0.092 F 
ENDROOT
TORSDOF 0
ENDMDL
