MODEL 1
REMARK minimizedAffinity 21.3768749
REMARK minimizedRMSD -1
REMARK  0 active torsions:
REMARK  status: ('A' for Active; 'I' for Inactive)
ROOT
ATOM      1  C   UNL d   1       5.814  -2.382   0.732  0.00  0.00     0.124 A 
ATOM      2  C1  UNL d   1       5.654  -2.078  -0.613  0.00  0.00     0.062 A 
ATOM      3  C2  UNL d   1       5.464  -3.095  -1.543  0.00  0.00     0.162 A 
ATOM      4  C3  UNL d   1       5.431  -4.428  -1.132  0.00  0.00    -0.034 A 
ATOM      5  C4  UNL d   1       5.593  -4.727   0.222  0.00  0.00     0.162 A 
ATOM      6  C5  UNL d   1       5.783  -3.706   1.148  0.00  0.00     0.062 A 
ATOM      7  F   UNL d   1       5.937  -4.002   2.446  0.00  0.00    -0.097 F 
ATOM      8  F1  UNL d   1       5.567  -5.997   0.651  0.00  0.00    -0.096 F 
ATOM      9  I   UNL d   1       5.146  -5.952  -2.521  0.00  0.00    -0.060 I 
ATOM     10  F2  UNL d   1       5.312  -2.772  -2.836  0.00  0.00    -0.096 F 
ATOM     11  F3  UNL d   1       5.684  -0.800  -1.018  0.00  0.00    -0.097 F 
ATOM     12  F4  UNL d   1       5.998  -1.402   1.625  0.00  0.00    -0.092 F 
ENDROOT
TORSDOF 0
ENDMDL
