MODEL 1
REMARK minimizedAffinity 15.6701422
REMARK minimizedRMSD -1
REMARK  0 active torsions:
REMARK  status: ('A' for Active; 'I' for Inactive)
ROOT
ATOM      1  C   UNL d   1       0.171   0.436  -2.766  0.00  0.00     0.124 A 
ATOM      2  C1  UNL d   1       0.757   1.409  -1.969  0.00  0.00     0.062 A 
ATOM      3  C2  UNL d   1       0.044   1.975  -0.916  0.00  0.00     0.162 A 
ATOM      4  C3  UNL d   1      -1.264   1.568  -0.653  0.00  0.00    -0.034 A 
ATOM      5  C4  UNL d   1      -1.847   0.589  -1.460  0.00  0.00     0.162 A 
ATOM      6  C5  UNL d   1      -1.130   0.026  -2.511  0.00  0.00     0.062 A 
ATOM      7  F   UNL d   1      -1.698  -0.914  -3.280  0.00  0.00    -0.097 F 
ATOM      8  F1  UNL d   1      -3.103   0.174  -1.235  0.00  0.00    -0.096 F 
ATOM      9  I   UNL d   1      -2.334   2.412   0.920  0.00  0.00    -0.060 I 
ATOM     10  F2  UNL d   1       0.635   2.914  -0.163  0.00  0.00    -0.096 F 
ATOM     11  F3  UNL d   1       2.014   1.807  -2.214  0.00  0.00    -0.097 F 
ATOM     12  F4  UNL d   1       0.860  -0.106  -3.779  0.00  0.00    -0.092 F 
ENDROOT
TORSDOF 0
ENDMDL
