MODEL 1
REMARK minimizedAffinity 11.4860811
REMARK minimizedRMSD -1
REMARK  0 active torsions:
REMARK  status: ('A' for Active; 'I' for Inactive)
ROOT
ATOM      1  C   UNL d   1      -0.016   1.188  -0.759  0.00  0.00     0.124 A 
ATOM      2  C1  UNL d   1       0.856   1.771  -1.668  0.00  0.00     0.062 A 
ATOM      3  C2  UNL d   1       1.108   3.139  -1.619  0.00  0.00     0.162 A 
ATOM      4  C3  UNL d   1       0.487   3.934  -0.655  0.00  0.00    -0.034 A 
ATOM      5  C4  UNL d   1      -0.390   3.341   0.255  0.00  0.00     0.162 A 
ATOM      6  C5  UNL d   1      -0.638   1.974   0.201  0.00  0.00     0.062 A 
ATOM      7  F   UNL d   1      -1.481   1.412   1.080  0.00  0.00    -0.097 F 
ATOM      8  F1  UNL d   1      -1.003   4.076   1.194  0.00  0.00    -0.096 F 
ATOM      9  I   UNL d   1       0.861   5.980  -0.577  0.00  0.00    -0.060 I 
ATOM     10  F2  UNL d   1       1.955   3.676  -2.509  0.00  0.00    -0.096 F 
ATOM     11  F3  UNL d   1       1.458   1.015  -2.598  0.00  0.00    -0.097 F 
ATOM     12  F4  UNL d   1      -0.257  -0.128  -0.810  0.00  0.00    -0.092 F 
ENDROOT
TORSDOF 0
ENDMDL
