MODEL 1
REMARK minimizedAffinity 15.098877
REMARK minimizedRMSD -1
REMARK  0 active torsions:
REMARK  status: ('A' for Active; 'I' for Inactive)
ROOT
ATOM      1  C   UNL d   1       4.347  -3.665   1.402  0.00  0.00     0.124 A 
ATOM      2  C1  UNL d   1       3.071  -4.085   1.052  0.00  0.00     0.062 A 
ATOM      3  C2  UNL d   1       2.213  -3.225   0.372  0.00  0.00     0.162 A 
ATOM      4  C3  UNL d   1       2.628  -1.936   0.037  0.00  0.00    -0.034 A 
ATOM      5  C4  UNL d   1       3.912  -1.520   0.394  0.00  0.00     0.162 A 
ATOM      6  C5  UNL d   1       4.766  -2.383   1.073  0.00  0.00     0.062 A 
ATOM      7  F   UNL d   1       5.998  -1.975   1.411  0.00  0.00    -0.097 F 
ATOM      8  F1  UNL d   1       4.343  -0.288   0.088  0.00  0.00    -0.096 F 
ATOM      9  I   UNL d   1       1.348  -0.648  -0.979  0.00  0.00    -0.060 I 
ATOM     10  F2  UNL d   1       0.986  -3.658   0.046  0.00  0.00    -0.096 F 
ATOM     11  F3  UNL d   1       2.664  -5.322   1.370  0.00  0.00    -0.097 F 
ATOM     12  F4  UNL d   1       5.170  -4.493   2.057  0.00  0.00    -0.092 F 
ENDROOT
TORSDOF 0
ENDMDL
