MODEL 1
REMARK minimizedAffinity 15.0651121
REMARK minimizedRMSD -1
REMARK  0 active torsions:
REMARK  status: ('A' for Active; 'I' for Inactive)
ROOT
ATOM      1  C   UNL d   1      -0.341  -0.062  -2.578  0.00  0.00     0.124 A 
ATOM      2  C1  UNL d   1      -1.623  -0.432  -2.194  0.00  0.00     0.062 A 
ATOM      3  C2  UNL d   1      -2.313   0.318  -1.246  0.00  0.00     0.162 A 
ATOM      4  C3  UNL d   1      -1.724   1.447  -0.676  0.00  0.00    -0.034 A 
ATOM      5  C4  UNL d   1      -0.434   1.812  -1.067  0.00  0.00     0.162 A 
ATOM      6  C5  UNL d   1       0.251   1.059  -2.015  0.00  0.00     0.062 A 
ATOM      7  F   UNL d   1       1.489   1.418  -2.385  0.00  0.00    -0.097 F 
ATOM      8  F1  UNL d   1       0.162   2.891  -0.539  0.00  0.00    -0.096 F 
ATOM      9  I   UNL d   1      -2.753   2.571   0.742  0.00  0.00    -0.060 I 
ATOM     10  F2  UNL d   1      -3.550  -0.063  -0.893  0.00  0.00    -0.096 F 
ATOM     11  F3  UNL d   1      -2.197  -1.515  -2.736  0.00  0.00    -0.097 F 
ATOM     12  F4  UNL d   1       0.321  -0.786  -3.490  0.00  0.00    -0.092 F 
ENDROOT
TORSDOF 0
ENDMDL
