MODEL 1
REMARK minimizedAffinity 18.6118546
REMARK minimizedRMSD -1
REMARK  0 active torsions:
REMARK  status: ('A' for Active; 'I' for Inactive)
ROOT
ATOM      1  C   UNL d   1       0.158   0.635   3.360  0.00  0.00     0.124 A 
ATOM      2  C1  UNL d   1       0.658   1.806   2.807  0.00  0.00     0.062 A 
ATOM      3  C2  UNL d   1      -0.177   2.647   2.077  0.00  0.00     0.162 A 
ATOM      4  C3  UNL d   1      -1.521   2.320   1.896  0.00  0.00    -0.034 A 
ATOM      5  C4  UNL d   1      -2.016   1.141   2.454  0.00  0.00     0.162 A 
ATOM      6  C5  UNL d   1      -1.178   0.304   3.184  0.00  0.00     0.062 A 
ATOM      7  F   UNL d   1      -1.663  -0.827   3.718  0.00  0.00    -0.097 F 
ATOM      8  F1  UNL d   1      -3.303   0.797   2.300  0.00  0.00    -0.096 F 
ATOM      9  I   UNL d   1      -2.772   3.575   0.804  0.00  0.00    -0.060 I 
ATOM     10  F2  UNL d   1       0.333   3.771   1.553  0.00  0.00    -0.096 F 
ATOM     11  F3  UNL d   1       1.948   2.128   2.976  0.00  0.00    -0.097 F 
ATOM     12  F4  UNL d   1       0.963  -0.173   4.062  0.00  0.00    -0.092 F 
ENDROOT
TORSDOF 0
ENDMDL
