MODEL 1
REMARK minimizedAffinity 9.48863602
REMARK minimizedRMSD -1
REMARK  0 active torsions:
REMARK  status: ('A' for Active; 'I' for Inactive)
ROOT
ATOM      1  C   UNL d   1       3.792  -1.910   1.360  0.00  0.00     0.124 A 
ATOM      2  C1  UNL d   1       4.911  -2.152   0.575  0.00  0.00     0.062 A 
ATOM      3  C2  UNL d   1       4.905  -3.194  -0.348  0.00  0.00     0.162 A 
ATOM      4  C3  UNL d   1       3.777  -4.001  -0.492  0.00  0.00    -0.034 A 
ATOM      5  C4  UNL d   1       2.656  -3.752   0.302  0.00  0.00     0.162 A 
ATOM      6  C5  UNL d   1       2.666  -2.709   1.223  0.00  0.00     0.062 A 
ATOM      7  F   UNL d   1       1.585  -2.476   1.981  0.00  0.00    -0.097 F 
ATOM      8  F1  UNL d   1       1.554  -4.508   0.190  0.00  0.00    -0.096 F 
ATOM      9  I   UNL d   1       3.765  -5.560  -1.871  0.00  0.00    -0.060 I 
ATOM     10  F2  UNL d   1       6.000  -3.406  -1.094  0.00  0.00    -0.096 F 
ATOM     11  F3  UNL d   1       6.000  -1.382   0.706  0.00  0.00    -0.097 F 
ATOM     12  F4  UNL d   1       3.800  -0.907   2.248  0.00  0.00    -0.092 F 
ENDROOT
TORSDOF 0
ENDMDL
