MODEL 1
REMARK minimizedAffinity 6.92683172
REMARK minimizedRMSD -1
REMARK  0 active torsions:
REMARK  status: ('A' for Active; 'I' for Inactive)
ROOT
ATOM      1  C   UNL d   1      -0.698  -1.223   3.351  0.00  0.00     0.124 A 
ATOM      2  C1  UNL d   1      -2.037  -1.043   3.034  0.00  0.00     0.062 A 
ATOM      3  C2  UNL d   1      -2.444   0.087   2.330  0.00  0.00     0.162 A 
ATOM      4  C3  UNL d   1      -1.511   1.046   1.939  0.00  0.00    -0.034 A 
ATOM      5  C4  UNL d   1      -0.166   0.859   2.263  0.00  0.00     0.162 A 
ATOM      6  C5  UNL d   1       0.236  -0.272   2.966  0.00  0.00     0.062 A 
ATOM      7  F   UNL d   1       1.531  -0.443   3.272  0.00  0.00    -0.097 F 
ATOM      8  F1  UNL d   1       0.758   1.762   1.902  0.00  0.00    -0.096 F 
ATOM      9  I   UNL d   1      -2.115   2.737   0.887  0.00  0.00    -0.060 I 
ATOM     10  F2  UNL d   1      -3.745   0.234   2.037  0.00  0.00    -0.096 F 
ATOM     11  F3  UNL d   1      -2.941  -1.960   3.406  0.00  0.00    -0.097 F 
ATOM     12  F4  UNL d   1      -0.309  -2.310   4.029  0.00  0.00    -0.092 F 
ENDROOT
TORSDOF 0
ENDMDL
