MODEL 1
REMARK minimizedAffinity 14.0382805
REMARK minimizedRMSD -1
REMARK  0 active torsions:
REMARK  status: ('A' for Active; 'I' for Inactive)
ROOT
ATOM      1  C   UNL d   1      -1.504  -6.000   0.192  0.00  0.00     0.020 A 
ATOM      2  C1  UNL d   1      -1.510  -5.872  -1.196  0.00  0.00     0.020 A 
ATOM      3  C2  UNL d   1      -0.316  -5.637  -1.881  0.00  0.00     0.034 A 
ATOM      4  C3  UNL d   1       0.889  -5.530  -1.178  0.00  0.00     0.017 A 
ATOM      5  C4  UNL d   1       0.894  -5.658   0.216  0.00  0.00     0.017 A 
ATOM      6  C5  UNL d   1      -0.304  -5.893   0.897  0.00  0.00     0.034 A 
ATOM      7 Cl   UNL d   1       2.342  -5.538   1.153  0.00  0.00    -0.070 Cl
ATOM      8 Cl1  UNL d   1       2.328  -5.239  -2.089  0.00  0.00    -0.070 Cl
ENDROOT
TORSDOF 0
ENDMDL
