MODEL 1
REMARK minimizedAffinity 15.9898767
REMARK minimizedRMSD -1
REMARK  0 active torsions:
REMARK  status: ('A' for Active; 'I' for Inactive)
ROOT
ATOM      1  C   UNL d   1       1.511  -2.322   2.591  0.00  0.00     0.020 A 
ATOM      2  C1  UNL d   1       0.927  -1.377   1.749  0.00  0.00     0.020 A 
ATOM      3  C2  UNL d   1       1.712  -0.687   0.822  0.00  0.00     0.034 A 
ATOM      4  C3  UNL d   1       3.086  -0.941   0.736  0.00  0.00     0.017 A 
ATOM      5  C4  UNL d   1       3.671  -1.889   1.582  0.00  0.00     0.017 A 
ATOM      6  C5  UNL d   1       2.881  -2.578   2.508  0.00  0.00     0.034 A 
ATOM      7 Cl   UNL d   1       5.360  -2.257   1.535  0.00  0.00    -0.070 Cl
ATOM      8 Cl1  UNL d   1       3.995  -0.051  -0.432  0.00  0.00    -0.070 Cl
ENDROOT
TORSDOF 0
ENDMDL
