MODEL 1
REMARK minimizedAffinity 15.9446392
REMARK minimizedRMSD -1
REMARK  0 active torsions:
REMARK  status: ('A' for Active; 'I' for Inactive)
ROOT
ATOM      1  C   UNL d   1       1.658  -0.514   0.851  0.00  0.00     0.020 A 
ATOM      2  C1  UNL d   1       1.113  -0.018   2.035  0.00  0.00     0.020 A 
ATOM      3  C2  UNL d   1       1.071  -0.823   3.175  0.00  0.00     0.034 A 
ATOM      4  C3  UNL d   1       1.575  -2.128   3.135  0.00  0.00     0.017 A 
ATOM      5  C4  UNL d   1       2.122  -2.625   1.946  0.00  0.00     0.017 A 
ATOM      6  C5  UNL d   1       2.162  -1.814   0.807  0.00  0.00     0.034 A 
ATOM      7 Cl   UNL d   1       2.764  -4.225   1.819  0.00  0.00    -0.070 Cl
ATOM      8 Cl1  UNL d   1       1.491  -3.067   4.582  0.00  0.00    -0.070 Cl
ENDROOT
TORSDOF 0
ENDMDL
