MODEL 1
REMARK minimizedAffinity 7.91541386
REMARK minimizedRMSD -1
REMARK  0 active torsions:
REMARK  status: ('A' for Active; 'I' for Inactive)
ROOT
ATOM      1  C   UNL d   1       0.350  -0.247   2.436  0.00  0.00     0.020 A 
ATOM      2  C1  UNL d   1       1.270   0.698   1.983  0.00  0.00     0.020 A 
ATOM      3  C2  UNL d   1       2.566   0.304   1.644  0.00  0.00     0.034 A 
ATOM      4  C3  UNL d   1       2.946  -1.039   1.756  0.00  0.00     0.017 A 
ATOM      5  C4  UNL d   1       2.021  -1.986   2.210  0.00  0.00     0.017 A 
ATOM      6  C5  UNL d   1       0.725  -1.586   2.548  0.00  0.00     0.034 A 
ATOM      7 Cl   UNL d   1       2.416  -3.661   2.374  0.00  0.00    -0.070 Cl
ATOM      8 Cl1  UNL d   1       4.564  -1.455   1.318  0.00  0.00    -0.070 Cl
ENDROOT
TORSDOF 0
ENDMDL
