MODEL 1
REMARK minimizedAffinity 12.0467834
REMARK minimizedRMSD -1
REMARK  0 active torsions:
REMARK  status: ('A' for Active; 'I' for Inactive)
ROOT
ATOM      1  C   UNL d   1      -2.692   2.311  -0.251  0.00  0.00     0.020 A 
ATOM      2  C1  UNL d   1      -2.348   0.978  -0.026  0.00  0.00     0.020 A 
ATOM      3  C2  UNL d   1      -2.786  -0.014  -0.906  0.00  0.00     0.034 A 
ATOM      4  C3  UNL d   1      -3.571   0.325  -2.014  0.00  0.00     0.017 A 
ATOM      5  C4  UNL d   1      -3.915   1.663  -2.239  0.00  0.00     0.017 A 
ATOM      6  C5  UNL d   1      -3.474   2.652  -1.356  0.00  0.00     0.034 A 
ATOM      7 Cl   UNL d   1      -4.880   2.158  -3.585  0.00  0.00    -0.070 Cl
ATOM      8 Cl1  UNL d   1      -4.078  -0.953  -3.061  0.00  0.00    -0.070 Cl
ENDROOT
TORSDOF 0
ENDMDL
