MODEL 1
REMARK minimizedAffinity 10.0058365
REMARK minimizedRMSD -1
REMARK  0 active torsions:
REMARK  status: ('A' for Active; 'I' for Inactive)
ROOT
ATOM      1  C   UNL d   1       1.333   0.778   2.922  0.00  0.00     0.020 A 
ATOM      2  C1  UNL d   1       1.281   0.807   4.315  0.00  0.00     0.020 A 
ATOM      3  C2  UNL d   1       1.005  -0.362   5.027  0.00  0.00     0.034 A 
ATOM      4  C3  UNL d   1       0.779  -1.565   4.346  0.00  0.00     0.017 A 
ATOM      5  C4  UNL d   1       0.832  -1.592   2.948  0.00  0.00     0.017 A 
ATOM      6  C5  UNL d   1       1.109  -0.418   2.240  0.00  0.00     0.034 A 
ATOM      7 Cl   UNL d   1       0.565  -3.037   2.039  0.00  0.00    -0.070 Cl
ATOM      8 Cl1  UNL d   1       0.444  -2.972   5.291  0.00  0.00    -0.070 Cl
ENDROOT
TORSDOF 0
ENDMDL
