MODEL 1
REMARK minimizedAffinity -0.939105272
REMARK minimizedRMSD -1
REMARK  0 active torsions:
REMARK  status: ('A' for Active; 'I' for Inactive)
ROOT
ATOM      1  C   UNL d   1       5.871   5.698  -5.126  0.00  0.00     0.020 A 
ATOM      2  C1  UNL d   1       4.780   4.954  -5.573  0.00  0.00     0.020 A 
ATOM      3  C2  UNL d   1       3.816   4.513  -4.664  0.00  0.00     0.034 A 
ATOM      4  C3  UNL d   1       3.942   4.813  -3.303  0.00  0.00     0.017 A 
ATOM      5  C4  UNL d   1       5.038   5.560  -2.855  0.00  0.00     0.017 A 
ATOM      6  C5  UNL d   1       6.000   6.000  -3.769  0.00  0.00     0.034 A 
ATOM      7 Cl   UNL d   1       5.262   5.970  -1.191  0.00  0.00    -0.070 Cl
ATOM      8 Cl1  UNL d   1       2.713   4.235  -2.235  0.00  0.00    -0.070 Cl
ENDROOT
TORSDOF 0
ENDMDL
