MODEL 1
REMARK minimizedAffinity 5.27786827
REMARK minimizedRMSD -1
REMARK  2 active torsions:
REMARK  status: ('A' for Active; 'I' for Inactive)
REMARK    1  A    between atoms: C2'_3  and  C1'_4 
REMARK    2  A    between atoms: C1'_4  and  C1_5 
ROOT
ATOM      1  C1  I4B d   1       2.261  -0.562   0.079  0.00  0.00    -0.075 A 
ATOM      2  C2  I4B d   1       2.634  -1.879   0.172  0.00  0.00     0.003 A 
ATOM      3  C3  I4B d   1       1.723  -2.846   0.663  0.00  0.00     0.002 A 
ATOM      4  C4  I4B d   1       0.475  -2.445   1.095  0.00  0.00    -0.004 A 
ATOM      5  C5  I4B d   1       0.091  -1.112   0.979  0.00  0.00     0.002 A 
ATOM      6  C6  I4B d   1       0.985  -0.166   0.457  0.00  0.00     0.003 A 
ENDROOT
BRANCH   1   7
ATOM      7  C1' I4B d   1       3.260   0.437  -0.413  0.00  0.00     0.060 C 
BRANCH   7   8
ATOM      8  C2' I4B d   1       3.199   0.451  -1.927  0.00  0.00    -0.013 C 
ATOM      9  C4' I4B d   1       2.352   1.591  -2.428  0.00  0.00     0.013 C 
ATOM     10  C3' I4B d   1       4.602   0.549  -2.446  0.00  0.00     0.013 C 
ENDBRANCH   7   8
ENDBRANCH   1   7
TORSDOF 2
ENDMDL
