MODEL 1
REMARK minimizedAffinity 8.09751034
REMARK minimizedRMSD -1
REMARK  2 active torsions:
REMARK  status: ('A' for Active; 'I' for Inactive)
REMARK    1  A    between atoms: C2'_3  and  C1'_4 
REMARK    2  A    between atoms: C1'_4  and  C1_5 
ROOT
ATOM      1  C1  I4B d   1       1.187  -1.179   0.733  0.00  0.00    -0.075 A 
ATOM      2  C2  I4B d   1       1.712  -2.391   0.360  0.00  0.00     0.003 A 
ATOM      3  C3  I4B d   1       2.800  -2.450  -0.544  0.00  0.00     0.002 A 
ATOM      4  C4  I4B d   1       3.297  -1.283  -1.086  0.00  0.00    -0.004 A 
ATOM      5  C5  I4B d   1       2.779  -0.053  -0.690  0.00  0.00     0.002 A 
ATOM      6  C6  I4B d   1       1.726   0.001   0.235  0.00  0.00     0.003 A 
ENDROOT
BRANCH   1   7
ATOM      7  C1' I4B d   1       0.017  -1.155   1.664  0.00  0.00     0.060 C 
BRANCH   7   8
ATOM      8  C2' I4B d   1      -1.179  -0.630   0.896  0.00  0.00    -0.013 C 
ATOM      9  C4' I4B d   1      -1.942  -1.751   0.242  0.00  0.00     0.013 C 
ATOM     10  C3' I4B d   1      -2.048   0.128   1.855  0.00  0.00     0.013 C 
ENDBRANCH   7   8
ENDBRANCH   1   7
TORSDOF 2
ENDMDL
