MODEL 1
REMARK minimizedAffinity 4.39578438
REMARK minimizedRMSD -1
REMARK  2 active torsions:
REMARK  status: ('A' for Active; 'I' for Inactive)
REMARK    1  A    between atoms: C2'_3  and  C1'_4 
REMARK    2  A    between atoms: C1'_4  and  C1_5 
ROOT
ATOM      1  C1  I4B d   1      -3.103   0.849  -1.446  0.00  0.00    -0.075 A 
ATOM      2  C2  I4B d   1      -2.149   1.190  -2.372  0.00  0.00     0.003 A 
ATOM      3  C3  I4B d   1      -2.422   2.184  -3.343  0.00  0.00     0.002 A 
ATOM      4  C4  I4B d   1      -3.670   2.772  -3.382  0.00  0.00    -0.004 A 
ATOM      5  C5  I4B d   1      -4.628   2.441  -2.428  0.00  0.00     0.002 A 
ATOM      6  C6  I4B d   1      -4.339   1.482  -1.446  0.00  0.00     0.003 A 
ENDROOT
BRANCH   1   7
ATOM      7  C1' I4B d   1      -2.793  -0.229  -0.456  0.00  0.00     0.060 C 
BRANCH   7   8
ATOM      8  C2' I4B d   1      -2.349   0.434   0.832  0.00  0.00    -0.013 C 
ATOM      9  C4' I4B d   1      -3.477   0.502   1.827  0.00  0.00     0.013 C 
ATOM     10  C3' I4B d   1      -1.191  -0.347   1.379  0.00  0.00     0.013 C 
ENDBRANCH   7   8
ENDBRANCH   1   7
TORSDOF 2
ENDMDL
