MODEL 1
REMARK minimizedAffinity 4.35468817
REMARK minimizedRMSD -1
REMARK  2 active torsions:
REMARK  status: ('A' for Active; 'I' for Inactive)
REMARK    1  A    between atoms: C2'_3  and  C1'_4 
REMARK    2  A    between atoms: C1'_4  and  C1_5 
ROOT
ATOM      1  C1  I4B d   1      -4.615  -5.201   1.555  0.00  0.00    -0.075 A 
ATOM      2  C2  I4B d   1      -3.283  -4.871   1.568  0.00  0.00     0.003 A 
ATOM      3  C3  I4B d   1      -2.581  -4.787   2.794  0.00  0.00     0.002 A 
ATOM      4  C4  I4B d   1      -3.258  -4.989   3.980  0.00  0.00    -0.004 A 
ATOM      5  C5  I4B d   1      -4.603  -5.345   3.964  0.00  0.00     0.002 A 
ATOM      6  C6  I4B d   1      -5.284  -5.464   2.744  0.00  0.00     0.003 A 
ENDROOT
BRANCH   1   7
ATOM      7  C1' I4B d   1      -5.334  -5.249   0.244  0.00  0.00     0.060 C 
BRANCH   7   8
ATOM      8  C2' I4B d   1      -4.431  -5.938  -0.758  0.00  0.00    -0.013 C 
ATOM      9  C4' I4B d   1      -5.064  -5.980  -2.124  0.00  0.00     0.013 C 
ATOM     10  C3' I4B d   1      -3.125  -5.201  -0.789  0.00  0.00     0.013 C 
ENDBRANCH   7   8
ENDBRANCH   1   7
TORSDOF 2
ENDMDL
