MODEL 1
REMARK minimizedAffinity -2.10383892
REMARK minimizedRMSD -1
REMARK  2 active torsions:
REMARK  status: ('A' for Active; 'I' for Inactive)
REMARK    1  A    between atoms: C2'_3  and  C1'_4 
REMARK    2  A    between atoms: C1'_4  and  C1_5 
ROOT
ATOM      1  C1  I4B d   1      -4.157  -5.959  -1.373  0.00  0.00    -0.075 A 
ATOM      2  C2  I4B d   1      -2.839  -5.996  -1.753  0.00  0.00     0.003 A 
ATOM      3  C3  I4B d   1      -2.492  -5.991  -3.126  0.00  0.00     0.002 A 
ATOM      4  C4  I4B d   1      -3.491  -6.000  -4.079  0.00  0.00    -0.004 A 
ATOM      5  C5  I4B d   1      -4.826  -5.939  -3.692  0.00  0.00     0.002 A 
ATOM      6  C6  I4B d   1      -5.162  -5.906  -2.330  0.00  0.00     0.003 A 
ENDROOT
BRANCH   1   7
ATOM      7  C1' I4B d   1      -4.488  -5.998   0.085  0.00  0.00     0.060 C 
BRANCH   7   8
ATOM      8  C2' I4B d   1      -3.227  -5.671   0.859  0.00  0.00    -0.013 C 
ATOM      9  C4' I4B d   1      -2.838  -4.227   0.683  0.00  0.00     0.013 C 
ATOM     10  C3' I4B d   1      -3.473  -5.994   2.303  0.00  0.00     0.013 C 
ENDBRANCH   7   8
ENDBRANCH   1   7
TORSDOF 2
ENDMDL
