MODEL 1
REMARK minimizedAffinity 2.37142706
REMARK minimizedRMSD -1
REMARK  2 active torsions:
REMARK  status: ('A' for Active; 'I' for Inactive)
REMARK    1  A    between atoms: C2'_3  and  C1'_4 
REMARK    2  A    between atoms: C1'_4  and  C1_5 
ROOT
ATOM      1  C1  I4B d   1       0.359  -5.885  -4.881  0.00  0.00    -0.075 A 
ATOM      2  C2  I4B d   1      -0.054  -5.917  -3.573  0.00  0.00     0.003 A 
ATOM      3  C3  I4B d   1      -1.432  -5.999  -3.262  0.00  0.00     0.002 A 
ATOM      4  C4  I4B d   1      -2.361  -5.995  -4.283  0.00  0.00    -0.004 A 
ATOM      5  C5  I4B d   1      -1.940  -5.986  -5.609  0.00  0.00     0.002 A 
ATOM      6  C6  I4B d   1      -0.571  -5.943  -5.911  0.00  0.00     0.003 A 
ENDROOT
BRANCH   1   7
ATOM      7  C1' I4B d   1       1.821  -5.765  -5.173  0.00  0.00     0.060 C 
BRANCH   7   8
ATOM      8  C2' I4B d   1       2.522  -5.365  -3.891  0.00  0.00    -0.013 C 
ATOM      9  C4' I4B d   1       1.865  -5.994  -2.691  0.00  0.00     0.013 C 
ATOM     10  C3' I4B d   1       3.959  -5.779  -4.001  0.00  0.00     0.013 C 
ENDBRANCH   7   8
ENDBRANCH   1   7
TORSDOF 2
ENDMDL
