MODEL 1
REMARK minimizedAffinity 2.81497312
REMARK minimizedRMSD -1
REMARK  2 active torsions:
REMARK  status: ('A' for Active; 'I' for Inactive)
REMARK    1  A    between atoms: C2'_3  and  C1'_4 
REMARK    2  A    between atoms: C1'_4  and  C1_5 
ROOT
ATOM      1  C1  I4B d   1      -2.096   1.121  -0.523  0.00  0.00    -0.075 A 
ATOM      2  C2  I4B d   1      -2.496  -0.031  -1.154  0.00  0.00     0.003 A 
ATOM      3  C3  I4B d   1      -2.493  -1.264  -0.458  0.00  0.00     0.002 A 
ATOM      4  C4  I4B d   1      -2.037  -1.307   0.844  0.00  0.00    -0.004 A 
ATOM      5  C5  I4B d   1      -1.653  -0.135   1.489  0.00  0.00     0.002 A 
ATOM      6  C6  I4B d   1      -1.694   1.089   0.806  0.00  0.00     0.003 A 
ENDROOT
BRANCH   1   7
ATOM      7  C1' I4B d   1      -2.081   2.400  -1.299  0.00  0.00     0.060 C 
BRANCH   7   8
ATOM      8  C2' I4B d   1      -1.515   2.105  -2.673  0.00  0.00    -0.013 C 
ATOM      9  C4' I4B d   1      -2.582   2.198  -3.733  0.00  0.00     0.013 C 
ATOM     10  C3' I4B d   1      -0.406   3.079  -2.935  0.00  0.00     0.013 C 
ENDBRANCH   7   8
ENDBRANCH   1   7
TORSDOF 2
ENDMDL
