MODEL 1
REMARK minimizedAffinity -5.48555565
REMARK minimizedRMSD -1
REMARK  2 active torsions:
REMARK  status: ('A' for Active; 'I' for Inactive)
REMARK    1  A    between atoms: C1_2  and  C2_3 
REMARK    2  A    between atoms: C2_3  and  C3_4 
ROOT
ATOM      1  C3  UNL d   1      -1.121  -0.179   0.250  0.00  0.00    -0.075 A 
ATOM      2  C4  UNL d   1      -0.290   0.940   0.097  0.00  0.00     0.002 A 
ATOM      3  C5  UNL d   1       1.072   0.856   0.388  0.00  0.00     0.002 A 
ATOM      4  C6  UNL d   1       1.617  -0.342   0.845  0.00  0.00    -0.004 A 
ATOM      5  C7  UNL d   1       0.798  -1.455   1.016  0.00  0.00     0.002 A 
ATOM      6  C8  UNL d   1      -0.564  -1.376   0.722  0.00  0.00     0.002 A 
ENDROOT
BRANCH   1   7
ATOM      7  C2  UNL d   1      -2.590  -0.103  -0.092  0.00  0.00     0.056 C 
BRANCH   7   8
ATOM      8  C1  UNL d   1      -2.875   0.405  -1.509  0.00  0.00     0.007 C 
ATOM      9  C   UNL d   1      -2.683  -0.660  -2.579  0.00  0.00     0.009 C 
ENDBRANCH   7   8
ENDBRANCH   1   7
TORSDOF 2
ENDMDL
