MODEL 1
REMARK minimizedAffinity -4.95097113
REMARK minimizedRMSD -1
REMARK  2 active torsions:
REMARK  status: ('A' for Active; 'I' for Inactive)
REMARK    1  A    between atoms: C1_2  and  C2_3 
REMARK    2  A    between atoms: C2_3  and  C3_4 
ROOT
ATOM      1  C3  UNL d   1       0.019   0.096  -0.141  0.00  0.00    -0.075 A 
ATOM      2  C4  UNL d   1       0.649  -1.154  -0.217  0.00  0.00     0.002 A 
ATOM      3  C5  UNL d   1       1.991  -1.294   0.136  0.00  0.00     0.002 A 
ATOM      4  C6  UNL d   1       2.722  -0.187   0.560  0.00  0.00    -0.004 A 
ATOM      5  C7  UNL d   1       2.111   1.064   0.624  0.00  0.00     0.002 A 
ATOM      6  C8  UNL d   1       0.767   1.206   0.274  0.00  0.00     0.002 A 
ENDROOT
BRANCH   1   7
ATOM      7  C2  UNL d   1      -1.441   0.249  -0.495  0.00  0.00     0.056 C 
BRANCH   7   8
ATOM      8  C1  UNL d   1      -1.908  -0.670  -1.629  0.00  0.00     0.007 C 
ATOM      9  C   UNL d   1      -2.718   0.057  -2.695  0.00  0.00     0.009 C 
ENDBRANCH   7   8
ENDBRANCH   1   7
TORSDOF 2
ENDMDL
