MODEL 1
REMARK minimizedAffinity -4.91813803
REMARK minimizedRMSD -1
REMARK  2 active torsions:
REMARK  status: ('A' for Active; 'I' for Inactive)
REMARK    1  A    between atoms: C1_2  and  C2_3 
REMARK    2  A    between atoms: C2_3  and  C3_4 
ROOT
ATOM      1  C3  UNL d   1      -0.751  -0.116  -0.692  0.00  0.00    -0.075 A 
ATOM      2  C4  UNL d   1      -0.689   1.275  -0.529  0.00  0.00     0.002 A 
ATOM      3  C5  UNL d   1       0.363   1.859   0.178  0.00  0.00     0.002 A 
ATOM      4  C6  UNL d   1       1.357   1.061   0.738  0.00  0.00    -0.004 A 
ATOM      5  C7  UNL d   1       1.297  -0.324   0.596  0.00  0.00     0.002 A 
ATOM      6  C8  UNL d   1       0.248  -0.910  -0.114  0.00  0.00     0.002 A 
ENDROOT
BRANCH   1   7
ATOM      7  C2  UNL d   1      -1.871  -0.752  -1.481  0.00  0.00     0.056 C 
BRANCH   7   8
ATOM      8  C1  UNL d   1      -2.825   0.255  -2.133  0.00  0.00     0.007 C 
ATOM      9  C   UNL d   1      -2.646   0.361  -3.642  0.00  0.00     0.009 C 
ENDBRANCH   7   8
ENDBRANCH   1   7
TORSDOF 2
ENDMDL
