MODEL 1
REMARK minimizedAffinity -6.37402439
REMARK minimizedRMSD -1
REMARK  2 active torsions:
REMARK  status: ('A' for Active; 'I' for Inactive)
REMARK    1  A    between atoms: C1_2  and  C2_3 
REMARK    2  A    between atoms: C2_3  and  C3_4 
ROOT
ATOM      1  C3  UNL d   1       0.128   0.152   0.172  0.00  0.00    -0.075 A 
ATOM      2  C4  UNL d   1       0.936   1.295   0.093  0.00  0.00     0.002 A 
ATOM      3  C5  UNL d   1       2.296   1.224   0.394  0.00  0.00     0.002 A 
ATOM      4  C6  UNL d   1       2.863   0.014   0.788  0.00  0.00    -0.004 A 
ATOM      5  C7  UNL d   1       2.067  -1.125   0.886  0.00  0.00     0.002 A 
ATOM      6  C8  UNL d   1       0.706  -1.058   0.581  0.00  0.00     0.002 A 
ENDROOT
BRANCH   1   7
ATOM      7  C2  UNL d   1      -1.339   0.216  -0.182  0.00  0.00     0.056 C 
BRANCH   7   8
ATOM      8  C1  UNL d   1      -1.683  -0.418  -1.534  0.00  0.00     0.007 C 
ATOM      9  C   UNL d   1      -2.991   0.094  -2.121  0.00  0.00     0.009 C 
ENDBRANCH   7   8
ENDBRANCH   1   7
TORSDOF 2
ENDMDL
