MODEL 1
REMARK minimizedAffinity -5.97874928
REMARK minimizedRMSD -1
REMARK  2 active torsions:
REMARK  status: ('A' for Active; 'I' for Inactive)
REMARK    1  A    between atoms: C1_2  and  C2_3 
REMARK    2  A    between atoms: C2_3  and  C3_4 
ROOT
ATOM      1  C3  UNL d   1      -0.103   0.028   0.430  0.00  0.00    -0.075 A 
ATOM      2  C4  UNL d   1       0.154  -1.053   1.287  0.00  0.00     0.002 A 
ATOM      3  C5  UNL d   1       1.445  -1.293   1.757  0.00  0.00     0.002 A 
ATOM      4  C6  UNL d   1       2.496  -0.464   1.369  0.00  0.00    -0.004 A 
ATOM      5  C7  UNL d   1       2.256   0.602   0.505  0.00  0.00     0.002 A 
ATOM      6  C8  UNL d   1       0.963   0.847   0.037  0.00  0.00     0.002 A 
ENDROOT
BRANCH   1   7
ATOM      7  C2  UNL d   1      -1.504   0.310  -0.058  0.00  0.00     0.056 C 
BRANCH   7   8
ATOM      8  C1  UNL d   1      -1.645   0.306  -1.584  0.00  0.00     0.007 C 
ATOM      9  C   UNL d   1      -3.052   0.647  -2.057  0.00  0.00     0.009 C 
ENDBRANCH   7   8
ENDBRANCH   1   7
TORSDOF 2
ENDMDL
