MODEL 1
REMARK minimizedAffinity -5.39361048
REMARK minimizedRMSD -1
REMARK  2 active torsions:
REMARK  status: ('A' for Active; 'I' for Inactive)
REMARK    1  A    between atoms: C1_2  and  C2_3 
REMARK    2  A    between atoms: C2_3  and  C3_4 
ROOT
ATOM      1  C3  UNL d   1       0.113   0.079  -0.071  0.00  0.00    -0.075 A 
ATOM      2  C4  UNL d   1       0.915   1.219   0.089  0.00  0.00     0.002 A 
ATOM      3  C5  UNL d   1       2.226   1.103   0.553  0.00  0.00     0.002 A 
ATOM      4  C6  UNL d   1       2.748  -0.149   0.871  0.00  0.00    -0.004 A 
ATOM      5  C7  UNL d   1       1.955  -1.286   0.732  0.00  0.00     0.002 A 
ATOM      6  C8  UNL d   1       0.644  -1.174   0.264  0.00  0.00     0.002 A 
ENDROOT
BRANCH   1   7
ATOM      7  C2  UNL d   1      -1.296   0.194  -0.600  0.00  0.00     0.056 C 
BRANCH   7   8
ATOM      8  C1  UNL d   1      -1.478  -0.361  -2.016  0.00  0.00     0.007 C 
ATOM      9  C   UNL d   1      -2.810   0.024  -2.646  0.00  0.00     0.009 C 
ENDBRANCH   7   8
ENDBRANCH   1   7
TORSDOF 2
ENDMDL
