MODEL 1
REMARK minimizedAffinity -5.00813389
REMARK minimizedRMSD -1
REMARK  2 active torsions:
REMARK  status: ('A' for Active; 'I' for Inactive)
REMARK    1  A    between atoms: C1_2  and  C2_3 
REMARK    2  A    between atoms: C2_3  and  C3_4 
ROOT
ATOM      1  C3  UNL d   1       0.451  -0.286   0.367  0.00  0.00    -0.075 A 
ATOM      2  C4  UNL d   1       1.094  -1.488   0.034  0.00  0.00     0.002 A 
ATOM      3  C5  UNL d   1       2.486  -1.577   0.062  0.00  0.00     0.002 A 
ATOM      4  C6  UNL d   1       3.252  -0.467   0.411  0.00  0.00    -0.004 A 
ATOM      5  C7  UNL d   1       2.625   0.736   0.727  0.00  0.00     0.002 A 
ATOM      6  C8  UNL d   1       1.232   0.827   0.705  0.00  0.00     0.002 A 
ENDROOT
BRANCH   1   7
ATOM      7  C2  UNL d   1      -1.056  -0.191   0.368  0.00  0.00     0.056 C 
BRANCH   7   8
ATOM      8  C1  UNL d   1      -1.630   0.624  -0.796  0.00  0.00     0.007 C 
ATOM      9  C   UNL d   1      -1.919  -0.217  -2.032  0.00  0.00     0.009 C 
ENDBRANCH   7   8
ENDBRANCH   1   7
TORSDOF 2
ENDMDL
