MODEL 1
REMARK minimizedAffinity -5.23694038
REMARK minimizedRMSD -1
REMARK  2 active torsions:
REMARK  status: ('A' for Active; 'I' for Inactive)
REMARK    1  A    between atoms: C1_2  and  C2_3 
REMARK    2  A    between atoms: C2_3  and  C3_4 
ROOT
ATOM      1  C3  UNL d   1      -1.851   0.300  -0.916  0.00  0.00    -0.075 A 
ATOM      2  C4  UNL d   1      -2.653   1.448  -0.994  0.00  0.00     0.002 A 
ATOM      3  C5  UNL d   1      -3.437   1.688  -2.123  0.00  0.00     0.002 A 
ATOM      4  C6  UNL d   1      -3.421   0.793  -3.190  0.00  0.00    -0.004 A 
ATOM      5  C7  UNL d   1      -2.615  -0.342  -3.130  0.00  0.00     0.002 A 
ATOM      6  C8  UNL d   1      -1.833  -0.588  -2.000  0.00  0.00     0.002 A 
ENDROOT
BRANCH   1   7
ATOM      7  C2  UNL d   1      -1.022   0.019   0.315  0.00  0.00     0.056 C 
BRANCH   7   8
ATOM      8  C1  UNL d   1       0.231   0.892   0.436  0.00  0.00     0.007 C 
ATOM      9  C   UNL d   1       1.527   0.097   0.356  0.00  0.00     0.009 C 
ENDBRANCH   7   8
ENDBRANCH   1   7
TORSDOF 2
ENDMDL
