MODEL 1
REMARK minimizedAffinity -3.9277277
REMARK minimizedRMSD -1
REMARK  0 active torsions:
REMARK  status: ('A' for Active; 'I' for Inactive)
ROOT
ATOM      1  C1  BNZ d   1       0.972   0.368   1.085  0.00  0.00     0.000 A 
ATOM      2  C2  BNZ d   1       0.696   0.748   2.371  0.00  0.00     0.000 A 
ATOM      3  C3  BNZ d   1      -0.594   0.911   2.792  0.00  0.00     0.000 A 
ATOM      4  C4  BNZ d   1      -1.604   0.732   1.916  0.00  0.00     0.000 A 
ATOM      5  C5  BNZ d   1      -1.342   0.358   0.613  0.00  0.00     0.000 A 
ATOM      6  C6  BNZ d   1      -0.044   0.157   0.204  0.00  0.00     0.000 A 
ENDROOT
TORSDOF 0
ENDMDL
