MODEL 1
REMARK minimizedAffinity -1.40121186
REMARK minimizedRMSD -1
REMARK  0 active torsions:
REMARK  status: ('A' for Active; 'I' for Inactive)
ROOT
ATOM      1  C1  BNZ d   1      -0.161  -0.651   0.238  0.00  0.00     0.000 A 
ATOM      2  C2  BNZ d   1      -0.649  -0.054   1.370  0.00  0.00     0.000 A 
ATOM      3  C3  BNZ d   1      -1.974   0.264   1.477  0.00  0.00     0.000 A 
ATOM      4  C4  BNZ d   1      -2.800   0.022   0.439  0.00  0.00     0.000 A 
ATOM      5  C5  BNZ d   1      -2.321  -0.571  -0.712  0.00  0.00     0.000 A 
ATOM      6  C6  BNZ d   1      -0.995  -0.925  -0.801  0.00  0.00     0.000 A 
ENDROOT
TORSDOF 0
ENDMDL
