MODEL 1
REMARK minimizedAffinity -1.86043262
REMARK minimizedRMSD -1
REMARK  0 active torsions:
REMARK  status: ('A' for Active; 'I' for Inactive)
ROOT
ATOM      1  C1  BNZ d   1       3.758   5.996   3.061  0.00  0.00     0.000 A 
ATOM      2  C2  BNZ d   1       5.115   5.991   3.244  0.00  0.00     0.000 A 
ATOM      3  C3  BNZ d   1       5.965   5.999   2.174  0.00  0.00     0.000 A 
ATOM      4  C4  BNZ d   1       5.459   5.972   0.924  0.00  0.00     0.000 A 
ATOM      5  C5  BNZ d   1       4.093   5.967   0.723  0.00  0.00     0.000 A 
ATOM      6  C6  BNZ d   1       3.240   5.998   1.803  0.00  0.00     0.000 A 
ENDROOT
TORSDOF 0
ENDMDL
