MODEL 1
REMARK minimizedAffinity 0.440746576
REMARK minimizedRMSD -1
REMARK  0 active torsions:
REMARK  status: ('A' for Active; 'I' for Inactive)
ROOT
ATOM      1  C1  BNZ d   1      -0.898  -0.689   3.289  0.00  0.00     0.000 A 
ATOM      2  C2  BNZ d   1      -1.579  -0.069   2.275  0.00  0.00     0.000 A 
ATOM      3  C3  BNZ d   1      -0.955   0.237   1.098  0.00  0.00     0.000 A 
ATOM      4  C4  BNZ d   1       0.357  -0.039   0.952  0.00  0.00     0.000 A 
ATOM      5  C5  BNZ d   1       1.059  -0.655   1.968  0.00  0.00     0.000 A 
ATOM      6  C6  BNZ d   1       0.418  -0.998   3.137  0.00  0.00     0.000 A 
ENDROOT
TORSDOF 0
ENDMDL
