MODEL 1
REMARK minimizedAffinity -3.78043151
REMARK minimizedRMSD -1
REMARK  0 active torsions:
REMARK  status: ('A' for Active; 'I' for Inactive)
ROOT
ATOM      1  C1  BNZ d   1      -1.326   0.039   3.172  0.00  0.00     0.000 A 
ATOM      2  C2  BNZ d   1      -2.533  -0.542   2.887  0.00  0.00     0.000 A 
ATOM      3  C3  BNZ d   1      -2.874  -1.749   3.430  0.00  0.00     0.000 A 
ATOM      4  C4  BNZ d   1      -1.992  -2.391   4.224  0.00  0.00     0.000 A 
ATOM      5  C5  BNZ d   1      -0.768  -1.823   4.513  0.00  0.00     0.000 A 
ATOM      6  C6  BNZ d   1      -0.444  -0.589   3.996  0.00  0.00     0.000 A 
ENDROOT
TORSDOF 0
ENDMDL
