MODEL 1
REMARK minimizedAffinity 1.23751557
REMARK minimizedRMSD -1
REMARK  0 active torsions:
REMARK  status: ('A' for Active; 'I' for Inactive)
ROOT
ATOM      1  C1  BNZ d   1      -0.868  -3.699  -5.980  0.00  0.00     0.000 A 
ATOM      2  C2  BNZ d   1      -2.135  -4.219  -6.000  0.00  0.00     0.000 A 
ATOM      3  C3  BNZ d   1      -3.228  -3.398  -5.996  0.00  0.00     0.000 A 
ATOM      4  C4  BNZ d   1      -3.054  -2.062  -5.932  0.00  0.00     0.000 A 
ATOM      5  C5  BNZ d   1      -1.783  -1.523  -5.902  0.00  0.00     0.000 A 
ATOM      6  C6  BNZ d   1      -0.685  -2.351  -5.945  0.00  0.00     0.000 A 
ENDROOT
TORSDOF 0
ENDMDL
