MODEL 1
REMARK minimizedAffinity 4.22790289
REMARK minimizedRMSD -1
REMARK  0 active torsions:
REMARK  status: ('A' for Active; 'I' for Inactive)
ROOT
ATOM      1  C1  BNZ d   1       4.476   5.156   3.269  0.00  0.00     0.000 A 
ATOM      2  C2  BNZ d   1       3.713   5.097   2.134  0.00  0.00     0.000 A 
ATOM      3  C3  BNZ d   1       3.222   3.904   1.682  0.00  0.00     0.000 A 
ATOM      4  C4  BNZ d   1       3.528   2.768   2.342  0.00  0.00     0.000 A 
ATOM      5  C5  BNZ d   1       4.304   2.810   3.483  0.00  0.00     0.000 A 
ATOM      6  C6  BNZ d   1       4.764   4.017   3.957  0.00  0.00     0.000 A 
ENDROOT
TORSDOF 0
ENDMDL
