MODEL 1
REMARK minimizedAffinity 1.76746392
REMARK minimizedRMSD -1
REMARK  0 active torsions:
REMARK  status: ('A' for Active; 'I' for Inactive)
ROOT
ATOM      1  C1  BNZ d   1      -0.179   0.157   1.089  0.00  0.00     0.000 A 
ATOM      2  C2  BNZ d   1      -1.479   0.586   1.060  0.00  0.00     0.000 A 
ATOM      3  C3  BNZ d   1      -2.285   0.454   2.156  0.00  0.00     0.000 A 
ATOM      4  C4  BNZ d   1      -1.803  -0.144   3.265  0.00  0.00     0.000 A 
ATOM      5  C5  BNZ d   1      -0.497  -0.591   3.307  0.00  0.00     0.000 A 
ATOM      6  C6  BNZ d   1       0.323  -0.420   2.215  0.00  0.00     0.000 A 
ENDROOT
TORSDOF 0
ENDMDL
