MODEL 1
REMARK minimizedAffinity 4.00296021
REMARK minimizedRMSD -1
REMARK  1 active torsions:
REMARK  status: ('A' for Active; 'I' for Inactive)
REMARK    1  A    between atoms: N_2  and  C1_3 
ROOT
ATOM      1  C1  UNL d   1      -1.203   1.990   1.679  0.00  0.00     0.143 A 
ATOM      2  C2  UNL d   1      -0.171   2.573   0.935  0.00  0.00    -0.057 A 
ATOM      3  C3  UNL d   1       1.073   1.946   0.803  0.00  0.00     0.033 A 
ATOM      4  C4  UNL d   1       1.318   0.733   1.438  0.00  0.00    -0.042 A 
ATOM      5  C5  UNL d   1       0.316   0.147   2.203  0.00  0.00     0.033 A 
ATOM      6  C6  UNL d   1      -0.927   0.776   2.326  0.00  0.00    -0.057 A 
ENDROOT
BRANCH   1   7
ATOM      7  N   UNL d   1      -2.429   2.611   1.929  0.00  0.00    -0.732 N 
ATOM      8  C   UNL d   1      -3.320   2.100   2.948  0.00  0.00     0.284 C 
ATOM      9  H3  UNL d   1      -2.361   3.626   1.906  0.00  0.00     0.395 HD
ENDBRANCH   1   7
TORSDOF 1
ENDMDL
