MODEL 1
REMARK minimizedAffinity -4.28818941
REMARK minimizedRMSD -1
REMARK  1 active torsions:
REMARK  status: ('A' for Active; 'I' for Inactive)
REMARK    1  A    between atoms: N_2  and  C1_3 
ROOT
ATOM      1  C1  UNL d   1      -2.068   1.606   1.927  0.00  0.00     0.143 A 
ATOM      2  C2  UNL d   1      -0.839   2.093   1.469  0.00  0.00    -0.057 A 
ATOM      3  C3  UNL d   1       0.176   1.224   1.050  0.00  0.00     0.033 A 
ATOM      4  C4  UNL d   1      -0.011  -0.153   1.109  0.00  0.00    -0.042 A 
ATOM      5  C5  UNL d   1      -1.215  -0.660   1.584  0.00  0.00     0.033 A 
ATOM      6  C6  UNL d   1      -2.227   0.213   1.995  0.00  0.00    -0.057 A 
ENDROOT
BRANCH   1   7
ATOM      7  N   UNL d   1      -3.079   2.415   2.450  0.00  0.00    -0.732 N 
ATOM      8  C   UNL d   1      -4.056   1.872   3.370  0.00  0.00     0.284 C 
ATOM      9  H3  UNL d   1      -2.745   3.343   2.699  0.00  0.00     0.395 HD
ENDBRANCH   1   7
TORSDOF 1
ENDMDL
