MODEL 1
REMARK minimizedAffinity 0.299774766
REMARK minimizedRMSD -1
REMARK  1 active torsions:
REMARK  status: ('A' for Active; 'I' for Inactive)
REMARK    1  A    between atoms: N_2  and  C1_3 
ROOT
ATOM      1  C1  UNL d   1      -5.276   4.919   4.009  0.00  0.00     0.143 A 
ATOM      2  C2  UNL d   1      -6.000   4.853   5.204  0.00  0.00    -0.057 A 
ATOM      3  C3  UNL d   1      -5.985   3.701   6.000  0.00  0.00     0.033 A 
ATOM      4  C4  UNL d   1      -5.267   2.580   5.598  0.00  0.00    -0.042 A 
ATOM      5  C5  UNL d   1      -4.560   2.614   4.401  0.00  0.00     0.033 A 
ATOM      6  C6  UNL d   1      -4.573   3.769   3.614  0.00  0.00    -0.057 A 
ENDROOT
BRANCH   1   7
ATOM      7  N   UNL d   1      -5.329   5.999   3.126  0.00  0.00    -0.732 N 
ATOM      8  C   UNL d   1      -5.525   5.784   1.708  0.00  0.00     0.284 C 
ATOM      9  H3  UNL d   1      -5.855   6.784   3.503  0.00  0.00     0.395 HD
ENDBRANCH   1   7
TORSDOF 1
ENDMDL
