MODEL 1
REMARK minimizedAffinity 0.533919632
REMARK minimizedRMSD -1
REMARK  1 active torsions:
REMARK  status: ('A' for Active; 'I' for Inactive)
REMARK    1  A    between atoms: N_2  and  C1_3 
ROOT
ATOM      1  C1  UNL d   1      -0.987   0.056   1.970  0.00  0.00     0.143 A 
ATOM      2  C2  UNL d   1       0.282   0.388   1.484  0.00  0.00    -0.057 A 
ATOM      3  C3  UNL d   1       0.647   1.720   1.258  0.00  0.00     0.033 A 
ATOM      4  C4  UNL d   1      -0.264   2.746   1.488  0.00  0.00    -0.042 A 
ATOM      5  C5  UNL d   1      -1.539   2.438   1.947  0.00  0.00     0.033 A 
ATOM      6  C6  UNL d   1      -1.896   1.105   2.177  0.00  0.00    -0.057 A 
ENDROOT
BRANCH   1   7
ATOM      7  N   UNL d   1      -1.444  -1.256   2.121  0.00  0.00    -0.732 N 
ATOM      8  C   UNL d   1      -1.348  -1.927   3.399  0.00  0.00     0.284 C 
ATOM      9  H3  UNL d   1      -2.319  -1.422   1.628  0.00  0.00     0.395 HD
ENDBRANCH   1   7
TORSDOF 1
ENDMDL
