MODEL 1
REMARK minimizedAffinity 6.54799032
REMARK minimizedRMSD -1
REMARK  1 active torsions:
REMARK  status: ('A' for Active; 'I' for Inactive)
REMARK    1  A    between atoms: N_2  and  C1_3 
ROOT
ATOM      1  C1  UNL d   1      -0.963   1.832   2.301  0.00  0.00     0.143 A 
ATOM      2  C2  UNL d   1      -0.237   2.440   1.271  0.00  0.00    -0.057 A 
ATOM      3  C3  UNL d   1       0.775   1.750   0.591  0.00  0.00     0.033 A 
ATOM      4  C4  UNL d   1       1.098   0.446   0.950  0.00  0.00    -0.042 A 
ATOM      5  C5  UNL d   1       0.406  -0.170   1.987  0.00  0.00     0.033 A 
ATOM      6  C6  UNL d   1      -0.607   0.522   2.658  0.00  0.00    -0.057 A 
ENDROOT
BRANCH   1   7
ATOM      7  N   UNL d   1      -1.913   2.497   3.080  0.00  0.00    -0.732 N 
ATOM      8  C   UNL d   1      -3.172   1.863   3.409  0.00  0.00     0.284 C 
ATOM      9  H3  UNL d   1      -1.492   3.010   3.852  0.00  0.00     0.395 HD
ENDBRANCH   1   7
TORSDOF 1
ENDMDL
