MODEL 1
REMARK minimizedAffinity -0.492264897
REMARK minimizedRMSD -1
REMARK  1 active torsions:
REMARK  status: ('A' for Active; 'I' for Inactive)
REMARK    1  A    between atoms: N_2  and  C1_3 
ROOT
ATOM      1  C1  UNL d   1      -1.723   1.269   2.041  0.00  0.00     0.143 A 
ATOM      2  C2  UNL d   1      -0.379   0.976   2.294  0.00  0.00    -0.057 A 
ATOM      3  C3  UNL d   1       0.649   1.763   1.761  0.00  0.00     0.033 A 
ATOM      4  C4  UNL d   1       0.350   2.844   0.938  0.00  0.00    -0.042 A 
ATOM      5  C5  UNL d   1      -0.979   3.139   0.652  0.00  0.00     0.033 A 
ATOM      6  C6  UNL d   1      -2.001   2.353   1.193  0.00  0.00    -0.057 A 
ENDROOT
BRANCH   1   7
ATOM      7  N   UNL d   1      -2.787   0.467   2.462  0.00  0.00    -0.732 N 
ATOM      8  C   UNL d   1      -3.898   1.039   3.191  0.00  0.00     0.284 C 
ATOM      9  H3  UNL d   1      -3.059  -0.217   1.759  0.00  0.00     0.395 HD
ENDBRANCH   1   7
TORSDOF 1
ENDMDL
