MODEL 1
REMARK minimizedAffinity 6.53340626
REMARK minimizedRMSD -1
REMARK  1 active torsions:
REMARK  status: ('A' for Active; 'I' for Inactive)
REMARK    1  A    between atoms: N_2  and  C1_3 
ROOT
ATOM      1  C1  UNL d   1      -4.406   1.888   3.840  0.00  0.00     0.143 A 
ATOM      2  C2  UNL d   1      -4.800   1.105   4.930  0.00  0.00    -0.057 A 
ATOM      3  C3  UNL d   1      -5.553   1.647   5.979  0.00  0.00     0.033 A 
ATOM      4  C4  UNL d   1      -5.900   2.993   5.970  0.00  0.00    -0.042 A 
ATOM      5  C5  UNL d   1      -5.498   3.797   4.908  0.00  0.00     0.033 A 
ATOM      6  C6  UNL d   1      -4.752   3.248   3.861  0.00  0.00    -0.057 A 
ENDROOT
BRANCH   1   7
ATOM      7  N   UNL d   1      -3.573   1.431   2.815  0.00  0.00    -0.732 N 
ATOM      8  C   UNL d   1      -2.665   2.337   2.145  0.00  0.00     0.284 C 
ATOM      9  H3  UNL d   1      -3.176   0.516   3.016  0.00  0.00     0.395 HD
ENDBRANCH   1   7
TORSDOF 1
ENDMDL
