MODEL 1
REMARK minimizedAffinity 2.7348876
REMARK minimizedRMSD -1
REMARK  1 active torsions:
REMARK  status: ('A' for Active; 'I' for Inactive)
REMARK    1  A    between atoms: N_2  and  C1_3 
ROOT
ATOM      1  C1  UNL d   1      -2.669  -2.733  -0.667  0.00  0.00     0.143 A 
ATOM      2  C2  UNL d   1      -2.703  -4.090  -1.004  0.00  0.00    -0.057 A 
ATOM      3  C3  UNL d   1      -1.662  -4.954  -0.642  0.00  0.00     0.033 A 
ATOM      4  C4  UNL d   1      -0.551  -4.468   0.039  0.00  0.00    -0.042 A 
ATOM      5  C5  UNL d   1      -0.484  -3.118   0.362  0.00  0.00     0.033 A 
ATOM      6  C6  UNL d   1      -1.530  -2.261   0.004  0.00  0.00    -0.057 A 
ENDROOT
BRANCH   1   7
ATOM      7  N   UNL d   1      -3.625  -1.804  -1.083  0.00  0.00    -0.732 N 
ATOM      8  C   UNL d   1      -3.260  -0.710  -1.957  0.00  0.00     0.284 C 
ATOM      9  H3  UNL d   1      -4.516  -2.240  -1.313  0.00  0.00     0.395 HD
ENDBRANCH   1   7
TORSDOF 1
ENDMDL
