MODEL 1
REMARK minimizedAffinity 3.1822741
REMARK minimizedRMSD -1
REMARK  1 active torsions:
REMARK  status: ('A' for Active; 'I' for Inactive)
REMARK    1  A    between atoms: N_2  and  C1_3 
ROOT
ATOM      1  C1  UNL d   1      -5.655   3.669   5.008  0.00  0.00     0.143 A 
ATOM      2  C2  UNL d   1      -5.961   2.730   5.999  0.00  0.00    -0.057 A 
ATOM      3  C3  UNL d   1      -5.681   1.370   5.822  0.00  0.00     0.033 A 
ATOM      4  C4  UNL d   1      -5.114   0.919   4.634  0.00  0.00    -0.042 A 
ATOM      5  C5  UNL d   1      -4.824   1.831   3.626  0.00  0.00     0.033 A 
ATOM      6  C6  UNL d   1      -5.101   3.189   3.811  0.00  0.00    -0.057 A 
ENDROOT
BRANCH   1   7
ATOM      7  N   UNL d   1      -5.999   5.021   5.085  0.00  0.00    -0.732 N 
ATOM      8  C   UNL d   1      -5.987   5.853   3.901  0.00  0.00     0.284 C 
ATOM      9  H3  UNL d   1      -6.793   5.185   5.700  0.00  0.00     0.395 HD
ENDBRANCH   1   7
TORSDOF 1
ENDMDL
