MODEL 1
REMARK minimizedAffinity 3.37256861
REMARK minimizedRMSD -1
REMARK  1 active torsions:
REMARK  status: ('A' for Active; 'I' for Inactive)
REMARK    1  A    between atoms: N_2  and  C1_3 
ROOT
ATOM      1  C1  UNL d   1      -0.653   1.480   1.879  0.00  0.00     0.143 A 
ATOM      2  C2  UNL d   1      -1.858   2.021   2.337  0.00  0.00    -0.057 A 
ATOM      3  C3  UNL d   1      -2.891   1.201   2.808  0.00  0.00     0.033 A 
ATOM      4  C4  UNL d   1      -2.746  -0.183   2.801  0.00  0.00    -0.042 A 
ATOM      5  C5  UNL d   1      -1.565  -0.744   2.327  0.00  0.00     0.033 A 
ATOM      6  C6  UNL d   1      -0.536   0.081   1.865  0.00  0.00    -0.057 A 
ENDROOT
BRANCH   1   7
ATOM      7  N   UNL d   1       0.373   2.237   1.308  0.00  0.00    -0.732 N 
ATOM      8  C   UNL d   1       0.082   3.219   0.286  0.00  0.00     0.284 C 
ATOM      9  H3  UNL d   1       1.059   2.543   1.995  0.00  0.00     0.395 HD
ENDBRANCH   1   7
TORSDOF 1
ENDMDL
