MODEL 1
REMARK minimizedAffinity 5.4191165
REMARK minimizedRMSD -1
REMARK  1 active torsions:
REMARK  status: ('A' for Active; 'I' for Inactive)
REMARK    1  A    between atoms: N_2  and  C1_3 
ROOT
ATOM      1  C1  UNL d   1      -3.859  -3.848  -1.611  0.00  0.00     0.143 A 
ATOM      2  C2  UNL d   1      -4.200  -2.719  -0.859  0.00  0.00    -0.057 A 
ATOM      3  C3  UNL d   1      -4.017  -1.427  -1.366  0.00  0.00     0.033 A 
ATOM      4  C4  UNL d   1      -3.461  -1.240  -2.628  0.00  0.00    -0.042 A 
ATOM      5  C5  UNL d   1      -3.091  -2.348  -3.383  0.00  0.00     0.033 A 
ATOM      6  C6  UNL d   1      -3.282  -3.636  -2.873  0.00  0.00    -0.057 A 
ENDROOT
BRANCH   1   7
ATOM      7  N   UNL d   1      -3.924  -5.156  -1.124  0.00  0.00    -0.732 N 
ATOM      8  C   UNL d   1      -2.748  -6.000  -1.116  0.00  0.00     0.284 C 
ATOM      9  H3  UNL d   1      -4.494  -5.230  -0.284  0.00  0.00     0.395 HD
ENDBRANCH   1   7
TORSDOF 1
ENDMDL
