MODEL 1
REMARK minimizedAffinity 5.24853468
REMARK minimizedRMSD -1
REMARK  1 active torsions:
REMARK  status: ('A' for Active; 'I' for Inactive)
REMARK    1  A    between atoms: N_2  and  C1_3 
ROOT
ATOM      1  C1  UNL d   1      -1.458   1.888   1.888  0.00  0.00     0.143 A 
ATOM      2  C2  UNL d   1      -0.262   2.453   1.431  0.00  0.00    -0.057 A 
ATOM      3  C3  UNL d   1       0.891   1.677   1.266  0.00  0.00     0.033 A 
ATOM      4  C4  UNL d   1       0.876   0.322   1.584  0.00  0.00    -0.042 A 
ATOM      5  C5  UNL d   1      -0.294  -0.255   2.063  0.00  0.00     0.033 A 
ATOM      6  C6  UNL d   1      -1.444   0.524   2.220  0.00  0.00    -0.057 A 
ENDROOT
BRANCH   1   7
ATOM      7  N   UNL d   1      -2.610   2.627   2.167  0.00  0.00    -0.732 N 
ATOM      8  C   UNL d   1      -3.603   2.124   3.092  0.00  0.00     0.284 C 
ATOM      9  H3  UNL d   1      -2.420   3.622   2.262  0.00  0.00     0.395 HD
ENDBRANCH   1   7
TORSDOF 1
ENDMDL
