MODEL 1
REMARK minimizedAffinity 2.98215389
REMARK minimizedRMSD -1
REMARK  1 active torsions:
REMARK  status: ('A' for Active; 'I' for Inactive)
REMARK    1  A    between atoms: N_2  and  C1_3 
ROOT
ATOM      1  C1  UNL d   1      -2.019   1.513   2.438  0.00  0.00     0.143 A 
ATOM      2  C2  UNL d   1      -0.951   0.622   2.583  0.00  0.00    -0.057 A 
ATOM      3  C3  UNL d   1       0.281   0.857   1.960  0.00  0.00     0.033 A 
ATOM      4  C4  UNL d   1       0.457   1.977   1.155  0.00  0.00    -0.042 A 
ATOM      5  C5  UNL d   1      -0.598   2.864   0.976  0.00  0.00     0.033 A 
ATOM      6  C6  UNL d   1      -1.824   2.627   1.606  0.00  0.00    -0.057 A 
ENDROOT
BRANCH   1   7
ATOM      7  N   UNL d   1      -3.299   1.285   2.950  0.00  0.00    -0.732 N 
ATOM      8  C   UNL d   1      -3.974   2.302   3.727  0.00  0.00     0.284 C 
ATOM      9  H3  UNL d   1      -3.901   0.798   2.290  0.00  0.00     0.395 HD
ENDBRANCH   1   7
TORSDOF 1
ENDMDL
