MODEL 1
REMARK minimizedAffinity 3.56414104
REMARK minimizedRMSD -1
REMARK  1 active torsions:
REMARK  status: ('A' for Active; 'I' for Inactive)
REMARK    1  A    between atoms: N_2  and  C1_3 
ROOT
ATOM      1  C1  UNL d   1      -3.221  -2.511  -2.098  0.00  0.00     0.143 A 
ATOM      2  C2  UNL d   1      -3.955  -2.324  -0.922  0.00  0.00    -0.057 A 
ATOM      3  C3  UNL d   1      -4.001  -3.310   0.071  0.00  0.00     0.033 A 
ATOM      4  C4  UNL d   1      -3.335  -4.518  -0.110  0.00  0.00    -0.042 A 
ATOM      5  C5  UNL d   1      -2.620  -4.736  -1.282  0.00  0.00     0.033 A 
ATOM      6  C6  UNL d   1      -2.573  -3.744  -2.266  0.00  0.00    -0.057 A 
ENDROOT
BRANCH   1   7
ATOM      7  N   UNL d   1      -3.217  -1.609  -3.164  0.00  0.00    -0.732 N 
ATOM      8  C   UNL d   1      -2.968  -2.065  -4.515  0.00  0.00     0.284 C 
ATOM      9  H3  UNL d   1      -3.958  -0.916  -3.090  0.00  0.00     0.395 HD
ENDBRANCH   1   7
TORSDOF 1
ENDMDL
