MODEL 1
REMARK minimizedAffinity -2.98322058
REMARK minimizedRMSD -1
REMARK  0 active torsions:
REMARK  status: ('A' for Active; 'I' for Inactive)
ROOT
ATOM      1  C4' PXY d   1       5.996  -1.963  -1.298  0.00  0.00     0.077 C 
ATOM      2  C1' PXY d   1       0.562   0.000  -1.477  0.00  0.00     0.077 C 
ATOM      3  C1  PXY d   1       1.990  -0.507  -1.440  0.00  0.00    -0.082 A 
ATOM      4  C2  PXY d   1       2.259  -1.662  -0.853  0.00  0.00     0.003 A 
ATOM      5  C3  PXY d   1       3.549  -2.121  -0.783  0.00  0.00     0.003 A 
ATOM      6  C4  PXY d   1       4.568  -1.416  -1.367  0.00  0.00    -0.082 A 
ATOM      7  C5  PXY d   1       4.300  -0.242  -1.977  0.00  0.00     0.003 A 
ATOM      8  C6  PXY d   1       2.990   0.226  -2.001  0.00  0.00     0.003 A 
ENDROOT
TORSDOF 0
ENDMDL
