MODEL 1
REMARK minimizedAffinity 5.96866655
REMARK minimizedRMSD -1
REMARK  0 active torsions:
REMARK  status: ('A' for Active; 'I' for Inactive)
ROOT
ATOM      1  C4' PXY d   1      -2.782   4.826  -5.916  0.00  0.00     0.077 C 
ATOM      2  C1' PXY d   1      -2.849  -0.420  -3.490  0.00  0.00     0.077 C 
ATOM      3  C1  PXY d   1      -2.838   0.960  -4.116  0.00  0.00    -0.082 A 
ATOM      4  C2  PXY d   1      -2.659   1.085  -5.421  0.00  0.00     0.003 A 
ATOM      5  C3  PXY d   1      -2.614   2.328  -6.000  0.00  0.00     0.003 A 
ATOM      6  C4  PXY d   1      -2.809   3.451  -5.242  0.00  0.00    -0.082 A 
ATOM      7  C5  PXY d   1      -3.004   3.332  -3.912  0.00  0.00     0.003 A 
ATOM      8  C6  PXY d   1      -3.004   2.064  -3.338  0.00  0.00     0.003 A 
ENDROOT
TORSDOF 0
ENDMDL
