MODEL 1
REMARK minimizedAffinity 6.4557662
REMARK minimizedRMSD -1
REMARK  0 active torsions:
REMARK  status: ('A' for Active; 'I' for Inactive)
ROOT
ATOM      1  C4' PXY d   1       1.664   4.531   1.118  0.00  0.00     0.077 C 
ATOM      2  C1' PXY d   1       2.243   0.041  -2.476  0.00  0.00     0.077 C 
ATOM      3  C1  PXY d   1       2.092   1.226  -1.543  0.00  0.00    -0.082 A 
ATOM      4  C2  PXY d   1       2.403   1.096  -0.264  0.00  0.00     0.003 A 
ATOM      5  C3  PXY d   1       2.242   2.149   0.600  0.00  0.00     0.003 A 
ATOM      6  C4  PXY d   1       1.810   3.363   0.139  0.00  0.00    -0.082 A 
ATOM      7  C5  PXY d   1       1.501   3.507  -1.168  0.00  0.00     0.003 A 
ATOM      8  C6  PXY d   1       1.632   2.415  -2.020  0.00  0.00     0.003 A 
ENDROOT
TORSDOF 0
ENDMDL
