MODEL 1
REMARK minimizedAffinity 19.1024895
REMARK minimizedRMSD -1
REMARK  0 active torsions:
REMARK  status: ('A' for Active; 'I' for Inactive)
ROOT
ATOM      1  C4' PXY d   1      -6.000  -1.656   4.040  0.00  0.00     0.077 C 
ATOM      2  C1' PXY d   1      -2.446   2.898   3.834  0.00  0.00     0.077 C 
ATOM      3  C1  PXY d   1      -3.370   1.698   3.897  0.00  0.00    -0.082 A 
ATOM      4  C2  PXY d   1      -4.167   1.432   2.875  0.00  0.00     0.003 A 
ATOM      5  C3  PXY d   1      -5.032   0.369   2.928  0.00  0.00     0.003 A 
ATOM      6  C4  PXY d   1      -5.044  -0.461   4.017  0.00  0.00    -0.082 A 
ATOM      7  C5  PXY d   1      -4.226  -0.202   5.059  0.00  0.00     0.003 A 
ATOM      8  C6  PXY d   1      -3.385   0.906   5.003  0.00  0.00     0.003 A 
ENDROOT
TORSDOF 0
ENDMDL
