MODEL 1
REMARK minimizedAffinity 13.5225382
REMARK minimizedRMSD -1
REMARK  0 active torsions:
REMARK  status: ('A' for Active; 'I' for Inactive)
ROOT
ATOM      1  C4' PXY d   1       2.227   0.066  -1.011  0.00  0.00     0.077 C 
ATOM      2  C1' PXY d   1      -0.882  -4.418  -2.920  0.00  0.00     0.077 C 
ATOM      3  C1  PXY d   1      -0.075  -3.240  -2.410  0.00  0.00    -0.082 A 
ATOM      4  C2  PXY d   1       0.723  -2.586  -3.238  0.00  0.00     0.003 A 
ATOM      5  C3  PXY d   1       1.484  -1.538  -2.786  0.00  0.00     0.003 A 
ATOM      6  C4  PXY d   1       1.387  -1.123  -1.485  0.00  0.00    -0.082 A 
ATOM      7  C5  PXY d   1       0.567  -1.779  -0.636  0.00  0.00     0.003 A 
ATOM      8  C6  PXY d   1      -0.166  -2.865  -1.105  0.00  0.00     0.003 A 
ENDROOT
TORSDOF 0
ENDMDL
