MODEL 1
REMARK minimizedAffinity 11.6081676
REMARK minimizedRMSD -1
REMARK  0 active torsions:
REMARK  status: ('A' for Active; 'I' for Inactive)
ROOT
ATOM      1  C4' PXY d   1      -2.339   2.283   5.999  0.00  0.00     0.077 C 
ATOM      2  C1' PXY d   1      -5.686  -1.537   3.240  0.00  0.00     0.077 C 
ATOM      3  C1  PXY d   1      -4.804  -0.531   3.952  0.00  0.00    -0.082 A 
ATOM      4  C2  PXY d   1      -4.477  -0.729   5.219  0.00  0.00     0.003 A 
ATOM      5  C3  PXY d   1      -3.706   0.186   5.888  0.00  0.00     0.003 A 
ATOM      6  C4  PXY d   1      -3.220   1.289   5.238  0.00  0.00    -0.082 A 
ATOM      7  C5  PXY d   1      -3.540   1.493   3.942  0.00  0.00     0.003 A 
ATOM      8  C6  PXY d   1      -4.358   0.572   3.293  0.00  0.00     0.003 A 
ENDROOT
TORSDOF 0
ENDMDL
