MODEL 1
REMARK minimizedAffinity 22.3173084
REMARK minimizedRMSD -1
REMARK  0 active torsions:
REMARK  status: ('A' for Active; 'I' for Inactive)
ROOT
ATOM      1  C4' PXY d   1       0.429  -0.077   2.173  0.00  0.00     0.077 C 
ATOM      2  C1' PXY d   1      -3.990   2.597   4.769  0.00  0.00     0.077 C 
ATOM      3  C1  PXY d   1      -2.823   1.903   4.095  0.00  0.00    -0.082 A 
ATOM      4  C2  PXY d   1      -2.995   1.331   2.914  0.00  0.00     0.003 A 
ATOM      5  C3  PXY d   1      -1.958   0.672   2.305  0.00  0.00     0.003 A 
ATOM      6  C4  PXY d   1      -0.719   0.643   2.886  0.00  0.00    -0.082 A 
ATOM      7  C5  PXY d   1      -0.533   1.233   4.086  0.00  0.00     0.003 A 
ATOM      8  C6  PXY d   1      -1.608   1.861   4.707  0.00  0.00     0.003 A 
ENDROOT
TORSDOF 0
ENDMDL
