MODEL 1
REMARK minimizedAffinity 9.91860676
REMARK minimizedRMSD -1
REMARK  0 active torsions:
REMARK  status: ('A' for Active; 'I' for Inactive)
ROOT
ATOM      1  C4' PXY d   1       1.513   1.422  -2.028  0.00  0.00     0.077 C 
ATOM      2  C1' PXY d   1       1.514   5.987   1.519  0.00  0.00     0.077 C 
ATOM      3  C1  PXY d   1       1.504   4.795   0.582  0.00  0.00    -0.082 A 
ATOM      4  C2  PXY d   1       1.953   3.625   1.007  0.00  0.00     0.003 A 
ATOM      5  C3  PXY d   1       1.981   2.545   0.163  0.00  0.00     0.003 A 
ATOM      6  C4  PXY d   1       1.496   2.650  -1.113  0.00  0.00    -0.082 A 
ATOM      7  C5  PXY d   1       1.026   3.837  -1.551  0.00  0.00     0.003 A 
ATOM      8  C6  PXY d   1       1.045   4.932  -0.692  0.00  0.00     0.003 A 
ENDROOT
TORSDOF 0
ENDMDL
