MODEL 1
REMARK minimizedAffinity 9.08109856
REMARK minimizedRMSD -1
REMARK  0 active torsions:
REMARK  status: ('A' for Active; 'I' for Inactive)
ROOT
ATOM      1  C4' PXY d   1      -3.240  -4.913   0.735  0.00  0.00     0.077 C 
ATOM      2  C1' PXY d   1       0.677  -1.003  -0.935  0.00  0.00     0.077 C 
ATOM      3  C1  PXY d   1      -0.357  -2.027  -0.509  0.00  0.00    -0.082 A 
ATOM      4  C2  PXY d   1      -0.564  -2.250   0.779  0.00  0.00     0.003 A 
ATOM      5  C3  PXY d   1      -1.471  -3.195   1.182  0.00  0.00     0.003 A 
ATOM      6  C4  PXY d   1      -2.213  -3.881   0.258  0.00  0.00    -0.082 A 
ATOM      7  C5  PXY d   1      -2.016  -3.652  -1.057  0.00  0.00     0.003 A 
ATOM      8  C6  PXY d   1      -1.060  -2.718  -1.446  0.00  0.00     0.003 A 
ENDROOT
TORSDOF 0
ENDMDL
