MODEL 1
REMARK minimizedAffinity 20.6155014
REMARK minimizedRMSD -1
REMARK  0 active torsions:
REMARK  status: ('A' for Active; 'I' for Inactive)
ROOT
ATOM      1  C4' PXY d   1      -0.405  -2.450   1.500  0.00  0.00     0.077 C 
ATOM      2  C1' PXY d   1       2.209   0.695  -2.586  0.00  0.00     0.077 C 
ATOM      3  C1  PXY d   1       1.512  -0.129  -1.521  0.00  0.00    -0.082 A 
ATOM      4  C2  PXY d   1       2.001  -0.158  -0.292  0.00  0.00     0.003 A 
ATOM      5  C3  PXY d   1       1.402  -0.923   0.675  0.00  0.00     0.003 A 
ATOM      6  C4  PXY d   1       0.260  -1.624   0.395  0.00  0.00    -0.082 A 
ATOM      7  C5  PXY d   1      -0.251  -1.592  -0.854  0.00  0.00     0.003 A 
ATOM      8  C6  PXY d   1       0.396  -0.842  -1.832  0.00  0.00     0.003 A 
ENDROOT
TORSDOF 0
ENDMDL
