MODEL 1
REMARK minimizedAffinity 10.7290535
REMARK minimizedRMSD -1
REMARK  0 active torsions:
REMARK  status: ('A' for Active; 'I' for Inactive)
ROOT
ATOM      1  C4' PXY d   1       0.433   1.560   6.000  0.00  0.00     0.077 C 
ATOM      2  C1' PXY d   1       2.837   1.169   0.757  0.00  0.00     0.077 C 
ATOM      3  C1  PXY d   1       2.194   1.271   2.127  0.00  0.00    -0.082 A 
ATOM      4  C2  PXY d   1       2.863   1.828   3.123  0.00  0.00     0.003 A 
ATOM      5  C3  PXY d   1       2.310   1.900   4.376  0.00  0.00     0.003 A 
ATOM      6  C4  PXY d   1       1.038   1.444   4.598  0.00  0.00    -0.082 A 
ATOM      7  C5  PXY d   1       0.345   0.884   3.584  0.00  0.00     0.003 A 
ATOM      8  C6  PXY d   1       0.940   0.783   2.330  0.00  0.00     0.003 A 
ENDROOT
TORSDOF 0
ENDMDL
