MODEL 1
REMARK minimizedAffinity 16.1772079
REMARK minimizedRMSD -1
REMARK  0 active torsions:
REMARK  status: ('A' for Active; 'I' for Inactive)
ROOT
ATOM      1  C4' PXY d   1       1.851   3.902  -0.551  0.00  0.00     0.077 C 
ATOM      2  C1' PXY d   1       2.082  -1.395  -2.853  0.00  0.00     0.077 C 
ATOM      3  C1  PXY d   1       2.026  -0.011  -2.238  0.00  0.00    -0.082 A 
ATOM      4  C2  PXY d   1       1.198   0.894  -2.736  0.00  0.00     0.003 A 
ATOM      5  C3  PXY d   1       1.158   2.160  -2.213  0.00  0.00     0.003 A 
ATOM      6  C4  PXY d   1       1.934   2.489  -1.134  0.00  0.00    -0.082 A 
ATOM      7  C5  PXY d   1       2.773   1.569  -0.613  0.00  0.00     0.003 A 
ATOM      8  C6  PXY d   1       2.829   0.301  -1.185  0.00  0.00     0.003 A 
ENDROOT
TORSDOF 0
ENDMDL
