MODEL 1
REMARK minimizedAffinity 3.92043996
REMARK minimizedRMSD -1
REMARK  0 active torsions:
REMARK  status: ('A' for Active; 'I' for Inactive)
ROOT
ATOM      1  C4' PXY d   1      -1.257  -3.729  -2.512  0.00  0.00     0.077 C 
ATOM      2  C1' PXY d   1       0.010  -1.335   2.595  0.00  0.00     0.077 C 
ATOM      3  C1  PXY d   1      -0.323  -1.974   1.261  0.00  0.00    -0.082 A 
ATOM      4  C2  PXY d   1       0.024  -1.366   0.139  0.00  0.00     0.003 A 
ATOM      5  C3  PXY d   1      -0.297  -1.914  -1.076  0.00  0.00     0.003 A 
ATOM      6  C4  PXY d   1      -0.933  -3.125  -1.143  0.00  0.00    -0.082 A 
ATOM      7  C5  PXY d   1      -1.281  -3.758  -0.002  0.00  0.00     0.003 A 
ATOM      8  C6  PXY d   1      -0.982  -3.164   1.221  0.00  0.00     0.003 A 
ENDROOT
TORSDOF 0
ENDMDL
