MODEL 1
REMARK minimizedAffinity -4.03064728
REMARK minimizedRMSD -1
REMARK  0 active torsions:
REMARK  status: ('A' for Active; 'I' for Inactive)
ROOT
ATOM      1  C4' PXY d   1      -2.259  -0.009   2.156  0.00  0.00     0.077 C 
ATOM      2  C1' PXY d   1       2.023  -0.075  -1.727  0.00  0.00     0.077 C 
ATOM      3  C1  PXY d   1       0.901  -0.070  -0.708  0.00  0.00    -0.082 A 
ATOM      4  C2  PXY d   1       0.016   0.913  -0.713  0.00  0.00     0.003 A 
ATOM      5  C3  PXY d   1      -0.986   0.950   0.222  0.00  0.00     0.003 A 
ATOM      6  C4  PXY d   1      -1.115  -0.059   1.139  0.00  0.00    -0.082 A 
ATOM      7  C5  PXY d   1      -0.222  -1.071   1.144  0.00  0.00     0.003 A 
ATOM      8  C6  PXY d   1       0.812  -1.069   0.213  0.00  0.00     0.003 A 
ENDROOT
TORSDOF 0
ENDMDL
