MODEL 1
REMARK minimizedAffinity -3.70199466
REMARK minimizedRMSD -1
REMARK  0 active torsions:
REMARK  status: ('A' for Active; 'I' for Inactive)
ROOT
ATOM      1  C4' PXY d   1       0.168  -2.590  -1.940  0.00  0.00     0.077 C 
ATOM      2  C1' PXY d   1       1.959   2.790  -0.814  0.00  0.00     0.077 C 
ATOM      3  C1  PXY d   1       1.487   1.377  -1.097  0.00  0.00    -0.082 A 
ATOM      4  C2  PXY d   1       1.915   0.748  -2.180  0.00  0.00     0.003 A 
ATOM      5  C3  PXY d   1       1.473  -0.517  -2.467  0.00  0.00     0.003 A 
ATOM      6  C4  PXY d   1       0.626  -1.167  -1.610  0.00  0.00    -0.082 A 
ATOM      7  C5  PXY d   1       0.193  -0.536  -0.498  0.00  0.00     0.003 A 
ATOM      8  C6  PXY d   1       0.621   0.764  -0.245  0.00  0.00     0.003 A 
ENDROOT
TORSDOF 0
ENDMDL
