MODEL 1
REMARK minimizedAffinity -2.35622549
REMARK minimizedRMSD -1
REMARK  0 active torsions:
REMARK  status: ('A' for Active; 'I' for Inactive)
ROOT
ATOM      1  C4' PXY d   1       0.255  -2.956  -2.891  0.00  0.00     0.077 C 
ATOM      2  C1' PXY d   1       0.536   1.154   1.165  0.00  0.00     0.077 C 
ATOM      3  C1  PXY d   1       0.463   0.067   0.110  0.00  0.00    -0.082 A 
ATOM      4  C2  PXY d   1       0.858   0.327  -1.126  0.00  0.00     0.003 A 
ATOM      5  C3  PXY d   1       0.768  -0.635  -2.099  0.00  0.00     0.003 A 
ATOM      6  C4  PXY d   1       0.320  -1.892  -1.792  0.00  0.00    -0.082 A 
ATOM      7  C5  PXY d   1      -0.074  -2.168  -0.531  0.00  0.00     0.003 A 
ATOM      8  C6  PXY d   1      -0.014  -1.166   0.433  0.00  0.00     0.003 A 
ENDROOT
TORSDOF 0
ENDMDL
