MODEL 1
REMARK minimizedAffinity 0.386304617
REMARK minimizedRMSD -1
REMARK  0 active torsions:
REMARK  status: ('A' for Active; 'I' for Inactive)
ROOT
ATOM      1  C4' PXY d   1      -4.854   0.158  -5.903  0.00  0.00     0.077 C 
ATOM      2  C1' PXY d   1      -4.895   5.935  -5.730  0.00  0.00     0.077 C 
ATOM      3  C1  PXY d   1      -4.872   4.420  -5.779  0.00  0.00    -0.082 A 
ATOM      4  C2  PXY d   1      -5.998   3.755  -5.980  0.00  0.00     0.003 A 
ATOM      5  C3  PXY d   1      -6.000   2.384  -5.995  0.00  0.00     0.003 A 
ATOM      6  C4  PXY d   1      -4.829   1.688  -5.856  0.00  0.00    -0.082 A 
ATOM      7  C5  PXY d   1      -3.675   2.360  -5.662  0.00  0.00     0.003 A 
ATOM      8  C6  PXY d   1      -3.700   3.750  -5.609  0.00  0.00     0.003 A 
ENDROOT
TORSDOF 0
ENDMDL
