MODEL 1
REMARK minimizedAffinity -4.68088436
REMARK minimizedRMSD -1
REMARK  0 active torsions:
REMARK  status: ('A' for Active; 'I' for Inactive)
ROOT
ATOM      1  C4' PXY d   1      -3.980  -2.184   0.375  0.00  0.00     0.077 C 
ATOM      2  C1' PXY d   1       1.011   0.699   0.814  0.00  0.00     0.077 C 
ATOM      3  C1  PXY d   1      -0.295  -0.060   0.687  0.00  0.00    -0.082 A 
ATOM      4  C2  PXY d   1      -1.319   0.265   1.459  0.00  0.00     0.003 A 
ATOM      5  C3  PXY d   1      -2.497  -0.432   1.379  0.00  0.00     0.003 A 
ATOM      6  C4  PXY d   1      -2.646  -1.439   0.463  0.00  0.00    -0.082 A 
ATOM      7  C5  PXY d   1      -1.609  -1.770  -0.336  0.00  0.00     0.003 A 
ATOM      8  C6  PXY d   1      -0.408  -1.077  -0.210  0.00  0.00     0.003 A 
ENDROOT
TORSDOF 0
ENDMDL
