MODEL 1
REMARK minimizedAffinity -1.60091662
REMARK minimizedRMSD -1
REMARK  0 active torsions:
REMARK  status: ('A' for Active; 'I' for Inactive)
ROOT
ATOM      1  C4' PXY d   1       0.103  -2.018   0.352  0.00  0.00     0.077 C 
ATOM      2  C1' PXY d   1       2.975  -1.388  -4.625  0.00  0.00     0.077 C 
ATOM      3  C1  PXY d   1       2.218  -1.566  -3.324  0.00  0.00    -0.082 A 
ATOM      4  C2  PXY d   1       1.777  -0.501  -2.674  0.00  0.00     0.003 A 
ATOM      5  C3  PXY d   1       1.119  -0.642  -1.479  0.00  0.00     0.003 A 
ATOM      6  C4  PXY d   1       0.864  -1.887  -0.971  0.00  0.00    -0.082 A 
ATOM      7  C5  PXY d   1       1.302  -2.979  -1.634  0.00  0.00     0.003 A 
ATOM      8  C6  PXY d   1       2.004  -2.813  -2.824  0.00  0.00     0.003 A 
ENDROOT
TORSDOF 0
ENDMDL
