MODEL 1
REMARK minimizedAffinity -5.70188141
REMARK minimizedRMSD -1
REMARK  0 active torsions:
REMARK  status: ('A' for Active; 'I' for Inactive)
ROOT
ATOM      1  C4' PXY d   1      -0.846  -0.148   1.302  0.00  0.00     0.077 C 
ATOM      2  C1' PXY d   1       2.412  -1.458  -3.289  0.00  0.00     0.077 C 
ATOM      3  C1  PXY d   1       1.563  -1.103  -2.085  0.00  0.00    -0.082 A 
ATOM      4  C2  PXY d   1       1.109  -2.064  -1.298  0.00  0.00     0.003 A 
ATOM      5  C3  PXY d   1       0.313  -1.763  -0.222  0.00  0.00     0.003 A 
ATOM      6  C4  PXY d   1       0.023  -0.460   0.081  0.00  0.00    -0.082 A 
ATOM      7  C5  PXY d   1       0.491   0.528  -0.711  0.00  0.00     0.003 A 
ATOM      8  C6  PXY d   1       1.263   0.198  -1.821  0.00  0.00     0.003 A 
ENDROOT
TORSDOF 0
ENDMDL
