MODEL 1
REMARK minimizedAffinity 11.8031731
REMARK minimizedRMSD -1
REMARK  2 active torsions:
REMARK  status: ('A' for Active; 'I' for Inactive)
REMARK    1  A    between atoms: C2'_3  and  C1'_4 
REMARK    2  A    between atoms: C1'_4  and  C1_5 
ROOT
ATOM      1  C1  I4B d   1       2.157   0.796  -0.758  0.00  0.00    -0.075 A 
ATOM      2  C2  I4B d   1       2.280   1.551   0.382  0.00  0.00     0.003 A 
ATOM      3  C3  I4B d   1       1.225   2.403   0.790  0.00  0.00     0.002 A 
ATOM      4  C4  I4B d   1       0.094   2.506   0.007  0.00  0.00    -0.004 A 
ATOM      5  C5  I4B d   1      -0.039   1.723  -1.136  0.00  0.00     0.002 A 
ATOM      6  C6  I4B d   1       0.994   0.853  -1.515  0.00  0.00     0.003 A 
ENDROOT
BRANCH   1   7
ATOM      7  C1' I4B d   1       3.304  -0.067  -1.177  0.00  0.00     0.060 C 
BRANCH   7   8
ATOM      8  C2' I4B d   1       3.996   0.609  -2.343  0.00  0.00    -0.013 C 
ATOM      9  C4' I4B d   1       5.220   1.360  -1.890  0.00  0.00     0.013 C 
ATOM     10  C3' I4B d   1       4.350  -0.448  -3.347  0.00  0.00     0.013 C 
ENDBRANCH   7   8
ENDBRANCH   1   7
TORSDOF 2
ENDMDL
