MODEL 1
REMARK minimizedAffinity 7.26247311
REMARK minimizedRMSD -1
REMARK  2 active torsions:
REMARK  status: ('A' for Active; 'I' for Inactive)
REMARK    1  A    between atoms: C2'_3  and  C1'_4 
REMARK    2  A    between atoms: C1'_4  and  C1_5 
ROOT
ATOM      1  C1  I4B d   1       2.470  -1.482  -0.965  0.00  0.00    -0.075 A 
ATOM      2  C2  I4B d   1       1.687  -2.578  -1.230  0.00  0.00     0.003 A 
ATOM      3  C3  I4B d   1       0.345  -2.619  -0.781  0.00  0.00     0.002 A 
ATOM      4  C4  I4B d   1      -0.155  -1.573  -0.033  0.00  0.00    -0.004 A 
ATOM      5  C5  I4B d   1       0.633  -0.453   0.214  0.00  0.00     0.002 A 
ATOM      6  C6  I4B d   1       1.950  -0.401  -0.265  0.00  0.00     0.003 A 
ENDROOT
BRANCH   1   7
ATOM      7  C1' I4B d   1       3.893  -1.485  -1.426  0.00  0.00     0.060 C 
BRANCH   7   8
ATOM      8  C2' I4B d   1       3.916  -1.044  -2.875  0.00  0.00    -0.013 C 
ATOM      9  C4' I4B d   1       5.196  -0.321  -3.205  0.00  0.00     0.013 C 
ATOM     10  C3' I4B d   1       3.746  -2.263  -3.732  0.00  0.00     0.013 C 
ENDBRANCH   7   8
ENDBRANCH   1   7
TORSDOF 2
ENDMDL
