MODEL 1
REMARK minimizedAffinity 2.62387276
REMARK minimizedRMSD -1
REMARK  2 active torsions:
REMARK  status: ('A' for Active; 'I' for Inactive)
REMARK    1  A    between atoms: C2'_3  and  C1'_4 
REMARK    2  A    between atoms: C1'_4  and  C1_5 
ROOT
ATOM      1  C1  I4B d   1      -0.088   0.327   0.332  0.00  0.00    -0.075 A 
ATOM      2  C2  I4B d   1      -0.413   0.743   1.599  0.00  0.00     0.003 A 
ATOM      3  C3  I4B d   1       0.007   2.014   2.061  0.00  0.00     0.002 A 
ATOM      4  C4  I4B d   1       0.787   2.810   1.247  0.00  0.00    -0.004 A 
ATOM      5  C5  I4B d   1       1.096   2.395  -0.046  0.00  0.00     0.002 A 
ATOM      6  C6  I4B d   1       0.645   1.151  -0.511  0.00  0.00     0.003 A 
ENDROOT
BRANCH   1   7
ATOM      7  C1' I4B d   1      -0.520  -1.035  -0.112  0.00  0.00     0.060 C 
BRANCH   7   8
ATOM      8  C2' I4B d   1       0.337  -1.433  -1.297  0.00  0.00    -0.013 C 
ATOM      9  C4' I4B d   1       1.582  -2.155  -0.852  0.00  0.00     0.013 C 
ATOM     10  C3' I4B d   1      -0.494  -2.294  -2.200  0.00  0.00     0.013 C 
ENDBRANCH   7   8
ENDBRANCH   1   7
TORSDOF 2
ENDMDL
