MODEL 1
REMARK minimizedAffinity -1.08687139
REMARK minimizedRMSD -1
REMARK  0 active torsions:
REMARK  status: ('A' for Active; 'I' for Inactive)
ROOT
ATOM      1  C   UNL d   1       1.358  -2.361  -0.176  0.00  0.00    -0.002 A 
ATOM      2  C1  UNL d   1       0.168  -1.653  -0.086  0.00  0.00     0.010 A 
ATOM      3  C2  UNL d   1       0.171  -0.257  -0.068  0.00  0.00     0.041 A 
ATOM      4  C3  UNL d   1       1.403   0.423  -0.144  0.00  0.00    -0.075 A 
ATOM      5  S   UNL d   1       1.651   2.129  -0.140  0.00  0.00     0.015 SA
ATOM      6  C4  UNL d   1       3.342   1.958  -0.258  0.00  0.00     0.022 A 
ATOM      7  C5  UNL d   1       3.726   0.639  -0.300  0.00  0.00     0.026 A 
ATOM      8  C6  UNL d   1       2.614  -0.268  -0.236  0.00  0.00    -0.082 A 
ATOM      9  C7  UNL d   1       2.578  -1.683  -0.251  0.00  0.00     0.045 A 
ENDROOT
TORSDOF 0
ENDMDL
