MODEL 1
REMARK minimizedAffinity -2.8422308
REMARK minimizedRMSD -1
REMARK  0 active torsions:
REMARK  status: ('A' for Active; 'I' for Inactive)
ROOT
ATOM      1  C   UNL d   1       2.405  -1.395   0.719  0.00  0.00    -0.002 A 
ATOM      2  C1  UNL d   1       2.696  -0.167   1.297  0.00  0.00     0.010 A 
ATOM      3  C2  UNL d   1       1.845   0.924   1.114  0.00  0.00     0.041 A 
ATOM      4  C3  UNL d   1       0.683   0.759   0.334  0.00  0.00    -0.075 A 
ATOM      5  S   UNL d   1      -0.506   1.954  -0.025  0.00  0.00     0.015 SA
ATOM      6  C4  UNL d   1      -1.430   0.863  -0.954  0.00  0.00     0.022 A 
ATOM      7  C5  UNL d   1      -0.859  -0.387  -0.999  0.00  0.00     0.026 A 
ATOM      8  C6  UNL d   1       0.368  -0.468  -0.257  0.00  0.00    -0.082 A 
ATOM      9  C7  UNL d   1       1.252  -1.555  -0.054  0.00  0.00     0.045 A 
ENDROOT
TORSDOF 0
ENDMDL
