MODEL 1
REMARK minimizedAffinity 2.57218194
REMARK minimizedRMSD -1
REMARK  0 active torsions:
REMARK  status: ('A' for Active; 'I' for Inactive)
ROOT
ATOM      1  C   UNL d   1       0.318  -0.198  -1.233  0.00  0.00    -0.002 A 
ATOM      2  C1  UNL d   1       0.806  -0.064   0.059  0.00  0.00     0.010 A 
ATOM      3  C2  UNL d   1      -0.038   0.328   1.100  0.00  0.00     0.041 A 
ATOM      4  C3  UNL d   1      -1.394   0.585   0.818  0.00  0.00    -0.075 A 
ATOM      5  S   UNL d   1      -2.613   1.077   1.934  0.00  0.00     0.015 SA
ATOM      6  C4  UNL d   1      -3.810   1.121   0.722  0.00  0.00     0.022 A 
ATOM      7  C5  UNL d   1      -3.309   0.772  -0.510  0.00  0.00     0.026 A 
ATOM      8  C6  UNL d   1      -1.909   0.457  -0.475  0.00  0.00    -0.082 A 
ATOM      9  C7  UNL d   1      -1.028   0.058  -1.509  0.00  0.00     0.045 A 
ENDROOT
TORSDOF 0
ENDMDL
