MODEL 1
REMARK minimizedAffinity -2.28020215
REMARK minimizedRMSD -1
REMARK  0 active torsions:
REMARK  status: ('A' for Active; 'I' for Inactive)
ROOT
ATOM      1  C   UNL d   1       2.193  -1.916   0.580  0.00  0.00    -0.002 A 
ATOM      2  C1  UNL d   1       0.954  -2.142  -0.004  0.00  0.00     0.010 A 
ATOM      3  C2  UNL d   1       0.178  -1.074  -0.460  0.00  0.00     0.041 A 
ATOM      4  C3  UNL d   1       0.673   0.237  -0.319  0.00  0.00    -0.075 A 
ATOM      5  S   UNL d   1      -0.102   1.698  -0.805  0.00  0.00     0.015 SA
ATOM      6  C4  UNL d   1       1.194   2.657  -0.250  0.00  0.00     0.022 A 
ATOM      7  C5  UNL d   1       2.201   1.897   0.295  0.00  0.00     0.026 A 
ATOM      8  C6  UNL d   1       1.918   0.490   0.264  0.00  0.00    -0.082 A 
ATOM      9  C7  UNL d   1       2.681  -0.614   0.717  0.00  0.00     0.045 A 
ENDROOT
TORSDOF 0
ENDMDL
