MODEL 1
REMARK minimizedAffinity 8.68843079
REMARK minimizedRMSD -1
REMARK  0 active torsions:
REMARK  status: ('A' for Active; 'I' for Inactive)
ROOT
ATOM      1  C   UNL d   1       2.645  -2.246   0.811  0.00  0.00     0.020 A 
ATOM      2  C1  UNL d   1       3.130  -1.379  -0.167  0.00  0.00     0.020 A 
ATOM      3  C2  UNL d   1       2.630  -1.445  -1.469  0.00  0.00     0.034 A 
ATOM      4  C3  UNL d   1       1.641  -2.379  -1.797  0.00  0.00     0.017 A 
ATOM      5  C4  UNL d   1       1.154  -3.249  -0.815  0.00  0.00     0.017 A 
ATOM      6  C5  UNL d   1       1.659  -3.179   0.487  0.00  0.00     0.034 A 
ATOM      7 Cl   UNL d   1      -0.065  -4.429  -1.144  0.00  0.00    -0.070 Cl
ATOM      8 Cl1  UNL d   1       1.068  -2.404  -3.427  0.00  0.00    -0.070 Cl
ENDROOT
TORSDOF 0
ENDMDL
