MODEL 1
REMARK minimizedAffinity 2.68673277
REMARK minimizedRMSD -1
REMARK  0 active torsions:
REMARK  status: ('A' for Active; 'I' for Inactive)
ROOT
ATOM      1  C   UNL d   1       3.624   1.242  -1.116  0.00  0.00     0.020 A 
ATOM      2  C1  UNL d   1       4.904   1.476  -0.615  0.00  0.00     0.020 A 
ATOM      3  C2  UNL d   1       5.620   0.438  -0.017  0.00  0.00     0.034 A 
ATOM      4  C3  UNL d   1       5.057  -0.840   0.082  0.00  0.00     0.017 A 
ATOM      5  C4  UNL d   1       3.772  -1.074  -0.420  0.00  0.00     0.017 A 
ATOM      6  C5  UNL d   1       3.059  -0.030  -1.018  0.00  0.00     0.034 A 
ATOM      7 Cl   UNL d   1       3.011  -2.623  -0.334  0.00  0.00    -0.070 Cl
ATOM      8 Cl1  UNL d   1       6.000  -2.077   0.834  0.00  0.00    -0.070 Cl
ENDROOT
TORSDOF 0
ENDMDL
