MODEL 1
REMARK minimizedAffinity 7.61889076
REMARK minimizedRMSD -1
REMARK  0 active torsions:
REMARK  status: ('A' for Active; 'I' for Inactive)
ROOT
ATOM      1  C   UNL d   1       5.999   0.349  -0.374  0.00  0.00     0.020 A 
ATOM      2  C1  UNL d   1       5.244   1.470  -0.717  0.00  0.00     0.020 A 
ATOM      3  C2  UNL d   1       3.851   1.384  -0.772  0.00  0.00     0.034 A 
ATOM      4  C3  UNL d   1       3.209   0.174  -0.483  0.00  0.00     0.017 A 
ATOM      5  C4  UNL d   1       3.967  -0.950  -0.140  0.00  0.00     0.017 A 
ATOM      6  C5  UNL d   1       5.362  -0.858  -0.086  0.00  0.00     0.034 A 
ATOM      7 Cl   UNL d   1       3.246  -2.477   0.229  0.00  0.00    -0.070 Cl
ATOM      8 Cl1  UNL d   1       1.483   0.140  -0.570  0.00  0.00    -0.070 Cl
ENDROOT
TORSDOF 0
ENDMDL
