MODEL 1
REMARK minimizedAffinity 14.3300724
REMARK minimizedRMSD -1
REMARK  0 active torsions:
REMARK  status: ('A' for Active; 'I' for Inactive)
ROOT
ATOM      1  C   UNL d   1      -5.813   0.692  -3.597  0.00  0.00     0.020 A 
ATOM      2  C1  UNL d   1      -6.000   1.916  -2.957  0.00  0.00     0.020 A 
ATOM      3  C2  UNL d   1      -5.161   2.993  -3.251  0.00  0.00     0.034 A 
ATOM      4  C3  UNL d   1      -4.132   2.848  -4.189  0.00  0.00     0.017 A 
ATOM      5  C4  UNL d   1      -3.946   1.619  -4.831  0.00  0.00     0.017 A 
ATOM      6  C5  UNL d   1      -4.788   0.544  -4.533  0.00  0.00     0.034 A 
ATOM      7 Cl   UNL d   1      -2.698   1.364  -5.999  0.00  0.00    -0.070 Cl
ATOM      8 Cl1  UNL d   1      -3.133   4.222  -4.504  0.00  0.00    -0.070 Cl
ENDROOT
TORSDOF 0
ENDMDL
