MODEL 1
REMARK minimizedAffinity 17.8630142
REMARK minimizedRMSD -1
REMARK  0 active torsions:
REMARK  status: ('A' for Active; 'I' for Inactive)
ROOT
ATOM      1  C   UNL d   1      -0.072  -5.459  -0.641  0.00  0.00     0.020 A 
ATOM      2  C1  UNL d   1       0.893  -4.482  -0.884  0.00  0.00     0.020 A 
ATOM      3  C2  UNL d   1       0.887  -3.781  -2.092  0.00  0.00     0.034 A 
ATOM      4  C3  UNL d   1      -0.085  -4.055  -3.061  0.00  0.00     0.017 A 
ATOM      5  C4  UNL d   1      -1.053  -5.036  -2.816  0.00  0.00     0.017 A 
ATOM      6  C5  UNL d   1      -1.043  -5.735  -1.605  0.00  0.00     0.034 A 
ATOM      7 Cl   UNL d   1      -2.284  -5.430  -3.963  0.00  0.00    -0.070 Cl
ATOM      8 Cl1  UNL d   1      -0.032  -3.149  -4.531  0.00  0.00    -0.070 Cl
ENDROOT
TORSDOF 0
ENDMDL
