MODEL 1
REMARK minimizedAffinity 19.2960091
REMARK minimizedRMSD -1
REMARK  0 active torsions:
REMARK  status: ('A' for Active; 'I' for Inactive)
ROOT
ATOM      1  C   UNL d   1       2.480  -0.160  -1.321  0.00  0.00     0.020 A 
ATOM      2  C1  UNL d   1       2.670  -0.685  -0.044  0.00  0.00     0.020 A 
ATOM      3  C2  UNL d   1       3.762  -0.275   0.724  0.00  0.00     0.034 A 
ATOM      4  C3  UNL d   1       4.669   0.661   0.214  0.00  0.00     0.017 A 
ATOM      5  C4  UNL d   1       4.477   1.187  -1.068  0.00  0.00     0.017 A 
ATOM      6  C5  UNL d   1       3.381   0.774  -1.833  0.00  0.00     0.034 A 
ATOM      7 Cl   UNL d   1       5.553   2.347  -1.765  0.00  0.00    -0.070 Cl
ATOM      8 Cl1  UNL d   1       5.997   1.123   1.219  0.00  0.00    -0.070 Cl
ENDROOT
TORSDOF 0
ENDMDL
