MODEL 1
REMARK minimizedAffinity 10.3944769
REMARK minimizedRMSD -1
REMARK  0 active torsions:
REMARK  status: ('A' for Active; 'I' for Inactive)
ROOT
ATOM      1  C   UNL d   1      -1.979   2.417   0.588  0.00  0.00     0.020 A 
ATOM      2  C1  UNL d   1      -1.510   1.115   0.758  0.00  0.00     0.020 A 
ATOM      3  C2  UNL d   1      -0.364   0.879   1.519  0.00  0.00     0.034 A 
ATOM      4  C3  UNL d   1       0.318   1.948   2.113  0.00  0.00     0.017 A 
ATOM      5  C4  UNL d   1      -0.153   3.254   1.942  0.00  0.00     0.017 A 
ATOM      6  C5  UNL d   1      -1.302   3.484   1.179  0.00  0.00     0.034 A 
ATOM      7 Cl   UNL d   1       0.634   4.623   2.644  0.00  0.00    -0.070 Cl
ATOM      8 Cl1  UNL d   1       1.729   1.583   3.042  0.00  0.00    -0.070 Cl
ENDROOT
TORSDOF 0
ENDMDL
