MODEL 1
REMARK minimizedAffinity 11.9893093
REMARK minimizedRMSD -1
REMARK  0 active torsions:
REMARK  status: ('A' for Active; 'I' for Inactive)
ROOT
ATOM      1  C   UNL d   1      -0.579   1.329   1.926  0.00  0.00     0.020 A 
ATOM      2  C1  UNL d   1       0.675   0.965   2.413  0.00  0.00     0.020 A 
ATOM      3  C2  UNL d   1       1.671   0.541   1.530  0.00  0.00     0.034 A 
ATOM      4  C3  UNL d   1       1.414   0.479   0.156  0.00  0.00     0.017 A 
ATOM      5  C4  UNL d   1       0.154   0.844  -0.332  0.00  0.00     0.017 A 
ATOM      6  C5  UNL d   1      -0.839   1.268   0.556  0.00  0.00     0.034 A 
ATOM      7 Cl   UNL d   1      -0.239   0.794  -2.014  0.00  0.00    -0.070 Cl
ATOM      8 Cl1  UNL d   1       2.691  -0.055  -0.877  0.00  0.00    -0.070 Cl
ENDROOT
TORSDOF 0
ENDMDL
