MODEL 1
REMARK minimizedAffinity 9.77250767
REMARK minimizedRMSD -1
REMARK  0 active torsions:
REMARK  status: ('A' for Active; 'I' for Inactive)
ROOT
ATOM      1  C   UNL d   1       0.721   0.722  -0.337  0.00  0.00     0.020 A 
ATOM      2  C1  UNL d   1      -0.429   0.550  -1.106  0.00  0.00     0.020 A 
ATOM      3  C2  UNL d   1      -0.910  -0.735  -1.365  0.00  0.00     0.034 A 
ATOM      4  C3  UNL d   1      -0.242  -1.853  -0.853  0.00  0.00     0.017 A 
ATOM      5  C4  UNL d   1       0.912  -1.679  -0.081  0.00  0.00     0.017 A 
ATOM      6  C5  UNL d   1       1.390  -0.390   0.175  0.00  0.00     0.034 A 
ATOM      7 Cl   UNL d   1       1.791  -3.011   0.585  0.00  0.00    -0.070 Cl
ATOM      8 Cl1  UNL d   1      -0.893  -3.412  -1.212  0.00  0.00    -0.070 Cl
ENDROOT
TORSDOF 0
ENDMDL
