MODEL 1
REMARK minimizedAffinity 3.11278677
REMARK minimizedRMSD -1
REMARK  0 active torsions:
REMARK  status: ('A' for Active; 'I' for Inactive)
ROOT
ATOM      1  N1  IND d   1      -0.493   1.537   2.999  0.00  0.00    -0.196 N 
ATOM      2  C2  IND d   1      -0.628   0.955   1.769  0.00  0.00     0.054 A 
ATOM      3  C3  IND d   1       0.016  -0.233   1.737  0.00  0.00    -0.031 A 
ATOM      4  C4  IND d   1       1.270  -1.464   3.618  0.00  0.00     0.051 A 
ATOM      5  C5  IND d   1       1.692  -1.314   4.909  0.00  0.00    -0.031 A 
ATOM      6  C6  IND d   1       1.399  -0.184   5.645  0.00  0.00     0.015 A 
ATOM      7  C7  IND d   1       0.660   0.837   5.119  0.00  0.00    -0.016 A 
ATOM      8  C8  IND d   1       0.235   0.691   3.806  0.00  0.00    -0.047 A 
ATOM      9  C9  IND d   1       0.566  -0.434   3.040  0.00  0.00    -0.096 A 
ATOM     10  HN1 IND d   1      -0.811   2.302   3.230  0.00  0.00     0.298 HD
ENDROOT
TORSDOF 0
ENDMDL
