MODEL 1
REMARK minimizedAffinity 9.53014374
REMARK minimizedRMSD -1
REMARK  0 active torsions:
REMARK  status: ('A' for Active; 'I' for Inactive)
ROOT
ATOM      1  N1  IND d   1       4.800   4.665   2.704  0.00  0.00    -0.196 N 
ATOM      2  C2  IND d   1       5.968   5.356   2.540  0.00  0.00     0.054 A 
ATOM      3  C3  IND d   1       5.998   5.948   1.325  0.00  0.00    -0.031 A 
ATOM      4  C4  IND d   1       4.197   6.000  -0.514  0.00  0.00     0.051 A 
ATOM      5  C5  IND d   1       2.974   5.484  -0.838  0.00  0.00    -0.031 A 
ATOM      6  C6  IND d   1       2.281   4.654   0.020  0.00  0.00     0.015 A 
ATOM      7  C7  IND d   1       2.784   4.317   1.245  0.00  0.00    -0.016 A 
ATOM      8  C8  IND d   1       4.029   4.833   1.574  0.00  0.00    -0.047 A 
ATOM      9  C9  IND d   1       4.755   5.641   0.690  0.00  0.00    -0.096 A 
ATOM     10  HN1 IND d   1       4.583   4.202   3.396  0.00  0.00     0.298 HD
ENDROOT
TORSDOF 0
ENDMDL
