MODEL 1
REMARK minimizedAffinity 6.29731083
REMARK minimizedRMSD -1
REMARK  0 active torsions:
REMARK  status: ('A' for Active; 'I' for Inactive)
ROOT
ATOM      1  N1  IND d   1      -2.766   1.468  -0.689  0.00  0.00    -0.196 N 
ATOM      2  C2  IND d   1      -3.567   0.555  -1.316  0.00  0.00     0.054 A 
ATOM      3  C3  IND d   1      -3.338  -0.685  -0.828  0.00  0.00    -0.031 A 
ATOM      4  C4  IND d   1      -1.768  -1.432   1.071  0.00  0.00     0.051 A 
ATOM      5  C5  IND d   1      -0.807  -0.962   1.921  0.00  0.00    -0.031 A 
ATOM      6  C6  IND d   1      -0.444   0.369   1.947  0.00  0.00     0.015 A 
ATOM      7  C7  IND d   1      -1.040   1.286   1.128  0.00  0.00    -0.016 A 
ATOM      8  C8  IND d   1      -2.011   0.811   0.259  0.00  0.00    -0.047 A 
ATOM      9  C9  IND d   1      -2.354  -0.546   0.198  0.00  0.00    -0.096 A 
ATOM     10  HN1 IND d   1      -2.738   2.310  -0.858  0.00  0.00     0.298 HD
ENDROOT
TORSDOF 0
ENDMDL
