MODEL 1
REMARK minimizedAffinity 7.58067083
REMARK minimizedRMSD -1
REMARK  0 active torsions:
REMARK  status: ('A' for Active; 'I' for Inactive)
ROOT
ATOM      1  N1  IND d   1       0.425  -2.687   4.254  0.00  0.00    -0.196 N 
ATOM      2  C2  IND d   1       1.649  -2.674   4.864  0.00  0.00     0.054 A 
ATOM      3  C3  IND d   1       2.411  -1.674   4.367  0.00  0.00    -0.031 A 
ATOM      4  C4  IND d   1       1.815   0.125   2.623  0.00  0.00     0.051 A 
ATOM      5  C5  IND d   1       0.826   0.500   1.758  0.00  0.00    -0.031 A 
ATOM      6  C6  IND d   1      -0.372  -0.179   1.681  0.00  0.00     0.015 A 
ATOM      7  C7  IND d   1      -0.632  -1.258   2.479  0.00  0.00    -0.016 A 
ATOM      8  C8  IND d   1       0.373  -1.647   3.353  0.00  0.00    -0.047 A 
ATOM      9  C9  IND d   1       1.608  -0.987   3.406  0.00  0.00    -0.096 A 
ATOM     10  HN1 IND d   1      -0.205  -3.251   4.408  0.00  0.00     0.298 HD
ENDROOT
TORSDOF 0
ENDMDL
