MODEL 1
REMARK minimizedAffinity 10.5994749
REMARK minimizedRMSD -1
REMARK  0 active torsions:
REMARK  status: ('A' for Active; 'I' for Inactive)
ROOT
ATOM      1  N1  IND d   1       0.668  -2.118   2.934  0.00  0.00    -0.196 N 
ATOM      2  C2  IND d   1       1.953  -1.664   3.041  0.00  0.00     0.054 A 
ATOM      3  C3  IND d   1       2.067  -0.439   2.481  0.00  0.00    -0.031 A 
ATOM      4  C4  IND d   1       0.255   1.050   1.421  0.00  0.00     0.051 A 
ATOM      5  C5  IND d   1      -1.064   1.051   1.061  0.00  0.00    -0.031 A 
ATOM      6  C6  IND d   1      -1.890  -0.025   1.314  0.00  0.00     0.015 A 
ATOM      7  C7  IND d   1      -1.429  -1.142   1.950  0.00  0.00    -0.016 A 
ATOM      8  C8  IND d   1      -0.089  -1.150   2.311  0.00  0.00    -0.047 A 
ATOM      9  C9  IND d   1       0.765  -0.078   2.018  0.00  0.00    -0.096 A 
ATOM     10  HN1 IND d   1       0.381  -2.881   3.209  0.00  0.00     0.298 HD
ENDROOT
TORSDOF 0
ENDMDL
