MODEL 1
REMARK minimizedAffinity 5.53306723
REMARK minimizedRMSD -1
REMARK  0 active torsions:
REMARK  status: ('A' for Active; 'I' for Inactive)
ROOT
ATOM      1  N1  IND d   1       0.517  -1.769   3.459  0.00  0.00    -0.196 N 
ATOM      2  C2  IND d   1       1.731  -1.322   3.017  0.00  0.00     0.054 A 
ATOM      3  C3  IND d   1       1.567  -0.402   2.041  0.00  0.00    -0.031 A 
ATOM      4  C4  IND d   1      -0.604   0.595   1.081  0.00  0.00     0.051 A 
ATOM      5  C5  IND d   1      -1.964   0.474   1.142  0.00  0.00    -0.031 A 
ATOM      6  C6  IND d   1      -2.579  -0.417   1.998  0.00  0.00     0.015 A 
ATOM      7  C7  IND d   1      -1.854  -1.216   2.837  0.00  0.00    -0.016 A 
ATOM      8  C8  IND d   1      -0.472  -1.100   2.772  0.00  0.00    -0.047 A 
ATOM      9  C9  IND d   1       0.159  -0.228   1.875  0.00  0.00    -0.096 A 
ATOM     10  HN1 IND d   1       0.393  -2.367   4.064  0.00  0.00     0.298 HD
ENDROOT
TORSDOF 0
ENDMDL
