MODEL 1
REMARK minimizedAffinity 5.35587263
REMARK minimizedRMSD -1
REMARK  0 active torsions:
REMARK  status: ('A' for Active; 'I' for Inactive)
ROOT
ATOM      1  N1  IND d   1       0.421  -2.433   3.894  0.00  0.00    -0.196 N 
ATOM      2  C2  IND d   1       1.663  -2.031   4.300  0.00  0.00     0.054 A 
ATOM      3  C3  IND d   1       1.995  -0.860   3.711  0.00  0.00    -0.031 A 
ATOM      4  C4  IND d   1       0.610   0.624   2.128  0.00  0.00     0.051 A 
ATOM      5  C5  IND d   1      -0.572   0.658   1.441  0.00  0.00    -0.031 A 
ATOM      6  C6  IND d   1      -1.502  -0.356   1.541  0.00  0.00     0.015 A 
ATOM      7  C7  IND d   1      -1.290  -1.441   2.344  0.00  0.00    -0.016 A 
ATOM      8  C8  IND d   1      -0.089  -1.482   3.037  0.00  0.00    -0.047 A 
ATOM      9  C9  IND d   1       0.878  -0.477   2.907  0.00  0.00    -0.096 A 
ATOM     10  HN1 IND d   1       0.025  -3.157   4.134  0.00  0.00     0.298 HD
ENDROOT
TORSDOF 0
ENDMDL
