MODEL 1
REMARK minimizedAffinity 0.408183783
REMARK minimizedRMSD -1
REMARK  0 active torsions:
REMARK  status: ('A' for Active; 'I' for Inactive)
ROOT
ATOM      1  N1  IND d   1       0.222  -2.136   3.577  0.00  0.00    -0.196 N 
ATOM      2  C2  IND d   1       1.470  -1.733   3.961  0.00  0.00     0.054 A 
ATOM      3  C3  IND d   1       1.762  -0.528   3.422  0.00  0.00    -0.031 A 
ATOM      4  C4  IND d   1       0.301   1.008   1.962  0.00  0.00     0.051 A 
ATOM      5  C5  IND d   1      -0.904   1.054   1.317  0.00  0.00    -0.031 A 
ATOM      6  C6  IND d   1      -1.814   0.020   1.396  0.00  0.00     0.015 A 
ATOM      7  C7  IND d   1      -1.557  -1.100   2.136  0.00  0.00    -0.016 A 
ATOM      8  C8  IND d   1      -0.332  -1.154   2.786  0.00  0.00    -0.047 A 
ATOM      9  C9  IND d   1       0.613  -0.126   2.675  0.00  0.00    -0.096 A 
ATOM     10  HN1 IND d   1      -0.154  -2.879   3.793  0.00  0.00     0.298 HD
ENDROOT
TORSDOF 0
ENDMDL
