MODEL 1
REMARK minimizedAffinity 16.3255825
REMARK minimizedRMSD -1
REMARK  0 active torsions:
REMARK  status: ('A' for Active; 'I' for Inactive)
ROOT
ATOM      1  C   UNL d   1       2.692  -4.744   0.129  0.00  0.00     0.077 C 
ATOM      2  C1  UNL d   1       2.386  -3.521   0.941  0.00  0.00    -0.074 A 
ATOM      3  C2  UNL d   1       1.451  -2.580   0.498  0.00  0.00    -0.005 A 
ATOM      4  C3  UNL d   1       1.170  -1.452   1.268  0.00  0.00     0.006 A 
ATOM      5  C4  UNL d   1       1.820  -1.254   2.487  0.00  0.00    -0.005 A 
ATOM      6  C5  UNL d   1       2.757  -2.184   2.946  0.00  0.00    -0.074 A 
ATOM      7  C6  UNL d   1       3.457  -1.991   4.259  0.00  0.00     0.077 C 
ATOM      8  C7  UNL d   1       3.029  -3.319   2.170  0.00  0.00    -0.001 A 
ENDROOT
TORSDOF 0
ENDMDL
