MODEL 1
REMARK minimizedAffinity 14.5372677
REMARK minimizedRMSD -1
REMARK  0 active torsions:
REMARK  status: ('A' for Active; 'I' for Inactive)
ROOT
ATOM      1  C   UNL d   1      -6.000  -0.400  -3.762  0.00  0.00     0.077 C 
ATOM      2  C1  UNL d   1      -4.693  -0.318  -3.030  0.00  0.00    -0.074 A 
ATOM      3  C2  UNL d   1      -4.255  -1.372  -2.222  0.00  0.00    -0.005 A 
ATOM      4  C3  UNL d   1      -3.032  -1.285  -1.555  0.00  0.00     0.006 A 
ATOM      5  C4  UNL d   1      -2.238  -0.146  -1.690  0.00  0.00    -0.005 A 
ATOM      6  C5  UNL d   1      -2.660   0.917  -2.494  0.00  0.00    -0.074 A 
ATOM      7  C6  UNL d   1      -1.813   2.145  -2.658  0.00  0.00     0.077 C 
ATOM      8  C7  UNL d   1      -3.886   0.820  -3.167  0.00  0.00    -0.001 A 
ENDROOT
TORSDOF 0
ENDMDL
