MODEL 1
REMARK minimizedAffinity 9.41453934
REMARK minimizedRMSD -1
REMARK  0 active torsions:
REMARK  status: ('A' for Active; 'I' for Inactive)
ROOT
ATOM      1  C   UNL d   1      -0.842  -1.980   2.756  0.00  0.00     0.077 C 
ATOM      2  C1  UNL d   1       0.405  -2.383   2.025  0.00  0.00    -0.074 A 
ATOM      3  C2  UNL d   1       1.421  -1.455   1.771  0.00  0.00    -0.005 A 
ATOM      4  C3  UNL d   1       2.578  -1.847   1.099  0.00  0.00     0.006 A 
ATOM      5  C4  UNL d   1       2.731  -3.167   0.673  0.00  0.00    -0.005 A 
ATOM      6  C5  UNL d   1       1.726  -4.108   0.918  0.00  0.00    -0.074 A 
ATOM      7  C6  UNL d   1       1.879  -5.533   0.477  0.00  0.00     0.077 C 
ATOM      8  C7  UNL d   1       0.569  -3.709   1.601  0.00  0.00    -0.001 A 
ENDROOT
TORSDOF 0
ENDMDL
