MODEL 1
REMARK minimizedAffinity 7.49824238
REMARK minimizedRMSD -1
REMARK  0 active torsions:
REMARK  status: ('A' for Active; 'I' for Inactive)
ROOT
ATOM      1  C   UNL d   1       2.772  -4.981   0.559  0.00  0.00     0.077 C 
ATOM      2  C1  UNL d   1       2.644  -3.701   1.329  0.00  0.00    -0.074 A 
ATOM      3  C2  UNL d   1       1.605  -2.803   1.062  0.00  0.00    -0.005 A 
ATOM      4  C3  UNL d   1       1.493  -1.620   1.793  0.00  0.00     0.006 A 
ATOM      5  C4  UNL d   1       2.417  -1.323   2.796  0.00  0.00    -0.005 A 
ATOM      6  C5  UNL d   1       3.461  -2.210   3.078  0.00  0.00    -0.074 A 
ATOM      7  C6  UNL d   1       4.456  -1.911   4.160  0.00  0.00     0.077 C 
ATOM      8  C7  UNL d   1       3.563  -3.399   2.344  0.00  0.00    -0.001 A 
ENDROOT
TORSDOF 0
ENDMDL
