MODEL 1
REMARK minimizedAffinity 3.01582289
REMARK minimizedRMSD -1
REMARK  0 active torsions:
REMARK  status: ('A' for Active; 'I' for Inactive)
ROOT
ATOM      1  C   UNL d   1       0.587   4.878  -5.732  0.00  0.00     0.077 C 
ATOM      2  C1  UNL d   1      -0.358   4.029  -4.934  0.00  0.00    -0.074 A 
ATOM      3  C2  UNL d   1      -0.483   4.197  -3.551  0.00  0.00    -0.005 A 
ATOM      4  C3  UNL d   1      -1.373   3.407  -2.824  0.00  0.00     0.006 A 
ATOM      5  C4  UNL d   1      -2.146   2.442  -3.471  0.00  0.00    -0.005 A 
ATOM      6  C5  UNL d   1      -2.036   2.261  -4.853  0.00  0.00    -0.074 A 
ATOM      7  C6  UNL d   1      -2.867   1.236  -5.566  0.00  0.00     0.077 C 
ATOM      8  C7  UNL d   1      -1.145   3.064  -5.578  0.00  0.00    -0.001 A 
ENDROOT
TORSDOF 0
ENDMDL
