MODEL 1
REMARK minimizedAffinity 12.5617237
REMARK minimizedRMSD -1
REMARK  0 active torsions:
REMARK  status: ('A' for Active; 'I' for Inactive)
ROOT
ATOM      1  C   UNL d   1       3.797  -1.756   4.218  0.00  0.00     0.077 C 
ATOM      2  C1  UNL d   1       3.320  -1.690   2.797  0.00  0.00    -0.074 A 
ATOM      3  C2  UNL d   1       4.227  -1.573   1.739  0.00  0.00    -0.005 A 
ATOM      4  C3  UNL d   1       3.769  -1.522   0.423  0.00  0.00     0.006 A 
ATOM      5  C4  UNL d   1       2.402  -1.589   0.151  0.00  0.00    -0.005 A 
ATOM      6  C5  UNL d   1       1.480  -1.707   1.196  0.00  0.00    -0.074 A 
ATOM      7  C6  UNL d   1       0.008  -1.789   0.921  0.00  0.00     0.077 C 
ATOM      8  C7  UNL d   1       1.949  -1.764   2.516  0.00  0.00    -0.001 A 
ENDROOT
TORSDOF 0
ENDMDL
