MODEL 1
REMARK minimizedAffinity 4.9561367
REMARK minimizedRMSD -1
REMARK  0 active torsions:
REMARK  status: ('A' for Active; 'I' for Inactive)
ROOT
ATOM      1  C   UNL d   1      -2.326   2.853  -2.999  0.00  0.00     0.077 C 
ATOM      2  C1  UNL d   1      -1.253   2.920  -4.045  0.00  0.00    -0.074 A 
ATOM      3  C2  UNL d   1      -1.082   1.882  -4.967  0.00  0.00    -0.005 A 
ATOM      4  C3  UNL d   1      -0.086   1.962  -5.940  0.00  0.00     0.006 A 
ATOM      5  C4  UNL d   1       0.749   3.079  -6.000  0.00  0.00    -0.005 A 
ATOM      6  C5  UNL d   1       0.593   4.126  -5.087  0.00  0.00    -0.074 A 
ATOM      7  C6  UNL d   1       1.476   5.338  -5.143  0.00  0.00     0.077 C 
ATOM      8  C7  UNL d   1      -0.415   4.041  -4.117  0.00  0.00    -0.001 A 
ENDROOT
TORSDOF 0
ENDMDL
