MODEL 1
REMARK minimizedAffinity 10.944685
REMARK minimizedRMSD -1
REMARK  0 active torsions:
REMARK  status: ('A' for Active; 'I' for Inactive)
ROOT
ATOM      1  C   UNL d   1       0.813   3.404  -4.919  0.00  0.00     0.077 C 
ATOM      2  C1  UNL d   1      -0.477   3.211  -4.179  0.00  0.00    -0.074 A 
ATOM      3  C2  UNL d   1      -0.615   2.194  -3.229  0.00  0.00    -0.005 A 
ATOM      4  C3  UNL d   1      -1.818   2.033  -2.541  0.00  0.00     0.006 A 
ATOM      5  C4  UNL d   1      -2.893   2.886  -2.796  0.00  0.00    -0.005 A 
ATOM      6  C5  UNL d   1      -2.773   3.909  -3.741  0.00  0.00    -0.074 A 
ATOM      7  C6  UNL d   1      -3.915   4.840  -4.020  0.00  0.00     0.077 C 
ATOM      8  C7  UNL d   1      -1.559   4.069  -4.423  0.00  0.00    -0.001 A 
ENDROOT
TORSDOF 0
ENDMDL
