MODEL 1
REMARK minimizedAffinity 11.2649841
REMARK minimizedRMSD -1
REMARK  0 active torsions:
REMARK  status: ('A' for Active; 'I' for Inactive)
ROOT
ATOM      1  C   UNL d   1       0.541   2.902  -4.417  0.00  0.00     0.077 C 
ATOM      2  C1  UNL d   1      -0.672   2.462  -3.653  0.00  0.00    -0.074 A 
ATOM      3  C2  UNL d   1      -1.890   3.138  -3.787  0.00  0.00    -0.005 A 
ATOM      4  C3  UNL d   1      -3.012   2.712  -3.077  0.00  0.00     0.006 A 
ATOM      5  C4  UNL d   1      -2.929   1.607  -2.228  0.00  0.00    -0.005 A 
ATOM      6  C5  UNL d   1      -1.720   0.919  -2.082  0.00  0.00    -0.074 A 
ATOM      7  C6  UNL d   1      -1.616  -0.276  -1.182  0.00  0.00     0.077 C 
ATOM      8  C7  UNL d   1      -0.599   1.349  -2.804  0.00  0.00    -0.001 A 
ENDROOT
TORSDOF 0
ENDMDL
