MODEL 1
REMARK minimizedAffinity 2.85754681
REMARK minimizedRMSD -1
REMARK  0 active torsions:
REMARK  status: ('A' for Active; 'I' for Inactive)
ROOT
ATOM      1  C   UNL d   1       4.624  -3.423   0.489  0.00  0.00     0.077 C 
ATOM      2  C1  UNL d   1       3.303  -2.721   0.592  0.00  0.00    -0.074 A 
ATOM      3  C2  UNL d   1       2.909  -2.101   1.782  0.00  0.00    -0.005 A 
ATOM      4  C3  UNL d   1       1.681  -1.444   1.859  0.00  0.00     0.006 A 
ATOM      5  C4  UNL d   1       0.836  -1.400   0.750  0.00  0.00    -0.005 A 
ATOM      6  C5  UNL d   1       1.214  -2.014  -0.449  0.00  0.00    -0.074 A 
ATOM      7  C6  UNL d   1       0.322  -1.968  -1.654  0.00  0.00     0.077 C 
ATOM      8  C7  UNL d   1       2.452  -2.667  -0.521  0.00  0.00    -0.001 A 
ENDROOT
TORSDOF 0
ENDMDL
