MODEL 1
REMARK minimizedAffinity -3.45229816
REMARK minimizedRMSD -1
REMARK  0 active torsions:
REMARK  status: ('A' for Active; 'I' for Inactive)
ROOT
ATOM      1  C1  DEN d   1       0.791   0.719  -1.065  0.00  0.00     0.130 A 
ATOM      2  C2  DEN d   1       0.533   1.969  -0.354  0.00  0.00    -0.031 A 
ATOM      3  C3  DEN d   1      -0.257   1.652   0.853  0.00  0.00     0.027 A 
ATOM      4  C4  DEN d   1      -1.096  -0.640   1.688  0.00  0.00     0.027 A 
ATOM      5  C5  DEN d   1      -1.134  -1.989   1.414  0.00  0.00    -0.003 A 
ATOM      6  C6  DEN d   1      -0.567  -2.522   0.286  0.00  0.00     0.001 A 
ATOM      7  C7  DEN d   1       0.102  -1.705  -0.587  0.00  0.00     0.017 A 
ATOM      8  C8  DEN d   1       0.139  -0.343  -0.322  0.00  0.00    -0.094 A 
ATOM      9  C9  DEN d   1      -0.430   0.174   0.830  0.00  0.00    -0.072 A 
ENDROOT
TORSDOF 0
ENDMDL
