MODEL 1
REMARK minimizedAffinity -5.64045858
REMARK minimizedRMSD -1
REMARK  0 active torsions:
REMARK  status: ('A' for Active; 'I' for Inactive)
ROOT
ATOM      1  C1  DEN d   1       0.993  -2.322  -0.620  0.00  0.00     0.130 A 
ATOM      2  C2  DEN d   1       0.456  -3.176   0.436  0.00  0.00    -0.031 A 
ATOM      3  C3  DEN d   1      -0.446  -2.357   1.271  0.00  0.00     0.027 A 
ATOM      4  C4  DEN d   1      -1.064   0.135   1.028  0.00  0.00     0.027 A 
ATOM      5  C5  DEN d   1      -0.850   1.278   0.290  0.00  0.00    -0.003 A 
ATOM      6  C6  DEN d   1       0.013   1.310  -0.773  0.00  0.00     0.001 A 
ATOM      7  C7  DEN d   1       0.659   0.164  -1.157  0.00  0.00     0.017 A 
ATOM      8  C8  DEN d   1       0.454  -0.990  -0.414  0.00  0.00    -0.094 A 
ATOM      9  C9  DEN d   1      -0.432  -1.004   0.651  0.00  0.00    -0.072 A 
ENDROOT
TORSDOF 0
ENDMDL
