MODEL 1
REMARK minimizedAffinity -4.14256001
REMARK minimizedRMSD -1
REMARK  0 active torsions:
REMARK  status: ('A' for Active; 'I' for Inactive)
ROOT
ATOM      1  C1  DEN d   1      -1.417   0.276   0.323  0.00  0.00     0.130 A 
ATOM      2  C2  DEN d   1      -0.603   1.327  -0.282  0.00  0.00    -0.031 A 
ATOM      3  C3  DEN d   1       0.719   0.752  -0.604  0.00  0.00     0.027 A 
ATOM      4  C4  DEN d   1       1.579  -1.650  -0.229  0.00  0.00     0.027 A 
ATOM      5  C5  DEN d   1       1.254  -2.895   0.264  0.00  0.00    -0.003 A 
ATOM      6  C6  DEN d   1       0.038  -3.158   0.838  0.00  0.00     0.001 A 
ATOM      7  C7  DEN d   1      -0.914  -2.175   0.892  0.00  0.00     0.017 A 
ATOM      8  C8  DEN d   1      -0.591  -0.916   0.403  0.00  0.00    -0.094 A 
ATOM      9  C9  DEN d   1       0.639  -0.673  -0.184  0.00  0.00    -0.072 A 
ENDROOT
TORSDOF 0
ENDMDL
