MODEL 1
REMARK minimizedAffinity -5.58516836
REMARK minimizedRMSD -1
REMARK  0 active torsions:
REMARK  status: ('A' for Active; 'I' for Inactive)
ROOT
ATOM      1  C1  DEN d   1       1.312  -0.076  -0.963  0.00  0.00     0.130 A 
ATOM      2  C2  DEN d   1       1.010   1.242  -0.411  0.00  0.00    -0.031 A 
ATOM      3  C3  DEN d   1       0.016   1.067   0.667  0.00  0.00     0.027 A 
ATOM      4  C4  DEN d   1      -1.075  -1.104   1.533  0.00  0.00     0.027 A 
ATOM      5  C5  DEN d   1      -1.143  -2.469   1.367  0.00  0.00    -0.003 A 
ATOM      6  C6  DEN d   1      -0.429  -3.124   0.399  0.00  0.00     0.001 A 
ATOM      7  C7  DEN d   1       0.420  -2.418  -0.413  0.00  0.00     0.017 A 
ATOM      8  C8  DEN d   1       0.488  -1.039  -0.257  0.00  0.00    -0.094 A 
ATOM      9  C9  DEN d   1      -0.233  -0.398   0.736  0.00  0.00    -0.072 A 
ENDROOT
TORSDOF 0
ENDMDL
