MODEL 1
REMARK minimizedAffinity -4.21557188
REMARK minimizedRMSD -1
REMARK  0 active torsions:
REMARK  status: ('A' for Active; 'I' for Inactive)
ROOT
ATOM      1  C1  DEN d   1       0.848  -2.477  -0.937  0.00  0.00     0.130 A 
ATOM      2  C2  DEN d   1       0.326  -3.342   0.118  0.00  0.00    -0.031 A 
ATOM      3  C3  DEN d   1      -0.409  -2.497   1.080  0.00  0.00     0.027 A 
ATOM      4  C4  DEN d   1      -0.793   0.053   1.036  0.00  0.00     0.027 A 
ATOM      5  C5  DEN d   1      -0.533   1.216   0.345  0.00  0.00    -0.003 A 
ATOM      6  C6  DEN d   1       0.228   1.234  -0.794  0.00  0.00     0.001 A 
ATOM      7  C7  DEN d   1       0.718   0.059  -1.301  0.00  0.00     0.017 A 
ATOM      8  C8  DEN d   1       0.466  -1.116  -0.606  0.00  0.00    -0.094 A 
ATOM      9  C9  DEN d   1      -0.315  -1.115   0.537  0.00  0.00    -0.072 A 
ENDROOT
TORSDOF 0
ENDMDL
