MODEL 1
REMARK minimizedAffinity -3.82786155
REMARK minimizedRMSD -1
REMARK  0 active torsions:
REMARK  status: ('A' for Active; 'I' for Inactive)
ROOT
ATOM      1  C1  DEN d   1      -0.438   2.152   0.694  0.00  0.00     0.130 A 
ATOM      2  C2  DEN d   1       0.381   2.777  -0.341  0.00  0.00    -0.031 A 
ATOM      3  C3  DEN d   1       0.937   1.707  -1.192  0.00  0.00     0.027 A 
ATOM      4  C4  DEN d   1       0.609  -0.845  -1.012  0.00  0.00     0.027 A 
ATOM      5  C5  DEN d   1       0.008  -1.851  -0.288  0.00  0.00    -0.003 A 
ATOM      6  C6  DEN d   1      -0.750  -1.598   0.824  0.00  0.00     0.001 A 
ATOM      7  C7  DEN d   1      -0.964  -0.304   1.220  0.00  0.00     0.017 A 
ATOM      8  C8  DEN d   1      -0.355   0.715   0.499  0.00  0.00    -0.094 A 
ATOM      9  C9  DEN d   1       0.397   0.440  -0.630  0.00  0.00    -0.072 A 
ENDROOT
TORSDOF 0
ENDMDL
