MODEL 1
REMARK minimizedAffinity -5.72164583
REMARK minimizedRMSD -1
REMARK  0 active torsions:
REMARK  status: ('A' for Active; 'I' for Inactive)
ROOT
ATOM      1  C1  DEN d   1       0.279  -1.842   0.847  0.00  0.00     0.130 A 
ATOM      2  C2  DEN d   1       0.817  -2.766  -0.147  0.00  0.00    -0.031 A 
ATOM      3  C3  DEN d   1       1.057  -2.008  -1.392  0.00  0.00     0.027 A 
ATOM      4  C4  DEN d   1       0.655   0.494  -1.872  0.00  0.00     0.027 A 
ATOM      5  C5  DEN d   1       0.199   1.680  -1.340  0.00  0.00    -0.003 A 
ATOM      6  C6  DEN d   1      -0.290   1.767  -0.063  0.00  0.00     0.001 A 
ATOM      7  C7  DEN d   1      -0.293   0.658   0.740  0.00  0.00     0.017 A 
ATOM      8  C8  DEN d   1       0.159  -0.543   0.208  0.00  0.00    -0.094 A 
ATOM      9  C9  DEN d   1       0.660  -0.609  -1.080  0.00  0.00    -0.072 A 
ENDROOT
TORSDOF 0
ENDMDL
