MODEL 1
REMARK minimizedAffinity -4.0435195
REMARK minimizedRMSD -1
REMARK  0 active torsions:
REMARK  status: ('A' for Active; 'I' for Inactive)
ROOT
ATOM      1  C1  DEN d   1      -0.485  -1.450   1.177  0.00  0.00     0.130 A 
ATOM      2  C2  DEN d   1      -0.241  -2.880   1.013  0.00  0.00    -0.031 A 
ATOM      3  C3  DEN d   1       0.230  -3.108  -0.368  0.00  0.00     0.027 A 
ATOM      4  C4  DEN d   1       0.609  -1.392  -2.256  0.00  0.00     0.027 A 
ATOM      5  C5  DEN d   1       0.527  -0.060  -2.595  0.00  0.00    -0.003 A 
ATOM      6  C6  DEN d   1       0.074   0.890  -1.719  0.00  0.00     0.001 A 
ATOM      7  C7  DEN d   1      -0.273   0.528  -0.444  0.00  0.00     0.017 A 
ATOM      8  C8  DEN d   1      -0.200  -0.815  -0.097  0.00  0.00    -0.094 A 
ATOM      9  C9  DEN d   1       0.272  -1.759  -0.994  0.00  0.00    -0.072 A 
ENDROOT
TORSDOF 0
ENDMDL
