MODEL 1
REMARK minimizedAffinity -1.56099069
REMARK minimizedRMSD -1
REMARK  0 active torsions:
REMARK  status: ('A' for Active; 'I' for Inactive)
ROOT
ATOM      1  C1  DEN d   1       0.613   0.256  -1.194  0.00  0.00     0.130 A 
ATOM      2  C2  DEN d   1       0.291   1.598  -0.716  0.00  0.00    -0.031 A 
ATOM      3  C3  DEN d   1      -0.600   1.464   0.454  0.00  0.00     0.027 A 
ATOM      4  C4  DEN d   1      -1.503  -0.680   1.569  0.00  0.00     0.027 A 
ATOM      5  C5  DEN d   1      -1.515  -2.056   1.511  0.00  0.00    -0.003 A 
ATOM      6  C6  DEN d   1      -0.851  -2.751   0.535  0.00  0.00     0.001 A 
ATOM      7  C7  DEN d   1      -0.110  -2.073  -0.397  0.00  0.00     0.017 A 
ATOM      8  C8  DEN d   1      -0.100  -0.685  -0.349  0.00  0.00    -0.094 A 
ATOM      9  C9  DEN d   1      -0.767  -0.001   0.652  0.00  0.00    -0.072 A 
ENDROOT
TORSDOF 0
ENDMDL
