MODEL 1
REMARK minimizedAffinity -5.71964836
REMARK minimizedRMSD -1
REMARK  0 active torsions:
REMARK  status: ('A' for Active; 'I' for Inactive)
ROOT
ATOM      1  C1  DEN d   1      -0.356  -3.350  -0.954  0.00  0.00     0.130 A 
ATOM      2  C2  DEN d   1       0.218  -2.987  -2.246  0.00  0.00    -0.031 A 
ATOM      3  C3  DEN d   1       0.474  -1.533  -2.239  0.00  0.00     0.027 A 
ATOM      4  C4  DEN d   1       0.045   0.182  -0.361  0.00  0.00     0.027 A 
ATOM      5  C5  DEN d   1      -0.440   0.348   0.917  0.00  0.00    -0.003 A 
ATOM      6  C6  DEN d   1      -0.959  -0.691   1.643  0.00  0.00     0.001 A 
ATOM      7  C7  DEN d   1      -0.963  -1.954   1.112  0.00  0.00     0.017 A 
ATOM      8  C8  DEN d   1      -0.481  -2.129  -0.179  0.00  0.00    -0.094 A 
ATOM      9  C9  DEN d   1       0.050  -1.067  -0.892  0.00  0.00    -0.072 A 
ENDROOT
TORSDOF 0
ENDMDL
