MODEL 1
REMARK minimizedAffinity -5.3471036
REMARK minimizedRMSD -1
REMARK  0 active torsions:
REMARK  status: ('A' for Active; 'I' for Inactive)
ROOT
ATOM      1  C1  DEN d   1       0.368   0.462  -1.021  0.00  0.00     0.130 A 
ATOM      2  C2  DEN d   1      -0.236   1.074   0.159  0.00  0.00    -0.031 A 
ATOM      3  C3  DEN d   1      -0.759  -0.008   1.018  0.00  0.00     0.027 A 
ATOM      4  C4  DEN d   1      -0.688  -2.558   0.639  0.00  0.00     0.027 A 
ATOM      5  C5  DEN d   1      -0.288  -3.554  -0.225  0.00  0.00    -0.003 A 
ATOM      6  C6  DEN d   1       0.323  -3.282  -1.420  0.00  0.00     0.001 A 
ATOM      7  C7  DEN d   1       0.593  -1.984  -1.765  0.00  0.00     0.017 A 
ATOM      8  C8  DEN d   1       0.186  -0.974  -0.903  0.00  0.00    -0.094 A 
ATOM      9  C9  DEN d   1      -0.419  -1.270   0.307  0.00  0.00    -0.072 A 
ENDROOT
TORSDOF 0
ENDMDL
