MODEL 1
REMARK minimizedAffinity -3.06082582
REMARK minimizedRMSD -1
REMARK  0 active torsions:
REMARK  status: ('A' for Active; 'I' for Inactive)
ROOT
ATOM      1  C1  DEN d   1       0.390  -0.255   2.184  0.00  0.00     0.130 A 
ATOM      2  C2  DEN d   1      -0.462  -1.277   1.583  0.00  0.00    -0.031 A 
ATOM      3  C3  DEN d   1      -0.628  -0.950   0.152  0.00  0.00     0.027 A 
ATOM      4  C4  DEN d   1       0.351   1.026  -1.184  0.00  0.00     0.027 A 
ATOM      5  C5  DEN d   1       1.126   2.162  -1.103  0.00  0.00    -0.003 A 
ATOM      6  C6  DEN d   1       1.677   2.587   0.077  0.00  0.00     0.001 A 
ATOM      7  C7  DEN d   1       1.498   1.846   1.215  0.00  0.00     0.017 A 
ATOM      8  C8  DEN d   1       0.712   0.704   1.142  0.00  0.00    -0.094 A 
ATOM      9  C9  DEN d   1       0.174   0.284  -0.062  0.00  0.00    -0.072 A 
ENDROOT
TORSDOF 0
ENDMDL
