MODEL 1
REMARK minimizedAffinity -3.08247113
REMARK minimizedRMSD -1
REMARK  0 active torsions:
REMARK  status: ('A' for Active; 'I' for Inactive)
ROOT
ATOM      1  C1  DEN d   1       0.662  -2.329  -0.909  0.00  0.00     0.130 A 
ATOM      2  C2  DEN d   1       0.057  -3.331  -0.036  0.00  0.00    -0.031 A 
ATOM      3  C3  DEN d   1      -0.694  -2.623   1.020  0.00  0.00     0.027 A 
ATOM      4  C4  DEN d   1      -0.980  -0.086   1.385  0.00  0.00     0.027 A 
ATOM      5  C5  DEN d   1      -0.643   1.162   0.908  0.00  0.00    -0.003 A 
ATOM      6  C6  DEN d   1       0.174   1.332  -0.178  0.00  0.00     0.001 A 
ATOM      7  C7  DEN d   1       0.645   0.236  -0.852  0.00  0.00     0.017 A 
ATOM      8  C8  DEN d   1       0.315  -1.025  -0.373  0.00  0.00    -0.094 A 
ATOM      9  C9  DEN d   1      -0.522  -1.176   0.720  0.00  0.00    -0.072 A 
ENDROOT
TORSDOF 0
ENDMDL
