MODEL 1
REMARK minimizedAffinity -2.49734259
REMARK minimizedRMSD -1
REMARK  0 active torsions:
REMARK  status: ('A' for Active; 'I' for Inactive)
ROOT
ATOM      1  C1  DEN d   1       1.501   0.380   0.045  0.00  0.00     0.130 A 
ATOM      2  C2  DEN d   1       0.530   1.469  -0.038  0.00  0.00    -0.031 A 
ATOM      3  C3  DEN d   1      -0.810   0.907   0.225  0.00  0.00     0.027 A 
ATOM      4  C4  DEN d   1      -1.472  -1.529   0.755  0.00  0.00     0.027 A 
ATOM      5  C5  DEN d   1      -0.996  -2.811   0.921  0.00  0.00    -0.003 A 
ATOM      6  C6  DEN d   1       0.330  -3.122   0.775  0.00  0.00     0.001 A 
ATOM      7  C7  DEN d   1       1.233  -2.131   0.497  0.00  0.00     0.017 A 
ATOM      8  C8  DEN d   1       0.760  -0.837   0.320  0.00  0.00    -0.094 A 
ATOM      9  C9  DEN d   1      -0.582  -0.541   0.485  0.00  0.00    -0.072 A 
ENDROOT
TORSDOF 0
ENDMDL
