MODEL 1
REMARK minimizedAffinity -0.240934715
REMARK minimizedRMSD -1
REMARK  0 active torsions:
REMARK  status: ('A' for Active; 'I' for Inactive)
ROOT
ATOM      1  C1  DEN d   1       0.122  -0.098  -1.615  0.00  0.00     0.130 A 
ATOM      2  C2  DEN d   1       0.067   1.282  -1.139  0.00  0.00    -0.031 A 
ATOM      3  C3  DEN d   1      -0.463   1.270   0.239  0.00  0.00     0.027 A 
ATOM      4  C4  DEN d   1      -1.196  -0.742   1.677  0.00  0.00     0.027 A 
ATOM      5  C5  DEN d   1      -1.343  -2.111   1.700  0.00  0.00    -0.003 A 
ATOM      6  C6  DEN d   1      -1.047  -2.896   0.617  0.00  0.00     0.001 A 
ATOM      7  C7  DEN d   1      -0.545  -2.321  -0.520  0.00  0.00     0.017 A 
ATOM      8  C8  DEN d   1      -0.401  -0.940  -0.554  0.00  0.00    -0.094 A 
ATOM      9  C9  DEN d   1      -0.694  -0.165   0.556  0.00  0.00    -0.072 A 
ENDROOT
TORSDOF 0
ENDMDL
