MODEL 1
REMARK minimizedAffinity -5.73993826
REMARK minimizedRMSD -1
REMARK  0 active torsions:
REMARK  status: ('A' for Active; 'I' for Inactive)
ROOT
ATOM      1  C1  DEN d   1       0.107  -1.685   1.313  0.00  0.00     0.130 A 
ATOM      2  C2  DEN d   1       0.390  -3.020   0.794  0.00  0.00    -0.031 A 
ATOM      3  C3  DEN d   1       0.587  -2.910  -0.665  0.00  0.00     0.027 A 
ATOM      4  C4  DEN d   1       0.487  -0.812  -2.162  0.00  0.00     0.027 A 
ATOM      5  C5  DEN d   1       0.267   0.548  -2.176  0.00  0.00    -0.003 A 
ATOM      6  C6  DEN d   1      -0.052   1.248  -1.043  0.00  0.00     0.001 A 
ATOM      7  C7  DEN d   1      -0.117   0.597   0.161  0.00  0.00     0.017 A 
ATOM      8  C8  DEN d   1       0.096  -0.775   0.182  0.00  0.00    -0.094 A 
ATOM      9  C9  DEN d   1       0.430  -1.463  -0.973  0.00  0.00    -0.072 A 
ENDROOT
TORSDOF 0
ENDMDL
