MODEL 1
REMARK minimizedAffinity -2.74953556
REMARK minimizedRMSD -1
REMARK  0 active torsions:
REMARK  status: ('A' for Active; 'I' for Inactive)
ROOT
ATOM      1  C1  DEN d   1      -1.108   0.282   0.771  0.00  0.00     0.130 A 
ATOM      2  C2  DEN d   1      -0.483   1.354   0.001  0.00  0.00    -0.031 A 
ATOM      3  C3  DEN d   1       0.369   0.735  -1.034  0.00  0.00     0.027 A 
ATOM      4  C4  DEN d   1       0.775  -1.765  -1.521  0.00  0.00     0.027 A 
ATOM      5  C5  DEN d   1       0.472  -3.049  -1.125  0.00  0.00    -0.003 A 
ATOM      6  C6  DEN d   1      -0.346  -3.311  -0.058  0.00  0.00     0.001 A 
ATOM      7  C7  DEN d   1      -0.925  -2.273   0.624  0.00  0.00     0.017 A 
ATOM      8  C8  DEN d   1      -0.618  -0.976   0.236  0.00  0.00    -0.094 A 
ATOM      9  C9  DEN d   1       0.201  -0.732  -0.854  0.00  0.00    -0.072 A 
ENDROOT
TORSDOF 0
ENDMDL
