MODEL 1
REMARK minimizedAffinity -5.35350037
REMARK minimizedRMSD -1
REMARK  0 active torsions:
REMARK  status: ('A' for Active; 'I' for Inactive)
ROOT
ATOM      1  C1  DEN d   1       1.404  -0.067  -0.427  0.00  0.00     0.130 A 
ATOM      2  C2  DEN d   1       0.888   1.254  -0.079  0.00  0.00    -0.031 A 
ATOM      3  C3  DEN d   1      -0.399   1.072   0.620  0.00  0.00     0.027 A 
ATOM      4  C4  DEN d   1      -1.636  -1.116   1.199  0.00  0.00     0.027 A 
ATOM      5  C5  DEN d   1      -1.596  -2.489   1.098  0.00  0.00    -0.003 A 
ATOM      6  C6  DEN d   1      -0.578  -3.144   0.456  0.00  0.00     0.001 A 
ATOM      7  C7  DEN d   1       0.465  -2.428  -0.069  0.00  0.00     0.017 A 
ATOM      8  C8  DEN d   1       0.427  -1.043   0.023  0.00  0.00    -0.094 A 
ATOM      9  C9  DEN d   1      -0.604  -0.400   0.686  0.00  0.00    -0.072 A 
ENDROOT
TORSDOF 0
ENDMDL
