MODEL 1
REMARK minimizedAffinity 10.9830189
REMARK minimizedRMSD -1
REMARK  0 active torsions:
REMARK  status: ('A' for Active; 'I' for Inactive)
ROOT
ATOM      1  C   UNL d   1       1.554  -5.171  -3.373  0.00  0.00     0.078 C 
ATOM      2  C1  UNL d   1       0.276  -5.154  -4.156  0.00  0.00    -0.077 A 
ATOM      3  C2  UNL d   1      -0.782  -4.313  -3.792  0.00  0.00    -0.001 A 
ATOM      4  C3  UNL d   1      -1.971  -4.315  -4.524  0.00  0.00     0.003 A 
ATOM      5  C4  UNL d   1      -2.113  -5.157  -5.625  0.00  0.00    -0.005 A 
ATOM      6  C5  UNL d   1      -1.067  -6.000  -5.994  0.00  0.00     0.003 A 
ATOM      7  C6  UNL d   1       0.123  -5.999  -5.263  0.00  0.00    -0.001 A 
ENDROOT
TORSDOF 0
ENDMDL
