MODEL 1
REMARK minimizedAffinity 10.5085678
REMARK minimizedRMSD -1
REMARK  0 active torsions:
REMARK  status: ('A' for Active; 'I' for Inactive)
ROOT
ATOM      1  C   UNL d   1      -3.068   5.636  -1.825  0.00  0.00     0.078 C 
ATOM      2  C1  UNL d   1      -1.608   5.669  -2.165  0.00  0.00    -0.077 A 
ATOM      3  C2  UNL d   1      -0.634   5.431  -1.188  0.00  0.00    -0.001 A 
ATOM      4  C3  UNL d   1       0.722   5.475  -1.517  0.00  0.00     0.003 A 
ATOM      5  C4  UNL d   1       1.116   5.758  -2.823  0.00  0.00    -0.005 A 
ATOM      6  C5  UNL d   1       0.155   5.999  -3.802  0.00  0.00     0.003 A 
ATOM      7  C6  UNL d   1      -1.202   5.956  -3.475  0.00  0.00    -0.001 A 
ENDROOT
TORSDOF 0
ENDMDL
