MODEL 1
REMARK minimizedAffinity 10.6889877
REMARK minimizedRMSD -1
REMARK  0 active torsions:
REMARK  status: ('A' for Active; 'I' for Inactive)
ROOT
ATOM      1  C   UNL d   1       5.520  -5.246   0.372  0.00  0.00     0.078 C 
ATOM      2  C1  UNL d   1       5.169  -3.858  -0.075  0.00  0.00    -0.077 A 
ATOM      3  C2  UNL d   1       4.012  -3.222   0.389  0.00  0.00    -0.001 A 
ATOM      4  C3  UNL d   1       3.693  -1.934  -0.043  0.00  0.00     0.003 A 
ATOM      5  C4  UNL d   1       4.525  -1.271  -0.943  0.00  0.00    -0.005 A 
ATOM      6  C5  UNL d   1       5.678  -1.897  -1.412  0.00  0.00     0.003 A 
ATOM      7  C6  UNL d   1       5.999  -3.185  -0.981  0.00  0.00    -0.001 A 
ENDROOT
TORSDOF 0
ENDMDL
