MODEL 1
REMARK minimizedAffinity 12.4241924
REMARK minimizedRMSD -1
REMARK  0 active torsions:
REMARK  status: ('A' for Active; 'I' for Inactive)
ROOT
ATOM      1  C   UNL d   1       6.000  -5.304   0.090  0.00  0.00     0.078 C 
ATOM      2  C1  UNL d   1       5.788  -4.329  -1.030  0.00  0.00    -0.077 A 
ATOM      3  C2  UNL d   1       5.420  -4.767  -2.308  0.00  0.00    -0.001 A 
ATOM      4  C3  UNL d   1       5.236  -3.849  -3.343  0.00  0.00     0.003 A 
ATOM      5  C4  UNL d   1       5.418  -2.487  -3.111  0.00  0.00    -0.005 A 
ATOM      6  C5  UNL d   1       5.786  -2.042  -1.843  0.00  0.00     0.003 A 
ATOM      7  C6  UNL d   1       5.971  -2.958  -0.807  0.00  0.00    -0.001 A 
ENDROOT
TORSDOF 0
ENDMDL
