MODEL 1
REMARK minimizedAffinity 0.888524473
REMARK minimizedRMSD -1
REMARK  0 active torsions:
REMARK  status: ('A' for Active; 'I' for Inactive)
ROOT
ATOM      1  C   UNL d   1       5.809  -5.998  -0.034  0.00  0.00     0.078 C 
ATOM      2  C1  UNL d   1       5.582  -5.150  -1.249  0.00  0.00    -0.077 A 
ATOM      3  C2  UNL d   1       4.965  -5.676  -2.391  0.00  0.00    -0.001 A 
ATOM      4  C3  UNL d   1       4.768  -4.877  -3.518  0.00  0.00     0.003 A 
ATOM      5  C4  UNL d   1       5.186  -3.548  -3.516  0.00  0.00    -0.005 A 
ATOM      6  C5  UNL d   1       5.802  -3.016  -2.385  0.00  0.00     0.003 A 
ATOM      7  C6  UNL d   1       6.000  -3.813  -1.256  0.00  0.00    -0.001 A 
ENDROOT
TORSDOF 0
ENDMDL
