MODEL 1
REMARK minimizedAffinity 5.31851578
REMARK minimizedRMSD -1
REMARK  0 active torsions:
REMARK  status: ('A' for Active; 'I' for Inactive)
ROOT
ATOM      1  C   UNL d   1       3.011   5.975   1.618  0.00  0.00     0.078 C 
ATOM      2  C1  UNL d   1       1.913   5.151   1.015  0.00  0.00    -0.077 A 
ATOM      3  C2  UNL d   1       1.180   5.617  -0.083  0.00  0.00    -0.001 A 
ATOM      4  C3  UNL d   1       0.155   4.843  -0.628  0.00  0.00     0.003 A 
ATOM      5  C4  UNL d   1      -0.148   3.598  -0.081  0.00  0.00    -0.005 A 
ATOM      6  C5  UNL d   1       0.574   3.126   1.013  0.00  0.00     0.003 A 
ATOM      7  C6  UNL d   1       1.600   3.899   1.560  0.00  0.00    -0.001 A 
ENDROOT
TORSDOF 0
ENDMDL
