MODEL 1
REMARK minimizedAffinity 5.89420938
REMARK minimizedRMSD -1
REMARK  0 active torsions:
REMARK  status: ('A' for Active; 'I' for Inactive)
ROOT
ATOM      1  C   UNL d   1       5.999  -3.746  -4.378  0.00  0.00     0.078 C 
ATOM      2  C1  UNL d   1       5.813  -3.135  -3.022  0.00  0.00    -0.077 A 
ATOM      3  C2  UNL d   1       5.442  -3.919  -1.922  0.00  0.00    -0.001 A 
ATOM      4  C3  UNL d   1       5.264  -3.335  -0.667  0.00  0.00     0.003 A 
ATOM      5  C4  UNL d   1       5.452  -1.965  -0.500  0.00  0.00    -0.005 A 
ATOM      6  C5  UNL d   1       5.819  -1.176  -1.588  0.00  0.00     0.003 A 
ATOM      7  C6  UNL d   1       5.998  -1.758  -2.844  0.00  0.00    -0.001 A 
ENDROOT
TORSDOF 0
ENDMDL
