MODEL 1
REMARK minimizedAffinity 11.5455008
REMARK minimizedRMSD -1
REMARK  0 active torsions:
REMARK  status: ('A' for Active; 'I' for Inactive)
ROOT
ATOM      1  C   UNL d   1       5.817  -2.982  -4.754  0.00  0.00     0.078 C 
ATOM      2  C1  UNL d   1       5.822  -2.966  -3.255  0.00  0.00    -0.077 A 
ATOM      3  C2  UNL d   1       5.642  -4.145  -2.521  0.00  0.00    -0.001 A 
ATOM      4  C3  UNL d   1       5.638  -4.114  -1.125  0.00  0.00     0.003 A 
ATOM      5  C4  UNL d   1       5.813  -2.906  -0.452  0.00  0.00    -0.005 A 
ATOM      6  C5  UNL d   1       5.990  -1.728  -1.174  0.00  0.00     0.003 A 
ATOM      7  C6  UNL d   1       5.994  -1.757  -2.569  0.00  0.00    -0.001 A 
ENDROOT
TORSDOF 0
ENDMDL
