MODEL 1
REMARK minimizedAffinity 6.87195778
REMARK minimizedRMSD -1
REMARK  0 active torsions:
REMARK  status: ('A' for Active; 'I' for Inactive)
ROOT
ATOM      1  C   UNL d   1      -2.919   1.527  -5.155  0.00  0.00     0.078 C 
ATOM      2  C1  UNL d   1      -2.805   1.201  -3.696  0.00  0.00    -0.077 A 
ATOM      3  C2  UNL d   1      -2.147   0.043  -3.265  0.00  0.00    -0.001 A 
ATOM      4  C3  UNL d   1      -2.056  -0.253  -1.904  0.00  0.00     0.003 A 
ATOM      5  C4  UNL d   1      -2.623   0.604  -0.963  0.00  0.00    -0.005 A 
ATOM      6  C5  UNL d   1      -3.281   1.758  -1.382  0.00  0.00     0.003 A 
ATOM      7  C6  UNL d   1      -3.373   2.055  -2.743  0.00  0.00    -0.001 A 
ENDROOT
TORSDOF 0
ENDMDL
