MODEL 1
REMARK minimizedAffinity 6.84726334
REMARK minimizedRMSD -1
REMARK  0 active torsions:
REMARK  status: ('A' for Active; 'I' for Inactive)
ROOT
ATOM      1  C4' PXY d   1       0.666   4.567  -2.761  0.00  0.00     0.077 C 
ATOM      2  C1' PXY d   1      -0.367   1.734   2.171  0.00  0.00     0.077 C 
ATOM      3  C1  PXY d   1      -0.105   2.470   0.872  0.00  0.00    -0.082 A 
ATOM      4  C2  PXY d   1       1.061   3.065   0.680  0.00  0.00     0.003 A 
ATOM      5  C3  PXY d   1       1.303   3.762  -0.476  0.00  0.00     0.003 A 
ATOM      6  C4  PXY d   1       0.361   3.805  -1.468  0.00  0.00    -0.082 A 
ATOM      7  C5  PXY d   1      -0.827   3.191  -1.285  0.00  0.00     0.003 A 
ATOM      8  C6  PXY d   1      -1.068   2.524  -0.088  0.00  0.00     0.003 A 
ENDROOT
TORSDOF 0
ENDMDL
