MODEL 1
REMARK minimizedAffinity 11.5142946
REMARK minimizedRMSD -1
REMARK  0 active torsions:
REMARK  status: ('A' for Active; 'I' for Inactive)
ROOT
ATOM      1  C4' PXY d   1       0.734   2.304   1.660  0.00  0.00     0.077 C 
ATOM      2  C1' PXY d   1       1.177   5.108  -3.376  0.00  0.00     0.077 C 
ATOM      3  C1  PXY d   1       1.049   4.369  -2.059  0.00  0.00    -0.082 A 
ATOM      4  C2  PXY d   1       1.791   4.737  -1.027  0.00  0.00     0.003 A 
ATOM      5  C3  PXY d   1       1.711   4.059   0.162  0.00  0.00     0.003 A 
ATOM      6  C4  PXY d   1       0.823   3.028   0.313  0.00  0.00    -0.082 A 
ATOM      7  C5  PXY d   1       0.055   2.653  -0.731  0.00  0.00     0.003 A 
ATOM      8  C6  PXY d   1       0.181   3.327  -1.942  0.00  0.00     0.003 A 
ENDROOT
TORSDOF 0
ENDMDL
