MODEL 1
REMARK minimizedAffinity 8.33262539
REMARK minimizedRMSD -1
REMARK  0 active torsions:
REMARK  status: ('A' for Active; 'I' for Inactive)
ROOT
ATOM      1  C4' PXY d   1      -2.135   1.949   2.574  0.00  0.00     0.077 C 
ATOM      2  C1' PXY d   1       1.532   3.727  -1.526  0.00  0.00     0.077 C 
ATOM      3  C1  PXY d   1       0.579   3.253  -0.446  0.00  0.00    -0.082 A 
ATOM      4  C2  PXY d   1      -0.726   3.330  -0.645  0.00  0.00     0.003 A 
ATOM      5  C3  PXY d   1      -1.602   2.936   0.334  0.00  0.00     0.003 A 
ATOM      6  C4  PXY d   1      -1.136   2.407   1.508  0.00  0.00    -0.082 A 
ATOM      7  C5  PXY d   1       0.195   2.315   1.714  0.00  0.00     0.003 A 
ATOM      8  C6  PXY d   1       1.067   2.759   0.724  0.00  0.00     0.003 A 
ENDROOT
TORSDOF 0
ENDMDL
