MODEL 1
REMARK minimizedAffinity 12.8775005
REMARK minimizedRMSD -1
REMARK  0 active torsions:
REMARK  status: ('A' for Active; 'I' for Inactive)
ROOT
ATOM      1  C4' PXY d   1       0.314   1.155   1.017  0.00  0.00     0.077 C 
ATOM      2  C1' PXY d   1       0.343   5.606  -2.670  0.00  0.00     0.077 C 
ATOM      3  C1  PXY d   1       0.323   4.438  -1.704  0.00  0.00    -0.082 A 
ATOM      4  C2  PXY d   1       1.333   4.263  -0.869  0.00  0.00     0.003 A 
ATOM      5  C3  PXY d   1       1.346   3.194  -0.010  0.00  0.00     0.003 A 
ATOM      6  C4  PXY d   1       0.288   2.325   0.030  0.00  0.00    -0.082 A 
ATOM      7  C5  PXY d   1      -0.752   2.504  -0.812  0.00  0.00     0.003 A 
ATOM      8  C6  PXY d   1      -0.726   3.572  -1.704  0.00  0.00     0.003 A 
ENDROOT
TORSDOF 0
ENDMDL
