MODEL 1
REMARK minimizedAffinity 5.57373476
REMARK minimizedRMSD -1
REMARK  0 active torsions:
REMARK  status: ('A' for Active; 'I' for Inactive)
ROOT
ATOM      1  C4' PXY d   1       0.784   3.586  -2.020  0.00  0.00     0.077 C 
ATOM      2  C1' PXY d   1      -0.692   2.012   3.342  0.00  0.00     0.077 C 
ATOM      3  C1  PXY d   1      -0.315   2.418   1.931  0.00  0.00    -0.082 A 
ATOM      4  C2  PXY d   1       0.924   2.803   1.670  0.00  0.00     0.003 A 
ATOM      5  C3  PXY d   1       1.274   3.203   0.407  0.00  0.00     0.003 A 
ATOM      6  C4  PXY d   1       0.361   3.159  -0.612  0.00  0.00    -0.082 A 
ATOM      7  C5  PXY d   1      -0.903   2.758  -0.356  0.00  0.00     0.003 A 
ATOM      8  C6  PXY d   1      -1.249   2.394   0.942  0.00  0.00     0.003 A 
ENDROOT
TORSDOF 0
ENDMDL
