MODEL 1
REMARK minimizedAffinity 9.6575098
REMARK minimizedRMSD -1
REMARK  0 active torsions:
REMARK  status: ('A' for Active; 'I' for Inactive)
ROOT
ATOM      1  C   UNL d   1       5.999  -3.642   6.000  0.00  0.00     0.023 A 
ATOM      2  C1  UNL d   1       5.999  -2.262   5.794  0.00  0.00     0.003 A 
ATOM      3  C2  UNL d   1       4.900  -1.644   5.194  0.00  0.00     0.048 A 
ATOM      4  C3  UNL d   1       3.804  -2.412   4.803  0.00  0.00     0.023 A 
ATOM      5  C4  UNL d   1       3.799  -3.793   5.008  0.00  0.00     0.048 A 
ATOM      6  C5  UNL d   1       4.901  -4.406   5.607  0.00  0.00     0.003 A 
ATOM      7  I   UNL d   1       2.167  -1.495   3.910  0.00  0.00    -0.146 I 
ENDROOT
TORSDOF 0
ENDMDL
