MODEL 1
REMARK minimizedAffinity 12.2210054
REMARK minimizedRMSD -1
REMARK  0 active torsions:
REMARK  status: ('A' for Active; 'I' for Inactive)
ROOT
ATOM      1  C   UNL d   1       3.035   2.607   4.079  0.00  0.00     0.023 A 
ATOM      2  C1  UNL d   1       2.485   1.698   4.983  0.00  0.00     0.003 A 
ATOM      3  C2  UNL d   1       2.137   0.414   4.559  0.00  0.00     0.048 A 
ATOM      4  C3  UNL d   1       2.342   0.045   3.230  0.00  0.00     0.023 A 
ATOM      5  C4  UNL d   1       2.892   0.951   2.322  0.00  0.00     0.048 A 
ATOM      6  C5  UNL d   1       3.238   2.234   2.751  0.00  0.00     0.003 A 
ATOM      7  I   UNL d   1       1.824  -1.866   2.596  0.00  0.00    -0.146 I 
ENDROOT
TORSDOF 0
ENDMDL
