MODEL 1
REMARK minimizedAffinity 14.0534964
REMARK minimizedRMSD -1
REMARK  0 active torsions:
REMARK  status: ('A' for Active; 'I' for Inactive)
ROOT
ATOM      1  C   UNL d   1       1.535  -2.165   4.086  0.00  0.00     0.023 A 
ATOM      2  C1  UNL d   1       2.645  -1.819   3.315  0.00  0.00     0.003 A 
ATOM      3  C2  UNL d   1       3.927  -1.892   3.863  0.00  0.00     0.048 A 
ATOM      4  C3  UNL d   1       4.092  -2.313   5.182  0.00  0.00     0.023 A 
ATOM      5  C4  UNL d   1       2.985  -2.662   5.957  0.00  0.00     0.048 A 
ATOM      6  C5  UNL d   1       1.704  -2.586   5.405  0.00  0.00     0.003 A 
ATOM      7  I   UNL d   1       6.000  -2.423   6.000  0.00  0.00    -0.146 I 
ENDROOT
TORSDOF 0
ENDMDL
