MODEL 1
REMARK minimizedAffinity 5.47155428
REMARK minimizedRMSD -1
REMARK  0 active torsions:
REMARK  status: ('A' for Active; 'I' for Inactive)
ROOT
ATOM      1  C   UNL d   1       1.874  -1.797   3.372  0.00  0.00     0.023 A 
ATOM      2  C1  UNL d   1       3.073  -1.194   2.991  0.00  0.00     0.003 A 
ATOM      3  C2  UNL d   1       4.230  -1.400   3.744  0.00  0.00     0.048 A 
ATOM      4  C3  UNL d   1       4.182  -2.212   4.877  0.00  0.00     0.023 A 
ATOM      5  C4  UNL d   1       2.985  -2.818   5.262  0.00  0.00     0.048 A 
ATOM      6  C5  UNL d   1       1.830  -2.608   4.506  0.00  0.00     0.003 A 
ATOM      7  I   UNL d   1       5.903  -2.521   6.000  0.00  0.00    -0.146 I 
ENDROOT
TORSDOF 0
ENDMDL
