MODEL 1
REMARK minimizedAffinity 2.19848394
REMARK minimizedRMSD -1
REMARK  0 active torsions:
REMARK  status: ('A' for Active; 'I' for Inactive)
ROOT
ATOM      1  C   UNL d   1       2.167   3.591  -0.169  0.00  0.00     0.023 A 
ATOM      2  C1  UNL d   1       3.240   2.710  -0.035  0.00  0.00     0.003 A 
ATOM      3  C2  UNL d   1       3.070   1.496   0.634  0.00  0.00     0.048 A 
ATOM      4  C3  UNL d   1       1.823   1.168   1.165  0.00  0.00     0.023 A 
ATOM      5  C4  UNL d   1       0.746   2.046   1.033  0.00  0.00     0.048 A 
ATOM      6  C5  UNL d   1       0.921   3.259   0.364  0.00  0.00     0.003 A 
ATOM      7  I   UNL d   1       1.567  -0.638   2.160  0.00  0.00    -0.146 I 
ENDROOT
TORSDOF 0
ENDMDL
