MODEL 1
REMARK minimizedAffinity 0.79476881
REMARK minimizedRMSD -1
REMARK  0 active torsions:
REMARK  status: ('A' for Active; 'I' for Inactive)
ROOT
ATOM      1  C   UNL d   1       1.954  -1.581   3.001  0.00  0.00     0.023 A 
ATOM      2  C1  UNL d   1       1.874  -2.334   4.172  0.00  0.00     0.003 A 
ATOM      3  C2  UNL d   1       3.034  -2.650   4.882  0.00  0.00     0.048 A 
ATOM      4  C3  UNL d   1       4.272  -2.209   4.415  0.00  0.00     0.023 A 
ATOM      5  C4  UNL d   1       4.357  -1.454   3.244  0.00  0.00     0.048 A 
ATOM      6  C5  UNL d   1       3.194  -1.142   2.537  0.00  0.00     0.003 A 
ATOM      7  I   UNL d   1       6.000  -2.678   5.469  0.00  0.00    -0.146 I 
ENDROOT
TORSDOF 0
ENDMDL
