MODEL 1
REMARK minimizedAffinity 0.811930597
REMARK minimizedRMSD -1
REMARK  0 active torsions:
REMARK  status: ('A' for Active; 'I' for Inactive)
ROOT
ATOM      1  C   UNL d   1       5.983  -2.470   5.283  0.00  0.00     0.023 A 
ATOM      2  C1  UNL d   1       4.790  -2.375   6.000  0.00  0.00     0.003 A 
ATOM      3  C2  UNL d   1       3.612  -1.997   5.352  0.00  0.00     0.048 A 
ATOM      4  C3  UNL d   1       3.634  -1.717   3.986  0.00  0.00     0.023 A 
ATOM      5  C4  UNL d   1       4.825  -1.813   3.264  0.00  0.00     0.048 A 
ATOM      6  C5  UNL d   1       6.000  -2.190   3.916  0.00  0.00     0.003 A 
ATOM      7  I   UNL d   1       1.882  -1.155   3.018  0.00  0.00    -0.146 I 
ENDROOT
TORSDOF 0
ENDMDL
