MODEL 1
REMARK minimizedAffinity 0.0543727987
REMARK minimizedRMSD -1
REMARK  0 active torsions:
REMARK  status: ('A' for Active; 'I' for Inactive)
ROOT
ATOM      1  C   UNL d   1       5.970  -2.816   5.548  0.00  0.00     0.023 A 
ATOM      2  C1  UNL d   1       4.753  -3.326   6.000  0.00  0.00     0.003 A 
ATOM      3  C2  UNL d   1       3.563  -2.967   5.363  0.00  0.00     0.048 A 
ATOM      4  C3  UNL d   1       3.598  -2.098   4.273  0.00  0.00     0.023 A 
ATOM      5  C4  UNL d   1       4.813  -1.586   3.816  0.00  0.00     0.048 A 
ATOM      6  C5  UNL d   1       6.000  -1.947   4.457  0.00  0.00     0.003 A 
ATOM      7  I   UNL d   1       1.829  -1.562   3.322  0.00  0.00    -0.146 I 
ENDROOT
TORSDOF 0
ENDMDL
