MODEL 1
REMARK minimizedAffinity 1.11232746
REMARK minimizedRMSD -1
REMARK  0 active torsions:
REMARK  status: ('A' for Active; 'I' for Inactive)
ROOT
ATOM      1  C   UNL d   1       1.970  -1.139   3.095  0.00  0.00     0.023 A 
ATOM      2  C1  UNL d   1       3.225  -0.820   2.575  0.00  0.00     0.003 A 
ATOM      3  C2  UNL d   1       4.381  -1.292   3.198  0.00  0.00     0.048 A 
ATOM      4  C3  UNL d   1       4.277  -2.084   4.341  0.00  0.00     0.023 A 
ATOM      5  C4  UNL d   1       3.024  -2.407   4.865  0.00  0.00     0.048 A 
ATOM      6  C5  UNL d   1       1.870  -1.932   4.239  0.00  0.00     0.003 A 
ATOM      7  I   UNL d   1       5.997  -2.789   5.270  0.00  0.00    -0.146 I 
ENDROOT
TORSDOF 0
ENDMDL
