MODEL 1
REMARK minimizedAffinity 5.9319768
REMARK minimizedRMSD -1
REMARK  0 active torsions:
REMARK  status: ('A' for Active; 'I' for Inactive)
ROOT
ATOM      1  C   UNL d   1      -5.631   2.370  -3.915  0.00  0.00     0.023 A 
ATOM      2  C1  UNL d   1      -5.886   1.241  -3.137  0.00  0.00     0.003 A 
ATOM      3  C2  UNL d   1      -5.951  -0.019  -3.734  0.00  0.00     0.048 A 
ATOM      4  C3  UNL d   1      -5.758  -0.144  -5.109  0.00  0.00     0.023 A 
ATOM      5  C4  UNL d   1      -5.501   0.983  -5.892  0.00  0.00     0.048 A 
ATOM      6  C5  UNL d   1      -5.439   2.241  -5.291  0.00  0.00     0.003 A 
ATOM      7  I   UNL d   1      -5.854  -2.020  -6.000  0.00  0.00    -0.146 I 
ENDROOT
TORSDOF 0
ENDMDL
