MODEL 1
REMARK minimizedAffinity 1.30679154
REMARK minimizedRMSD -1
REMARK  0 active torsions:
REMARK  status: ('A' for Active; 'I' for Inactive)
ROOT
ATOM      1  C   UNL d   1       4.379  -4.099  -5.980  0.00  0.00     0.023 A 
ATOM      2  C1  UNL d   1       3.343  -3.166  -5.958  0.00  0.00     0.003 A 
ATOM      3  C2  UNL d   1       3.631  -1.799  -5.957  0.00  0.00     0.048 A 
ATOM      4  C3  UNL d   1       4.959  -1.373  -5.977  0.00  0.00     0.023 A 
ATOM      5  C4  UNL d   1       5.999  -2.303  -5.999  0.00  0.00     0.048 A 
ATOM      6  C5  UNL d   1       5.706  -3.668  -6.000  0.00  0.00     0.003 A 
ATOM      7  I   UNL d   1       5.391   0.660  -5.975  0.00  0.00    -0.146 I 
ENDROOT
TORSDOF 0
ENDMDL
