MODEL 1
REMARK minimizedAffinity 4.91734028
REMARK minimizedRMSD -1
REMARK  3 active torsions:
REMARK  status: ('A' for Active; 'I' for Inactive)
REMARK    1  A    between atoms: C3'_2  and  C2'_3 
REMARK    2  A    between atoms: C2'_3  and  C1'_4 
REMARK    3  A    between atoms: C1'_4  and  C1_5 
ROOT
ATOM      1  C1  N4B d   1       0.173  -0.588  -0.453  0.00  0.00    -0.075 A 
ATOM      2  C2  N4B d   1       0.727   0.438  -1.250  0.00  0.00     0.002 A 
ATOM      3  C3  N4B d   1       2.042   0.799  -1.088  0.00  0.00     0.002 A 
ATOM      4  C4  N4B d   1       2.815   0.163  -0.127  0.00  0.00    -0.004 A 
ATOM      5  C5  N4B d   1       2.279  -0.845   0.620  0.00  0.00     0.002 A 
ATOM      6  C6  N4B d   1       0.960  -1.220   0.466  0.00  0.00     0.002 A 
ENDROOT
BRANCH   1   7
ATOM      7  C1' N4B d   1      -1.282  -0.958  -0.534  0.00  0.00     0.057 C 
BRANCH   7   8
ATOM      8  C2' N4B d   1      -2.056  -0.184   0.528  0.00  0.00     0.009 C 
BRANCH   8   9
ATOM      9  C3' N4B d   1      -2.896   0.928  -0.077  0.00  0.00     0.004 C 
ATOM     10  C4' N4B d   1      -2.072   2.095  -0.533  0.00  0.00     0.003 C 
ENDBRANCH   8   9
ENDBRANCH   7   8
ENDBRANCH   1   7
TORSDOF 3
ENDMDL
