MODEL 1
REMARK minimizedAffinity -2.15630054
REMARK minimizedRMSD -1
REMARK  3 active torsions:
REMARK  status: ('A' for Active; 'I' for Inactive)
REMARK    1  A    between atoms: C3'_2  and  C2'_3 
REMARK    2  A    between atoms: C2'_3  and  C1'_4 
REMARK    3  A    between atoms: C1'_4  and  C1_5 
ROOT
ATOM      1  C1  N4B d   1       0.186   1.263   1.666  0.00  0.00    -0.075 A 
ATOM      2  C2  N4B d   1      -0.531   0.983   2.850  0.00  0.00     0.002 A 
ATOM      3  C3  N4B d   1      -0.121  -0.035   3.677  0.00  0.00     0.002 A 
ATOM      4  C4  N4B d   1       0.987  -0.794   3.332  0.00  0.00    -0.004 A 
ATOM      5  C5  N4B d   1       1.689  -0.500   2.199  0.00  0.00     0.002 A 
ATOM      6  C6  N4B d   1       1.290   0.522   1.361  0.00  0.00     0.002 A 
ENDROOT
BRANCH   1   7
ATOM      7  C1' N4B d   1      -0.275   2.309   0.688  0.00  0.00     0.057 C 
BRANCH   7   8
ATOM      8  C2' N4B d   1      -0.829   1.622  -0.556  0.00  0.00     0.009 C 
BRANCH   8   9
ATOM      9  C3' N4B d   1      -1.890   0.591  -0.211  0.00  0.00     0.004 C 
ATOM     10  C4' N4B d   1      -1.365  -0.814  -0.237  0.00  0.00     0.003 C 
ENDBRANCH   8   9
ENDBRANCH   7   8
ENDBRANCH   1   7
TORSDOF 3
ENDMDL
