MODEL 1
REMARK minimizedAffinity 3.42186236
REMARK minimizedRMSD -1
REMARK  3 active torsions:
REMARK  status: ('A' for Active; 'I' for Inactive)
REMARK    1  A    between atoms: C3'_2  and  C2'_3 
REMARK    2  A    between atoms: C2'_3  and  C1'_4 
REMARK    3  A    between atoms: C1'_4  and  C1_5 
ROOT
ATOM      1  C1  N4B d   1       0.964   1.343  -3.443  0.00  0.00    -0.075 A 
ATOM      2  C2  N4B d   1       0.209   0.968  -2.309  0.00  0.00     0.002 A 
ATOM      3  C3  N4B d   1       0.688   1.229  -1.049  0.00  0.00     0.002 A 
ATOM      4  C4  N4B d   1       1.922   1.844  -0.897  0.00  0.00    -0.004 A 
ATOM      5  C5  N4B d   1       2.633   2.225  -1.997  0.00  0.00     0.002 A 
ATOM      6  C6  N4B d   1       2.162   1.973  -3.270  0.00  0.00     0.002 A 
ENDROOT
BRANCH   1   7
ATOM      7  C1' N4B d   1       0.522   1.001  -4.839  0.00  0.00     0.057 C 
BRANCH   7   8
ATOM      8  C2' N4B d   1      -0.182  -0.353  -4.825  0.00  0.00     0.009 C 
BRANCH   8   9
ATOM      9  C3' N4B d   1      -1.244  -0.452  -5.906  0.00  0.00     0.004 C 
ATOM     10  C4' N4B d   1      -1.906  -1.797  -5.948  0.00  0.00     0.003 C 
ENDBRANCH   8   9
ENDBRANCH   7   8
ENDBRANCH   1   7
TORSDOF 3
ENDMDL
