MODEL 1
REMARK minimizedAffinity -3.54381442
REMARK minimizedRMSD -1
REMARK  0 active torsions:
REMARK  status: ('A' for Active; 'I' for Inactive)
ROOT
ATOM      1  C   UNL d   1       1.310  -0.038   2.653  0.00  0.00     0.078 C 
ATOM      2  C1  UNL d   1       0.589   0.008   1.338  0.00  0.00    -0.077 A 
ATOM      3  C2  UNL d   1      -0.810   0.054   1.284  0.00  0.00    -0.001 A 
ATOM      4  C3  UNL d   1      -1.467   0.087   0.053  0.00  0.00     0.003 A 
ATOM      5  C4  UNL d   1      -0.735   0.074  -1.132  0.00  0.00    -0.005 A 
ATOM      6  C5  UNL d   1       0.657   0.026  -1.088  0.00  0.00     0.003 A 
ATOM      7  C6  UNL d   1       1.316  -0.007   0.142  0.00  0.00    -0.001 A 
ENDROOT
TORSDOF 0
ENDMDL
