MODEL 1
REMARK minimizedAffinity -6.24847317
REMARK minimizedRMSD -1
REMARK  0 active torsions:
REMARK  status: ('A' for Active; 'I' for Inactive)
ROOT
ATOM      1  C   UNL d   1      -0.348  -0.045  -1.300  0.00  0.00     0.078 C 
ATOM      2  C1  UNL d   1       0.277  -0.449   0.002  0.00  0.00    -0.077 A 
ATOM      3  C2  UNL d   1       1.514  -1.104   0.037  0.00  0.00    -0.001 A 
ATOM      4  C3  UNL d   1       2.078  -1.483   1.256  0.00  0.00     0.003 A 
ATOM      5  C4  UNL d   1       1.413  -1.212   2.449  0.00  0.00    -0.005 A 
ATOM      6  C5  UNL d   1       0.180  -0.562   2.425  0.00  0.00     0.003 A 
ATOM      7  C6  UNL d   1      -0.386  -0.183   1.207  0.00  0.00    -0.001 A 
ENDROOT
TORSDOF 0
ENDMDL
