MODEL 1
REMARK minimizedAffinity -5.44828272
REMARK minimizedRMSD -1
REMARK  0 active torsions:
REMARK  status: ('A' for Active; 'I' for Inactive)
ROOT
ATOM      1  C   UNL d   1      -0.534  -0.023  -1.249  0.00  0.00     0.078 C 
ATOM      2  C1  UNL d   1      -0.140  -0.085   0.196  0.00  0.00    -0.077 A 
ATOM      3  C2  UNL d   1      -1.098   0.042   1.210  0.00  0.00    -0.001 A 
ATOM      4  C3  UNL d   1      -0.716  -0.009   2.552  0.00  0.00     0.003 A 
ATOM      5  C4  UNL d   1       0.624  -0.185   2.892  0.00  0.00    -0.005 A 
ATOM      6  C5  UNL d   1       1.584  -0.310   1.890  0.00  0.00     0.003 A 
ATOM      7  C6  UNL d   1       1.204  -0.260   0.548  0.00  0.00    -0.001 A 
ENDROOT
TORSDOF 0
ENDMDL
