MODEL 1
REMARK minimizedAffinity -2.89044166
REMARK minimizedRMSD -1
REMARK  0 active torsions:
REMARK  status: ('A' for Active; 'I' for Inactive)
ROOT
ATOM      1  C   UNL d   1      -0.613  -0.310  -0.941  0.00  0.00     0.078 C 
ATOM      2  C1  UNL d   1      -0.797   0.963  -1.711  0.00  0.00    -0.077 A 
ATOM      3  C2  UNL d   1      -2.054   1.333  -2.205  0.00  0.00    -0.001 A 
ATOM      4  C3  UNL d   1      -2.209   2.516  -2.929  0.00  0.00     0.003 A 
ATOM      5  C4  UNL d   1      -1.110   3.339  -3.167  0.00  0.00    -0.005 A 
ATOM      6  C5  UNL d   1       0.146   2.978  -2.683  0.00  0.00     0.003 A 
ATOM      7  C6  UNL d   1       0.303   1.796  -1.958  0.00  0.00    -0.001 A 
ENDROOT
TORSDOF 0
ENDMDL
