MODEL 1
REMARK minimizedAffinity -5.21146679
REMARK minimizedRMSD -1
REMARK  0 active torsions:
REMARK  status: ('A' for Active; 'I' for Inactive)
ROOT
ATOM      1  C   UNL d   1       1.704  -1.161   2.517  0.00  0.00     0.078 C 
ATOM      2  C1  UNL d   1       1.171  -1.080   1.118  0.00  0.00    -0.077 A 
ATOM      3  C2  UNL d   1      -0.034  -0.424   0.842  0.00  0.00    -0.001 A 
ATOM      4  C3  UNL d   1      -0.523  -0.365  -0.464  0.00  0.00     0.003 A 
ATOM      5  C4  UNL d   1       0.186  -0.962  -1.504  0.00  0.00    -0.005 A 
ATOM      6  C5  UNL d   1       1.386  -1.620  -1.239  0.00  0.00     0.003 A 
ATOM      7  C6  UNL d   1       1.876  -1.680   0.067  0.00  0.00    -0.001 A 
ENDROOT
TORSDOF 0
ENDMDL
