MODEL 1
REMARK minimizedAffinity 3.42722106
REMARK minimizedRMSD -1
REMARK  0 active torsions:
REMARK  status: ('A' for Active; 'I' for Inactive)
ROOT
ATOM      1  C   UNL d   1      -1.867   5.437  -2.329  0.00  0.00     0.077 C 
ATOM      2  C1  UNL d   1      -0.577   5.007  -1.695  0.00  0.00    -0.074 A 
ATOM      3  C2  UNL d   1       0.614   5.695  -1.951  0.00  0.00    -0.005 A 
ATOM      4  C3  UNL d   1       1.804   5.290  -1.346  0.00  0.00     0.006 A 
ATOM      5  C4  UNL d   1       1.815   4.195  -0.482  0.00  0.00    -0.005 A 
ATOM      6  C5  UNL d   1       0.634   3.495  -0.214  0.00  0.00    -0.074 A 
ATOM      7  C6  UNL d   1       0.628   2.322   0.721  0.00  0.00     0.077 C 
ATOM      8  C7  UNL d   1      -0.559   3.913  -0.819  0.00  0.00    -0.001 A 
ENDROOT
TORSDOF 0
ENDMDL
