MODEL 1
REMARK minimizedAffinity 1.17519391
REMARK minimizedRMSD -1
REMARK  0 active torsions:
REMARK  status: ('A' for Active; 'I' for Inactive)
ROOT
ATOM      1  C   UNL d   1       0.116   1.833   0.197  0.00  0.00     0.077 C 
ATOM      2  C1  UNL d   1      -0.592   3.119  -0.108  0.00  0.00    -0.074 A 
ATOM      3  C2  UNL d   1      -0.641   3.621  -1.413  0.00  0.00    -0.005 A 
ATOM      4  C3  UNL d   1      -1.312   4.814  -1.682  0.00  0.00     0.006 A 
ATOM      5  C4  UNL d   1      -1.940   5.515  -0.652  0.00  0.00    -0.005 A 
ATOM      6  C5  UNL d   1      -1.902   5.028   0.658  0.00  0.00    -0.074 A 
ATOM      7  C6  UNL d   1      -2.581   5.765   1.775  0.00  0.00     0.077 C 
ATOM      8  C7  UNL d   1      -1.232   3.825   0.920  0.00  0.00    -0.001 A 
ENDROOT
TORSDOF 0
ENDMDL
