MODEL 1
REMARK minimizedAffinity 6.67866564
REMARK minimizedRMSD -1
REMARK  0 active torsions:
REMARK  status: ('A' for Active; 'I' for Inactive)
ROOT
ATOM      1  C   UNL d   1       0.763   2.732   0.704  0.00  0.00     0.077 C 
ATOM      2  C1  UNL d   1       0.423   3.690  -0.399  0.00  0.00    -0.074 A 
ATOM      3  C2  UNL d   1       1.192   4.837  -0.617  0.00  0.00    -0.005 A 
ATOM      4  C3  UNL d   1       0.870   5.714  -1.653  0.00  0.00     0.006 A 
ATOM      5  C4  UNL d   1      -0.223   5.453  -2.479  0.00  0.00    -0.005 A 
ATOM      6  C5  UNL d   1      -1.004   4.310  -2.277  0.00  0.00    -0.074 A 
ATOM      7  C6  UNL d   1      -2.176   4.009  -3.163  0.00  0.00     0.077 C 
ATOM      8  C7  UNL d   1      -0.669   3.430  -1.239  0.00  0.00    -0.001 A 
ENDROOT
TORSDOF 0
ENDMDL
