MODEL 1
REMARK minimizedAffinity 6.81500864
REMARK minimizedRMSD -1
REMARK  0 active torsions:
REMARK  status: ('A' for Active; 'I' for Inactive)
ROOT
ATOM      1  C   UNL d   1       0.797   5.689  -4.158  0.00  0.00     0.077 C 
ATOM      2  C1  UNL d   1       0.065   5.327  -2.900  0.00  0.00    -0.074 A 
ATOM      3  C2  UNL d   1      -1.200   5.857  -2.626  0.00  0.00    -0.005 A 
ATOM      4  C3  UNL d   1      -1.872   5.503  -1.457  0.00  0.00     0.006 A 
ATOM      5  C4  UNL d   1      -1.287   4.618  -0.550  0.00  0.00    -0.005 A 
ATOM      6  C5  UNL d   1      -0.023   4.077  -0.808  0.00  0.00    -0.074 A 
ATOM      7  C6  UNL d   1       0.615   3.117   0.151  0.00  0.00     0.077 C 
ATOM      8  C7  UNL d   1       0.643   4.432  -1.989  0.00  0.00    -0.001 A 
ENDROOT
TORSDOF 0
ENDMDL
