MODEL 1
REMARK minimizedAffinity 12.7374325
REMARK minimizedRMSD -1
REMARK  0 active torsions:
REMARK  status: ('A' for Active; 'I' for Inactive)
ROOT
ATOM      1  C   UNL d   1       4.282  -5.411  -3.588  0.00  0.00     0.077 C 
ATOM      2  C1  UNL d   1       4.886  -4.828  -2.346  0.00  0.00    -0.074 A 
ATOM      3  C2  UNL d   1       5.263  -3.482  -2.293  0.00  0.00    -0.005 A 
ATOM      4  C3  UNL d   1       5.815  -2.952  -1.128  0.00  0.00     0.006 A 
ATOM      5  C4  UNL d   1       5.997  -3.760  -0.005  0.00  0.00    -0.005 A 
ATOM      6  C5  UNL d   1       5.625  -5.108  -0.038  0.00  0.00    -0.074 A 
ATOM      7  C6  UNL d   1       5.804  -5.988   1.163  0.00  0.00     0.077 C 
ATOM      8  C7  UNL d   1       5.064  -5.632  -1.211  0.00  0.00    -0.001 A 
ENDROOT
TORSDOF 0
ENDMDL
