MODEL 1
REMARK minimizedAffinity 3.50092983
REMARK minimizedRMSD -1
REMARK  0 active torsions:
REMARK  status: ('A' for Active; 'I' for Inactive)
ROOT
ATOM      1  C   UNL d   1       2.627   2.045   1.888  0.00  0.00     0.077 C 
ATOM      2  C1  UNL d   1       1.588   1.298   2.671  0.00  0.00    -0.074 A 
ATOM      3  C2  UNL d   1       0.277   1.776   2.765  0.00  0.00    -0.005 A 
ATOM      4  C3  UNL d   1      -0.680   1.065   3.489  0.00  0.00     0.006 A 
ATOM      5  C4  UNL d   1      -0.337  -0.128   4.126  0.00  0.00    -0.005 A 
ATOM      6  C5  UNL d   1       0.969  -0.621   4.043  0.00  0.00    -0.074 A 
ATOM      7  C6  UNL d   1       1.352  -1.907   4.713  0.00  0.00     0.077 C 
ATOM      8  C7  UNL d   1       1.924   0.094   3.308  0.00  0.00    -0.001 A 
ENDROOT
TORSDOF 0
ENDMDL
