MODEL 1
REMARK minimizedAffinity 4.65137053
REMARK minimizedRMSD -1
REMARK  0 active torsions:
REMARK  status: ('A' for Active; 'I' for Inactive)
ROOT
ATOM      1  C   UNL d   1       0.337   0.835   2.950  0.00  0.00     0.077 C 
ATOM      2  C1  UNL d   1       0.504  -0.214   4.008  0.00  0.00    -0.074 A 
ATOM      3  C2  UNL d   1       1.767  -0.514   4.530  0.00  0.00    -0.005 A 
ATOM      4  C3  UNL d   1       1.905  -1.486   5.521  0.00  0.00     0.006 A 
ATOM      5  C4  UNL d   1       0.784  -2.167   5.999  0.00  0.00    -0.005 A 
ATOM      6  C5  UNL d   1      -0.486  -1.879   5.490  0.00  0.00    -0.074 A 
ATOM      7  C6  UNL d   1      -1.702  -2.594   6.000  0.00  0.00     0.077 C 
ATOM      8  C7  UNL d   1      -0.618  -0.896   4.499  0.00  0.00    -0.001 A 
ENDROOT
TORSDOF 0
ENDMDL
