MODEL 1
REMARK minimizedAffinity 10.7095098
REMARK minimizedRMSD -1
REMARK  0 active torsions:
REMARK  status: ('A' for Active; 'I' for Inactive)
ROOT
ATOM      1  C   UNL d   1       1.996  -2.007  -0.211  0.00  0.00     0.077 C 
ATOM      2  C1  UNL d   1       3.394  -2.499  -0.440  0.00  0.00    -0.074 A 
ATOM      3  C2  UNL d   1       4.463  -1.603  -0.548  0.00  0.00    -0.005 A 
ATOM      4  C3  UNL d   1       5.759  -2.076  -0.751  0.00  0.00     0.006 A 
ATOM      5  C4  UNL d   1       6.000  -3.447  -0.848  0.00  0.00    -0.005 A 
ATOM      6  C5  UNL d   1       4.944  -4.358  -0.742  0.00  0.00    -0.074 A 
ATOM      7  C6  UNL d   1       5.187  -5.835  -0.834  0.00  0.00     0.077 C 
ATOM      8  C7  UNL d   1       3.645  -3.875  -0.531  0.00  0.00    -0.001 A 
ENDROOT
TORSDOF 0
ENDMDL
