MODEL 1
REMARK minimizedAffinity -3.28325534
REMARK minimizedRMSD -1
REMARK  0 active torsions:
REMARK  status: ('A' for Active; 'I' for Inactive)
ROOT
ATOM      1  C   UNL d   1       0.697   0.135  -0.717  0.00  0.00     0.172 C 
ATOM      2  N   UNL d   1      -0.090   1.291  -0.354  0.00  0.00    -0.070 N 
ATOM      3  C1  UNL d   1      -0.990   1.352   0.676  0.00  0.00    -0.004 A 
ATOM      4  C2  UNL d   1      -1.528   2.621   0.691  0.00  0.00    -0.047 A 
ATOM      5  C3  UNL d   1      -0.930   3.347  -0.366  0.00  0.00    -0.047 A 
ATOM      6  C4  UNL d   1      -0.044   2.500  -0.997  0.00  0.00    -0.004 A 
ENDROOT
TORSDOF 0
ENDMDL
