MODEL 1
REMARK minimizedAffinity -2.94844365
REMARK minimizedRMSD -1
REMARK  0 active torsions:
REMARK  status: ('A' for Active; 'I' for Inactive)
ROOT
ATOM      1  C   UNL d   1       0.447  -0.289   0.100  0.00  0.00     0.172 C 
ATOM      2  N   UNL d   1      -0.458   0.373   1.010  0.00  0.00    -0.070 N 
ATOM      3  C1  UNL d   1      -0.487   1.717   1.270  0.00  0.00    -0.004 A 
ATOM      4  C2  UNL d   1      -1.488   1.948   2.188  0.00  0.00    -0.047 A 
ATOM      5  C3  UNL d   1      -2.080   0.699   2.492  0.00  0.00    -0.047 A 
ATOM      6  C4  UNL d   1      -1.423  -0.259   1.749  0.00  0.00    -0.004 A 
ENDROOT
TORSDOF 0
ENDMDL
