MODEL 1
REMARK minimizedAffinity -4.19242716
REMARK minimizedRMSD -1
REMARK  0 active torsions:
REMARK  status: ('A' for Active; 'I' for Inactive)
ROOT
ATOM      1  C   UNL d   1       0.173   0.374  -0.001  0.00  0.00     0.172 C 
ATOM      2  N   UNL d   1      -0.577   1.589   0.212  0.00  0.00    -0.070 N 
ATOM      3  C1  UNL d   1      -0.539   2.701  -0.586  0.00  0.00    -0.004 A 
ATOM      4  C2  UNL d   1      -1.393   3.638  -0.046  0.00  0.00    -0.047 A 
ATOM      5  C3  UNL d   1      -1.963   3.070   1.118  0.00  0.00    -0.047 A 
ATOM      6  C4  UNL d   1      -1.441   1.801   1.254  0.00  0.00    -0.004 A 
ENDROOT
TORSDOF 0
ENDMDL
