MODEL 1
REMARK minimizedAffinity -3.80121779
REMARK minimizedRMSD -1
REMARK  0 active torsions:
REMARK  status: ('A' for Active; 'I' for Inactive)
ROOT
ATOM      1  C   UNL d   1       0.469  -0.605  -0.803  0.00  0.00     0.172 C 
ATOM      2  N   UNL d   1      -0.379   0.172   0.071  0.00  0.00    -0.070 N 
ATOM      3  C1  UNL d   1      -0.524  -0.019   1.419  0.00  0.00    -0.004 A 
ATOM      4  C2  UNL d   1      -1.416   0.922   1.885  0.00  0.00    -0.047 A 
ATOM      5  C3  UNL d   1      -1.823   1.705   0.778  0.00  0.00    -0.047 A 
ATOM      6  C4  UNL d   1      -1.166   1.218  -0.333  0.00  0.00    -0.004 A 
ENDROOT
TORSDOF 0
ENDMDL
