MODEL 1
REMARK minimizedAffinity -2.64876795
REMARK minimizedRMSD -1
REMARK  0 active torsions:
REMARK  status: ('A' for Active; 'I' for Inactive)
ROOT
ATOM      1  C   UNL d   1       0.367  -0.530  -0.413  0.00  0.00     0.172 C 
ATOM      2  N   UNL d   1      -0.332   0.431   0.408  0.00  0.00    -0.070 N 
ATOM      3  C1  UNL d   1      -0.388   1.781   0.184  0.00  0.00    -0.004 A 
ATOM      4  C2  UNL d   1      -1.148   2.343   1.186  0.00  0.00    -0.047 A 
ATOM      5  C3  UNL d   1      -1.563   1.296   2.043  0.00  0.00    -0.047 A 
ATOM      6  C4  UNL d   1      -1.043   0.123   1.538  0.00  0.00    -0.004 A 
ENDROOT
TORSDOF 0
ENDMDL
