MODEL 1
REMARK minimizedAffinity -2.64304185
REMARK minimizedRMSD -1
REMARK  0 active torsions:
REMARK  status: ('A' for Active; 'I' for Inactive)
ROOT
ATOM      1  C   UNL d   1      -1.529   1.444   1.544  0.00  0.00     0.172 C 
ATOM      2  N   UNL d   1      -0.520   0.731   0.795  0.00  0.00    -0.070 N 
ATOM      3  C1  UNL d   1      -0.019   1.103  -0.424  0.00  0.00    -0.004 A 
ATOM      4  C2  UNL d   1       0.918   0.165  -0.798  0.00  0.00    -0.047 A 
ATOM      5  C3  UNL d   1       0.983  -0.804   0.231  0.00  0.00    -0.047 A 
ATOM      6  C4  UNL d   1       0.082  -0.429   1.205  0.00  0.00    -0.004 A 
ENDROOT
TORSDOF 0
ENDMDL
