MODEL 1
REMARK minimizedAffinity -3.84124255
REMARK minimizedRMSD -1
REMARK  0 active torsions:
REMARK  status: ('A' for Active; 'I' for Inactive)
ROOT
ATOM      1  C   UNL d   1      -0.348   3.351  -0.783  0.00  0.00     0.172 C 
ATOM      2  N   UNL d   1      -0.699   2.365   0.212  0.00  0.00    -0.070 N 
ATOM      3  C1  UNL d   1      -0.264   1.067   0.238  0.00  0.00    -0.004 A 
ATOM      4  C2  UNL d   1      -0.821   0.456   1.341  0.00  0.00    -0.047 A 
ATOM      5  C3  UNL d   1      -1.619   1.421   2.000  0.00  0.00    -0.047 A 
ATOM      6  C4  UNL d   1      -1.526   2.593   1.280  0.00  0.00    -0.004 A 
ENDROOT
TORSDOF 0
ENDMDL
