MODEL 1
REMARK minimizedAffinity -3.68960023
REMARK minimizedRMSD -1
REMARK  0 active torsions:
REMARK  status: ('A' for Active; 'I' for Inactive)
ROOT
ATOM      1  C   UNL d   1      -0.367  -0.353   0.926  0.00  0.00     0.172 C 
ATOM      2  N   UNL d   1      -0.717   1.036   0.740  0.00  0.00    -0.070 N 
ATOM      3  C1  UNL d   1      -1.173   1.881   1.716  0.00  0.00    -0.004 A 
ATOM      4  C2  UNL d   1      -1.392   3.113   1.139  0.00  0.00    -0.047 A 
ATOM      5  C3  UNL d   1      -1.057   3.004  -0.232  0.00  0.00    -0.047 A 
ATOM      6  C4  UNL d   1      -0.642   1.708  -0.451  0.00  0.00    -0.004 A 
ENDROOT
TORSDOF 0
ENDMDL
