MODEL 1
REMARK minimizedAffinity -3.36843801
REMARK minimizedRMSD -1
REMARK  0 active torsions:
REMARK  status: ('A' for Active; 'I' for Inactive)
ROOT
ATOM      1  C   UNL d   1       0.878  -0.784  -0.515  0.00  0.00     0.172 C 
ATOM      2  N   UNL d   1      -0.099   0.000   0.205  0.00  0.00    -0.070 N 
ATOM      3  C1  UNL d   1      -0.534  -0.242   1.480  0.00  0.00    -0.004 A 
ATOM      4  C2  UNL d   1      -1.460   0.726   1.801  0.00  0.00    -0.047 A 
ATOM      5  C3  UNL d   1      -1.587   1.579   0.679  0.00  0.00    -0.047 A 
ATOM      6  C4  UNL d   1      -0.733   1.107  -0.295  0.00  0.00    -0.004 A 
ENDROOT
TORSDOF 0
ENDMDL
