MODEL 1
REMARK minimizedAffinity -2.83244228
REMARK minimizedRMSD -1
REMARK  0 active torsions:
REMARK  status: ('A' for Active; 'I' for Inactive)
ROOT
ATOM      1  C   UNL d   1       0.529  -0.288   0.006  0.00  0.00     0.172 C 
ATOM      2  N   UNL d   1       0.428  -1.282  -1.037  0.00  0.00    -0.070 N 
ATOM      3  C1  UNL d   1       1.218  -2.394  -1.159  0.00  0.00    -0.004 A 
ATOM      4  C2  UNL d   1       0.805  -3.084  -2.278  0.00  0.00    -0.047 A 
ATOM      5  C3  UNL d   1      -0.269  -2.362  -2.849  0.00  0.00    -0.047 A 
ATOM      6  C4  UNL d   1      -0.482  -1.250  -2.061  0.00  0.00    -0.004 A 
ENDROOT
TORSDOF 0
ENDMDL
