MODEL 1
REMARK minimizedAffinity -3.39818883
REMARK minimizedRMSD -1
REMARK  0 active torsions:
REMARK  status: ('A' for Active; 'I' for Inactive)
ROOT
ATOM      1  C   UNL d   1       0.394   0.518  -0.750  0.00  0.00     0.172 C 
ATOM      2  N   UNL d   1      -0.423   1.507  -0.086  0.00  0.00    -0.070 N 
ATOM      3  C1  UNL d   1      -0.351   2.861  -0.278  0.00  0.00    -0.004 A 
ATOM      4  C2  UNL d   1      -1.292   3.453   0.537  0.00  0.00    -0.047 A 
ATOM      5  C3  UNL d   1      -1.951   2.419   1.243  0.00  0.00    -0.047 A 
ATOM      6  C4  UNL d   1      -1.394   1.224   0.838  0.00  0.00    -0.004 A 
ENDROOT
TORSDOF 0
ENDMDL
