MODEL 1
REMARK minimizedAffinity -4.02277565
REMARK minimizedRMSD -1
REMARK  0 active torsions:
REMARK  status: ('A' for Active; 'I' for Inactive)
ROOT
ATOM      1  C   UNL d   1       0.053  -0.127   0.897  0.00  0.00     0.172 C 
ATOM      2  N   UNL d   1      -0.644   1.137   0.886  0.00  0.00    -0.070 N 
ATOM      3  C1  UNL d   1      -1.486   1.593   1.865  0.00  0.00    -0.004 A 
ATOM      4  C2  UNL d   1      -1.945   2.835   1.482  0.00  0.00    -0.047 A 
ATOM      5  C3  UNL d   1      -1.360   3.135   0.229  0.00  0.00    -0.047 A 
ATOM      6  C4  UNL d   1      -0.559   2.067  -0.116  0.00  0.00    -0.004 A 
ENDROOT
TORSDOF 0
ENDMDL
