MODEL 1
REMARK minimizedAffinity -3.86968613
REMARK minimizedRMSD -1
REMARK  0 active torsions:
REMARK  status: ('A' for Active; 'I' for Inactive)
ROOT
ATOM      1  C   UNL d   1       0.186  -0.062   0.745  0.00  0.00     0.172 C 
ATOM      2  N   UNL d   1      -0.577   1.164   0.737  0.00  0.00    -0.070 N 
ATOM      3  C1  UNL d   1      -1.631   1.453   1.561  0.00  0.00    -0.004 A 
ATOM      4  C2  UNL d   1      -2.084   2.715   1.240  0.00  0.00    -0.047 A 
ATOM      5  C3  UNL d   1      -1.274   3.200   0.186  0.00  0.00    -0.047 A 
ATOM      6  C4  UNL d   1      -0.349   2.220  -0.106  0.00  0.00    -0.004 A 
ENDROOT
TORSDOF 0
ENDMDL
