MODEL 1
REMARK minimizedAffinity -3.90415144
REMARK minimizedRMSD -1
REMARK  0 active torsions:
REMARK  status: ('A' for Active; 'I' for Inactive)
ROOT
ATOM      1  C   UNL d   1       0.807  -0.633  -0.536  0.00  0.00     0.172 C 
ATOM      2  N   UNL d   1      -0.171   0.155   0.176  0.00  0.00    -0.070 N 
ATOM      3  C1  UNL d   1      -0.843   1.237  -0.326  0.00  0.00    -0.004 A 
ATOM      4  C2  UNL d   1      -1.682   1.708   0.661  0.00  0.00    -0.047 A 
ATOM      5  C3  UNL d   1      -1.507   0.881   1.795  0.00  0.00    -0.047 A 
ATOM      6  C4  UNL d   1      -0.566  -0.072   1.468  0.00  0.00    -0.004 A 
ENDROOT
TORSDOF 0
ENDMDL
