MODEL 1
REMARK minimizedAffinity -3.8132658
REMARK minimizedRMSD -1
REMARK  0 active torsions:
REMARK  status: ('A' for Active; 'I' for Inactive)
ROOT
ATOM      1  C   UNL d   1      -0.196  -0.665   0.909  0.00  0.00     0.172 C 
ATOM      2  N   UNL d   1      -0.670   0.689   0.746  0.00  0.00    -0.070 N 
ATOM      3  C1  UNL d   1      -1.540   1.337   1.581  0.00  0.00    -0.004 A 
ATOM      4  C2  UNL d   1      -1.739   2.606   1.082  0.00  0.00    -0.047 A 
ATOM      5  C3  UNL d   1      -0.961   2.725  -0.094  0.00  0.00    -0.047 A 
ATOM      6  C4  UNL d   1      -0.309   1.524  -0.279  0.00  0.00    -0.004 A 
ENDROOT
TORSDOF 0
ENDMDL
