MODEL 1
REMARK minimizedAffinity 10.3129768
REMARK minimizedRMSD -1
REMARK  0 active torsions:
REMARK  status: ('A' for Active; 'I' for Inactive)
ROOT
ATOM      1  C   UNL d   1      -1.870  -3.553   1.854  0.00  0.00     0.020 A 
ATOM      2  C1  UNL d   1      -0.786  -4.000   1.100  0.00  0.00     0.020 A 
ATOM      3  C2  UNL d   1      -0.389  -3.296  -0.039  0.00  0.00     0.034 A 
ATOM      4  C3  UNL d   1      -1.078  -2.141  -0.427  0.00  0.00     0.017 A 
ATOM      5  C4  UNL d   1      -2.166  -1.693   0.331  0.00  0.00     0.017 A 
ATOM      6  C5  UNL d   1      -2.558  -2.402   1.470  0.00  0.00     0.034 A 
ATOM      7 Cl   UNL d   1      -3.064  -0.276  -0.085  0.00  0.00    -0.070 Cl
ATOM      8 Cl1  UNL d   1      -0.532  -1.319  -1.846  0.00  0.00    -0.070 Cl
ENDROOT
TORSDOF 0
ENDMDL
