MODEL 1
REMARK minimizedAffinity 11.8489971
REMARK minimizedRMSD -1
REMARK  0 active torsions:
REMARK  status: ('A' for Active; 'I' for Inactive)
ROOT
ATOM      1  C   UNL d   1      -5.725   5.875  -5.407  0.00  0.00     0.020 A 
ATOM      2  C1  UNL d   1      -5.962   4.635  -6.000  0.00  0.00     0.020 A 
ATOM      3  C2  UNL d   1      -5.219   3.520  -5.608  0.00  0.00     0.034 A 
ATOM      4  C3  UNL d   1      -4.234   3.642  -4.621  0.00  0.00     0.017 A 
ATOM      5  C4  UNL d   1      -3.997   4.887  -4.026  0.00  0.00     0.017 A 
ATOM      6  C5  UNL d   1      -4.745   6.000  -4.422  0.00  0.00     0.034 A 
ATOM      7 Cl   UNL d   1      -2.800   5.115  -2.801  0.00  0.00    -0.070 Cl
ATOM      8 Cl1  UNL d   1      -3.353   2.221  -4.185  0.00  0.00    -0.070 Cl
ENDROOT
TORSDOF 0
ENDMDL
