MODEL 1
REMARK minimizedAffinity 9.70487022
REMARK minimizedRMSD -1
REMARK  0 active torsions:
REMARK  status: ('A' for Active; 'I' for Inactive)
ROOT
ATOM      1  C   UNL d   1      -1.023  -1.726   3.159  0.00  0.00     0.020 A 
ATOM      2  C1  UNL d   1      -1.156  -0.562   2.403  0.00  0.00     0.020 A 
ATOM      3  C2  UNL d   1      -1.143  -0.630   1.008  0.00  0.00     0.034 A 
ATOM      4  C3  UNL d   1      -0.998  -1.864   0.365  0.00  0.00     0.017 A 
ATOM      5  C4  UNL d   1      -0.865  -3.032   1.124  0.00  0.00     0.017 A 
ATOM      6  C5  UNL d   1      -0.878  -2.959   2.520  0.00  0.00     0.034 A 
ATOM      7 Cl   UNL d   1      -0.681  -4.592   0.402  0.00  0.00    -0.070 Cl
ATOM      8 Cl1  UNL d   1      -0.991  -1.874  -1.363  0.00  0.00    -0.070 Cl
ENDROOT
TORSDOF 0
ENDMDL
