MODEL 1
REMARK minimizedAffinity 10.0171499
REMARK minimizedRMSD -1
REMARK  0 active torsions:
REMARK  status: ('A' for Active; 'I' for Inactive)
ROOT
ATOM      1  C   UNL d   1      -1.883  -3.236  -0.540  0.00  0.00     0.020 A 
ATOM      2  C1  UNL d   1      -2.440  -2.010  -0.176  0.00  0.00     0.020 A 
ATOM      3  C2  UNL d   1      -2.216  -1.495   1.103  0.00  0.00     0.034 A 
ATOM      4  C3  UNL d   1      -1.435  -2.205   2.021  0.00  0.00     0.017 A 
ATOM      5  C4  UNL d   1      -0.877  -3.435   1.655  0.00  0.00     0.017 A 
ATOM      6  C5  UNL d   1      -1.104  -3.946   0.373  0.00  0.00     0.034 A 
ATOM      7 Cl   UNL d   1       0.098  -4.369   2.733  0.00  0.00    -0.070 Cl
ATOM      8 Cl1  UNL d   1      -1.200  -1.508   3.585  0.00  0.00    -0.070 Cl
ENDROOT
TORSDOF 0
ENDMDL
