MODEL 1
REMARK minimizedAffinity 9.66245747
REMARK minimizedRMSD -1
REMARK  0 active torsions:
REMARK  status: ('A' for Active; 'I' for Inactive)
ROOT
ATOM      1  C   UNL d   1      -0.817  -3.134   1.575  0.00  0.00     0.020 A 
ATOM      2  C1  UNL d   1      -0.943  -2.335   0.440  0.00  0.00     0.020 A 
ATOM      3  C2  UNL d   1      -1.242  -0.977   0.572  0.00  0.00     0.034 A 
ATOM      4  C3  UNL d   1      -1.416  -0.415   1.841  0.00  0.00     0.017 A 
ATOM      5  C4  UNL d   1      -1.290  -1.218   2.980  0.00  0.00     0.017 A 
ATOM      6  C5  UNL d   1      -0.990  -2.577   2.843  0.00  0.00     0.034 A 
ATOM      7 Cl   UNL d   1      -1.490  -0.596   4.580  0.00  0.00    -0.070 Cl
ATOM      8 Cl1  UNL d   1      -1.784   1.271   1.930  0.00  0.00    -0.070 Cl
ENDROOT
TORSDOF 0
ENDMDL
