MODEL 1
REMARK minimizedAffinity 3.86867976
REMARK minimizedRMSD -1
REMARK  0 active torsions:
REMARK  status: ('A' for Active; 'I' for Inactive)
ROOT
ATOM      1  C   UNL d   1      -0.591  -3.465   1.395  0.00  0.00     0.020 A 
ATOM      2  C1  UNL d   1      -1.310  -2.831   2.408  0.00  0.00     0.020 A 
ATOM      3  C2  UNL d   1      -2.344  -1.950   2.085  0.00  0.00     0.034 A 
ATOM      4  C3  UNL d   1      -2.662  -1.700   0.745  0.00  0.00     0.017 A 
ATOM      5  C4  UNL d   1      -1.941  -2.337  -0.271  0.00  0.00     0.017 A 
ATOM      6  C5  UNL d   1      -0.906  -3.218   0.058  0.00  0.00     0.034 A 
ATOM      7 Cl   UNL d   1      -2.275  -2.079  -1.947  0.00  0.00    -0.070 Cl
ATOM      8 Cl1  UNL d   1      -3.953  -0.599   0.418  0.00  0.00    -0.070 Cl
ENDROOT
TORSDOF 0
ENDMDL
