MODEL 1
REMARK minimizedAffinity 13.6782074
REMARK minimizedRMSD -1
REMARK  0 active torsions:
REMARK  status: ('A' for Active; 'I' for Inactive)
ROOT
ATOM      1  C   UNL d   1       2.550  -0.721  -2.195  0.00  0.00     0.020 A 
ATOM      2  C1  UNL d   1       2.518   0.672  -2.238  0.00  0.00     0.020 A 
ATOM      3  C2  UNL d   1       3.569   1.377  -2.829  0.00  0.00     0.034 A 
ATOM      4  C3  UNL d   1       4.657   0.690  -3.378  0.00  0.00     0.017 A 
ATOM      5  C4  UNL d   1       4.688  -0.709  -3.335  0.00  0.00     0.017 A 
ATOM      6  C5  UNL d   1       3.633  -1.410  -2.742  0.00  0.00     0.034 A 
ATOM      7 Cl   UNL d   1       5.997  -1.627  -3.992  0.00  0.00    -0.070 Cl
ATOM      8 Cl1  UNL d   1       5.921   1.626  -4.093  0.00  0.00    -0.070 Cl
ENDROOT
TORSDOF 0
ENDMDL
