MODEL 1
REMARK minimizedAffinity 8.87062454
REMARK minimizedRMSD -1
REMARK  0 active torsions:
REMARK  status: ('A' for Active; 'I' for Inactive)
ROOT
ATOM      1  C   UNL d   1      -1.255  -2.568   0.655  0.00  0.00     0.020 A 
ATOM      2  C1  UNL d   1      -1.357  -3.502   1.685  0.00  0.00     0.020 A 
ATOM      3  C2  UNL d   1      -1.404  -3.074   3.014  0.00  0.00     0.034 A 
ATOM      4  C3  UNL d   1      -1.350  -1.708   3.316  0.00  0.00     0.017 A 
ATOM      5  C4  UNL d   1      -1.249  -0.771   2.281  0.00  0.00     0.017 A 
ATOM      6  C5  UNL d   1      -1.201  -1.206   0.952  0.00  0.00     0.034 A 
ATOM      7 Cl   UNL d   1      -1.177   0.930   2.574  0.00  0.00    -0.070 Cl
ATOM      8 Cl1  UNL d   1      -1.414  -1.250   4.980  0.00  0.00    -0.070 Cl
ENDROOT
TORSDOF 0
ENDMDL
