MODEL 1
REMARK minimizedAffinity 5.30451584
REMARK minimizedRMSD -1
REMARK  0 active torsions:
REMARK  status: ('A' for Active; 'I' for Inactive)
ROOT
ATOM      1  C   UNL d   1      -2.238  -1.815  -1.851  0.00  0.00     0.020 A 
ATOM      2  C1  UNL d   1      -1.654  -3.064  -2.054  0.00  0.00     0.020 A 
ATOM      3  C2  UNL d   1      -1.032  -3.725  -0.993  0.00  0.00     0.034 A 
ATOM      4  C3  UNL d   1      -0.993  -3.137   0.277  0.00  0.00     0.017 A 
ATOM      5  C4  UNL d   1      -1.580  -1.883   0.480  0.00  0.00     0.017 A 
ATOM      6  C5  UNL d   1      -2.201  -1.226  -0.586  0.00  0.00     0.034 A 
ATOM      7 Cl   UNL d   1      -1.572  -1.095   2.018  0.00  0.00    -0.070 Cl
ATOM      8 Cl1  UNL d   1      -0.207  -4.012   1.543  0.00  0.00    -0.070 Cl
ENDROOT
TORSDOF 0
ENDMDL
