MODEL 1
REMARK minimizedAffinity 11.0340652
REMARK minimizedRMSD -1
REMARK  0 active torsions:
REMARK  status: ('A' for Active; 'I' for Inactive)
ROOT
ATOM      1  C   UNL d   1       4.079   0.121   4.846  0.00  0.00     0.020 A 
ATOM      2  C1  UNL d   1       4.028   0.902   5.999  0.00  0.00     0.020 A 
ATOM      3  C2  UNL d   1       4.391   2.250   5.946  0.00  0.00     0.034 A 
ATOM      4  C3  UNL d   1       4.807   2.820   4.738  0.00  0.00     0.017 A 
ATOM      5  C4  UNL d   1       4.858   2.035   3.580  0.00  0.00     0.017 A 
ATOM      6  C5  UNL d   1       4.493   0.686   3.639  0.00  0.00     0.034 A 
ATOM      7 Cl   UNL d   1       5.361   2.667   2.053  0.00  0.00    -0.070 Cl
ATOM      8 Cl1  UNL d   1       5.241   4.492   4.746  0.00  0.00    -0.070 Cl
ENDROOT
TORSDOF 0
ENDMDL
