MODEL 1
REMARK minimizedAffinity 14.7504759
REMARK minimizedRMSD -1
REMARK  0 active torsions:
REMARK  status: ('A' for Active; 'I' for Inactive)
ROOT
ATOM      1  C   UNL d   1       4.816   3.105   0.070  0.00  0.00     0.020 A 
ATOM      2  C1  UNL d   1       5.647   2.056  -0.320  0.00  0.00     0.020 A 
ATOM      3  C2  UNL d   1       6.000   1.066   0.599  0.00  0.00     0.034 A 
ATOM      4  C3  UNL d   1       5.522   1.123   1.913  0.00  0.00     0.017 A 
ATOM      5  C4  UNL d   1       4.688   2.176   2.304  0.00  0.00     0.017 A 
ATOM      6  C5  UNL d   1       4.338   3.165   1.379  0.00  0.00     0.034 A 
ATOM      7 Cl   UNL d   1       4.059   2.314   3.908  0.00  0.00    -0.070 Cl
ATOM      8 Cl1  UNL d   1       5.998  -0.136   2.996  0.00  0.00    -0.070 Cl
ENDROOT
TORSDOF 0
ENDMDL
