MODEL 1
REMARK minimizedAffinity 3.35775876
REMARK minimizedRMSD -1
REMARK  0 active torsions:
REMARK  status: ('A' for Active; 'I' for Inactive)
ROOT
ATOM      1  C   UNL d   1      -1.808  -2.688  -0.675  0.00  0.00     0.020 A 
ATOM      2  C1  UNL d   1      -2.145  -1.464  -0.098  0.00  0.00     0.020 A 
ATOM      3  C2  UNL d   1      -1.854  -1.223   1.247  0.00  0.00     0.034 A 
ATOM      4  C3  UNL d   1      -1.225  -2.207   2.018  0.00  0.00     0.017 A 
ATOM      5  C4  UNL d   1      -0.888  -3.435   1.438  0.00  0.00     0.017 A 
ATOM      6  C5  UNL d   1      -1.181  -3.671   0.091  0.00  0.00     0.034 A 
ATOM      7 Cl   UNL d   1      -0.110  -4.698   2.326  0.00  0.00    -0.070 Cl
ATOM      8 Cl1  UNL d   1      -0.895  -1.841   3.674  0.00  0.00    -0.070 Cl
ENDROOT
TORSDOF 0
ENDMDL
