MODEL 1
REMARK minimizedAffinity 10.6621361
REMARK minimizedRMSD -1
REMARK  0 active torsions:
REMARK  status: ('A' for Active; 'I' for Inactive)
ROOT
ATOM      1  C   UNL d   1      -1.023  -1.890   3.669  0.00  0.00     0.020 A 
ATOM      2  C1  UNL d   1      -1.185  -0.686   2.984  0.00  0.00     0.020 A 
ATOM      3  C2  UNL d   1      -1.226  -0.677   1.588  0.00  0.00     0.034 A 
ATOM      4  C3  UNL d   1      -1.105  -1.874   0.872  0.00  0.00     0.017 A 
ATOM      5  C4  UNL d   1      -0.943  -3.082   1.561  0.00  0.00     0.017 A 
ATOM      6  C5  UNL d   1      -0.902  -3.085   2.959  0.00  0.00     0.034 A 
ATOM      7 Cl   UNL d   1      -0.787  -4.599   0.748  0.00  0.00    -0.070 Cl
ATOM      8 Cl1  UNL d   1      -1.165  -1.789  -0.852  0.00  0.00    -0.070 Cl
ENDROOT
TORSDOF 0
ENDMDL
