MODEL 1
REMARK minimizedAffinity 10.7889462
REMARK minimizedRMSD -1
REMARK  0 active torsions:
REMARK  status: ('A' for Active; 'I' for Inactive)
ROOT
ATOM      1  C   UNL d   1      -0.725  -2.602   2.841  0.00  0.00     0.020 A 
ATOM      2  C1  UNL d   1       0.022  -3.216   1.837  0.00  0.00     0.020 A 
ATOM      3  C2  UNL d   1      -0.253  -2.941   0.496  0.00  0.00     0.034 A 
ATOM      4  C3  UNL d   1      -1.277  -2.050   0.155  0.00  0.00     0.017 A 
ATOM      5  C4  UNL d   1      -2.027  -1.435   1.164  0.00  0.00     0.017 A 
ATOM      6  C5  UNL d   1      -1.747  -1.714   2.506  0.00  0.00     0.034 A 
ATOM      7 Cl   UNL d   1      -3.306  -0.325   0.822  0.00  0.00    -0.070 Cl
ATOM      8 Cl1  UNL d   1      -1.562  -1.757  -1.524  0.00  0.00    -0.070 Cl
ENDROOT
TORSDOF 0
ENDMDL
