MODEL 1
REMARK minimizedAffinity 5.21317005
REMARK minimizedRMSD -1
REMARK  0 active torsions:
REMARK  status: ('A' for Active; 'I' for Inactive)
ROOT
ATOM      1  C   UNL d   1      -1.475  -1.881   2.367  0.00  0.00     0.020 A 
ATOM      2  C1  UNL d   1      -1.439  -1.642   0.994  0.00  0.00     0.020 A 
ATOM      3  C2  UNL d   1      -1.241  -2.701   0.105  0.00  0.00     0.034 A 
ATOM      4  C3  UNL d   1      -1.078  -4.004   0.589  0.00  0.00     0.017 A 
ATOM      5  C4  UNL d   1      -1.115  -4.244   1.968  0.00  0.00     0.017 A 
ATOM      6  C5  UNL d   1      -1.314  -3.179   2.852  0.00  0.00     0.034 A 
ATOM      7 Cl   UNL d   1      -0.923  -5.824   2.640  0.00  0.00    -0.070 Cl
ATOM      8 Cl1  UNL d   1      -0.838  -5.266  -0.567  0.00  0.00    -0.070 Cl
ENDROOT
TORSDOF 0
ENDMDL
