MODEL 1
REMARK minimizedAffinity 4.36470509
REMARK minimizedRMSD -1
REMARK  0 active torsions:
REMARK  status: ('A' for Active; 'I' for Inactive)
ROOT
ATOM      1  C   UNL d   1      -2.532  -6.000   1.387  0.00  0.00     0.020 A 
ATOM      2  C1  UNL d   1      -1.299  -6.000   0.736  0.00  0.00     0.020 A 
ATOM      3  C2  UNL d   1      -0.805  -4.820   0.176  0.00  0.00     0.034 A 
ATOM      4  C3  UNL d   1      -1.545  -3.635   0.265  0.00  0.00     0.017 A 
ATOM      5  C4  UNL d   1      -2.782  -3.636   0.919  0.00  0.00     0.017 A 
ATOM      6  C5  UNL d   1      -3.272  -4.820   1.478  0.00  0.00     0.034 A 
ATOM      7 Cl   UNL d   1      -3.752  -2.213   1.070  0.00  0.00    -0.070 Cl
ATOM      8 Cl1  UNL d   1      -0.873  -2.212  -0.450  0.00  0.00    -0.070 Cl
ENDROOT
TORSDOF 0
ENDMDL
