MODEL 1
REMARK minimizedAffinity 0.223305166
REMARK minimizedRMSD -1
REMARK  0 active torsions:
REMARK  status: ('A' for Active; 'I' for Inactive)
ROOT
ATOM      1  C   UNL d   1      -0.544  -2.950   2.249  0.00  0.00     0.020 A 
ATOM      2  C1  UNL d   1      -0.940  -1.678   1.837  0.00  0.00     0.020 A 
ATOM      3  C2  UNL d   1      -1.514  -1.500   0.577  0.00  0.00     0.034 A 
ATOM      4  C3  UNL d   1      -1.694  -2.595  -0.276  0.00  0.00     0.017 A 
ATOM      5  C4  UNL d   1      -1.296  -3.871   0.138  0.00  0.00     0.017 A 
ATOM      6  C5  UNL d   1      -0.722  -4.044   1.401  0.00  0.00     0.034 A 
ATOM      7 Cl   UNL d   1      -1.486  -5.270  -0.858  0.00  0.00    -0.070 Cl
ATOM      8 Cl1  UNL d   1      -2.411  -2.301  -1.820  0.00  0.00    -0.070 Cl
ENDROOT
TORSDOF 0
ENDMDL
