MODEL 1
REMARK minimizedAffinity 7.07889271
REMARK minimizedRMSD -1
REMARK  0 active torsions:
REMARK  status: ('A' for Active; 'I' for Inactive)
ROOT
ATOM      1  C   UNL d   1      -1.594  -2.361   3.843  0.00  0.00     0.020 A 
ATOM      2  C1  UNL d   1      -1.828  -1.099   3.298  0.00  0.00     0.020 A 
ATOM      3  C2  UNL d   1      -1.699  -0.897   1.923  0.00  0.00     0.034 A 
ATOM      4  C3  UNL d   1      -1.334  -1.959   1.087  0.00  0.00     0.017 A 
ATOM      5  C4  UNL d   1      -1.099  -3.226   1.634  0.00  0.00     0.017 A 
ATOM      6  C5  UNL d   1      -1.230  -3.422   3.013  0.00  0.00     0.034 A 
ATOM      7 Cl   UNL d   1      -0.646  -4.584   0.667  0.00  0.00    -0.070 Cl
ATOM      8 Cl1  UNL d   1      -1.193  -1.638  -0.605  0.00  0.00    -0.070 Cl
ENDROOT
TORSDOF 0
ENDMDL
