MODEL 1
REMARK minimizedAffinity 5.02067327
REMARK minimizedRMSD -1
REMARK  0 active torsions:
REMARK  status: ('A' for Active; 'I' for Inactive)
ROOT
ATOM      1  C   UNL d   1      -1.644  -1.485   5.624  0.00  0.00     0.020 A 
ATOM      2  C1  UNL d   1      -2.640  -2.456   5.717  0.00  0.00     0.020 A 
ATOM      3  C2  UNL d   1      -3.978  -2.076   5.833  0.00  0.00     0.034 A 
ATOM      4  C3  UNL d   1      -4.325  -0.720   5.855  0.00  0.00     0.017 A 
ATOM      5  C4  UNL d   1      -3.325   0.255   5.762  0.00  0.00     0.017 A 
ATOM      6  C5  UNL d   1      -1.986  -0.132   5.647  0.00  0.00     0.034 A 
ATOM      7 Cl   UNL d   1      -3.675   1.947   5.783  0.00  0.00    -0.070 Cl
ATOM      8 Cl1  UNL d   1      -6.000  -0.321   6.000  0.00  0.00    -0.070 Cl
ENDROOT
TORSDOF 0
ENDMDL
