MODEL 1
REMARK minimizedAffinity -1.82225943
REMARK minimizedRMSD -1
REMARK  0 active torsions:
REMARK  status: ('A' for Active; 'I' for Inactive)
ROOT
ATOM      1  C   UNL d   1       0.434   0.587   2.685  0.00  0.00    -0.002 A 
ATOM      2  C1  UNL d   1      -0.682  -0.112   2.247  0.00  0.00     0.010 A 
ATOM      3  C2  UNL d   1      -0.893  -0.333   0.885  0.00  0.00     0.041 A 
ATOM      4  C3  UNL d   1       0.047   0.163  -0.040  0.00  0.00    -0.075 A 
ATOM      5  S   UNL d   1      -0.003   0.012  -1.756  0.00  0.00     0.015 SA
ATOM      6  C4  UNL d   1       1.456   0.872  -1.949  0.00  0.00     0.022 A 
ATOM      7  C5  UNL d   1       1.982   1.272  -0.744  0.00  0.00     0.026 A 
ATOM      8  C6  UNL d   1       1.179   0.870   0.377  0.00  0.00    -0.082 A 
ATOM      9  C7  UNL d   1       1.364   1.079   1.765  0.00  0.00     0.045 A 
ENDROOT
TORSDOF 0
ENDMDL
