MODEL 1
REMARK minimizedAffinity -3.47565699
REMARK minimizedRMSD -1
REMARK  0 active torsions:
REMARK  status: ('A' for Active; 'I' for Inactive)
ROOT
ATOM      1  C   UNL d   1      -0.352  -0.819   3.018  0.00  0.00    -0.002 A 
ATOM      2  C1  UNL d   1      -1.555  -1.182   2.429  0.00  0.00     0.010 A 
ATOM      3  C2  UNL d   1      -1.856  -0.784   1.125  0.00  0.00     0.041 A 
ATOM      4  C3  UNL d   1      -0.918  -0.009   0.415  0.00  0.00    -0.075 A 
ATOM      5  S   UNL d   1      -1.071   0.592  -1.194  0.00  0.00     0.015 SA
ATOM      6  C4  UNL d   1       0.457   1.345  -1.137  0.00  0.00     0.022 A 
ATOM      7  C5  UNL d   1       1.082   1.153   0.072  0.00  0.00     0.026 A 
ATOM      8  C6  UNL d   1       0.300   0.369   0.987  0.00  0.00    -0.082 A 
ATOM      9  C7  UNL d   1       0.575  -0.049   2.311  0.00  0.00     0.045 A 
ENDROOT
TORSDOF 0
ENDMDL
