MODEL 1
REMARK minimizedAffinity -4.08667946
REMARK minimizedRMSD -1
REMARK  0 active torsions:
REMARK  status: ('A' for Active; 'I' for Inactive)
ROOT
ATOM      1  C   UNL d   1      -0.063  -0.369   1.785  0.00  0.00    -0.002 A 
ATOM      2  C1  UNL d   1       0.783   0.731   1.790  0.00  0.00     0.010 A 
ATOM      3  C2  UNL d   1       1.363   1.186   0.604  0.00  0.00     0.041 A 
ATOM      4  C3  UNL d   1       1.074   0.512  -0.598  0.00  0.00    -0.075 A 
ATOM      5  S   UNL d   1       1.669   0.891  -2.171  0.00  0.00     0.015 SA
ATOM      6  C4  UNL d   1       0.814  -0.398  -2.887  0.00  0.00     0.022 A 
ATOM      7  C5  UNL d   1       0.087  -1.110  -1.963  0.00  0.00     0.026 A 
ATOM      8  C6  UNL d   1       0.225  -0.598  -0.629  0.00  0.00    -0.082 A 
ATOM      9  C7  UNL d   1      -0.347  -1.035   0.590  0.00  0.00     0.045 A 
ENDROOT
TORSDOF 0
ENDMDL
