MODEL 1
REMARK minimizedAffinity -3.34393072
REMARK minimizedRMSD -1
REMARK  0 active torsions:
REMARK  status: ('A' for Active; 'I' for Inactive)
ROOT
ATOM      1  C   UNL d   1       0.409  -4.104  -1.363  0.00  0.00    -0.002 A 
ATOM      2  C1  UNL d   1       0.826  -3.912  -2.673  0.00  0.00     0.010 A 
ATOM      3  C2  UNL d   1       1.269  -2.659  -3.101  0.00  0.00     0.041 A 
ATOM      4  C3  UNL d   1       1.288  -1.592  -2.181  0.00  0.00    -0.075 A 
ATOM      5  S   UNL d   1       1.792   0.029  -2.481  0.00  0.00     0.015 SA
ATOM      6  C4  UNL d   1       1.466   0.505  -0.877  0.00  0.00     0.022 A 
ATOM      7  C5  UNL d   1       0.984  -0.535  -0.118  0.00  0.00     0.026 A 
ATOM      8  C6  UNL d   1       0.874  -1.761  -0.857  0.00  0.00    -0.082 A 
ATOM      9  C7  UNL d   1       0.429  -3.043  -0.454  0.00  0.00     0.045 A 
ENDROOT
TORSDOF 0
ENDMDL
