MODEL 1
REMARK minimizedAffinity -3.09972334
REMARK minimizedRMSD -1
REMARK  0 active torsions:
REMARK  status: ('A' for Active; 'I' for Inactive)
ROOT
ATOM      1  C   UNL d   1       4.316   0.485  -4.219  0.00  0.00    -0.002 A 
ATOM      2  C1  UNL d   1       3.427   1.415  -3.700  0.00  0.00     0.010 A 
ATOM      3  C2  UNL d   1       2.142   1.029  -3.312  0.00  0.00     0.041 A 
ATOM      4  C3  UNL d   1       1.764  -0.321  -3.454  0.00  0.00    -0.075 A 
ATOM      5  S   UNL d   1       0.243  -1.023  -3.044  0.00  0.00     0.015 SA
ATOM      6  C4  UNL d   1       0.739  -2.574  -3.547  0.00  0.00     0.022 A 
ATOM      7  C5  UNL d   1       2.031  -2.574  -4.020  0.00  0.00     0.026 A 
ATOM      8  C6  UNL d   1       2.643  -1.276  -3.973  0.00  0.00    -0.082 A 
ATOM      9  C7  UNL d   1       3.938  -0.853  -4.358  0.00  0.00     0.045 A 
ENDROOT
TORSDOF 0
ENDMDL
