MODEL 1
REMARK minimizedAffinity -2.72022915
REMARK minimizedRMSD -1
REMARK  0 active torsions:
REMARK  status: ('A' for Active; 'I' for Inactive)
ROOT
ATOM      1  C   UNL d   1       2.023  -0.345   2.404  0.00  0.00    -0.002 A 
ATOM      2  C1  UNL d   1       0.768  -0.516   2.970  0.00  0.00     0.010 A 
ATOM      3  C2  UNL d   1      -0.384  -0.421   2.186  0.00  0.00     0.041 A 
ATOM      4  C3  UNL d   1      -0.251  -0.150   0.810  0.00  0.00    -0.075 A 
ATOM      5  S   UNL d   1      -1.521   0.010  -0.345  0.00  0.00     0.015 SA
ATOM      6  C4  UNL d   1      -0.426   0.307  -1.618  0.00  0.00     0.022 A 
ATOM      7  C5  UNL d   1       0.880   0.289  -1.189  0.00  0.00     0.026 A 
ATOM      8  C6  UNL d   1       1.003   0.024   0.217  0.00  0.00    -0.082 A 
ATOM      9  C7  UNL d   1       2.151  -0.077   1.038  0.00  0.00     0.045 A 
ENDROOT
TORSDOF 0
ENDMDL
