MODEL 1
REMARK minimizedAffinity -1.42828095
REMARK minimizedRMSD -1
REMARK  0 active torsions:
REMARK  status: ('A' for Active; 'I' for Inactive)
ROOT
ATOM      1  C   UNL d   1       1.858  -0.038   2.100  0.00  0.00    -0.002 A 
ATOM      2  C1  UNL d   1       0.778  -0.471   2.857  0.00  0.00     0.010 A 
ATOM      3  C2  UNL d   1      -0.525  -0.348   2.371  0.00  0.00     0.041 A 
ATOM      4  C3  UNL d   1      -0.726   0.221   1.098  0.00  0.00    -0.075 A 
ATOM      5  S   UNL d   1      -2.233   0.471   0.298  0.00  0.00     0.015 SA
ATOM      6  C4  UNL d   1      -1.479   1.157  -1.068  0.00  0.00     0.022 A 
ATOM      7  C5  UNL d   1      -0.111   1.202  -0.933  0.00  0.00     0.026 A 
ATOM      8  C6  UNL d   1       0.345   0.663   0.317  0.00  0.00    -0.082 A 
ATOM      9  C7  UNL d   1       1.654   0.525   0.838  0.00  0.00     0.045 A 
ENDROOT
TORSDOF 0
ENDMDL
