MODEL 1
REMARK minimizedAffinity -1.16864491
REMARK minimizedRMSD -1
REMARK  0 active torsions:
REMARK  status: ('A' for Active; 'I' for Inactive)
ROOT
ATOM      1  C   UNL d   1      -0.819   0.223  -1.506  0.00  0.00    -0.002 A 
ATOM      2  C1  UNL d   1      -1.900   0.640  -0.743  0.00  0.00     0.010 A 
ATOM      3  C2  UNL d   1      -1.766   0.830   0.634  0.00  0.00     0.041 A 
ATOM      4  C3  UNL d   1      -0.514   0.594   1.236  0.00  0.00    -0.075 A 
ATOM      5  S   UNL d   1      -0.114   0.762   2.904  0.00  0.00     0.015 SA
ATOM      6  C4  UNL d   1       1.501   0.286   2.642  0.00  0.00     0.022 A 
ATOM      7  C5  UNL d   1       1.747   0.001   1.320  0.00  0.00     0.026 A 
ATOM      8  C6  UNL d   1       0.590   0.175   0.487  0.00  0.00    -0.082 A 
ATOM      9  C7  UNL d   1       0.421  -0.010  -0.906  0.00  0.00     0.045 A 
ENDROOT
TORSDOF 0
ENDMDL
