MODEL 1
REMARK minimizedAffinity -0.00897815358
REMARK minimizedRMSD -1
REMARK  0 active torsions:
REMARK  status: ('A' for Active; 'I' for Inactive)
ROOT
ATOM      1  C   UNL d   1      -0.214   0.344   0.404  0.00  0.00    -0.002 A 
ATOM      2  C1  UNL d   1      -0.038  -0.921   0.945  0.00  0.00     0.010 A 
ATOM      3  C2  UNL d   1       0.402  -1.980   0.148  0.00  0.00     0.041 A 
ATOM      4  C3  UNL d   1       0.666  -1.743  -1.215  0.00  0.00    -0.075 A 
ATOM      5  S   UNL d   1       1.214  -2.887  -2.382  0.00  0.00     0.015 SA
ATOM      6  C4  UNL d   1       1.228  -1.723  -3.627  0.00  0.00     0.022 A 
ATOM      7  C5  UNL d   1       0.827  -0.486  -3.181  0.00  0.00     0.026 A 
ATOM      8  C6  UNL d   1       0.497  -0.477  -1.783  0.00  0.00    -0.082 A 
ATOM      9  C7  UNL d   1       0.049   0.576  -0.949  0.00  0.00     0.045 A 
ENDROOT
TORSDOF 0
ENDMDL
