MODEL 1
REMARK minimizedAffinity 6.39022732
REMARK minimizedRMSD -1
REMARK  3 active torsions:
REMARK  status: ('A' for Active; 'I' for Inactive)
REMARK    1  A    between atoms: C3'_2  and  C2'_3 
REMARK    2  A    between atoms: C2'_3  and  C1'_4 
REMARK    3  A    between atoms: C1'_4  and  C1_5 
ROOT
ATOM      1  C1  N4B d   1      -0.005   0.276   3.034  0.00  0.00    -0.075 A 
ATOM      2  C2  N4B d   1      -0.706   1.492   3.195  0.00  0.00     0.002 A 
ATOM      3  C3  N4B d   1      -0.399   2.328   4.241  0.00  0.00     0.002 A 
ATOM      4  C4  N4B d   1       0.587   1.961   5.145  0.00  0.00    -0.004 A 
ATOM      5  C5  N4B d   1       1.277   0.797   4.967  0.00  0.00     0.002 A 
ATOM      6  C6  N4B d   1       0.981  -0.050   3.919  0.00  0.00     0.002 A 
ENDROOT
BRANCH   1   7
ATOM      7  C1' N4B d   1      -0.364  -0.710   1.956  0.00  0.00     0.057 C 
BRANCH   7   8
ATOM      8  C2' N4B d   1       0.871  -1.529   1.595  0.00  0.00     0.009 C 
BRANCH   8   9
ATOM      9  C3' N4B d   1       0.931  -1.842   0.110  0.00  0.00     0.004 C 
ATOM     10  C4' N4B d   1      -0.423  -2.075  -0.490  0.00  0.00     0.003 C 
ENDBRANCH   8   9
ENDBRANCH   7   8
ENDBRANCH   1   7
TORSDOF 3
ENDMDL
