MODEL 1
REMARK minimizedAffinity 6.54710722
REMARK minimizedRMSD -1
REMARK  3 active torsions:
REMARK  status: ('A' for Active; 'I' for Inactive)
REMARK    1  A    between atoms: C3'_2  and  C2'_3 
REMARK    2  A    between atoms: C2'_3  and  C1'_4 
REMARK    3  A    between atoms: C1'_4  and  C1_5 
ROOT
ATOM      1  C1  N4B d   1      -1.674  -0.055   1.890  0.00  0.00    -0.075 A 
ATOM      2  C2  N4B d   1      -0.844   0.978   2.375  0.00  0.00     0.002 A 
ATOM      3  C3  N4B d   1       0.432   0.694   2.797  0.00  0.00     0.002 A 
ATOM      4  C4  N4B d   1       0.890  -0.615   2.760  0.00  0.00    -0.004 A 
ATOM      5  C5  N4B d   1       0.091  -1.604   2.266  0.00  0.00     0.002 A 
ATOM      6  C6  N4B d   1      -1.192  -1.331   1.835  0.00  0.00     0.002 A 
ENDROOT
BRANCH   1   7
ATOM      7  C1' N4B d   1      -3.105   0.193   1.498  0.00  0.00     0.057 C 
BRANCH   7   8
ATOM      8  C2' N4B d   1      -3.187   1.489   0.697  0.00  0.00     0.009 C 
BRANCH   8   9
ATOM      9  C3' N4B d   1      -4.440   1.549  -0.160  0.00  0.00     0.004 C 
ATOM     10  C4' N4B d   1      -4.414   0.570  -1.296  0.00  0.00     0.003 C 
ENDBRANCH   8   9
ENDBRANCH   7   8
ENDBRANCH   1   7
TORSDOF 3
ENDMDL
