MODEL 1
REMARK minimizedAffinity 14.7970667
REMARK minimizedRMSD -1
REMARK  3 active torsions:
REMARK  status: ('A' for Active; 'I' for Inactive)
REMARK    1  A    between atoms: C3'_2  and  C2'_3 
REMARK    2  A    between atoms: C2'_3  and  C1'_4 
REMARK    3  A    between atoms: C1'_4  and  C1_5 
ROOT
ATOM      1  C1  N4B d   1      -0.412   1.388   3.736  0.00  0.00    -0.075 A 
ATOM      2  C2  N4B d   1       0.209   1.249   4.997  0.00  0.00     0.002 A 
ATOM      3  C3  N4B d   1      -0.067   2.145   6.000  0.00  0.00     0.002 A 
ATOM      4  C4  N4B d   1      -0.943   3.194   5.761  0.00  0.00    -0.004 A 
ATOM      5  C5  N4B d   1      -1.557   3.306   4.548  0.00  0.00     0.002 A 
ATOM      6  C6  N4B d   1      -1.292   2.410   3.532  0.00  0.00     0.002 A 
ENDROOT
BRANCH   1   7
ATOM      7  C1' N4B d   1      -0.076   0.483   2.582  0.00  0.00     0.057 C 
BRANCH   7   8
ATOM      8  C2' N4B d   1      -0.311  -0.966   2.997  0.00  0.00     0.009 C 
BRANCH   8   9
ATOM      9  C3' N4B d   1       0.992  -1.693   3.286  0.00  0.00     0.004 C 
ATOM     10  C4' N4B d   1       0.861  -2.704   4.386  0.00  0.00     0.003 C 
ENDBRANCH   8   9
ENDBRANCH   7   8
ENDBRANCH   1   7
TORSDOF 3
ENDMDL
