MODEL 1
REMARK minimizedAffinity 2.18422794
REMARK minimizedRMSD -1
REMARK  0 active torsions:
REMARK  status: ('A' for Active; 'I' for Inactive)
ROOT
ATOM      1  C   UNL d   1       5.995   5.624   4.147  0.00  0.00     0.023 A 
ATOM      2  C1  UNL d   1       5.995   5.423   2.766  0.00  0.00     0.003 A 
ATOM      3  C2  UNL d   1       5.997   4.126   2.248  0.00  0.00     0.048 A 
ATOM      4  C3  UNL d   1       5.998   3.035   3.116  0.00  0.00     0.023 A 
ATOM      5  C4  UNL d   1       5.996   3.231   4.498  0.00  0.00     0.048 A 
ATOM      6  C5  UNL d   1       5.996   4.530   5.012  0.00  0.00     0.003 A 
ATOM      7  I   UNL d   1       6.000   1.104   2.348  0.00  0.00    -0.146 I 
ENDROOT
TORSDOF 0
ENDMDL
