MODEL 1
REMARK minimizedAffinity -0.266135961
REMARK minimizedRMSD -1
REMARK  0 active torsions:
REMARK  status: ('A' for Active; 'I' for Inactive)
ROOT
ATOM      1  C   UNL d   1       5.987   4.073   3.922  0.00  0.00     0.023 A 
ATOM      2  C1  UNL d   1       5.998   3.229   2.812  0.00  0.00     0.003 A 
ATOM      3  C2  UNL d   1       5.999   3.767   1.523  0.00  0.00     0.048 A 
ATOM      4  C3  UNL d   1       5.988   5.151   1.352  0.00  0.00     0.023 A 
ATOM      5  C4  UNL d   1       5.977   6.000   2.460  0.00  0.00     0.048 A 
ATOM      6  C5  UNL d   1       5.976   5.457   3.746  0.00  0.00     0.003 A 
ATOM      7  I   UNL d   1       5.988   5.954  -0.564  0.00  0.00    -0.146 I 
ENDROOT
TORSDOF 0
ENDMDL
