MODEL 1
REMARK minimizedAffinity 4.48755121
REMARK minimizedRMSD -1
REMARK  0 active torsions:
REMARK  status: ('A' for Active; 'I' for Inactive)
ROOT
ATOM      1  C   UNL d   1       5.890   5.163   1.417  0.00  0.00     0.023 A 
ATOM      2  C1  UNL d   1       5.955   5.945   2.570  0.00  0.00     0.003 A 
ATOM      3  C2  UNL d   1       5.987   5.336   3.827  0.00  0.00     0.048 A 
ATOM      4  C3  UNL d   1       5.953   3.946   3.922  0.00  0.00     0.023 A 
ATOM      5  C4  UNL d   1       5.888   3.159   2.771  0.00  0.00     0.048 A 
ATOM      6  C5  UNL d   1       5.856   3.772   1.517  0.00  0.00     0.003 A 
ATOM      7  I   UNL d   1       5.999   3.038   5.791  0.00  0.00    -0.146 I 
ENDROOT
TORSDOF 0
ENDMDL
