MODEL 1
REMARK minimizedAffinity 7.77601719
REMARK minimizedRMSD -1
REMARK  0 active torsions:
REMARK  status: ('A' for Active; 'I' for Inactive)
ROOT
ATOM      1  C   UNL d   1       3.016   2.252   3.899  0.00  0.00     0.023 A 
ATOM      2  C1  UNL d   1       2.503   3.455   3.415  0.00  0.00     0.003 A 
ATOM      3  C2  UNL d   1       3.357   4.532   3.169  0.00  0.00     0.048 A 
ATOM      4  C3  UNL d   1       4.725   4.398   3.408  0.00  0.00     0.023 A 
ATOM      5  C4  UNL d   1       5.243   3.196   3.892  0.00  0.00     0.048 A 
ATOM      6  C5  UNL d   1       4.385   2.123   4.138  0.00  0.00     0.003 A 
ATOM      7  I   UNL d   1       5.999   5.999   3.042  0.00  0.00    -0.146 I 
ENDROOT
TORSDOF 0
ENDMDL
