MODEL 1
REMARK minimizedAffinity 7.21186972
REMARK minimizedRMSD -1
REMARK  0 active torsions:
REMARK  status: ('A' for Active; 'I' for Inactive)
ROOT
ATOM      1  C   UNL d   1      -0.593  -0.680   1.042  0.00  0.00     0.023 A 
ATOM      2  C1  UNL d   1      -0.618  -1.537  -0.059  0.00  0.00     0.003 A 
ATOM      3  C2  UNL d   1       0.103  -1.216  -1.211  0.00  0.00     0.048 A 
ATOM      4  C3  UNL d   1       0.847  -0.038  -1.256  0.00  0.00     0.023 A 
ATOM      5  C4  UNL d   1       0.875   0.822  -0.156  0.00  0.00     0.048 A 
ATOM      6  C5  UNL d   1       0.152   0.498   0.993  0.00  0.00     0.003 A 
ATOM      7  I   UNL d   1       1.920   0.441  -2.969  0.00  0.00    -0.146 I 
ENDROOT
TORSDOF 0
ENDMDL
