MODEL 1
REMARK minimizedAffinity 6.66354418
REMARK minimizedRMSD -1
REMARK  0 active torsions:
REMARK  status: ('A' for Active; 'I' for Inactive)
ROOT
ATOM      1  C   UNL d   1      -3.597   5.962   6.000  0.00  0.00     0.023 A 
ATOM      2  C1  UNL d   1      -4.990   5.984   5.931  0.00  0.00     0.003 A 
ATOM      3  C2  UNL d   1      -5.629   5.990   4.689  0.00  0.00     0.048 A 
ATOM      4  C3  UNL d   1      -4.869   5.972   3.520  0.00  0.00     0.023 A 
ATOM      5  C4  UNL d   1      -3.475   5.949   3.584  0.00  0.00     0.048 A 
ATOM      6  C5  UNL d   1      -2.840   5.945   4.828  0.00  0.00     0.003 A 
ATOM      7  I   UNL d   1      -5.817   5.980   1.671  0.00  0.00    -0.146 I 
ENDROOT
TORSDOF 0
ENDMDL
