MODEL 1
REMARK minimizedAffinity 4.80593967
REMARK minimizedRMSD -1
REMARK  0 active torsions:
REMARK  status: ('A' for Active; 'I' for Inactive)
ROOT
ATOM      1  C   UNL d   1       5.980   1.747   5.120  0.00  0.00     0.023 A 
ATOM      2  C1  UNL d   1       5.993   2.943   5.837  0.00  0.00     0.003 A 
ATOM      3  C2  UNL d   1       5.999   4.164   5.160  0.00  0.00     0.048 A 
ATOM      4  C3  UNL d   1       5.990   4.182   3.766  0.00  0.00     0.023 A 
ATOM      5  C4  UNL d   1       5.976   2.988   3.044  0.00  0.00     0.048 A 
ATOM      6  C5  UNL d   1       5.971   1.769   3.725  0.00  0.00     0.003 A 
ATOM      7  I   UNL d   1       5.999   5.999   2.756  0.00  0.00    -0.146 I 
ENDROOT
TORSDOF 0
ENDMDL
