MODEL 1
REMARK minimizedAffinity 6.34962988
REMARK minimizedRMSD -1
REMARK  0 active torsions:
REMARK  status: ('A' for Active; 'I' for Inactive)
ROOT
ATOM      1  C   UNL d   1       5.846   5.505   1.790  0.00  0.00     0.023 A 
ATOM      2  C1  UNL d   1       5.870   4.129   1.564  0.00  0.00     0.003 A 
ATOM      3  C2  UNL d   1       5.909   3.243   2.643  0.00  0.00     0.048 A 
ATOM      4  C3  UNL d   1       5.924   3.740   3.945  0.00  0.00     0.023 A 
ATOM      5  C4  UNL d   1       5.900   5.117   4.176  0.00  0.00     0.048 A 
ATOM      6  C5  UNL d   1       5.861   5.998   3.095  0.00  0.00     0.003 A 
ATOM      7  I   UNL d   1       5.983   2.424   5.553  0.00  0.00    -0.146 I 
ENDROOT
TORSDOF 0
ENDMDL
