MODEL 1
REMARK minimizedAffinity 1.48528886
REMARK minimizedRMSD -1
REMARK  0 active torsions:
REMARK  status: ('A' for Active; 'I' for Inactive)
ROOT
ATOM      1  C   UNL d   1       5.734   5.855   3.849  0.00  0.00     0.023 A 
ATOM      2  C1  UNL d   1       5.890   4.704   3.076  0.00  0.00     0.003 A 
ATOM      3  C2  UNL d   1       5.966   3.453   3.692  0.00  0.00     0.048 A 
ATOM      4  C3  UNL d   1       5.886   3.360   5.081  0.00  0.00     0.023 A 
ATOM      5  C4  UNL d   1       5.730   4.509   5.858  0.00  0.00     0.048 A 
ATOM      6  C5  UNL d   1       5.655   5.757   5.238  0.00  0.00     0.003 A 
ATOM      7  I   UNL d   1       6.000   1.499   5.999  0.00  0.00    -0.146 I 
ENDROOT
TORSDOF 0
ENDMDL
