MODEL 1
REMARK minimizedAffinity 2.99334788
REMARK minimizedRMSD -1
REMARK  0 active torsions:
REMARK  status: ('A' for Active; 'I' for Inactive)
ROOT
ATOM      1  C   UNL d   1      -2.518  -5.467   0.786  0.00  0.00     0.023 A 
ATOM      2  C1  UNL d   1      -3.414  -4.504   0.321  0.00  0.00     0.003 A 
ATOM      3  C2  UNL d   1      -2.963  -3.219   0.013  0.00  0.00     0.048 A 
ATOM      4  C3  UNL d   1      -1.613  -2.904   0.170  0.00  0.00     0.023 A 
ATOM      5  C4  UNL d   1      -0.713  -3.864   0.634  0.00  0.00     0.048 A 
ATOM      6  C5  UNL d   1      -1.169  -5.147   0.942  0.00  0.00     0.003 A 
ATOM      7  I   UNL d   1      -0.939  -0.992  -0.288  0.00  0.00    -0.146 I 
ENDROOT
TORSDOF 0
ENDMDL
