MODEL 1
REMARK minimizedAffinity 11.9834909
REMARK minimizedRMSD -1
REMARK  0 active torsions:
REMARK  status: ('A' for Active; 'I' for Inactive)
ROOT
ATOM      1  C   UNL d   1       1.213   3.677   1.640  0.00  0.00     0.023 A 
ATOM      2  C1  UNL d   1      -0.137   3.337   1.736  0.00  0.00     0.003 A 
ATOM      3  C2  UNL d   1      -0.590   2.121   1.220  0.00  0.00     0.048 A 
ATOM      4  C3  UNL d   1       0.312   1.249   0.611  0.00  0.00     0.023 A 
ATOM      5  C4  UNL d   1       1.664   1.585   0.514  0.00  0.00     0.048 A 
ATOM      6  C5  UNL d   1       2.112   2.802   1.030  0.00  0.00     0.003 A 
ATOM      7  I   UNL d   1      -0.360  -0.562  -0.157  0.00  0.00    -0.146 I 
ENDROOT
TORSDOF 0
ENDMDL
