MODEL 1
REMARK minimizedAffinity 11.6622105
REMARK minimizedRMSD -1
REMARK  0 active torsions:
REMARK  status: ('A' for Active; 'I' for Inactive)
ROOT
ATOM      1  C   UNL d   1       6.000   1.907  -4.079  0.00  0.00     0.023 A 
ATOM      2  C1  UNL d   1       4.854   1.896  -3.283  0.00  0.00     0.003 A 
ATOM      3  C2  UNL d   1       3.617   2.237  -3.832  0.00  0.00     0.048 A 
ATOM      4  C3  UNL d   1       3.532   2.588  -5.179  0.00  0.00     0.023 A 
ATOM      5  C4  UNL d   1       4.675   2.600  -5.980  0.00  0.00     0.048 A 
ATOM      6  C5  UNL d   1       5.910   2.259  -5.426  0.00  0.00     0.003 A 
ATOM      7  I   UNL d   1       1.691   3.097  -6.000  0.00  0.00    -0.146 I 
ENDROOT
TORSDOF 0
ENDMDL
