MODEL 1
REMARK minimizedAffinity 4.45967817
REMARK minimizedRMSD -1
REMARK  0 active torsions:
REMARK  status: ('A' for Active; 'I' for Inactive)
ROOT
ATOM      1  C   UNL d   1       2.859  -6.000   3.058  0.00  0.00     0.023 A 
ATOM      2  C1  UNL d   1       2.857  -4.827   3.813  0.00  0.00     0.003 A 
ATOM      3  C2  UNL d   1       2.329  -3.651   3.276  0.00  0.00     0.048 A 
ATOM      4  C3  UNL d   1       1.804  -3.655   1.984  0.00  0.00     0.023 A 
ATOM      5  C4  UNL d   1       1.804  -4.827   1.226  0.00  0.00     0.048 A 
ATOM      6  C5  UNL d   1       2.333  -6.000   1.766  0.00  0.00     0.003 A 
ATOM      7  I   UNL d   1       1.018  -1.906   1.183  0.00  0.00    -0.146 I 
ENDROOT
TORSDOF 0
ENDMDL
