MODEL 1
REMARK minimizedAffinity -2.02150416
REMARK minimizedRMSD -1
REMARK  0 active torsions:
REMARK  status: ('A' for Active; 'I' for Inactive)
ROOT
ATOM      1  C   UNL d   1      -2.636  -3.882  -0.184  0.00  0.00     0.023 A 
ATOM      2  C1  UNL d   1      -1.299  -4.281  -0.181  0.00  0.00     0.003 A 
ATOM      3  C2  UNL d   1      -0.284  -3.327  -0.270  0.00  0.00     0.048 A 
ATOM      4  C3  UNL d   1      -0.612  -1.974  -0.359  0.00  0.00     0.023 A 
ATOM      5  C4  UNL d   1      -1.949  -1.570  -0.362  0.00  0.00     0.048 A 
ATOM      6  C5  UNL d   1      -2.960  -2.528  -0.274  0.00  0.00     0.003 A 
ATOM      7  I   UNL d   1       0.897  -0.552  -0.491  0.00  0.00    -0.146 I 
ENDROOT
TORSDOF 0
ENDMDL
