MODEL 1
REMARK minimizedAffinity 2.44044852
REMARK minimizedRMSD -1
REMARK  0 active torsions:
REMARK  status: ('A' for Active; 'I' for Inactive)
ROOT
ATOM      1  C   UNL d   1       2.378  -0.992  -1.199  0.00  0.00     0.023 A 
ATOM      2  C1  UNL d   1       3.195   0.088  -0.864  0.00  0.00     0.003 A 
ATOM      3  C2  UNL d   1       2.711   1.100  -0.032  0.00  0.00     0.048 A 
ATOM      4  C3  UNL d   1       1.410   1.025   0.463  0.00  0.00     0.023 A 
ATOM      5  C4  UNL d   1       0.589  -0.054   0.131  0.00  0.00     0.048 A 
ATOM      6  C5  UNL d   1       1.076  -1.063  -0.702  0.00  0.00     0.003 A 
ATOM      7  I   UNL d   1       0.687   2.529   1.701  0.00  0.00    -0.146 I 
ENDROOT
TORSDOF 0
ENDMDL
