MODEL 1
REMARK minimizedAffinity 7.12652111
REMARK minimizedRMSD -1
REMARK  0 active torsions:
REMARK  status: ('A' for Active; 'I' for Inactive)
ROOT
ATOM      1  C   UNL d   1       5.038  -4.797   3.732  0.00  0.00     0.023 A 
ATOM      2  C1  UNL d   1       4.968  -5.653   2.633  0.00  0.00     0.003 A 
ATOM      3  C2  UNL d   1       3.727  -5.999   2.094  0.00  0.00     0.048 A 
ATOM      4  C3  UNL d   1       2.560  -5.485   2.659  0.00  0.00     0.023 A 
ATOM      5  C4  UNL d   1       2.626  -4.628   3.759  0.00  0.00     0.048 A 
ATOM      6  C5  UNL d   1       3.868  -4.285   4.294  0.00  0.00     0.003 A 
ATOM      7  I   UNL d   1       0.712  -5.999   1.859  0.00  0.00    -0.146 I 
ENDROOT
TORSDOF 0
ENDMDL
