MODEL 1
REMARK minimizedAffinity 5.11918879
REMARK minimizedRMSD -1
REMARK  0 active torsions:
REMARK  status: ('A' for Active; 'I' for Inactive)
ROOT
ATOM      1  C   UNL d   1       5.224   5.226  -2.349  0.00  0.00     0.023 A 
ATOM      2  C1  UNL d   1       5.790   3.960  -2.498  0.00  0.00     0.003 A 
ATOM      3  C2  UNL d   1       5.181   2.849  -1.912  0.00  0.00     0.048 A 
ATOM      4  C3  UNL d   1       4.006   3.010  -1.179  0.00  0.00     0.023 A 
ATOM      5  C4  UNL d   1       3.435   4.275  -1.028  0.00  0.00     0.048 A 
ATOM      6  C5  UNL d   1       4.048   5.384  -1.615  0.00  0.00     0.003 A 
ATOM      7  I   UNL d   1       3.098   1.357  -0.306  0.00  0.00    -0.146 I 
ENDROOT
TORSDOF 0
ENDMDL
