MODEL 1
REMARK minimizedAffinity 14.6819496
REMARK minimizedRMSD -1
REMARK  0 active torsions:
REMARK  status: ('A' for Active; 'I' for Inactive)
ROOT
ATOM      1  C   UNL d   1       5.991   1.578  -4.066  0.00  0.00     0.023 A 
ATOM      2  C1  UNL d   1       6.000   1.889  -5.426  0.00  0.00     0.003 A 
ATOM      3  C2  UNL d   1       4.953   2.627  -5.982  0.00  0.00     0.048 A 
ATOM      4  C3  UNL d   1       3.900   3.051  -5.172  0.00  0.00     0.023 A 
ATOM      5  C4  UNL d   1       3.886   2.743  -3.811  0.00  0.00     0.048 A 
ATOM      6  C5  UNL d   1       4.935   2.004  -3.260  0.00  0.00     0.003 A 
ATOM      7  I   UNL d   1       2.340   4.149  -5.998  0.00  0.00    -0.146 I 
ENDROOT
TORSDOF 0
ENDMDL
