MODEL 1
REMARK minimizedAffinity 7.21703291
REMARK minimizedRMSD -1
REMARK  1 active torsions:
REMARK  status: ('A' for Active; 'I' for Inactive)
REMARK    1  A    between atoms: C1_2  and  C2_3 
ROOT
ATOM      1  C2  UNL d   1      -3.106   1.824   2.327  0.00  0.00    -0.077 A 
ATOM      2  C3  UNL d   1      -3.395   0.739   3.166  0.00  0.00     0.002 A 
ATOM      3  C4  UNL d   1      -2.614  -0.418   3.119  0.00  0.00     0.002 A 
ATOM      4  C5  UNL d   1      -1.537  -0.498   2.239  0.00  0.00    -0.004 A 
ATOM      5  C6  UNL d   1      -1.243   0.575   1.399  0.00  0.00     0.002 A 
ATOM      6  C7  UNL d   1      -2.023   1.731   1.443  0.00  0.00     0.002 A 
ENDROOT
BRANCH   1   7
ATOM      7  C1  UNL d   1      -3.916   3.091   2.410  0.00  0.00     0.055 C 
ATOM      8  C   UNL d   1      -4.879   3.056   3.589  0.00  0.00     0.019 C 
ENDBRANCH   1   7
TORSDOF 1
ENDMDL
