MODEL 1
REMARK minimizedAffinity 15.3708334
REMARK minimizedRMSD -1
REMARK  1 active torsions:
REMARK  status: ('A' for Active; 'I' for Inactive)
REMARK    1  A    between atoms: C1_2  and  C2_3 
ROOT
ATOM      1  C2  UNL d   1      -1.018  -1.326   2.035  0.00  0.00    -0.077 A 
ATOM      2  C3  UNL d   1      -0.609  -1.975   0.862  0.00  0.00     0.002 A 
ATOM      3  C4  UNL d   1       0.143  -3.150   0.930  0.00  0.00     0.002 A 
ATOM      4  C5  UNL d   1       0.489  -3.687   2.169  0.00  0.00    -0.004 A 
ATOM      5  C6  UNL d   1       0.088  -3.047   3.341  0.00  0.00     0.002 A 
ATOM      6  C7  UNL d   1      -0.662  -1.873   3.275  0.00  0.00     0.002 A 
ENDROOT
BRANCH   1   7
ATOM      7  C1  UNL d   1      -1.871  -0.086   1.964  0.00  0.00     0.055 C 
ATOM      8  C   UNL d   1      -3.237  -0.317   2.595  0.00  0.00     0.019 C 
ENDBRANCH   1   7
TORSDOF 1
ENDMDL
