MODEL 1
REMARK minimizedAffinity 9.69663811
REMARK minimizedRMSD -1
REMARK  1 active torsions:
REMARK  status: ('A' for Active; 'I' for Inactive)
REMARK    1  A    between atoms: C1_2  and  C2_3 
ROOT
ATOM      1  C2  UNL d   1      -0.386  -1.930  -5.242  0.00  0.00    -0.077 A 
ATOM      2  C3  UNL d   1      -0.399  -0.598  -5.677  0.00  0.00     0.002 A 
ATOM      3  C4  UNL d   1       0.342   0.373  -5.000  0.00  0.00     0.002 A 
ATOM      4  C5  UNL d   1       1.105   0.020  -3.889  0.00  0.00    -0.004 A 
ATOM      5  C6  UNL d   1       1.123  -1.302  -3.447  0.00  0.00     0.002 A 
ATOM      6  C7  UNL d   1       0.381  -2.273  -4.122  0.00  0.00     0.002 A 
ENDROOT
BRANCH   1   7
ATOM      7  C1  UNL d   1      -1.146  -2.988  -6.000  0.00  0.00     0.055 C 
ATOM      8  C   UNL d   1      -2.641  -2.703  -5.999  0.00  0.00     0.019 C 
ENDBRANCH   1   7
TORSDOF 1
ENDMDL
