MODEL 1
REMARK minimizedAffinity 10.5005426
REMARK minimizedRMSD -1
REMARK  1 active torsions:
REMARK  status: ('A' for Active; 'I' for Inactive)
REMARK    1  A    between atoms: C1_2  and  C2_3 
ROOT
ATOM      1  C2  UNL d   1       0.004  -2.094  -5.437  0.00  0.00    -0.077 A 
ATOM      2  C3  UNL d   1      -0.601  -0.906  -5.871  0.00  0.00     0.002 A 
ATOM      3  C4  UNL d   1      -0.161   0.327  -5.388  0.00  0.00     0.002 A 
ATOM      4  C5  UNL d   1       0.888   0.385  -4.472  0.00  0.00    -0.004 A 
ATOM      5  C6  UNL d   1       1.494  -0.791  -4.033  0.00  0.00     0.002 A 
ATOM      6  C7  UNL d   1       1.055  -2.025  -4.514  0.00  0.00     0.002 A 
ENDROOT
BRANCH   1   7
ATOM      7  C1  UNL d   1      -0.437  -3.423  -5.995  0.00  0.00     0.055 C 
ATOM      8  C   UNL d   1      -1.953  -3.546  -6.000  0.00  0.00     0.019 C 
ENDBRANCH   1   7
TORSDOF 1
ENDMDL
