MODEL 1
REMARK minimizedAffinity 7.43379593
REMARK minimizedRMSD -1
REMARK  1 active torsions:
REMARK  status: ('A' for Active; 'I' for Inactive)
REMARK    1  A    between atoms: C1_2  and  C2_3 
ROOT
ATOM      1  C2  UNL d   1       4.262   4.486  -4.698  0.00  0.00    -0.077 A 
ATOM      2  C3  UNL d   1       3.780   5.394  -3.745  0.00  0.00     0.002 A 
ATOM      3  C4  UNL d   1       2.493   5.922  -3.861  0.00  0.00     0.002 A 
ATOM      4  C5  UNL d   1       1.677   5.545  -4.925  0.00  0.00    -0.004 A 
ATOM      5  C6  UNL d   1       2.148   4.644  -5.879  0.00  0.00     0.002 A 
ATOM      6  C7  UNL d   1       3.435   4.116  -5.766  0.00  0.00     0.002 A 
ENDROOT
BRANCH   1   7
ATOM      7  C1  UNL d   1       5.632   3.877  -4.547  0.00  0.00     0.055 C 
ATOM      8  C   UNL d   1       6.000   3.034  -5.760  0.00  0.00     0.019 C 
ENDBRANCH   1   7
TORSDOF 1
ENDMDL
