MODEL 1
REMARK minimizedAffinity 9.56949615
REMARK minimizedRMSD -1
REMARK  1 active torsions:
REMARK  status: ('A' for Active; 'I' for Inactive)
REMARK    1  A    between atoms: C1_2  and  C2_3 
ROOT
ATOM      1  C2  UNL d   1      -1.943  -1.174   2.613  0.00  0.00    -0.077 A 
ATOM      2  C3  UNL d   1      -2.751  -1.706   1.598  0.00  0.00     0.002 A 
ATOM      3  C4  UNL d   1      -3.017  -0.964   0.445  0.00  0.00     0.002 A 
ATOM      4  C5  UNL d   1      -2.476   0.311   0.295  0.00  0.00    -0.004 A 
ATOM      5  C6  UNL d   1      -1.673   0.850   1.300  0.00  0.00     0.002 A 
ATOM      6  C7  UNL d   1      -1.407   0.110   2.453  0.00  0.00     0.002 A 
ENDROOT
BRANCH   1   7
ATOM      7  C1  UNL d   1      -1.614  -1.991   3.835  0.00  0.00     0.055 C 
ATOM      8  C   UNL d   1      -2.768  -1.993   4.826  0.00  0.00     0.019 C 
ENDBRANCH   1   7
TORSDOF 1
ENDMDL
