MODEL 1
REMARK minimizedAffinity 3.84347463
REMARK minimizedRMSD -1
REMARK  1 active torsions:
REMARK  status: ('A' for Active; 'I' for Inactive)
REMARK    1  A    between atoms: C1_2  and  C2_3 
ROOT
ATOM      1  C2  UNL d   1       3.453   2.330  -5.125  0.00  0.00    -0.077 A 
ATOM      2  C3  UNL d   1       4.044   3.582  -5.342  0.00  0.00     0.002 A 
ATOM      3  C4  UNL d   1       3.747   4.658  -4.502  0.00  0.00     0.002 A 
ATOM      4  C5  UNL d   1       2.863   4.491  -3.439  0.00  0.00    -0.004 A 
ATOM      5  C6  UNL d   1       2.268   3.249  -3.217  0.00  0.00     0.002 A 
ATOM      6  C7  UNL d   1       2.562   2.173  -4.055  0.00  0.00     0.002 A 
ENDROOT
BRANCH   1   7
ATOM      7  C1  UNL d   1       3.809   1.156  -6.000  0.00  0.00     0.055 C 
ATOM      8  C   UNL d   1       3.006  -0.080  -5.622  0.00  0.00     0.019 C 
ENDBRANCH   1   7
TORSDOF 1
ENDMDL
