MODEL 1
REMARK minimizedAffinity 8.87689781
REMARK minimizedRMSD -1
REMARK  1 active torsions:
REMARK  status: ('A' for Active; 'I' for Inactive)
REMARK    1  A    between atoms: C1_2  and  C2_3 
ROOT
ATOM      1  C2  UNL d   1      -4.066  -3.850  -0.191  0.00  0.00    -0.077 A 
ATOM      2  C3  UNL d   1      -2.790  -3.662   0.359  0.00  0.00     0.002 A 
ATOM      3  C4  UNL d   1      -2.455  -2.452   0.970  0.00  0.00     0.002 A 
ATOM      4  C5  UNL d   1      -3.391  -1.422   1.040  0.00  0.00    -0.004 A 
ATOM      5  C6  UNL d   1      -4.662  -1.598   0.494  0.00  0.00     0.002 A 
ATOM      6  C7  UNL d   1      -4.998  -2.807  -0.118  0.00  0.00     0.002 A 
ENDROOT
BRANCH   1   7
ATOM      7  C1  UNL d   1      -4.445  -5.171  -0.806  0.00  0.00     0.055 C 
ATOM      8  C   UNL d   1      -5.306  -5.996   0.140  0.00  0.00     0.019 C 
ENDBRANCH   1   7
TORSDOF 1
ENDMDL
