MODEL 1
REMARK minimizedAffinity 8.88066387
REMARK minimizedRMSD -1
REMARK  1 active torsions:
REMARK  status: ('A' for Active; 'I' for Inactive)
REMARK    1  A    between atoms: C1_2  and  C2_3 
ROOT
ATOM      1  C2  UNL d   1       3.662   1.989  -4.868  0.00  0.00    -0.077 A 
ATOM      2  C3  UNL d   1       3.278   0.756  -5.415  0.00  0.00     0.002 A 
ATOM      3  C4  UNL d   1       2.685  -0.219  -4.611  0.00  0.00     0.002 A 
ATOM      4  C5  UNL d   1       2.467   0.030  -3.258  0.00  0.00    -0.004 A 
ATOM      5  C6  UNL d   1       2.847   1.251  -2.704  0.00  0.00     0.002 A 
ATOM      6  C7  UNL d   1       3.441   2.227  -3.506  0.00  0.00     0.002 A 
ENDROOT
BRANCH   1   7
ATOM      7  C1  UNL d   1       4.257   3.060  -5.744  0.00  0.00     0.055 C 
ATOM      8  C   UNL d   1       5.753   3.202  -5.506  0.00  0.00     0.019 C 
ENDBRANCH   1   7
TORSDOF 1
ENDMDL
