MODEL 1
REMARK minimizedAffinity 5.57306623
REMARK minimizedRMSD -1
REMARK  1 active torsions:
REMARK  status: ('A' for Active; 'I' for Inactive)
REMARK    1  A    between atoms: C1_2  and  C2_3 
ROOT
ATOM      1  C2  UNL d   1      -5.242   3.974   3.360  0.00  0.00    -0.077 A 
ATOM      2  C3  UNL d   1      -5.612   5.275   3.729  0.00  0.00     0.002 A 
ATOM      3  C4  UNL d   1      -5.990   5.556   5.043  0.00  0.00     0.002 A 
ATOM      4  C5  UNL d   1      -6.000   4.543   5.999  0.00  0.00    -0.004 A 
ATOM      5  C6  UNL d   1      -5.636   3.245   5.642  0.00  0.00     0.002 A 
ATOM      6  C7  UNL d   1      -5.258   2.962   4.329  0.00  0.00     0.002 A 
ENDROOT
BRANCH   1   7
ATOM      7  C1  UNL d   1      -4.786   3.679   1.955  0.00  0.00     0.055 C 
ATOM      8  C   UNL d   1      -3.301   3.351   1.913  0.00  0.00     0.019 C 
ENDBRANCH   1   7
TORSDOF 1
ENDMDL
