MODEL 1
REMARK minimizedAffinity 2.96894717
REMARK minimizedRMSD -1
REMARK  0 active torsions:
REMARK  status: ('A' for Active; 'I' for Inactive)
ROOT
ATOM      1  O1  BZF d   1       1.835  -0.412   1.342  0.00  0.00    -0.204 OA
ATOM      2  C2  BZF d   1       1.680  -0.778   0.018  0.00  0.00     0.174 A 
ATOM      3  C3  BZF d   1       0.598  -0.179  -0.520  0.00  0.00    -0.012 A 
ATOM      4  C3A BZF d   1       0.094   0.681   0.507  0.00  0.00    -0.107 A 
ATOM      5  C4  BZF d   1      -0.957   1.550   0.572  0.00  0.00     0.055 A 
ATOM      6  C5  BZF d   1      -1.220   2.183   1.745  0.00  0.00    -0.016 A 
ATOM      7  C6  BZF d   1      -0.456   1.967   2.874  0.00  0.00     0.022 A 
ATOM      8  C7  BZF d   1       0.600   1.118   2.857  0.00  0.00     0.029 A 
ATOM      9  C7A BZF d   1       0.888   0.502   1.663  0.00  0.00     0.058 A 
ENDROOT
TORSDOF 0
ENDMDL
