MODEL 1
REMARK minimizedAffinity 4.27323771
REMARK minimizedRMSD -1
REMARK  0 active torsions:
REMARK  status: ('A' for Active; 'I' for Inactive)
ROOT
ATOM      1  O1  BZF d   1       0.700   4.660  -0.996  0.00  0.00    -0.204 OA
ATOM      2  C2  BZF d   1       0.385   5.897  -0.468  0.00  0.00     0.174 A 
ATOM      3  C3  BZF d   1      -0.679   5.809   0.356  0.00  0.00    -0.012 A 
ATOM      4  C3A BZF d   1      -0.994   4.414   0.415  0.00  0.00    -0.107 A 
ATOM      5  C4  BZF d   1      -1.943   3.694   1.082  0.00  0.00     0.055 A 
ATOM      6  C5  BZF d   1      -2.029   2.355   0.866  0.00  0.00    -0.016 A 
ATOM      7  C6  BZF d   1      -1.187   1.706  -0.013  0.00  0.00     0.022 A 
ATOM      8  C7  BZF d   1      -0.227   2.377  -0.694  0.00  0.00     0.029 A 
ATOM      9  C7A BZF d   1      -0.116   3.725  -0.453  0.00  0.00     0.058 A 
ENDROOT
TORSDOF 0
ENDMDL
