MODEL 1
REMARK minimizedAffinity 2.5702219
REMARK minimizedRMSD -1
REMARK  0 active torsions:
REMARK  status: ('A' for Active; 'I' for Inactive)
ROOT
ATOM      1  O1  BZF d   1       1.724  -2.491  -0.809  0.00  0.00    -0.204 OA
ATOM      2  C2  BZF d   1       2.762  -1.949  -0.075  0.00  0.00     0.174 A 
ATOM      3  C3  BZF d   1       2.683  -0.603  -0.056  0.00  0.00    -0.012 A 
ATOM      4  C3A BZF d   1       1.471  -0.287  -0.749  0.00  0.00    -0.107 A 
ATOM      5  C4  BZF d   1       0.837   0.886  -1.046  0.00  0.00     0.055 A 
ATOM      6  C5  BZF d   1      -0.292   0.853  -1.800  0.00  0.00    -0.016 A 
ATOM      7  C6  BZF d   1      -0.812  -0.332  -2.278  0.00  0.00     0.022 A 
ATOM      8  C7  BZF d   1      -0.222  -1.521  -2.006  0.00  0.00     0.029 A 
ATOM      9  C7A BZF d   1       0.902  -1.494  -1.216  0.00  0.00     0.058 A 
ENDROOT
TORSDOF 0
ENDMDL
