MODEL 1
REMARK minimizedAffinity 12.6492052
REMARK minimizedRMSD -1
REMARK  0 active torsions:
REMARK  status: ('A' for Active; 'I' for Inactive)
ROOT
ATOM      1  O1  BZF d   1      -2.804   2.752   1.475  0.00  0.00    -0.204 OA
ATOM      2  C2  BZF d   1      -2.083   3.612   0.670  0.00  0.00     0.174 A 
ATOM      3  C3  BZF d   1      -0.760   3.383   0.789  0.00  0.00    -0.012 A 
ATOM      4  C3A BZF d   1      -0.651   2.251   1.657  0.00  0.00    -0.107 A 
ATOM      5  C4  BZF d   1       0.409   1.539   2.142  0.00  0.00     0.055 A 
ATOM      6  C5  BZF d   1       0.179   0.534   3.028  0.00  0.00    -0.016 A 
ATOM      7  C6  BZF d   1      -1.095   0.218   3.453  0.00  0.00     0.022 A 
ATOM      8  C7  BZF d   1      -2.178   0.894   2.996  0.00  0.00     0.029 A 
ATOM      9  C7A BZF d   1      -1.951   1.888   2.076  0.00  0.00     0.058 A 
ENDROOT
TORSDOF 0
ENDMDL
