MODEL 1
REMARK minimizedAffinity 13.5317354
REMARK minimizedRMSD -1
REMARK  0 active torsions:
REMARK  status: ('A' for Active; 'I' for Inactive)
ROOT
ATOM      1  O1  BZF d   1       2.120   0.343   1.477  0.00  0.00    -0.204 OA
ATOM      2  C2  BZF d   1       2.135   0.802   2.780  0.00  0.00     0.174 A 
ATOM      3  C3  BZF d   1       1.134   1.681   2.989  0.00  0.00    -0.012 A 
ATOM      4  C3A BZF d   1       0.395   1.707   1.765  0.00  0.00    -0.107 A 
ATOM      5  C4  BZF d   1      -0.723   2.379   1.357  0.00  0.00     0.055 A 
ATOM      6  C5  BZF d   1      -1.146   2.238   0.073  0.00  0.00    -0.016 A 
ATOM      7  C6  BZF d   1      -0.474   1.439  -0.829  0.00  0.00     0.022 A 
ATOM      8  C7  BZF d   1       0.635   0.749  -0.470  0.00  0.00     0.029 A 
ATOM      9  C7A BZF d   1       1.047   0.864   0.836  0.00  0.00     0.058 A 
ENDROOT
TORSDOF 0
ENDMDL
