MODEL 1
REMARK minimizedAffinity 8.9130373
REMARK minimizedRMSD -1
REMARK  0 active torsions:
REMARK  status: ('A' for Active; 'I' for Inactive)
ROOT
ATOM      1  O1  BZF d   1      -0.716   1.961   0.100  0.00  0.00    -0.204 OA
ATOM      2  C2  BZF d   1      -1.322   2.339   1.283  0.00  0.00     0.174 A 
ATOM      3  C3  BZF d   1      -0.701   1.777   2.340  0.00  0.00    -0.012 A 
ATOM      4  C3A BZF d   1       0.417   1.074   1.789  0.00  0.00    -0.107 A 
ATOM      5  C4  BZF d   1       1.421   0.329   2.339  0.00  0.00     0.055 A 
ATOM      6  C5  BZF d   1       2.315  -0.283   1.518  0.00  0.00    -0.016 A 
ATOM      7  C6  BZF d   1       2.231  -0.176   0.145  0.00  0.00     0.022 A 
ATOM      8  C7  BZF d   1       1.255   0.556  -0.446  0.00  0.00     0.029 A 
ATOM      9  C7A BZF d   1       0.370   1.202   0.382  0.00  0.00     0.058 A 
ENDROOT
TORSDOF 0
ENDMDL
