MODEL 1
REMARK minimizedAffinity 6.18925142
REMARK minimizedRMSD -1
REMARK  0 active torsions:
REMARK  status: ('A' for Active; 'I' for Inactive)
ROOT
ATOM      1  O1  BZF d   1       0.752   3.921   0.013  0.00  0.00    -0.204 OA
ATOM      2  C2  BZF d   1      -0.026   3.707  -1.108  0.00  0.00     0.174 A 
ATOM      3  C3  BZF d   1      -1.116   2.974  -0.802  0.00  0.00    -0.012 A 
ATOM      4  C3A BZF d   1      -1.060   2.792   0.616  0.00  0.00    -0.107 A 
ATOM      5  C4  BZF d   1      -1.872   2.161   1.515  0.00  0.00     0.055 A 
ATOM      6  C5  BZF d   1      -1.495   2.103   2.819  0.00  0.00    -0.016 A 
ATOM      7  C6  BZF d   1      -0.312   2.661   3.258  0.00  0.00     0.022 A 
ATOM      8  C7  BZF d   1       0.523   3.302   2.406  0.00  0.00     0.029 A 
ATOM      9  C7A BZF d   1       0.130   3.391   1.093  0.00  0.00     0.058 A 
ENDROOT
TORSDOF 0
ENDMDL
