MODEL 1
REMARK minimizedAffinity 7.80055046
REMARK minimizedRMSD -1
REMARK  0 active torsions:
REMARK  status: ('A' for Active; 'I' for Inactive)
ROOT
ATOM      1  O1  BZF d   1       2.797  -5.156  -0.895  0.00  0.00    -0.204 OA
ATOM      2  C2  BZF d   1       1.468  -4.788  -0.976  0.00  0.00     0.174 A 
ATOM      3  C3  BZF d   1       1.277  -3.563  -0.444  0.00  0.00    -0.012 A 
ATOM      4  C3A BZF d   1       2.583  -3.100  -0.087  0.00  0.00    -0.107 A 
ATOM      5  C4  BZF d   1       3.049  -1.945   0.471  0.00  0.00     0.055 A 
ATOM      6  C5  BZF d   1       4.373  -1.837   0.758  0.00  0.00    -0.016 A 
ATOM      7  C6  BZF d   1       5.257  -2.866   0.505  0.00  0.00     0.022 A 
ATOM      8  C7  BZF d   1       4.842  -4.029  -0.053  0.00  0.00     0.029 A 
ATOM      9  C7A BZF d   1       3.511  -4.128  -0.374  0.00  0.00     0.058 A 
ENDROOT
TORSDOF 0
ENDMDL
