MODEL 1
REMARK minimizedAffinity 2.82516313
REMARK minimizedRMSD -1
REMARK  0 active torsions:
REMARK  status: ('A' for Active; 'I' for Inactive)
ROOT
ATOM      1  O1  BZF d   1      -2.624   0.797   2.809  0.00  0.00    -0.204 OA
ATOM      2  C2  BZF d   1      -1.460   0.186   3.234  0.00  0.00     0.174 A 
ATOM      3  C3  BZF d   1      -0.400   0.631   2.530  0.00  0.00    -0.012 A 
ATOM      4  C3A BZF d   1      -0.921   1.648   1.669  0.00  0.00    -0.107 A 
ATOM      5  C4  BZF d   1      -0.354   2.473   0.740  0.00  0.00     0.055 A 
ATOM      6  C5  BZF d   1      -1.152   3.303   0.018  0.00  0.00    -0.016 A 
ATOM      7  C6  BZF d   1      -2.520   3.331   0.196  0.00  0.00     0.022 A 
ATOM      8  C7  BZF d   1      -3.127   2.535   1.109  0.00  0.00     0.029 A 
ATOM      9  C7A BZF d   1      -2.320   1.718   1.863  0.00  0.00     0.058 A 
ENDROOT
TORSDOF 0
ENDMDL
