MODEL 1
REMARK minimizedAffinity 6.30604887
REMARK minimizedRMSD -1
REMARK  0 active torsions:
REMARK  status: ('A' for Active; 'I' for Inactive)
ROOT
ATOM      1  O1  BZF d   1       1.315   2.637  -2.153  0.00  0.00    -0.204 OA
ATOM      2  C2  BZF d   1       1.309   1.259  -2.252  0.00  0.00     0.174 A 
ATOM      3  C3  BZF d   1       0.615   0.709  -1.235  0.00  0.00    -0.012 A 
ATOM      4  C3A BZF d   1       0.080   1.816  -0.502  0.00  0.00    -0.107 A 
ATOM      5  C4  BZF d   1      -0.711   1.913   0.607  0.00  0.00     0.055 A 
ATOM      6  C5  BZF d   1      -0.992   3.144   1.111  0.00  0.00    -0.016 A 
ATOM      7  C6  BZF d   1      -0.496   4.295   0.535  0.00  0.00     0.022 A 
ATOM      8  C7  BZF d   1       0.288   4.249  -0.569  0.00  0.00     0.029 A 
ATOM      9  C7A BZF d   1       0.548   3.009  -1.100  0.00  0.00     0.058 A 
ENDROOT
TORSDOF 0
ENDMDL
