MODEL 1
REMARK minimizedAffinity 3.09351349
REMARK minimizedRMSD -1
REMARK  0 active torsions:
REMARK  status: ('A' for Active; 'I' for Inactive)
ROOT
ATOM      1  O1  BZF d   1      -3.872   1.243   2.130  0.00  0.00    -0.204 OA
ATOM      2  C2  BZF d   1      -3.097   0.222   2.646  0.00  0.00     0.174 A 
ATOM      3  C3  BZF d   1      -1.785   0.516   2.538  0.00  0.00    -0.012 A 
ATOM      4  C3A BZF d   1      -1.739   1.841   1.999  0.00  0.00    -0.107 A 
ATOM      5  C4  BZF d   1      -0.718   2.689   1.678  0.00  0.00     0.055 A 
ATOM      6  C5  BZF d   1      -1.009   3.885   1.103  0.00  0.00    -0.016 A 
ATOM      7  C6  BZF d   1      -2.307   4.262   0.829  0.00  0.00     0.022 A 
ATOM      8  C7  BZF d   1      -3.354   3.457   1.134  0.00  0.00     0.029 A 
ATOM      9  C7A BZF d   1      -3.065   2.261   1.746  0.00  0.00     0.058 A 
ENDROOT
TORSDOF 0
ENDMDL
