MODEL 1
REMARK minimizedAffinity 12.8078251
REMARK minimizedRMSD -1
REMARK  0 active torsions:
REMARK  status: ('A' for Active; 'I' for Inactive)
ROOT
ATOM      1  O1  BZF d   1      -2.551  -1.113  -2.668  0.00  0.00    -0.204 OA
ATOM      2  C2  BZF d   1      -3.569  -0.662  -1.850  0.00  0.00     0.174 A 
ATOM      3  C3  BZF d   1      -3.167   0.406  -1.131  0.00  0.00    -0.012 A 
ATOM      4  C3A BZF d   1      -1.843   0.694  -1.591  0.00  0.00    -0.107 A 
ATOM      5  C4  BZF d   1      -0.924   1.651  -1.269  0.00  0.00     0.055 A 
ATOM      6  C5  BZF d   1       0.303   1.611  -1.850  0.00  0.00    -0.016 A 
ATOM      7  C6  BZF d   1       0.647   0.626  -2.754  0.00  0.00     0.022 A 
ATOM      8  C7  BZF d   1      -0.233  -0.342  -3.109  0.00  0.00     0.029 A 
ATOM      9  C7A BZF d   1      -1.485  -0.285  -2.547  0.00  0.00     0.058 A 
ENDROOT
TORSDOF 0
ENDMDL
