MODEL 1
REMARK minimizedAffinity 8.5098505
REMARK minimizedRMSD -1
REMARK  0 active torsions:
REMARK  status: ('A' for Active; 'I' for Inactive)
ROOT
ATOM      1  O1  BZF d   1       0.922   1.295  -2.777  0.00  0.00    -0.204 OA
ATOM      2  C2  BZF d   1       0.800  -0.017  -2.362  0.00  0.00     0.174 A 
ATOM      3  C3  BZF d   1       0.272  -0.080  -1.123  0.00  0.00    -0.012 A 
ATOM      4  C3A BZF d   1      -0.035   1.273  -0.775  0.00  0.00    -0.107 A 
ATOM      5  C4  BZF d   1      -0.594   1.856   0.326  0.00  0.00     0.055 A 
ATOM      6  C5  BZF d   1      -0.687   3.211   0.380  0.00  0.00    -0.016 A 
ATOM      7  C6  BZF d   1      -0.227   4.012  -0.644  0.00  0.00     0.022 A 
ATOM      8  C7  BZF d   1       0.330   3.480  -1.759  0.00  0.00     0.029 A 
ATOM      9  C7A BZF d   1       0.396   2.109  -1.831  0.00  0.00     0.058 A 
ENDROOT
TORSDOF 0
ENDMDL
