MODEL 1
REMARK minimizedAffinity 8.03246498
REMARK minimizedRMSD -1
REMARK  0 active torsions:
REMARK  status: ('A' for Active; 'I' for Inactive)
ROOT
ATOM      1  O1  BZF d   1      -0.887   3.563   1.104  0.00  0.00    -0.204 OA
ATOM      2  C2  BZF d   1      -1.149   2.564   2.022  0.00  0.00     0.174 A 
ATOM      3  C3  BZF d   1      -0.919   1.349   1.484  0.00  0.00    -0.012 A 
ATOM      4  C3A BZF d   1      -0.399   1.608   0.176  0.00  0.00    -0.107 A 
ATOM      5  C4  BZF d   1       0.032   0.803  -0.839  0.00  0.00     0.055 A 
ATOM      6  C5  BZF d   1       0.410   1.369  -2.016  0.00  0.00    -0.016 A 
ATOM      7  C6  BZF d   1       0.365   2.734  -2.212  0.00  0.00     0.022 A 
ATOM      8  C7  BZF d   1      -0.051   3.573  -1.233  0.00  0.00     0.029 A 
ATOM      9  C7A BZF d   1      -0.403   3.007  -0.032  0.00  0.00     0.058 A 
ENDROOT
TORSDOF 0
ENDMDL
