MODEL 1
REMARK minimizedAffinity 12.4606752
REMARK minimizedRMSD -1
REMARK  0 active torsions:
REMARK  status: ('A' for Active; 'I' for Inactive)
ROOT
ATOM      1  O1  BZF d   1      -1.538   4.908   1.532  0.00  0.00    -0.204 OA
ATOM      2  C2  BZF d   1      -0.392   5.679   1.495  0.00  0.00     0.174 A 
ATOM      3  C3  BZF d   1       0.679   4.963   1.896  0.00  0.00    -0.012 A 
ATOM      4  C3A BZF d   1       0.185   3.638   2.115  0.00  0.00    -0.107 A 
ATOM      5  C4  BZF d   1       0.773   2.471   2.509  0.00  0.00     0.055 A 
ATOM      6  C5  BZF d   1      -0.002   1.371   2.697  0.00  0.00    -0.016 A 
ATOM      7  C6  BZF d   1      -1.368   1.404   2.505  0.00  0.00     0.022 A 
ATOM      8  C7  BZF d   1      -1.996   2.538   2.109  0.00  0.00     0.029 A 
ATOM      9  C7A BZF d   1      -1.210   3.643   1.887  0.00  0.00     0.058 A 
ENDROOT
TORSDOF 0
ENDMDL
