MODEL 1
REMARK minimizedAffinity 8.93214512
REMARK minimizedRMSD -1
REMARK  0 active torsions:
REMARK  status: ('A' for Active; 'I' for Inactive)
ROOT
ATOM      1  O1  BZF d   1      -2.758  -0.972  -2.332  0.00  0.00    -0.204 OA
ATOM      2  C2  BZF d   1      -3.741  -0.002  -2.338  0.00  0.00     0.174 A 
ATOM      3  C3  BZF d   1      -3.220   1.208  -2.047  0.00  0.00    -0.012 A 
ATOM      4  C3A BZF d   1      -1.809   0.994  -1.938  0.00  0.00    -0.107 A 
ATOM      5  C4  BZF d   1      -0.752   1.818  -1.680  0.00  0.00     0.055 A 
ATOM      6  C5  BZF d   1       0.492   1.282  -1.570  0.00  0.00    -0.016 A 
ATOM      7  C6  BZF d   1       0.714  -0.072  -1.707  0.00  0.00     0.022 A 
ATOM      8  C7  BZF d   1      -0.303  -0.929  -1.969  0.00  0.00     0.029 A 
ATOM      9  C7A BZF d   1      -1.557  -0.386  -2.113  0.00  0.00     0.058 A 
ENDROOT
TORSDOF 0
ENDMDL
