MODEL 1
REMARK minimizedAffinity 4.03471851
REMARK minimizedRMSD -1
REMARK  0 active torsions:
REMARK  status: ('A' for Active; 'I' for Inactive)
ROOT
ATOM      1  O1  BZF d   1       0.813   1.758  -1.039  0.00  0.00    -0.204 OA
ATOM      2  C2  BZF d   1       0.206   2.965  -0.752  0.00  0.00     0.174 A 
ATOM      3  C3  BZF d   1      -1.023   3.025  -1.304  0.00  0.00    -0.012 A 
ATOM      4  C3A BZF d   1      -1.232   1.741  -1.899  0.00  0.00    -0.107 A 
ATOM      5  C4  BZF d   1      -2.272   1.181  -2.585  0.00  0.00     0.055 A 
ATOM      6  C5  BZF d   1      -2.129  -0.070  -3.096  0.00  0.00    -0.016 A 
ATOM      7  C6  BZF d   1      -0.960  -0.787  -2.945  0.00  0.00     0.022 A 
ATOM      8  C7  BZF d   1       0.097  -0.275  -2.269  0.00  0.00     0.029 A 
ATOM      9  C7A BZF d   1      -0.056   0.975  -1.722  0.00  0.00     0.058 A 
ENDROOT
TORSDOF 0
ENDMDL
