MODEL 1
REMARK minimizedAffinity 11.4990339
REMARK minimizedRMSD -1
REMARK  0 active torsions:
REMARK  status: ('A' for Active; 'I' for Inactive)
ROOT
ATOM      1  O1  BZF d   1       3.399  -0.641   1.494  0.00  0.00    -0.204 OA
ATOM      2  C2  BZF d   1       2.022  -0.747   1.554  0.00  0.00     0.174 A 
ATOM      3  C3  BZF d   1       1.628  -2.012   1.304  0.00  0.00    -0.012 A 
ATOM      4  C3A BZF d   1       2.838  -2.762   1.163  0.00  0.00    -0.107 A 
ATOM      5  C4  BZF d   1       3.103  -4.080   0.920  0.00  0.00     0.055 A 
ATOM      6  C5  BZF d   1       4.393  -4.477   0.768  0.00  0.00    -0.016 A 
ATOM      7  C6  BZF d   1       5.442  -3.584   0.847  0.00  0.00     0.022 A 
ATOM      8  C7  BZF d   1       5.229  -2.268   1.091  0.00  0.00     0.029 A 
ATOM      9  C7A BZF d   1       3.928  -1.869   1.278  0.00  0.00     0.058 A 
ENDROOT
TORSDOF 0
ENDMDL
