MODEL 1
REMARK minimizedAffinity 2.58928084
REMARK minimizedRMSD -1
REMARK  0 active torsions:
REMARK  status: ('A' for Active; 'I' for Inactive)
ROOT
ATOM      1  O1  BZF d   1       0.161   3.368  -1.814  0.00  0.00    -0.204 OA
ATOM      2  C2  BZF d   1       0.272   1.997  -1.684  0.00  0.00     0.174 A 
ATOM      3  C3  BZF d   1      -0.529   1.543  -0.699  0.00  0.00    -0.012 A 
ATOM      4  C3A BZF d   1      -1.252   2.691  -0.242  0.00  0.00    -0.107 A 
ATOM      5  C4  BZF d   1      -2.211   2.878   0.712  0.00  0.00     0.055 A 
ATOM      6  C5  BZF d   1      -2.657   4.137   0.961  0.00  0.00    -0.016 A 
ATOM      7  C6  BZF d   1      -2.164   5.231   0.279  0.00  0.00     0.022 A 
ATOM      8  C7  BZF d   1      -1.216   5.094  -0.679  0.00  0.00     0.029 A 
ATOM      9  C7A BZF d   1      -0.786   3.819  -0.956  0.00  0.00     0.058 A 
ENDROOT
TORSDOF 0
ENDMDL
