MODEL 1
REMARK minimizedAffinity -0.538414657
REMARK minimizedRMSD -1
REMARK  2 active torsions:
REMARK  status: ('A' for Active; 'I' for Inactive)
REMARK    1  A    between atoms: C1_2  and  C2_3 
REMARK    2  A    between atoms: C2_3  and  C3_4 
ROOT
ATOM      1  C3  UNL d   1      -0.057  -1.079   0.792  0.00  0.00    -0.075 A 
ATOM      2  C4  UNL d   1       0.885  -1.206  -0.239  0.00  0.00     0.002 A 
ATOM      3  C5  UNL d   1       1.787  -2.271  -0.248  0.00  0.00     0.002 A 
ATOM      4  C6  UNL d   1       1.765  -3.214   0.777  0.00  0.00    -0.004 A 
ATOM      5  C7  UNL d   1       0.844  -3.089   1.815  0.00  0.00     0.002 A 
ATOM      6  C8  UNL d   1      -0.062  -2.027   1.824  0.00  0.00     0.002 A 
ENDROOT
BRANCH   1   7
ATOM      7  C2  UNL d   1      -1.054   0.055   0.792  0.00  0.00     0.056 C 
BRANCH   7   8
ATOM      8  C1  UNL d   1      -2.181  -0.106  -0.234  0.00  0.00     0.007 C 
ATOM      9  C   UNL d   1      -2.793   1.220  -0.666  0.00  0.00     0.009 C 
ENDBRANCH   7   8
ENDBRANCH   1   7
TORSDOF 2
ENDMDL
