MODEL 1
REMARK minimizedAffinity 1.34147322
REMARK minimizedRMSD -1
REMARK  2 active torsions:
REMARK  status: ('A' for Active; 'I' for Inactive)
REMARK    1  A    between atoms: C1_2  and  C2_3 
REMARK    2  A    between atoms: C2_3  and  C3_4 
ROOT
ATOM      1  C3  UNL d   1       1.302  -2.980   1.154  0.00  0.00    -0.075 A 
ATOM      2  C4  UNL d   1       0.866  -1.649   1.241  0.00  0.00     0.002 A 
ATOM      3  C5  UNL d   1      -0.263  -1.321   1.991  0.00  0.00     0.002 A 
ATOM      4  C6  UNL d   1      -0.976  -2.318   2.654  0.00  0.00    -0.004 A 
ATOM      5  C7  UNL d   1      -0.563  -3.645   2.561  0.00  0.00     0.002 A 
ATOM      6  C8  UNL d   1       0.570  -3.975   1.814  0.00  0.00     0.002 A 
ENDROOT
BRANCH   1   7
ATOM      7  C2  UNL d   1       2.540  -3.337   0.367  0.00  0.00     0.056 C 
BRANCH   7   8
ATOM      8  C1  UNL d   1       3.520  -4.241   1.124  0.00  0.00     0.007 C 
ATOM      9  C   UNL d   1       4.736  -4.633   0.296  0.00  0.00     0.009 C 
ENDBRANCH   7   8
ENDBRANCH   1   7
TORSDOF 2
ENDMDL
