MODEL 1
REMARK minimizedAffinity 2.18904185
REMARK minimizedRMSD -1
REMARK  2 active torsions:
REMARK  status: ('A' for Active; 'I' for Inactive)
REMARK    1  A    between atoms: C1_2  and  C2_3 
REMARK    2  A    between atoms: C2_3  and  C3_4 
ROOT
ATOM      1  C3  UNL d   1       0.545  -1.864   1.346  0.00  0.00    -0.075 A 
ATOM      2  C4  UNL d   1       1.048  -1.265   0.181  0.00  0.00     0.002 A 
ATOM      3  C5  UNL d   1       2.092  -1.861  -0.527  0.00  0.00     0.002 A 
ATOM      4  C6  UNL d   1       2.652  -3.054  -0.076  0.00  0.00    -0.004 A 
ATOM      5  C7  UNL d   1       2.171  -3.649   1.088  0.00  0.00     0.002 A 
ATOM      6  C8  UNL d   1       1.124  -3.058   1.797  0.00  0.00     0.002 A 
ENDROOT
BRANCH   1   7
ATOM      7  C2  UNL d   1      -0.604  -1.240   2.101  0.00  0.00     0.056 C 
BRANCH   7   8
ATOM      8  C1  UNL d   1      -1.126   0.060   1.479  0.00  0.00     0.007 C 
ATOM      9  C   UNL d   1      -2.313  -0.154   0.549  0.00  0.00     0.009 C 
ENDBRANCH   7   8
ENDBRANCH   1   7
TORSDOF 2
ENDMDL
