MODEL 1
REMARK minimizedAffinity 3.23536754
REMARK minimizedRMSD -1
REMARK  2 active torsions:
REMARK  status: ('A' for Active; 'I' for Inactive)
REMARK    1  A    between atoms: C1_2  and  C2_3 
REMARK    2  A    between atoms: C2_3  and  C3_4 
ROOT
ATOM      1  C3  UNL d   1      -4.832   2.248   3.879  0.00  0.00    -0.075 A 
ATOM      2  C4  UNL d   1      -3.866   3.253   4.029  0.00  0.00     0.002 A 
ATOM      3  C5  UNL d   1      -3.945   4.160   5.086  0.00  0.00     0.002 A 
ATOM      4  C6  UNL d   1      -4.994   4.079   6.000  0.00  0.00    -0.004 A 
ATOM      5  C7  UNL d   1      -5.968   3.094   5.851  0.00  0.00     0.002 A 
ATOM      6  C8  UNL d   1      -5.889   2.183   4.796  0.00  0.00     0.002 A 
ENDROOT
BRANCH   1   7
ATOM      7  C2  UNL d   1      -4.736   1.245   2.753  0.00  0.00     0.056 C 
BRANCH   7   8
ATOM      8  C1  UNL d   1      -5.998   1.155   1.889  0.00  0.00     0.007 C 
ATOM      9  C   UNL d   1      -5.884   0.132   0.766  0.00  0.00     0.009 C 
ENDBRANCH   7   8
ENDBRANCH   1   7
TORSDOF 2
ENDMDL
