MODEL 1
REMARK minimizedAffinity 1.91164815
REMARK minimizedRMSD -1
REMARK  2 active torsions:
REMARK  status: ('A' for Active; 'I' for Inactive)
REMARK    1  A    between atoms: C1_2  and  C2_3 
REMARK    2  A    between atoms: C2_3  and  C3_4 
ROOT
ATOM      1  C3  UNL d   1       2.279  -3.026   0.392  0.00  0.00    -0.075 A 
ATOM      2  C4  UNL d   1       2.541  -1.841  -0.309  0.00  0.00     0.002 A 
ATOM      3  C5  UNL d   1       1.796  -0.689  -0.057  0.00  0.00     0.002 A 
ATOM      4  C6  UNL d   1       0.774  -0.710   0.890  0.00  0.00    -0.004 A 
ATOM      5  C7  UNL d   1       0.493  -1.887   1.580  0.00  0.00     0.002 A 
ATOM      6  C8  UNL d   1       1.241  -3.040   1.333  0.00  0.00     0.002 A 
ENDROOT
BRANCH   1   7
ATOM      7  C2  UNL d   1       3.101  -4.268   0.145  0.00  0.00     0.056 C 
BRANCH   7   8
ATOM      8  C1  UNL d   1       4.293  -4.426   1.094  0.00  0.00     0.007 C 
ATOM      9  C   UNL d   1       5.360  -5.376   0.566  0.00  0.00     0.009 C 
ENDBRANCH   7   8
ENDBRANCH   1   7
TORSDOF 2
ENDMDL
