MODEL 1
REMARK minimizedAffinity -2.37567735
REMARK minimizedRMSD -1
REMARK  0 active torsions:
REMARK  status: ('A' for Active; 'I' for Inactive)
ROOT
ATOM      1  C1  BNZ d   1      -1.059   1.120   2.229  0.00  0.00     0.000 A 
ATOM      2  C2  BNZ d   1      -0.621   0.018   1.546  0.00  0.00     0.000 A 
ATOM      3  C3  BNZ d   1      -0.010   0.145   0.330  0.00  0.00     0.000 A 
ATOM      4  C4  BNZ d   1       0.127   1.370  -0.219  0.00  0.00     0.000 A 
ATOM      5  C5  BNZ d   1      -0.318   2.490   0.454  0.00  0.00     0.000 A 
ATOM      6  C6  BNZ d   1      -0.898   2.362   1.695  0.00  0.00     0.000 A 
ENDROOT
TORSDOF 0
ENDMDL
