MODEL 1
REMARK minimizedAffinity -3.0602479
REMARK minimizedRMSD -1
REMARK  0 active torsions:
REMARK  status: ('A' for Active; 'I' for Inactive)
ROOT
ATOM      1  C1  BNZ d   1      -1.393  -0.978   0.615  0.00  0.00     0.000 A 
ATOM      2  C2  BNZ d   1      -0.808  -1.441  -0.533  0.00  0.00     0.000 A 
ATOM      3  C3  BNZ d   1       0.486  -1.120  -0.838  0.00  0.00     0.000 A 
ATOM      4  C4  BNZ d   1       1.177  -0.304  -0.015  0.00  0.00     0.000 A 
ATOM      5  C5  BNZ d   1       0.598   0.178   1.141  0.00  0.00     0.000 A 
ATOM      6  C6  BNZ d   1      -0.691  -0.179   1.464  0.00  0.00     0.000 A 
ENDROOT
TORSDOF 0
ENDMDL
