MODEL 1
REMARK minimizedAffinity -2.5173986
REMARK minimizedRMSD -1
REMARK  0 active torsions:
REMARK  status: ('A' for Active; 'I' for Inactive)
ROOT
ATOM      1  C1  BNZ d   1       0.597   0.886  -0.229  0.00  0.00     0.000 A 
ATOM      2  C2  BNZ d   1       0.253  -0.257   0.442  0.00  0.00     0.000 A 
ATOM      3  C3  BNZ d   1      -0.603  -0.214   1.507  0.00  0.00     0.000 A 
ATOM      4  C4  BNZ d   1      -1.082   0.975   1.924  0.00  0.00     0.000 A 
ATOM      5  C5  BNZ d   1      -0.738   2.138   1.264  0.00  0.00     0.000 A 
ATOM      6  C6  BNZ d   1       0.093   2.086   0.169  0.00  0.00     0.000 A 
ENDROOT
TORSDOF 0
ENDMDL
