MODEL 1
REMARK minimizedAffinity -1.88679576
REMARK minimizedRMSD -1
REMARK  0 active torsions:
REMARK  status: ('A' for Active; 'I' for Inactive)
ROOT
ATOM      1  C1  BNZ d   1       0.727  -0.410   1.386  0.00  0.00     0.000 A 
ATOM      2  C2  BNZ d   1       1.137  -0.635   0.099  0.00  0.00     0.000 A 
ATOM      3  C3  BNZ d   1       0.250  -1.049  -0.856  0.00  0.00     0.000 A 
ATOM      4  C4  BNZ d   1      -1.035  -1.274  -0.514  0.00  0.00     0.000 A 
ATOM      5  C5  BNZ d   1      -1.461  -1.061   0.781  0.00  0.00     0.000 A 
ATOM      6  C6  BNZ d   1      -0.574  -0.608   1.731  0.00  0.00     0.000 A 
ENDROOT
TORSDOF 0
ENDMDL
