MODEL 1
REMARK minimizedAffinity -3.64468122
REMARK minimizedRMSD -1
REMARK  0 active torsions:
REMARK  status: ('A' for Active; 'I' for Inactive)
ROOT
ATOM      1  C1  BNZ d   1       0.324   1.249  -0.452  0.00  0.00     0.000 A 
ATOM      2  C2  BNZ d   1       0.023  -0.023  -0.044  0.00  0.00     0.000 A 
ATOM      3  C3  BNZ d   1      -0.654  -0.242   1.122  0.00  0.00     0.000 A 
ATOM      4  C4  BNZ d   1      -0.994   0.808   1.899  0.00  0.00     0.000 A 
ATOM      5  C5  BNZ d   1      -0.689   2.096   1.506  0.00  0.00     0.000 A 
ATOM      6  C6  BNZ d   1      -0.042   2.314   0.311  0.00  0.00     0.000 A 
ENDROOT
TORSDOF 0
ENDMDL
