MODEL 1
REMARK minimizedAffinity -0.841397643
REMARK minimizedRMSD -1
REMARK  0 active torsions:
REMARK  status: ('A' for Active; 'I' for Inactive)
ROOT
ATOM      1  C1  BNZ d   1       0.849  -3.670  -1.517  0.00  0.00     0.000 A 
ATOM      2  C2  BNZ d   1       0.894  -2.597  -0.667  0.00  0.00     0.000 A 
ATOM      3  C3  BNZ d   1       0.394  -1.383  -1.046  0.00  0.00     0.000 A 
ATOM      4  C4  BNZ d   1      -0.115  -1.233  -2.286  0.00  0.00     0.000 A 
ATOM      5  C5  BNZ d   1      -0.159  -2.303  -3.158  0.00  0.00     0.000 A 
ATOM      6  C6  BNZ d   1       0.311  -3.534  -2.759  0.00  0.00     0.000 A 
ENDROOT
TORSDOF 0
ENDMDL
