MODEL 1
REMARK minimizedAffinity -2.8076129
REMARK minimizedRMSD -1
REMARK  0 active torsions:
REMARK  status: ('A' for Active; 'I' for Inactive)
ROOT
ATOM      1  C1  BNZ d   1       1.875  -1.878  -1.175  0.00  0.00     0.000 A 
ATOM      2  C2  BNZ d   1       2.039  -3.147  -1.664  0.00  0.00     0.000 A 
ATOM      3  C3  BNZ d   1       0.992  -3.820  -2.230  0.00  0.00     0.000 A 
ATOM      4  C4  BNZ d   1      -0.225  -3.239  -2.270  0.00  0.00     0.000 A 
ATOM      5  C5  BNZ d   1      -0.408  -1.964  -1.774  0.00  0.00     0.000 A 
ATOM      6  C6  BNZ d   1       0.657  -1.275  -1.240  0.00  0.00     0.000 A 
ENDROOT
TORSDOF 0
ENDMDL
