MODEL 1
REMARK minimizedAffinity -3.19928145
REMARK minimizedRMSD -1
REMARK  0 active torsions:
REMARK  status: ('A' for Active; 'I' for Inactive)
ROOT
ATOM      1  C1  BNZ d   1       0.180   0.761  -0.548  0.00  0.00     0.000 A 
ATOM      2  C2  BNZ d   1      -0.146  -0.266   0.298  0.00  0.00     0.000 A 
ATOM      3  C3  BNZ d   1      -0.740  -0.018   1.503  0.00  0.00     0.000 A 
ATOM      4  C4  BNZ d   1      -0.973   1.256   1.879  0.00  0.00     0.000 A 
ATOM      5  C5  BNZ d   1      -0.642   2.303   1.041  0.00  0.00     0.000 A 
ATOM      6  C6  BNZ d   1      -0.079   2.048  -0.188  0.00  0.00     0.000 A 
ENDROOT
TORSDOF 0
ENDMDL
