MODEL 1
REMARK minimizedAffinity -4.16555166
REMARK minimizedRMSD -1
REMARK  0 active torsions:
REMARK  status: ('A' for Active; 'I' for Inactive)
ROOT
ATOM      1  C1  BNZ d   1      -0.977   1.236   2.151  0.00  0.00     0.000 A 
ATOM      2  C2  BNZ d   1      -0.503   0.001   1.797  0.00  0.00     0.000 A 
ATOM      3  C3  BNZ d   1       0.112  -0.194   0.591  0.00  0.00     0.000 A 
ATOM      4  C4  BNZ d   1       0.215   0.836  -0.274  0.00  0.00     0.000 A 
ATOM      5  C5  BNZ d   1      -0.266   2.085   0.064  0.00  0.00     0.000 A 
ATOM      6  C6  BNZ d   1      -0.849   2.286   1.294  0.00  0.00     0.000 A 
ENDROOT
TORSDOF 0
ENDMDL
