MODEL 1
REMARK minimizedAffinity -3.35522389
REMARK minimizedRMSD -1
REMARK  0 active torsions:
REMARK  status: ('A' for Active; 'I' for Inactive)
ROOT
ATOM      1  C1  BNZ d   1      -1.240  -1.352  -0.121  0.00  0.00     0.000 A 
ATOM      2  C2  BNZ d   1      -0.326  -1.789  -1.042  0.00  0.00     0.000 A 
ATOM      3  C3  BNZ d   1       0.930  -1.251  -1.090  0.00  0.00     0.000 A 
ATOM      4  C4  BNZ d   1       1.257  -0.252  -0.246  0.00  0.00     0.000 A 
ATOM      5  C5  BNZ d   1       0.343   0.206   0.682  0.00  0.00     0.000 A 
ATOM      6  C6  BNZ d   1      -0.907  -0.364   0.754  0.00  0.00     0.000 A 
ENDROOT
TORSDOF 0
ENDMDL
