MODEL 1
REMARK minimizedAffinity -1.77989507
REMARK minimizedRMSD -1
REMARK  0 active torsions:
REMARK  status: ('A' for Active; 'I' for Inactive)
ROOT
ATOM      1  C1  BNZ d   1       0.295   0.429  -0.409  0.00  0.00     0.000 A 
ATOM      2  C2  BNZ d   1       0.220   1.261   0.677  0.00  0.00     0.000 A 
ATOM      3  C3  BNZ d   1      -0.504   0.907   1.781  0.00  0.00     0.000 A 
ATOM      4  C4  BNZ d   1      -1.184  -0.258   1.782  0.00  0.00     0.000 A 
ATOM      5  C5  BNZ d   1      -1.127  -1.102   0.691  0.00  0.00     0.000 A 
ATOM      6  C6  BNZ d   1      -0.365  -0.761  -0.402  0.00  0.00     0.000 A 
ENDROOT
TORSDOF 0
ENDMDL
