MODEL 1
REMARK minimizedAffinity -3.33894134
REMARK minimizedRMSD -1
REMARK  0 active torsions:
REMARK  status: ('A' for Active; 'I' for Inactive)
ROOT
ATOM      1  C1  BNZ d   1       0.906   1.598  -0.665  0.00  0.00     0.000 A 
ATOM      2  C2  BNZ d   1       0.708   0.423   0.010  0.00  0.00     0.000 A 
ATOM      3  C3  BNZ d   1       0.045   0.406   1.205  0.00  0.00     0.000 A 
ATOM      4  C4  BNZ d   1      -0.383   1.566   1.743  0.00  0.00     0.000 A 
ATOM      5  C5  BNZ d   1      -0.182   2.760   1.079  0.00  0.00     0.000 A 
ATOM      6  C6  BNZ d   1       0.451   2.769  -0.143  0.00  0.00     0.000 A 
ENDROOT
TORSDOF 0
ENDMDL
