MODEL 1
REMARK minimizedAffinity -3.17106652
REMARK minimizedRMSD -1
REMARK  0 active torsions:
REMARK  status: ('A' for Active; 'I' for Inactive)
ROOT
ATOM      1  C1  BNZ d   1       0.346   1.801  -0.481  0.00  0.00     0.000 A 
ATOM      2  C2  BNZ d   1      -0.410   2.025   0.639  0.00  0.00     0.000 A 
ATOM      3  C3  BNZ d   1      -0.535   1.065   1.603  0.00  0.00     0.000 A 
ATOM      4  C4  BNZ d   1       0.062  -0.132   1.429  0.00  0.00     0.000 A 
ATOM      5  C5  BNZ d   1       0.820  -0.377   0.301  0.00  0.00     0.000 A 
ATOM      6  C6  BNZ d   1       0.976   0.606  -0.650  0.00  0.00     0.000 A 
ENDROOT
TORSDOF 0
ENDMDL
