MODEL 1
REMARK minimizedAffinity -3.10926867
REMARK minimizedRMSD -1
REMARK  0 active torsions:
REMARK  status: ('A' for Active; 'I' for Inactive)
ROOT
ATOM      1  C1  BNZ d   1      -1.525   0.537   1.676  0.00  0.00     0.000 A 
ATOM      2  C2  BNZ d   1      -1.026  -0.680   1.295  0.00  0.00     0.000 A 
ATOM      3  C3  BNZ d   1       0.115  -0.765   0.546  0.00  0.00     0.000 A 
ATOM      4  C4  BNZ d   1       0.731   0.366   0.146  0.00  0.00     0.000 A 
ATOM      5  C5  BNZ d   1       0.235   1.601   0.514  0.00  0.00     0.000 A 
ATOM      6  C6  BNZ d   1      -0.891   1.682   1.300  0.00  0.00     0.000 A 
ENDROOT
TORSDOF 0
ENDMDL
