MODEL 1
REMARK minimizedAffinity 23.6206684
REMARK minimizedRMSD -1
REMARK  0 active torsions:
REMARK  status: ('A' for Active; 'I' for Inactive)
ROOT
ATOM      1  C   UNL d   1      -0.166   5.353  -1.684  0.00  0.00    -0.002 A 
ATOM      2  C1  UNL d   1      -1.125   5.156  -2.667  0.00  0.00     0.010 A 
ATOM      3  C2  UNL d   1      -2.485   5.237  -2.359  0.00  0.00     0.041 A 
ATOM      4  C3  UNL d   1      -2.867   5.523  -1.034  0.00  0.00    -0.075 A 
ATOM      5  S   UNL d   1      -4.473   5.671  -0.424  0.00  0.00     0.015 SA
ATOM      6  C4  UNL d   1      -3.923   5.999   1.155  0.00  0.00     0.022 A 
ATOM      7  C5  UNL d   1      -2.551   6.000   1.234  0.00  0.00     0.026 A 
ATOM      8  C6  UNL d   1      -1.920   5.726  -0.026  0.00  0.00    -0.082 A 
ATOM      9  C7  UNL d   1      -0.549   5.636  -0.371  0.00  0.00     0.045 A 
ENDROOT
TORSDOF 0
ENDMDL
