MODEL 1
REMARK minimizedAffinity 11.9606867
REMARK minimizedRMSD -1
REMARK  0 active torsions:
REMARK  status: ('A' for Active; 'I' for Inactive)
ROOT
ATOM      1  C   UNL d   1       1.417   4.644  -1.219  0.00  0.00    -0.002 A 
ATOM      2  C1  UNL d   1       1.031   3.413  -0.707  0.00  0.00     0.010 A 
ATOM      3  C2  UNL d   1      -0.260   2.928  -0.924  0.00  0.00     0.041 A 
ATOM      4  C3  UNL d   1      -1.165   3.706  -1.673  0.00  0.00    -0.075 A 
ATOM      5  S   UNL d   1      -2.797   3.313  -2.067  0.00  0.00     0.015 SA
ATOM      6  C4  UNL d   1      -3.019   4.769  -2.924  0.00  0.00     0.022 A 
ATOM      7  C5  UNL d   1      -1.886   5.548  -2.920  0.00  0.00     0.026 A 
ATOM      8  C6  UNL d   1      -0.799   4.948  -2.199  0.00  0.00    -0.082 A 
ATOM      9  C7  UNL d   1       0.517   5.414  -1.961  0.00  0.00     0.045 A 
ENDROOT
TORSDOF 0
ENDMDL
