MODEL 1
REMARK minimizedAffinity 6.65418959
REMARK minimizedRMSD -1
REMARK  0 active torsions:
REMARK  status: ('A' for Active; 'I' for Inactive)
ROOT
ATOM      1  C   UNL d   1      -0.168   5.880  -0.954  0.00  0.00    -0.002 A 
ATOM      2  C1  UNL d   1      -1.086   5.891  -1.995  0.00  0.00     0.010 A 
ATOM      3  C2  UNL d   1      -2.457   5.924  -1.732  0.00  0.00     0.041 A 
ATOM      4  C3  UNL d   1      -2.894   5.949  -0.393  0.00  0.00    -0.075 A 
ATOM      5  S   UNL d   1      -4.524   5.993   0.167  0.00  0.00     0.015 SA
ATOM      6  C4  UNL d   1      -4.040   6.000   1.801  0.00  0.00     0.022 A 
ATOM      7  C5  UNL d   1      -2.672   5.969   1.934  0.00  0.00     0.026 A 
ATOM      8  C6  UNL d   1      -1.989   5.940   0.672  0.00  0.00    -0.082 A 
ATOM      9  C7  UNL d   1      -0.606   5.905   0.373  0.00  0.00     0.045 A 
ENDROOT
TORSDOF 0
ENDMDL
