MODEL 1
REMARK minimizedAffinity 10.7528448
REMARK minimizedRMSD -1
REMARK  0 active torsions:
REMARK  status: ('A' for Active; 'I' for Inactive)
ROOT
ATOM      1  C   UNL d   1      -0.996   5.999  -0.961  0.00  0.00    -0.002 A 
ATOM      2  C1  UNL d   1       0.118   5.491  -1.614  0.00  0.00     0.010 A 
ATOM      3  C2  UNL d   1       0.723   4.312  -1.175  0.00  0.00     0.041 A 
ATOM      4  C3  UNL d   1       0.183   3.644  -0.058  0.00  0.00    -0.075 A 
ATOM      5  S   UNL d   1       0.756   2.184   0.657  0.00  0.00     0.015 SA
ATOM      6  C4  UNL d   1      -0.465   2.199   1.846  0.00  0.00     0.022 A 
ATOM      7  C5  UNL d   1      -1.298   3.285   1.716  0.00  0.00     0.026 A 
ATOM      8  C6  UNL d   1      -0.939   4.135   0.616  0.00  0.00    -0.082 A 
ATOM      9  C7  UNL d   1      -1.529   5.334   0.146  0.00  0.00     0.045 A 
ENDROOT
TORSDOF 0
ENDMDL
