MODEL 1
REMARK minimizedAffinity 12.48246
REMARK minimizedRMSD -1
REMARK  0 active torsions:
REMARK  status: ('A' for Active; 'I' for Inactive)
ROOT
ATOM      1  C   UNL d   1      -0.461   4.207  -1.279  0.00  0.00    -0.002 A 
ATOM      2  C1  UNL d   1      -0.076   3.386  -0.228  0.00  0.00     0.010 A 
ATOM      3  C2  UNL d   1      -0.790   2.222   0.064  0.00  0.00     0.041 A 
ATOM      4  C3  UNL d   1      -1.908   1.893  -0.728  0.00  0.00    -0.075 A 
ATOM      5  S   UNL d   1      -2.933   0.517  -0.557  0.00  0.00     0.015 SA
ATOM      6  C4  UNL d   1      -3.906   0.985  -1.876  0.00  0.00     0.022 A 
ATOM      7  C5  UNL d   1      -3.474   2.160  -2.444  0.00  0.00     0.026 A 
ATOM      8  C6  UNL d   1      -2.315   2.702  -1.792  0.00  0.00    -0.082 A 
ATOM      9  C7  UNL d   1      -1.571   3.876  -2.062  0.00  0.00     0.045 A 
ENDROOT
TORSDOF 0
ENDMDL
