MODEL 1
REMARK minimizedAffinity -3.2960732
REMARK minimizedRMSD -1
REMARK  0 active torsions:
REMARK  status: ('A' for Active; 'I' for Inactive)
ROOT
ATOM      1  C   UNL d   1       1.408   0.425  -3.015  0.00  0.00     0.172 C 
ATOM      2  N   UNL d   1       0.495   0.248  -1.910  0.00  0.00    -0.070 N 
ATOM      3  C1  UNL d   1      -0.140   1.253  -1.230  0.00  0.00    -0.004 A 
ATOM      4  C2  UNL d   1      -0.920   0.674  -0.253  0.00  0.00    -0.047 A 
ATOM      5  C3  UNL d   1      -0.748  -0.727  -0.348  0.00  0.00    -0.047 A 
ATOM      6  C4  UNL d   1       0.133  -0.964  -1.382  0.00  0.00    -0.004 A 
ENDROOT
TORSDOF 0
ENDMDL
