MODEL 1
REMARK minimizedAffinity -3.30085611
REMARK minimizedRMSD -1
REMARK  0 active torsions:
REMARK  status: ('A' for Active; 'I' for Inactive)
ROOT
ATOM      1  C   UNL d   1       0.318  -0.182  -0.937  0.00  0.00     0.172 C 
ATOM      2  N   UNL d   1      -0.218   0.285   0.320  0.00  0.00    -0.070 N 
ATOM      3  C1  UNL d   1      -1.547   0.428   0.617  0.00  0.00    -0.004 A 
ATOM      4  C2  UNL d   1      -1.643   0.896   1.910  0.00  0.00    -0.047 A 
ATOM      5  C3  UNL d   1      -0.325   1.041   2.406  0.00  0.00    -0.047 A 
ATOM      6  C4  UNL d   1       0.537   0.656   1.401  0.00  0.00    -0.004 A 
ENDROOT
TORSDOF 0
ENDMDL
