MODEL 1
REMARK minimizedAffinity -3.97018051
REMARK minimizedRMSD -1
REMARK  0 active torsions:
REMARK  status: ('A' for Active; 'I' for Inactive)
ROOT
ATOM      1  C   UNL d   1       0.443  -0.357  -0.795  0.00  0.00     0.172 C 
ATOM      2  N   UNL d   1      -0.113   0.021   0.484  0.00  0.00    -0.070 N 
ATOM      3  C1  UNL d   1       0.598   0.488   1.556  0.00  0.00    -0.004 A 
ATOM      4  C2  UNL d   1      -0.293   0.734   2.579  0.00  0.00    -0.047 A 
ATOM      5  C3  UNL d   1      -1.584   0.401   2.104  0.00  0.00    -0.047 A 
ATOM      6  C4  UNL d   1      -1.443  -0.038   0.805  0.00  0.00    -0.004 A 
ENDROOT
TORSDOF 0
ENDMDL
