MODEL 1
REMARK minimizedAffinity -2.76816511
REMARK minimizedRMSD -1
REMARK  0 active torsions:
REMARK  status: ('A' for Active; 'I' for Inactive)
ROOT
ATOM      1  C   UNL d   1       1.842  -0.731   2.338  0.00  0.00     0.172 C 
ATOM      2  N   UNL d   1       0.898  -0.680   1.247  0.00  0.00    -0.070 N 
ATOM      3  C1  UNL d   1       1.080  -1.230   0.006  0.00  0.00    -0.004 A 
ATOM      4  C2  UNL d   1      -0.045  -0.964  -0.743  0.00  0.00    -0.047 A 
ATOM      5  C3  UNL d   1      -0.934  -0.227   0.075  0.00  0.00    -0.047 A 
ATOM      6  C4  UNL d   1      -0.325  -0.065   1.301  0.00  0.00    -0.004 A 
ENDROOT
TORSDOF 0
ENDMDL
