MODEL 1
REMARK minimizedAffinity -2.44861746
REMARK minimizedRMSD -1
REMARK  0 active torsions:
REMARK  status: ('A' for Active; 'I' for Inactive)
ROOT
ATOM      1  C   UNL d   1      -1.301   1.081   2.619  0.00  0.00     0.172 C 
ATOM      2  N   UNL d   1      -0.641   0.504   1.471  0.00  0.00    -0.070 N 
ATOM      3  C1  UNL d   1      -1.267  -0.029   0.376  0.00  0.00    -0.004 A 
ATOM      4  C2  UNL d   1      -0.292  -0.472  -0.493  0.00  0.00    -0.047 A 
ATOM      5  C3  UNL d   1       0.962  -0.197   0.102  0.00  0.00    -0.047 A 
ATOM      6  C4  UNL d   1       0.716   0.407   1.317  0.00  0.00    -0.004 A 
ENDROOT
TORSDOF 0
ENDMDL
