MODEL 1
REMARK minimizedAffinity -3.58623314
REMARK minimizedRMSD -1
REMARK  0 active torsions:
REMARK  status: ('A' for Active; 'I' for Inactive)
ROOT
ATOM      1  C   UNL d   1      -1.441  -0.320   0.136  0.00  0.00     0.172 C 
ATOM      2  N   UNL d   1      -0.849  -0.229   1.450  0.00  0.00    -0.070 N 
ATOM      3  C1  UNL d   1       0.362  -0.751   1.818  0.00  0.00    -0.004 A 
ATOM      4  C2  UNL d   1       0.565  -0.451   3.147  0.00  0.00    -0.047 A 
ATOM      5  C3  UNL d   1      -0.564   0.276   3.594  0.00  0.00    -0.047 A 
ATOM      6  C4  UNL d   1      -1.424   0.399   2.523  0.00  0.00    -0.004 A 
ENDROOT
TORSDOF 0
ENDMDL
