MODEL 1
REMARK minimizedAffinity -3.63280606
REMARK minimizedRMSD -1
REMARK  0 active torsions:
REMARK  status: ('A' for Active; 'I' for Inactive)
ROOT
ATOM      1  C   UNL d   1       1.859   0.378   0.581  0.00  0.00     0.172 C 
ATOM      2  N   UNL d   1       0.811   0.406   1.574  0.00  0.00    -0.070 N 
ATOM      3  C1  UNL d   1      -0.533   0.336   1.318  0.00  0.00    -0.004 A 
ATOM      4  C2  UNL d   1      -1.196   0.393   2.525  0.00  0.00    -0.047 A 
ATOM      5  C3  UNL d   1      -0.217   0.501   3.541  0.00  0.00    -0.047 A 
ATOM      6  C4  UNL d   1       1.016   0.506   2.925  0.00  0.00    -0.004 A 
ENDROOT
TORSDOF 0
ENDMDL
