MODEL 1
REMARK minimizedAffinity 1.95798802
REMARK minimizedRMSD -1
REMARK  0 active torsions:
REMARK  status: ('A' for Active; 'I' for Inactive)
ROOT
ATOM      1  C   UNL d   1      -0.371   0.732   1.949  0.00  0.00     0.124 A 
ATOM      2  C1  UNL d   1       0.498  -0.350   1.954  0.00  0.00     0.062 A 
ATOM      3  C2  UNL d   1       0.769  -1.036   0.774  0.00  0.00     0.162 A 
ATOM      4  C3  UNL d   1       0.170  -0.641  -0.423  0.00  0.00    -0.034 A 
ATOM      5  C4  UNL d   1      -0.705   0.447  -0.419  0.00  0.00     0.162 A 
ATOM      6  C5  UNL d   1      -0.972   1.129   0.763  0.00  0.00     0.062 A 
ATOM      7  F   UNL d   1      -1.812   2.174   0.757  0.00  0.00    -0.097 F 
ATOM      8  F1  UNL d   1      -1.298   0.853  -1.552  0.00  0.00    -0.096 F 
ATOM      9  I   UNL d   1       0.572  -1.664  -2.190  0.00  0.00    -0.060 I 
ATOM     10  F2  UNL d   1       1.613  -2.078   0.808  0.00  0.00    -0.096 F 
ATOM     11  F3  UNL d   1       1.079  -0.737   3.099  0.00  0.00    -0.097 F 
ATOM     12  F4  UNL d   1      -0.631   1.389   3.087  0.00  0.00    -0.092 F 
ENDROOT
TORSDOF 0
ENDMDL
