MODEL 1
REMARK minimizedAffinity -4.53717566
REMARK minimizedRMSD -1
REMARK  0 active torsions:
REMARK  status: ('A' for Active; 'I' for Inactive)
ROOT
ATOM      1  C   UNL d   1      -1.188   1.992   1.214  0.00  0.00     0.124 A 
ATOM      2  C1  UNL d   1      -1.021   2.026  -0.163  0.00  0.00     0.062 A 
ATOM      3  C2  UNL d   1      -0.214   1.084  -0.794  0.00  0.00     0.162 A 
ATOM      4  C3  UNL d   1       0.432   0.098  -0.048  0.00  0.00    -0.034 A 
ATOM      5  C4  UNL d   1       0.260   0.071   1.337  0.00  0.00     0.162 A 
ATOM      6  C5  UNL d   1      -0.547   1.015   1.963  0.00  0.00     0.062 A 
ATOM      7  F   UNL d   1      -0.707   0.981   3.294  0.00  0.00    -0.097 F 
ATOM      8  F1  UNL d   1       0.866  -0.863   2.085  0.00  0.00    -0.096 F 
ATOM      9  I   UNL d   1       1.639  -1.313  -0.988  0.00  0.00    -0.060 I 
ATOM     10  F2  UNL d   1      -0.071   1.140  -2.127  0.00  0.00    -0.096 F 
ATOM     11  F3  UNL d   1      -1.638   2.970  -0.889  0.00  0.00    -0.097 F 
ATOM     12  F4  UNL d   1      -1.964   2.901   1.819  0.00  0.00    -0.092 F 
ENDROOT
TORSDOF 0
ENDMDL
