MODEL 1
REMARK minimizedAffinity -3.20936656
REMARK minimizedRMSD -1
REMARK  0 active torsions:
REMARK  status: ('A' for Active; 'I' for Inactive)
ROOT
ATOM      1  C   UNL d   1       1.213  -0.597   0.695  0.00  0.00     0.124 A 
ATOM      2  C1  UNL d   1       0.632   0.065  -0.378  0.00  0.00     0.062 A 
ATOM      3  C2  UNL d   1      -0.589   0.715  -0.221  0.00  0.00     0.162 A 
ATOM      4  C3  UNL d   1      -1.236   0.708   1.015  0.00  0.00    -0.034 A 
ATOM      5  C4  UNL d   1      -0.646   0.039   2.089  0.00  0.00     0.162 A 
ATOM      6  C5  UNL d   1       0.574  -0.610   1.927  0.00  0.00     0.062 A 
ATOM      7  F   UNL d   1       1.133  -1.249   2.964  0.00  0.00    -0.097 F 
ATOM      8  F1  UNL d   1      -1.242   0.011   3.290  0.00  0.00    -0.096 F 
ATOM      9  I   UNL d   1      -3.061   1.679   1.253  0.00  0.00    -0.060 I 
ATOM     10  F2  UNL d   1      -1.127   1.347  -1.274  0.00  0.00    -0.096 F 
ATOM     11  F3  UNL d   1       1.247   0.078  -1.569  0.00  0.00    -0.097 F 
ATOM     12  F4  UNL d   1       2.387  -1.223   0.541  0.00  0.00    -0.092 F 
ENDROOT
TORSDOF 0
ENDMDL
