MODEL 1
REMARK minimizedAffinity 3.43618631
REMARK minimizedRMSD -1
REMARK  0 active torsions:
REMARK  status: ('A' for Active; 'I' for Inactive)
ROOT
ATOM      1  C   UNL d   1      -0.749   1.292   2.027  0.00  0.00     0.124 A 
ATOM      2  C1  UNL d   1      -1.642   1.333   0.966  0.00  0.00     0.062 A 
ATOM      3  C2  UNL d   1      -1.522   0.429  -0.086  0.00  0.00     0.162 A 
ATOM      4  C3  UNL d   1      -0.504  -0.525  -0.081  0.00  0.00    -0.034 A 
ATOM      5  C4  UNL d   1       0.392  -0.559   0.989  0.00  0.00     0.162 A 
ATOM      6  C5  UNL d   1       0.267   0.347   2.038  0.00  0.00     0.062 A 
ATOM      7  F   UNL d   1       1.132   0.307   3.062  0.00  0.00    -0.097 F 
ATOM      8  F1  UNL d   1       1.382  -1.462   1.026  0.00  0.00    -0.096 F 
ATOM      9  I   UNL d   1      -0.320  -1.878  -1.651  0.00  0.00    -0.060 I 
ATOM     10  F2  UNL d   1      -2.400   0.491  -1.098  0.00  0.00    -0.096 F 
ATOM     11  F3  UNL d   1      -2.624   2.246   0.952  0.00  0.00    -0.097 F 
ATOM     12  F4  UNL d   1      -0.866   2.164   3.037  0.00  0.00    -0.092 F 
ENDROOT
TORSDOF 0
ENDMDL
