MODEL 1
REMARK minimizedAffinity -2.2833569
REMARK minimizedRMSD -1
REMARK  0 active torsions:
REMARK  status: ('A' for Active; 'I' for Inactive)
ROOT
ATOM      1  C   UNL d   1      -0.299   1.177   1.965  0.00  0.00     0.124 A 
ATOM      2  C1  UNL d   1      -1.255   1.260   0.961  0.00  0.00     0.062 A 
ATOM      3  C2  UNL d   1      -1.303   0.296  -0.041  0.00  0.00     0.162 A 
ATOM      4  C3  UNL d   1      -0.392  -0.761  -0.045  0.00  0.00    -0.034 A 
ATOM      5  C4  UNL d   1       0.567  -0.837   0.967  0.00  0.00     0.162 A 
ATOM      6  C5  UNL d   1       0.610   0.129   1.967  0.00  0.00     0.062 A 
ATOM      7  F   UNL d   1       1.534   0.048   2.935  0.00  0.00    -0.097 F 
ATOM      8  F1  UNL d   1       1.457  -1.840   0.994  0.00  0.00    -0.096 F 
ATOM      9  I   UNL d   1      -0.460  -2.205  -1.542  0.00  0.00    -0.060 I 
ATOM     10  F2  UNL d   1      -2.237   0.401  -0.998  0.00  0.00    -0.096 F 
ATOM     11  F3  UNL d   1      -2.134   2.273   0.957  0.00  0.00    -0.097 F 
ATOM     12  F4  UNL d   1      -0.255   2.107   2.928  0.00  0.00    -0.092 F 
ENDROOT
TORSDOF 0
ENDMDL
