MODEL 1
REMARK minimizedAffinity 0.618121088
REMARK minimizedRMSD -1
REMARK  0 active torsions:
REMARK  status: ('A' for Active; 'I' for Inactive)
ROOT
ATOM      1  C   UNL d   1      -1.193   0.553   2.495  0.00  0.00     0.124 A 
ATOM      2  C1  UNL d   1      -1.124   1.477   1.462  0.00  0.00     0.062 A 
ATOM      3  C2  UNL d   1      -0.334   1.220   0.345  0.00  0.00     0.162 A 
ATOM      4  C3  UNL d   1       0.394   0.034   0.255  0.00  0.00    -0.034 A 
ATOM      5  C4  UNL d   1       0.320  -0.890   1.299  0.00  0.00     0.162 A 
ATOM      6  C5  UNL d   1      -0.471  -0.629   2.413  0.00  0.00     0.062 A 
ATOM      7  F   UNL d   1      -0.536  -1.523   3.411  0.00  0.00    -0.097 F 
ATOM      8  F1  UNL d   1       1.007  -2.041   1.245  0.00  0.00    -0.096 F 
ATOM      9  I   UNL d   1       1.577  -0.354  -1.413  0.00  0.00    -0.060 I 
ATOM     10  F2  UNL d   1      -0.286   2.131  -0.639  0.00  0.00    -0.096 F 
ATOM     11  F3  UNL d   1      -1.820   2.620   1.539  0.00  0.00    -0.097 F 
ATOM     12  F4  UNL d   1      -1.953   0.803   3.569  0.00  0.00    -0.092 F 
ENDROOT
TORSDOF 0
ENDMDL
