MODEL 1
REMARK minimizedAffinity 3.13694429
REMARK minimizedRMSD -1
REMARK  0 active torsions:
REMARK  status: ('A' for Active; 'I' for Inactive)
ROOT
ATOM      1  C   UNL d   1      -0.728   1.844   0.856  0.00  0.00     0.124 A 
ATOM      2  C1  UNL d   1      -0.863   0.656   1.559  0.00  0.00     0.062 A 
ATOM      3  C2  UNL d   1      -0.364  -0.531   1.030  0.00  0.00     0.162 A 
ATOM      4  C3  UNL d   1       0.275  -0.535  -0.210  0.00  0.00    -0.034 A 
ATOM      5  C4  UNL d   1       0.406   0.664  -0.912  0.00  0.00     0.162 A 
ATOM      6  C5  UNL d   1      -0.094   1.848  -0.378  0.00  0.00     0.062 A 
ATOM      7  F   UNL d   1       0.037   2.996  -1.060  0.00  0.00    -0.097 F 
ATOM      8  F1  UNL d   1       1.015   0.696  -2.106  0.00  0.00    -0.096 F 
ATOM      9  I   UNL d   1       1.021  -2.308  -1.005  0.00  0.00    -0.060 I 
ATOM     10  F2  UNL d   1      -0.509  -1.665   1.732  0.00  0.00    -0.096 F 
ATOM     11  F3  UNL d   1      -1.476   0.650   2.752  0.00  0.00    -0.097 F 
ATOM     12  F4  UNL d   1      -1.210   2.985   1.367  0.00  0.00    -0.092 F 
ENDROOT
TORSDOF 0
ENDMDL
