MODEL 1
REMARK minimizedAffinity 0.161732852
REMARK minimizedRMSD -1
REMARK  0 active torsions:
REMARK  status: ('A' for Active; 'I' for Inactive)
ROOT
ATOM      1  C   UNL d   1       1.503  -0.706  -1.171  0.00  0.00     0.124 A 
ATOM      2  C1  UNL d   1       1.245   0.642  -1.377  0.00  0.00     0.062 A 
ATOM      3  C2  UNL d   1       0.357   1.319  -0.546  0.00  0.00     0.162 A 
ATOM      4  C3  UNL d   1      -0.279   0.650   0.499  0.00  0.00    -0.034 A 
ATOM      5  C4  UNL d   1      -0.016  -0.707   0.699  0.00  0.00     0.162 A 
ATOM      6  C5  UNL d   1       0.872  -1.379  -0.134  0.00  0.00     0.062 A 
ATOM      7  F   UNL d   1       1.120  -2.682   0.066  0.00  0.00    -0.097 F 
ATOM      8  F1  UNL d   1      -0.610  -1.381   1.694  0.00  0.00    -0.096 F 
ATOM      9  I   UNL d   1      -1.608   1.659   1.743  0.00  0.00    -0.060 I 
ATOM     10  F2  UNL d   1       0.127   2.622  -0.768  0.00  0.00    -0.096 F 
ATOM     11  F3  UNL d   1       1.852   1.294  -2.379  0.00  0.00    -0.097 F 
ATOM     12  F4  UNL d   1       2.357  -1.356  -1.973  0.00  0.00    -0.092 F 
ENDROOT
TORSDOF 0
ENDMDL
