MODEL 1
REMARK minimizedAffinity -2.21952295
REMARK minimizedRMSD -1
REMARK  0 active torsions:
REMARK  status: ('A' for Active; 'I' for Inactive)
ROOT
ATOM      1  C   UNL d   1      -0.834   2.103  -0.409  0.00  0.00     0.124 A 
ATOM      2  C1  UNL d   1      -1.457   1.808   0.796  0.00  0.00     0.062 A 
ATOM      3  C2  UNL d   1      -0.910   0.857   1.652  0.00  0.00     0.162 A 
ATOM      4  C3  UNL d   1       0.267   0.193   1.307  0.00  0.00    -0.034 A 
ATOM      5  C4  UNL d   1       0.887   0.494   0.093  0.00  0.00     0.162 A 
ATOM      6  C5  UNL d   1       0.337   1.446  -0.759  0.00  0.00     0.062 A 
ATOM      7  F   UNL d   1       0.940   1.730  -1.923  0.00  0.00    -0.097 F 
ATOM      8  F1  UNL d   1       2.020  -0.125  -0.270  0.00  0.00    -0.096 F 
ATOM      9  I   UNL d   1       1.087  -1.231   2.584  0.00  0.00    -0.060 I 
ATOM     10  F2  UNL d   1      -1.534   0.592   2.810  0.00  0.00    -0.096 F 
ATOM     11  F3  UNL d   1      -2.589   2.441   1.136  0.00  0.00    -0.097 F 
ATOM     12  F4  UNL d   1      -1.363   3.019  -1.231  0.00  0.00    -0.092 F 
ENDROOT
TORSDOF 0
ENDMDL
