MODEL 1
REMARK minimizedAffinity -1.66125989
REMARK minimizedRMSD -1
REMARK  0 active torsions:
REMARK  status: ('A' for Active; 'I' for Inactive)
ROOT
ATOM      1  C   UNL d   1      -1.394   1.828   1.546  0.00  0.00     0.124 A 
ATOM      2  C1  UNL d   1      -1.230   1.756   0.170  0.00  0.00     0.062 A 
ATOM      3  C2  UNL d   1      -0.537   0.691  -0.399  0.00  0.00     0.162 A 
ATOM      4  C3  UNL d   1      -0.002  -0.312   0.410  0.00  0.00    -0.034 A 
ATOM      5  C4  UNL d   1      -0.169  -0.232   1.793  0.00  0.00     0.162 A 
ATOM      6  C5  UNL d   1      -0.863   0.834   2.356  0.00  0.00     0.062 A 
ATOM      7  F   UNL d   1      -1.020   0.902   3.687  0.00  0.00    -0.097 F 
ATOM      8  F1  UNL d   1       0.332  -1.179   2.600  0.00  0.00    -0.096 F 
ATOM      9  I   UNL d   1       1.035  -1.905  -0.436  0.00  0.00    -0.060 I 
ATOM     10  F2  UNL d   1      -0.395   0.648  -1.732  0.00  0.00    -0.096 F 
ATOM     11  F3  UNL d   1      -1.741   2.716  -0.615  0.00  0.00    -0.097 F 
ATOM     12  F4  UNL d   1      -2.060   2.854   2.090  0.00  0.00    -0.092 F 
ENDROOT
TORSDOF 0
ENDMDL
