MODEL 1
REMARK minimizedAffinity -2.22715974
REMARK minimizedRMSD -1
REMARK  0 active torsions:
REMARK  status: ('A' for Active; 'I' for Inactive)
ROOT
ATOM      1  C   UNL d   1      -1.190   1.870   1.362  0.00  0.00     0.124 A 
ATOM      2  C1  UNL d   1      -0.745   0.896   2.246  0.00  0.00     0.062 A 
ATOM      3  C2  UNL d   1      -0.042  -0.208   1.775  0.00  0.00     0.162 A 
ATOM      4  C3  UNL d   1       0.222  -0.345   0.412  0.00  0.00    -0.034 A 
ATOM      5  C4  UNL d   1      -0.229   0.637  -0.471  0.00  0.00     0.162 A 
ATOM      6  C5  UNL d   1      -0.932   1.739   0.005  0.00  0.00     0.062 A 
ATOM      7  F   UNL d   1      -1.361   2.679  -0.850  0.00  0.00    -0.097 F 
ATOM      8  F1  UNL d   1       0.007   0.537  -1.787  0.00  0.00    -0.096 F 
ATOM      9  I   UNL d   1       1.274  -1.996  -0.297  0.00  0.00    -0.060 I 
ATOM     10  F2  UNL d   1       0.376  -1.133   2.652  0.00  0.00    -0.096 F 
ATOM     11  F3  UNL d   1      -0.994   1.020   3.558  0.00  0.00    -0.097 F 
ATOM     12  F4  UNL d   1      -1.868   2.931   1.819  0.00  0.00    -0.092 F 
ENDROOT
TORSDOF 0
ENDMDL
