MODEL 1
REMARK minimizedAffinity 2.15508533
REMARK minimizedRMSD -1
REMARK  0 active torsions:
REMARK  status: ('A' for Active; 'I' for Inactive)
ROOT
ATOM      1  C   UNL d   1       1.312  -0.052  -1.557  0.00  0.00     0.124 A 
ATOM      2  C1  UNL d   1       1.270   1.335  -1.569  0.00  0.00     0.062 A 
ATOM      3  C2  UNL d   1       0.428   2.018  -0.696  0.00  0.00     0.162 A 
ATOM      4  C3  UNL d   1      -0.380   1.314   0.197  0.00  0.00    -0.034 A 
ATOM      5  C4  UNL d   1      -0.334  -0.081   0.202  0.00  0.00     0.162 A 
ATOM      6  C5  UNL d   1       0.510  -0.759  -0.672  0.00  0.00     0.062 A 
ATOM      7  F   UNL d   1       0.548  -2.099  -0.659  0.00  0.00    -0.097 F 
ATOM      8  F1  UNL d   1      -1.097  -0.789   1.048  0.00  0.00    -0.096 F 
ATOM      9  I   UNL d   1      -1.641   2.331   1.503  0.00  0.00    -0.060 I 
ATOM     10  F2  UNL d   1       0.408   3.359  -0.730  0.00  0.00    -0.096 F 
ATOM     11  F3  UNL d   1       2.043   2.020  -2.424  0.00  0.00    -0.097 F 
ATOM     12  F4  UNL d   1       2.122  -0.706  -2.399  0.00  0.00    -0.092 F 
ENDROOT
TORSDOF 0
ENDMDL
