MODEL 1
REMARK minimizedAffinity -1.59358799
REMARK minimizedRMSD -1
REMARK  0 active torsions:
REMARK  status: ('A' for Active; 'I' for Inactive)
ROOT
ATOM      1  C   UNL d   1      -1.164   1.185   1.879  0.00  0.00     0.124 A 
ATOM      2  C1  UNL d   1      -0.169   0.287   2.238  0.00  0.00     0.062 A 
ATOM      3  C2  UNL d   1       0.555  -0.384   1.256  0.00  0.00     0.162 A 
ATOM      4  C3  UNL d   1       0.286  -0.159  -0.094  0.00  0.00    -0.034 A 
ATOM      5  C4  UNL d   1      -0.717   0.746  -0.447  0.00  0.00     0.162 A 
ATOM      6  C5  UNL d   1      -1.438   1.414   0.538  0.00  0.00     0.062 A 
ATOM      7  F   UNL d   1      -2.399   2.281   0.190  0.00  0.00    -0.097 F 
ATOM      8  F1  UNL d   1      -1.002   0.986  -1.735  0.00  0.00    -0.096 F 
ATOM      9  I   UNL d   1       1.366  -1.160  -1.565  0.00  0.00    -0.060 I 
ATOM     10  F2  UNL d   1       1.511  -1.246   1.631  0.00  0.00    -0.096 F 
ATOM     11  F3  UNL d   1       0.097   0.064   3.533  0.00  0.00    -0.097 F 
ATOM     12  F4  UNL d   1      -1.860   1.829   2.826  0.00  0.00    -0.092 F 
ENDROOT
TORSDOF 0
ENDMDL
