MODEL 1
REMARK minimizedAffinity -1.64758563
REMARK minimizedRMSD -1
REMARK  0 active torsions:
REMARK  status: ('A' for Active; 'I' for Inactive)
ROOT
ATOM      1  C   UNL d   1      -0.508   1.055   2.179  0.00  0.00     0.124 A 
ATOM      2  C1  UNL d   1      -1.669   1.104   1.420  0.00  0.00     0.062 A 
ATOM      3  C2  UNL d   1      -1.802   0.299   0.292  0.00  0.00     0.162 A 
ATOM      4  C3  UNL d   1      -0.771  -0.562  -0.084  0.00  0.00    -0.034 A 
ATOM      5  C4  UNL d   1       0.394  -0.605   0.684  0.00  0.00     0.162 A 
ATOM      6  C5  UNL d   1       0.522   0.202   1.810  0.00  0.00     0.062 A 
ATOM      7  F   UNL d   1       1.645   0.153   2.542  0.00  0.00    -0.097 F 
ATOM      8  F1  UNL d   1       1.404  -1.421   0.351  0.00  0.00    -0.096 F 
ATOM      9  I   UNL d   1      -0.967  -1.767  -1.769  0.00  0.00    -0.060 I 
ATOM     10  F2  UNL d   1      -2.935   0.367  -0.422  0.00  0.00    -0.096 F 
ATOM     11  F3  UNL d   1      -2.665   1.929   1.774  0.00  0.00    -0.097 F 
ATOM     12  F4  UNL d   1      -0.382   1.831   3.263  0.00  0.00    -0.092 F 
ENDROOT
TORSDOF 0
ENDMDL
