MODEL 1
REMARK minimizedAffinity -0.71698457
REMARK minimizedRMSD -1
REMARK  0 active torsions:
REMARK  status: ('A' for Active; 'I' for Inactive)
ROOT
ATOM      1  C   UNL d   1      -0.632   1.653   0.976  0.00  0.00     0.124 A 
ATOM      2  C1  UNL d   1      -1.116   0.439   1.442  0.00  0.00     0.062 A 
ATOM      3  C2  UNL d   1      -0.779  -0.745   0.793  0.00  0.00     0.162 A 
ATOM      4  C3  UNL d   1       0.050  -0.721  -0.329  0.00  0.00    -0.034 A 
ATOM      5  C4  UNL d   1       0.533   0.505  -0.792  0.00  0.00     0.162 A 
ATOM      6  C5  UNL d   1       0.192   1.685  -0.140  0.00  0.00     0.062 A 
ATOM      7  F   UNL d   1       0.661   2.857  -0.592  0.00  0.00    -0.097 F 
ATOM      8  F1  UNL d   1       1.331   0.564  -1.868  0.00  0.00    -0.096 F 
ATOM      9  I   UNL d   1       0.557  -2.489  -1.303  0.00  0.00    -0.060 I 
ATOM     10  F2  UNL d   1      -1.261  -1.904   1.265  0.00  0.00    -0.096 F 
ATOM     11  F3  UNL d   1      -1.913   0.406   2.520  0.00  0.00    -0.097 F 
ATOM     12  F4  UNL d   1      -0.959   2.791   1.602  0.00  0.00    -0.092 F 
ENDROOT
TORSDOF 0
ENDMDL
