MODEL 1
REMARK minimizedAffinity 0.239064306
REMARK minimizedRMSD -1
REMARK  0 active torsions:
REMARK  status: ('A' for Active; 'I' for Inactive)
ROOT
ATOM      1  C   UNL d   1      -0.758   1.608   0.959  0.00  0.00     0.124 A 
ATOM      2  C1  UNL d   1      -1.240   0.445   1.543  0.00  0.00     0.062 A 
ATOM      3  C2  UNL d   1      -0.784  -0.797   1.111  0.00  0.00     0.162 A 
ATOM      4  C3  UNL d   1       0.161  -0.882   0.089  0.00  0.00    -0.034 A 
ATOM      5  C4  UNL d   1       0.640   0.292  -0.495  0.00  0.00     0.162 A 
ATOM      6  C5  UNL d   1       0.181   1.530  -0.060  0.00  0.00     0.062 A 
ATOM      7  F   UNL d   1       0.647   2.653  -0.626  0.00  0.00    -0.097 F 
ATOM      8  F1  UNL d   1       1.549   0.246  -1.481  0.00  0.00    -0.096 F 
ATOM      9  I   UNL d   1       0.846  -2.737  -0.561  0.00  0.00    -0.060 I 
ATOM     10  F2  UNL d   1      -1.267  -1.904   1.694  0.00  0.00    -0.096 F 
ATOM     11  F3  UNL d   1      -2.149   0.518   2.527  0.00  0.00    -0.097 F 
ATOM     12  F4  UNL d   1      -1.200   2.802   1.376  0.00  0.00    -0.092 F 
ENDROOT
TORSDOF 0
ENDMDL
