MODEL 1
REMARK minimizedAffinity 11.1736107
REMARK minimizedRMSD -1
REMARK  0 active torsions:
REMARK  status: ('A' for Active; 'I' for Inactive)
ROOT
ATOM      1  C4' PXY d   1      -3.748   0.373   1.011  0.00  0.00     0.077 C 
ATOM      2  C1' PXY d   1      -5.645   0.369  -4.450  0.00  0.00     0.077 C 
ATOM      3  C1  PXY d   1      -5.136   0.365  -3.022  0.00  0.00    -0.082 A 
ATOM      4  C2  PXY d   1      -6.000   0.360  -2.019  0.00  0.00     0.003 A 
ATOM      5  C3  PXY d   1      -5.557   0.389  -0.722  0.00  0.00     0.003 A 
ATOM      6  C4  PXY d   1      -4.216   0.368  -0.447  0.00  0.00    -0.082 A 
ATOM      7  C5  PXY d   1      -3.328   0.362  -1.464  0.00  0.00     0.003 A 
ATOM      8  C6  PXY d   1      -3.798   0.374  -2.774  0.00  0.00     0.003 A 
ENDROOT
TORSDOF 0
ENDMDL
