MODEL 1
REMARK minimizedAffinity 14.2833672
REMARK minimizedRMSD -1
REMARK  0 active torsions:
REMARK  status: ('A' for Active; 'I' for Inactive)
ROOT
ATOM      1  C4' PXY d   1       1.115  -3.835   0.641  0.00  0.00     0.077 C 
ATOM      2  C1' PXY d   1      -3.419  -5.999  -2.217  0.00  0.00     0.077 C 
ATOM      3  C1  PXY d   1      -2.235  -5.437  -1.457  0.00  0.00    -0.082 A 
ATOM      4  C2  PXY d   1      -1.564  -4.411  -1.956  0.00  0.00     0.003 A 
ATOM      5  C3  PXY d   1      -0.471  -3.910  -1.297  0.00  0.00     0.003 A 
ATOM      6  C4  PXY d   1      -0.093  -4.430  -0.088  0.00  0.00    -0.082 A 
ATOM      7  C5  PXY d   1      -0.778  -5.470   0.433  0.00  0.00     0.003 A 
ATOM      8  C6  PXY d   1      -1.860  -5.990  -0.272  0.00  0.00     0.003 A 
ENDROOT
TORSDOF 0
ENDMDL
