MODEL 1
REMARK minimizedAffinity 2.87548733
REMARK minimizedRMSD -1
REMARK  0 active torsions:
REMARK  status: ('A' for Active; 'I' for Inactive)
ROOT
ATOM      1  C4' PXY d   1       1.902  -2.755   1.261  0.00  0.00     0.077 C 
ATOM      2  C1' PXY d   1       3.828   2.012  -1.380  0.00  0.00     0.077 C 
ATOM      3  C1  PXY d   1       3.312   0.763  -0.695  0.00  0.00    -0.082 A 
ATOM      4  C2  PXY d   1       3.763   0.442   0.507  0.00  0.00     0.003 A 
ATOM      5  C3  PXY d   1       3.331  -0.702   1.128  0.00  0.00     0.003 A 
ATOM      6  C4  PXY d   1       2.388  -1.498   0.535  0.00  0.00    -0.082 A 
ATOM      7  C5  PXY d   1       1.915  -1.172  -0.686  0.00  0.00     0.003 A 
ATOM      8  C6  PXY d   1       2.396  -0.029  -1.317  0.00  0.00     0.003 A 
ENDROOT
TORSDOF 0
ENDMDL
