MODEL 1
REMARK minimizedAffinity 11.1185274
REMARK minimizedRMSD -1
REMARK  0 active torsions:
REMARK  status: ('A' for Active; 'I' for Inactive)
ROOT
ATOM      1  C4' PXY d   1       4.999   4.849  -2.927  0.00  0.00     0.077 C 
ATOM      2  C1' PXY d   1       2.218   0.191  -0.933  0.00  0.00     0.077 C 
ATOM      3  C1  PXY d   1       2.957   1.405  -1.461  0.00  0.00    -0.082 A 
ATOM      4  C2  PXY d   1       2.781   2.581  -0.881  0.00  0.00     0.003 A 
ATOM      5  C3  PXY d   1       3.416   3.695  -1.365  0.00  0.00     0.003 A 
ATOM      6  C4  PXY d   1       4.281   3.595  -2.422  0.00  0.00    -0.082 A 
ATOM      7  C5  PXY d   1       4.474   2.397  -3.013  0.00  0.00     0.003 A 
ATOM      8  C6  PXY d   1       3.788   1.285  -2.532  0.00  0.00     0.003 A 
ENDROOT
TORSDOF 0
ENDMDL
