MODEL 1
REMARK minimizedAffinity 8.62955856
REMARK minimizedRMSD -1
REMARK  0 active torsions:
REMARK  status: ('A' for Active; 'I' for Inactive)
ROOT
ATOM      1  C4' PXY d   1       3.471   1.827  -1.972  0.00  0.00     0.077 C 
ATOM      2  C1' PXY d   1       2.113  -2.379   1.754  0.00  0.00     0.077 C 
ATOM      3  C1  PXY d   1       2.468  -1.284   0.767  0.00  0.00    -0.082 A 
ATOM      4  C2  PXY d   1       3.223  -0.270   1.157  0.00  0.00     0.003 A 
ATOM      5  C3  PXY d   1       3.526   0.745   0.287  0.00  0.00     0.003 A 
ATOM      6  C4  PXY d   1       3.096   0.695  -1.012  0.00  0.00    -0.082 A 
ATOM      7  C5  PXY d   1       2.334  -0.342  -1.422  0.00  0.00     0.003 A 
ATOM      8  C6  PXY d   1       2.003  -1.341  -0.511  0.00  0.00     0.003 A 
ENDROOT
TORSDOF 0
ENDMDL
