MODEL 1
REMARK minimizedAffinity 6.83966064
REMARK minimizedRMSD -1
REMARK  0 active torsions:
REMARK  status: ('A' for Active; 'I' for Inactive)
ROOT
ATOM      1  C4' PXY d   1      -4.199   3.379   0.595  0.00  0.00     0.077 C 
ATOM      2  C1' PXY d   1      -5.309   5.111   5.997  0.00  0.00     0.077 C 
ATOM      3  C1  PXY d   1      -5.007   4.663   4.580  0.00  0.00    -0.082 A 
ATOM      4  C2  PXY d   1      -6.000   4.319   3.777  0.00  0.00     0.003 A 
ATOM      5  C3  PXY d   1      -5.742   3.881   2.504  0.00  0.00     0.003 A 
ATOM      6  C4  PXY d   1      -4.458   3.846   2.030  0.00  0.00    -0.082 A 
ATOM      7  C5  PXY d   1      -3.440   4.206   2.839  0.00  0.00     0.003 A 
ATOM      8  C6  PXY d   1      -3.720   4.608   4.142  0.00  0.00     0.003 A 
ENDROOT
TORSDOF 0
ENDMDL
