MODEL 1
REMARK minimizedAffinity 1.55028927
REMARK minimizedRMSD -1
REMARK  0 active torsions:
REMARK  status: ('A' for Active; 'I' for Inactive)
ROOT
ATOM      1  C4' PXY d   1      -6.000   1.117  -4.294  0.00  0.00     0.077 C 
ATOM      2  C1' PXY d   1      -4.349   2.659   1.027  0.00  0.00     0.077 C 
ATOM      3  C1  PXY d   1      -4.790   2.265  -0.369  0.00  0.00    -0.082 A 
ATOM      4  C2  PXY d   1      -4.697   1.002  -0.752  0.00  0.00     0.003 A 
ATOM      5  C3  PXY d   1      -5.061   0.634  -2.021  0.00  0.00     0.003 A 
ATOM      6  C4  PXY d   1      -5.575   1.559  -2.890  0.00  0.00    -0.082 A 
ATOM      7  C5  PXY d   1      -5.683   2.848  -2.503  0.00  0.00     0.003 A 
ATOM      8  C6  PXY d   1      -5.269   3.208  -1.224  0.00  0.00     0.003 A 
ENDROOT
TORSDOF 0
ENDMDL
