MODEL 1
REMARK minimizedAffinity 15.5025644
REMARK minimizedRMSD -1
REMARK  0 active torsions:
REMARK  status: ('A' for Active; 'I' for Inactive)
ROOT
ATOM      1  C4' PXY d   1       1.928  -1.850  -2.734  0.00  0.00     0.077 C 
ATOM      2  C1' PXY d   1       1.149  -1.044   2.937  0.00  0.00     0.077 C 
ATOM      3  C1  PXY d   1       1.356  -1.268   1.452  0.00  0.00    -0.082 A 
ATOM      4  C2  PXY d   1       1.674  -0.245   0.675  0.00  0.00     0.003 A 
ATOM      5  C3  PXY d   1       1.833  -0.424  -0.675  0.00  0.00     0.003 A 
ATOM      6  C4  PXY d   1       1.719  -1.672  -1.227  0.00  0.00    -0.082 A 
ATOM      7  C5  PXY d   1       1.405  -2.722  -0.439  0.00  0.00     0.003 A 
ATOM      8  C6  PXY d   1       1.207  -2.512   0.923  0.00  0.00     0.003 A 
ENDROOT
TORSDOF 0
ENDMDL
