MODEL 1
REMARK minimizedAffinity 21.0078831
REMARK minimizedRMSD -1
REMARK  0 active torsions:
REMARK  status: ('A' for Active; 'I' for Inactive)
ROOT
ATOM      1  C4' PXY d   1      -4.541   0.212  -1.084  0.00  0.00     0.077 C 
ATOM      2  C1' PXY d   1      -4.395   5.965  -0.539  0.00  0.00     0.077 C 
ATOM      3  C1  PXY d   1      -4.446   4.457  -0.686  0.00  0.00    -0.082 A 
ATOM      4  C2  PXY d   1      -3.633   3.701   0.035  0.00  0.00     0.003 A 
ATOM      5  C3  PXY d   1      -3.643   2.338  -0.109  0.00  0.00     0.003 A 
ATOM      6  C4  PXY d   1      -4.531   1.738  -0.961  0.00  0.00    -0.082 A 
ATOM      7  C5  PXY d   1      -5.371   2.501  -1.692  0.00  0.00     0.003 A 
ATOM      8  C6  PXY d   1      -5.317   3.885  -1.562  0.00  0.00     0.003 A 
ENDROOT
TORSDOF 0
ENDMDL
