MODEL 1
REMARK minimizedAffinity 12.4957695
REMARK minimizedRMSD -1
REMARK  0 active torsions:
REMARK  status: ('A' for Active; 'I' for Inactive)
ROOT
ATOM      1  C4' PXY d   1       5.185   4.461  -1.412  0.00  0.00     0.077 C 
ATOM      2  C1' PXY d   1       2.604  -0.445   0.224  0.00  0.00     0.077 C 
ATOM      3  C1  PXY d   1       3.276   0.848  -0.195  0.00  0.00    -0.082 A 
ATOM      4  C2  PXY d   1       3.593   1.038  -1.465  0.00  0.00     0.003 A 
ATOM      5  C3  PXY d   1       4.230   2.188  -1.856  0.00  0.00     0.003 A 
ATOM      6  C4  PXY d   1       4.497   3.175  -0.946  0.00  0.00    -0.082 A 
ATOM      7  C5  PXY d   1       4.167   2.993   0.350  0.00  0.00     0.003 A 
ATOM      8  C6  PXY d   1       3.559   1.801   0.734  0.00  0.00     0.003 A 
ENDROOT
TORSDOF 0
ENDMDL
