MODEL 1
REMARK minimizedAffinity 6.01423025
REMARK minimizedRMSD -1
REMARK  1 active torsions:
REMARK  status: ('A' for Active; 'I' for Inactive)
REMARK    1  A    between atoms: C1_2  and  C2_3 
ROOT
ATOM      1  C2  UNL d   1       4.640  -4.109   0.986  0.00  0.00    -0.081 A 
ATOM      2  C3  UNL d   1       3.435  -4.342   0.312  0.00  0.00     0.006 A 
ATOM      3  C4  UNL d   1       2.260  -3.708   0.723  0.00  0.00     0.002 A 
ATOM      4  C5  UNL d   1       2.272  -2.825   1.808  0.00  0.00    -0.080 A 
ATOM      5  C6  UNL d   1       1.024  -2.114   2.240  0.00  0.00     0.076 C 
ATOM      6  C7  UNL d   1       3.472  -2.605   2.492  0.00  0.00     0.002 A 
ATOM      7  C8  UNL d   1       4.647  -3.239   2.083  0.00  0.00     0.006 A 
ENDROOT
BRANCH   1   8
ATOM      8  C1  UNL d   1       5.922  -4.741   0.506  0.00  0.00     0.054 C 
ATOM      9  C   UNL d   1       5.997  -4.752  -1.014  0.00  0.00     0.018 C 
ENDBRANCH   1   8
TORSDOF 1
ENDMDL
