MODEL 1
REMARK minimizedAffinity 11.463625
REMARK minimizedRMSD -1
REMARK  1 active torsions:
REMARK  status: ('A' for Active; 'I' for Inactive)
REMARK    1  A    between atoms: C1_2  and  C2_3 
ROOT
ATOM      1  C2  UNL d   1       3.426  -4.142   1.546  0.00  0.00    -0.081 A 
ATOM      2  C3  UNL d   1       4.790  -3.828   1.504  0.00  0.00     0.006 A 
ATOM      3  C4  UNL d   1       5.629  -4.437   0.567  0.00  0.00     0.002 A 
ATOM      4  C5  UNL d   1       5.116  -5.362  -0.349  0.00  0.00    -0.080 A 
ATOM      5  C6  UNL d   1       5.999  -6.000  -1.380  0.00  0.00     0.076 C 
ATOM      6  C7  UNL d   1       3.757  -5.688  -0.296  0.00  0.00     0.002 A 
ATOM      7  C8  UNL d   1       2.918  -5.081   0.641  0.00  0.00     0.006 A 
ENDROOT
BRANCH   1   8
ATOM      8  C1  UNL d   1       2.508  -3.439   2.513  0.00  0.00     0.054 C 
ATOM      9  C   UNL d   1       1.124  -3.237   1.913  0.00  0.00     0.018 C 
ENDBRANCH   1   8
TORSDOF 1
ENDMDL
