MODEL 1
REMARK minimizedAffinity 4.39998198
REMARK minimizedRMSD -1
REMARK  1 active torsions:
REMARK  status: ('A' for Active; 'I' for Inactive)
REMARK    1  A    between atoms: C1_2  and  C2_3 
ROOT
ATOM      1  C2  UNL d   1       1.733  -3.013   1.790  0.00  0.00    -0.081 A 
ATOM      2  C3  UNL d   1       0.894  -2.094   2.431  0.00  0.00     0.006 A 
ATOM      3  C4  UNL d   1      -0.336  -2.503   2.954  0.00  0.00     0.002 A 
ATOM      4  C5  UNL d   1      -0.742  -3.837   2.852  0.00  0.00    -0.080 A 
ATOM      5  C6  UNL d   1      -2.046  -4.295   3.436  0.00  0.00     0.076 C 
ATOM      6  C7  UNL d   1       0.088  -4.752   2.196  0.00  0.00     0.002 A 
ATOM      7  C8  UNL d   1       1.317  -4.344   1.672  0.00  0.00     0.006 A 
ENDROOT
BRANCH   1   8
ATOM      8  C1  UNL d   1       3.087  -2.590   1.282  0.00  0.00     0.054 C 
ATOM      9  C   UNL d   1       4.134  -3.667   1.532  0.00  0.00     0.018 C 
ENDBRANCH   1   8
TORSDOF 1
ENDMDL
