MODEL 1
REMARK minimizedAffinity -3.81253052
REMARK minimizedRMSD -1
REMARK  1 active torsions:
REMARK  status: ('A' for Active; 'I' for Inactive)
REMARK    1  A    between atoms: C1_2  and  C2_3 
ROOT
ATOM      1  C2  UNL d   1       0.134   0.020   0.472  0.00  0.00    -0.076 A 
ATOM      2  C3  UNL d   1      -0.882   0.826  -0.070  0.00  0.00     0.004 A 
ATOM      3  C4  UNL d   1      -1.271   2.009   0.557  0.00  0.00    -0.003 A 
ATOM      4  C5  UNL d   1      -0.649   2.405   1.736  0.00  0.00     0.000 A 
ATOM      5  C6  UNL d   1       0.373   1.627   2.278  0.00  0.00     0.000 A 
ATOM      6  C7  UNL d   1       0.788   0.440   1.650  0.00  0.00    -0.073 A 
ATOM      7  C8  UNL d   1       1.891  -0.364   2.282  0.00  0.00     0.078 C 
ENDROOT
BRANCH   1   8
ATOM      8  C1  UNL d   1       0.494  -1.266  -0.237  0.00  0.00     0.053 C 
ATOM      9  C   UNL d   1       0.744  -1.061  -1.723  0.00  0.00     0.018 C 
ENDBRANCH   1   8
TORSDOF 1
ENDMDL
