MODEL 1
REMARK minimizedAffinity -3.59119368
REMARK minimizedRMSD -1
REMARK  1 active torsions:
REMARK  status: ('A' for Active; 'I' for Inactive)
REMARK    1  A    between atoms: C1_2  and  C2_3 
ROOT
ATOM      1  C2  UNL d   1       0.172   1.911   2.020  0.00  0.00    -0.076 A 
ATOM      2  C3  UNL d   1       1.204   1.777   2.965  0.00  0.00     0.004 A 
ATOM      3  C4  UNL d   1       2.177   2.765   3.109  0.00  0.00    -0.003 A 
ATOM      4  C5  UNL d   1       2.134   3.902   2.311  0.00  0.00     0.000 A 
ATOM      5  C6  UNL d   1       1.107   4.060   1.380  0.00  0.00     0.000 A 
ATOM      6  C7  UNL d   1       0.109   3.081   1.234  0.00  0.00    -0.073 A 
ATOM      7  C8  UNL d   1      -0.971   3.299   0.210  0.00  0.00     0.078 C 
ENDROOT
BRANCH   1   8
ATOM      8  C1  UNL d   1      -0.839   0.795   1.890  0.00  0.00     0.053 C 
ATOM      9  C   UNL d   1      -0.364  -0.318   0.969  0.00  0.00     0.018 C 
ENDBRANCH   1   8
TORSDOF 1
ENDMDL
