MODEL 1
REMARK minimizedAffinity -3.72590661
REMARK minimizedRMSD -1
REMARK  1 active torsions:
REMARK  status: ('A' for Active; 'I' for Inactive)
REMARK    1  A    between atoms: C1_2  and  C2_3 
ROOT
ATOM      1  C2  UNL d   1       0.606  -0.314   0.542  0.00  0.00    -0.076 A 
ATOM      2  C3  UNL d   1       0.976  -1.111   1.639  0.00  0.00     0.004 A 
ATOM      3  C4  UNL d   1       0.778  -0.668   2.946  0.00  0.00    -0.003 A 
ATOM      4  C5  UNL d   1       0.207   0.579   3.176  0.00  0.00     0.000 A 
ATOM      5  C6  UNL d   1      -0.181   1.375   2.100  0.00  0.00     0.000 A 
ATOM      6  C7  UNL d   1      -0.004   0.937   0.776  0.00  0.00    -0.073 A 
ATOM      7  C8  UNL d   1      -0.437   1.839  -0.347  0.00  0.00     0.078 C 
ENDROOT
BRANCH   1   8
ATOM      8  C1  UNL d   1       0.869  -0.835  -0.853  0.00  0.00     0.053 C 
ATOM      9  C   UNL d   1       0.740  -2.348  -0.944  0.00  0.00     0.018 C 
ENDBRANCH   1   8
TORSDOF 1
ENDMDL
