MODEL 1
REMARK minimizedAffinity -5.58910465
REMARK minimizedRMSD -1
REMARK  1 active torsions:
REMARK  status: ('A' for Active; 'I' for Inactive)
REMARK    1  A    between atoms: C1_2  and  C2_3 
ROOT
ATOM      1  C2  UNL d   1       0.782   1.531   1.841  0.00  0.00    -0.076 A 
ATOM      2  C3  UNL d   1       1.410   0.344   1.427  0.00  0.00     0.004 A 
ATOM      3  C4  UNL d   1       0.953  -0.359   0.314  0.00  0.00    -0.003 A 
ATOM      4  C5  UNL d   1      -0.139   0.115  -0.405  0.00  0.00     0.000 A 
ATOM      5  C6  UNL d   1      -0.763   1.301  -0.019  0.00  0.00     0.000 A 
ATOM      6  C7  UNL d   1      -0.305   2.030   1.091  0.00  0.00    -0.073 A 
ATOM      7  C8  UNL d   1      -1.019   3.300   1.466  0.00  0.00     0.078 C 
ENDROOT
BRANCH   1   8
ATOM      8  C1  UNL d   1       1.304   2.236   3.073  0.00  0.00     0.053 C 
ATOM      9  C   UNL d   1       2.417   3.222   2.752  0.00  0.00     0.018 C 
ENDBRANCH   1   8
TORSDOF 1
ENDMDL
