MODEL 1
REMARK minimizedAffinity -2.77053261
REMARK minimizedRMSD -1
REMARK  1 active torsions:
REMARK  status: ('A' for Active; 'I' for Inactive)
REMARK    1  A    between atoms: C1_2  and  C2_3 
ROOT
ATOM      1  C2  UNL d   1       0.073  -0.520   0.518  0.00  0.00    -0.076 A 
ATOM      2  C3  UNL d   1      -0.682   0.418  -0.208  0.00  0.00     0.004 A 
ATOM      3  C4  UNL d   1      -1.005   1.658   0.341  0.00  0.00    -0.003 A 
ATOM      4  C5  UNL d   1      -0.577   1.980   1.624  0.00  0.00     0.000 A 
ATOM      5  C6  UNL d   1       0.187   1.069   2.352  0.00  0.00     0.000 A 
ATOM      6  C7  UNL d   1       0.535  -0.179   1.807  0.00  0.00    -0.073 A 
ATOM      7  C8  UNL d   1       1.356  -1.126   2.638  0.00  0.00     0.078 C 
ENDROOT
BRANCH   1   8
ATOM      8  C1  UNL d   1       0.369  -1.859  -0.119  0.00  0.00     0.053 C 
ATOM      9  C   UNL d   1      -0.044  -1.913  -1.582  0.00  0.00     0.018 C 
ENDBRANCH   1   8
TORSDOF 1
ENDMDL
