MODEL 1
REMARK minimizedAffinity -1.04744256
REMARK minimizedRMSD -1
REMARK  1 active torsions:
REMARK  status: ('A' for Active; 'I' for Inactive)
REMARK    1  A    between atoms: C1_2  and  C2_3 
ROOT
ATOM      1  C2  UNL d   1       0.001   0.901   1.553  0.00  0.00    -0.076 A 
ATOM      2  C3  UNL d   1       0.673  -0.121   0.860  0.00  0.00     0.004 A 
ATOM      3  C4  UNL d   1       0.319  -0.455  -0.446  0.00  0.00    -0.003 A 
ATOM      4  C5  UNL d   1      -0.713   0.228  -1.081  0.00  0.00     0.000 A 
ATOM      5  C6  UNL d   1      -1.378   1.257  -0.415  0.00  0.00     0.000 A 
ATOM      6  C7  UNL d   1      -1.023   1.617   0.896  0.00  0.00    -0.073 A 
ATOM      7  C8  UNL d   1      -1.778   2.730   1.569  0.00  0.00     0.078 C 
ENDROOT
BRANCH   1   8
ATOM      8  C1  UNL d   1       0.411   1.201   2.977  0.00  0.00     0.053 C 
ATOM      9  C   UNL d   1       1.602   2.144   3.054  0.00  0.00     0.018 C 
ENDBRANCH   1   8
TORSDOF 1
ENDMDL
