MODEL 1
REMARK minimizedAffinity 9.20484257
REMARK minimizedRMSD -1
REMARK  0 active torsions:
REMARK  status: ('A' for Active; 'I' for Inactive)
ROOT
ATOM      1  C   UNL d   1      -5.982  -5.309   3.461  0.00  0.00     0.020 A 
ATOM      2  C1  UNL d   1      -5.593  -5.028   2.151  0.00  0.00     0.020 A 
ATOM      3  C2  UNL d   1      -4.999  -3.802   1.847  0.00  0.00     0.034 A 
ATOM      4  C3  UNL d   1      -4.793  -2.850   2.852  0.00  0.00     0.017 A 
ATOM      5  C4  UNL d   1      -5.183  -3.133   4.167  0.00  0.00     0.017 A 
ATOM      6  C5  UNL d   1      -5.777  -4.363   4.466  0.00  0.00     0.034 A 
ATOM      7 Cl   UNL d   1      -4.961  -2.009   5.461  0.00  0.00    -0.070 Cl
ATOM      8 Cl1  UNL d   1      -4.053  -1.355   2.404  0.00  0.00    -0.070 Cl
ENDROOT
TORSDOF 0
ENDMDL
