MODEL 1
REMARK minimizedAffinity 4.00982332
REMARK minimizedRMSD -1
REMARK  0 active torsions:
REMARK  status: ('A' for Active; 'I' for Inactive)
ROOT
ATOM      1  C   UNL d   1      -5.684  -4.129   1.563  0.00  0.00     0.020 A 
ATOM      2  C1  UNL d   1      -5.704  -5.502   1.801  0.00  0.00     0.020 A 
ATOM      3  C2  UNL d   1      -5.801  -5.983   3.109  0.00  0.00     0.034 A 
ATOM      4  C3  UNL d   1      -5.878  -5.089   4.183  0.00  0.00     0.017 A 
ATOM      5  C4  UNL d   1      -5.858  -3.710   3.943  0.00  0.00     0.017 A 
ATOM      6  C5  UNL d   1      -5.761  -3.235   2.631  0.00  0.00     0.034 A 
ATOM      7 Cl   UNL d   1      -5.950  -2.546   5.217  0.00  0.00    -0.070 Cl
ATOM      8 Cl1  UNL d   1      -5.997  -5.753   5.774  0.00  0.00    -0.070 Cl
ENDROOT
TORSDOF 0
ENDMDL
