MODEL 1
REMARK minimizedAffinity 6.74307251
REMARK minimizedRMSD -1
REMARK  0 active torsions:
REMARK  status: ('A' for Active; 'I' for Inactive)
ROOT
ATOM      1  C   UNL d   1      -0.963  -0.556   1.849  0.00  0.00     0.020 A 
ATOM      2  C1  UNL d   1      -0.534  -1.823   2.242  0.00  0.00     0.020 A 
ATOM      3  C2  UNL d   1      -1.100  -2.962   1.664  0.00  0.00     0.034 A 
ATOM      4  C3  UNL d   1      -2.098  -2.836   0.691  0.00  0.00     0.017 A 
ATOM      5  C4  UNL d   1      -2.528  -1.563   0.297  0.00  0.00     0.017 A 
ATOM      6  C5  UNL d   1      -1.958  -0.427   0.879  0.00  0.00     0.034 A 
ATOM      7 Cl   UNL d   1      -3.754  -1.328  -0.897  0.00  0.00    -0.070 Cl
ATOM      8 Cl1  UNL d   1      -2.753  -4.287   0.019  0.00  0.00    -0.070 Cl
ENDROOT
TORSDOF 0
ENDMDL
