MODEL 1
REMARK minimizedAffinity 7.79136896
REMARK minimizedRMSD -1
REMARK  0 active torsions:
REMARK  status: ('A' for Active; 'I' for Inactive)
ROOT
ATOM      1  C   UNL d   1       2.602   3.782  -3.627  0.00  0.00     0.020 A 
ATOM      2  C1  UNL d   1       3.342   2.736  -3.077  0.00  0.00     0.020 A 
ATOM      3  C2  UNL d   1       2.999   2.220  -1.826  0.00  0.00     0.034 A 
ATOM      4  C3  UNL d   1       1.913   2.749  -1.120  0.00  0.00     0.017 A 
ATOM      5  C4  UNL d   1       1.170   3.799  -1.672  0.00  0.00     0.017 A 
ATOM      6  C5  UNL d   1       1.518   4.312  -2.926  0.00  0.00     0.034 A 
ATOM      7 Cl   UNL d   1      -0.184   4.504  -0.861  0.00  0.00    -0.070 Cl
ATOM      8 Cl1  UNL d   1       1.545   2.062   0.422  0.00  0.00    -0.070 Cl
ENDROOT
TORSDOF 0
ENDMDL
