MODEL 1
REMARK minimizedAffinity 0.235247031
REMARK minimizedRMSD -1
REMARK  0 active torsions:
REMARK  status: ('A' for Active; 'I' for Inactive)
ROOT
ATOM      1  C   UNL d   1      -2.899   0.220   4.215  0.00  0.00     0.020 A 
ATOM      2  C1  UNL d   1      -2.681  -0.327   2.952  0.00  0.00     0.020 A 
ATOM      3  C2  UNL d   1      -3.310  -1.520   2.590  0.00  0.00     0.034 A 
ATOM      4  C3  UNL d   1      -4.160  -2.170   3.492  0.00  0.00     0.017 A 
ATOM      5  C4  UNL d   1      -4.379  -1.619   4.760  0.00  0.00     0.017 A 
ATOM      6  C5  UNL d   1      -3.747  -0.424   5.117  0.00  0.00     0.034 A 
ATOM      7 Cl   UNL d   1      -5.415  -2.363   5.927  0.00  0.00    -0.070 Cl
ATOM      8 Cl1  UNL d   1      -4.905  -3.642   2.977  0.00  0.00    -0.070 Cl
ENDROOT
TORSDOF 0
ENDMDL
