MODEL 1
REMARK minimizedAffinity 9.43792439
REMARK minimizedRMSD -1
REMARK  0 active torsions:
REMARK  status: ('A' for Active; 'I' for Inactive)
ROOT
ATOM      1  C   UNL d   1      -1.660   0.196   2.049  0.00  0.00     0.020 A 
ATOM      2  C1  UNL d   1      -2.638   1.067   1.570  0.00  0.00     0.020 A 
ATOM      3  C2  UNL d   1      -3.507   1.700   2.463  0.00  0.00     0.034 A 
ATOM      4  C3  UNL d   1      -3.399   1.463   3.838  0.00  0.00     0.017 A 
ATOM      5  C4  UNL d   1      -2.417   0.588   4.317  0.00  0.00     0.017 A 
ATOM      6  C5  UNL d   1      -1.550  -0.043   3.419  0.00  0.00     0.034 A 
ATOM      7 Cl   UNL d   1      -2.222   0.245   6.000  0.00  0.00    -0.070 Cl
ATOM      8 Cl1  UNL d   1      -4.506   2.279   4.883  0.00  0.00    -0.070 Cl
ENDROOT
TORSDOF 0
ENDMDL
