MODEL 1
REMARK minimizedAffinity 1.69851971
REMARK minimizedRMSD -1
REMARK  0 active torsions:
REMARK  status: ('A' for Active; 'I' for Inactive)
ROOT
ATOM      1  C   UNL d   1      -3.644  -1.524   2.465  0.00  0.00     0.020 A 
ATOM      2  C1  UNL d   1      -2.805  -0.413   2.543  0.00  0.00     0.020 A 
ATOM      3  C2  UNL d   1      -2.883   0.444   3.643  0.00  0.00     0.034 A 
ATOM      4  C3  UNL d   1      -3.801   0.192   4.669  0.00  0.00     0.017 A 
ATOM      5  C4  UNL d   1      -4.642  -0.924   4.590  0.00  0.00     0.017 A 
ATOM      6  C5  UNL d   1      -4.560  -1.779   3.486  0.00  0.00     0.034 A 
ATOM      7 Cl   UNL d   1      -5.800  -1.300   5.816  0.00  0.00    -0.070 Cl
ATOM      8 Cl1  UNL d   1      -3.842   1.294   5.999  0.00  0.00    -0.070 Cl
ENDROOT
TORSDOF 0
ENDMDL
