MODEL 1
REMARK minimizedAffinity -0.170005575
REMARK minimizedRMSD -1
REMARK  0 active torsions:
REMARK  status: ('A' for Active; 'I' for Inactive)
ROOT
ATOM      1  C   UNL d   1      -3.210   0.307   1.086  0.00  0.00     0.020 A 
ATOM      2  C1  UNL d   1      -3.411   1.071   2.235  0.00  0.00     0.020 A 
ATOM      3  C2  UNL d   1      -2.650   0.824   3.379  0.00  0.00     0.034 A 
ATOM      4  C3  UNL d   1      -1.684  -0.189   3.377  0.00  0.00     0.017 A 
ATOM      5  C4  UNL d   1      -1.483  -0.955   2.223  0.00  0.00     0.017 A 
ATOM      6  C5  UNL d   1      -2.248  -0.704   1.080  0.00  0.00     0.034 A 
ATOM      7 Cl   UNL d   1      -0.310  -2.222   2.145  0.00  0.00    -0.070 Cl
ATOM      8 Cl1  UNL d   1      -0.778  -0.439   4.828  0.00  0.00    -0.070 Cl
ENDROOT
TORSDOF 0
ENDMDL
