MODEL 1
REMARK minimizedAffinity 6.16150522
REMARK minimizedRMSD -1
REMARK  0 active torsions:
REMARK  status: ('A' for Active; 'I' for Inactive)
ROOT
ATOM      1  C   UNL d   1      -5.940  -5.749   5.389  0.00  0.00     0.020 A 
ATOM      2  C1  UNL d   1      -5.937  -6.000   4.017  0.00  0.00     0.020 A 
ATOM      3  C2  UNL d   1      -5.952  -4.936   3.113  0.00  0.00     0.034 A 
ATOM      4  C3  UNL d   1      -5.972  -3.616   3.579  0.00  0.00     0.017 A 
ATOM      5  C4  UNL d   1      -5.976  -3.366   4.956  0.00  0.00     0.017 A 
ATOM      6  C5  UNL d   1      -5.960  -4.435   5.857  0.00  0.00     0.034 A 
ATOM      7 Cl   UNL d   1      -6.000  -1.765   5.607  0.00  0.00    -0.070 Cl
ATOM      8 Cl1  UNL d   1      -5.991  -2.349   2.405  0.00  0.00    -0.070 Cl
ENDROOT
TORSDOF 0
ENDMDL
