MODEL 1
REMARK minimizedAffinity 5.44708061
REMARK minimizedRMSD -1
REMARK  0 active torsions:
REMARK  status: ('A' for Active; 'I' for Inactive)
ROOT
ATOM      1  C   UNL d   1      -5.986  -4.571   5.903  0.00  0.00     0.020 A 
ATOM      2  C1  UNL d   1      -5.997  -5.848   5.341  0.00  0.00     0.020 A 
ATOM      3  C2  UNL d   1      -6.000  -5.999   3.953  0.00  0.00     0.034 A 
ATOM      4  C3  UNL d   1      -5.991  -4.874   3.122  0.00  0.00     0.017 A 
ATOM      5  C4  UNL d   1      -5.980  -3.593   3.687  0.00  0.00     0.017 A 
ATOM      6  C5  UNL d   1      -5.977  -3.447   5.077  0.00  0.00     0.034 A 
ATOM      7 Cl   UNL d   1      -5.968  -2.156   2.726  0.00  0.00    -0.070 Cl
ATOM      8 Cl1  UNL d   1      -5.994  -5.136   1.414  0.00  0.00    -0.070 Cl
ENDROOT
TORSDOF 0
ENDMDL
