MODEL 1
REMARK minimizedAffinity 11.3116913
REMARK minimizedRMSD -1
REMARK  0 active torsions:
REMARK  status: ('A' for Active; 'I' for Inactive)
ROOT
ATOM      1  C   UNL d   1       3.901   1.395  -0.683  0.00  0.00     0.020 A 
ATOM      2  C1  UNL d   1       2.538   1.321  -0.399  0.00  0.00     0.020 A 
ATOM      3  C2  UNL d   1       1.611   1.892  -1.273  0.00  0.00     0.034 A 
ATOM      4  C3  UNL d   1       2.045   2.539  -2.436  0.00  0.00     0.017 A 
ATOM      5  C4  UNL d   1       3.414   2.612  -2.720  0.00  0.00     0.017 A 
ATOM      6  C5  UNL d   1       4.338   2.039  -1.841  0.00  0.00     0.034 A 
ATOM      7 Cl   UNL d   1       4.026   3.394  -4.135  0.00  0.00    -0.070 Cl
ATOM      8 Cl1  UNL d   1       0.843   3.221  -3.473  0.00  0.00    -0.070 Cl
ENDROOT
TORSDOF 0
ENDMDL
