MODEL 1
REMARK minimizedAffinity 1.63605893
REMARK minimizedRMSD -1
REMARK  0 active torsions:
REMARK  status: ('A' for Active; 'I' for Inactive)
ROOT
ATOM      1  C   UNL d   1       0.167  -1.376   3.862  0.00  0.00     0.020 A 
ATOM      2  C1  UNL d   1      -0.015  -2.324   2.856  0.00  0.00     0.020 A 
ATOM      3  C2  UNL d   1      -1.107  -2.223   1.991  0.00  0.00     0.034 A 
ATOM      4  C3  UNL d   1      -2.022  -1.173   2.132  0.00  0.00     0.017 A 
ATOM      5  C4  UNL d   1      -1.838  -0.223   3.143  0.00  0.00     0.017 A 
ATOM      6  C5  UNL d   1      -0.742  -0.328   4.005  0.00  0.00     0.034 A 
ATOM      7 Cl   UNL d   1      -2.924   1.101   3.379  0.00  0.00    -0.070 Cl
ATOM      8 Cl1  UNL d   1      -3.350  -1.110   1.028  0.00  0.00    -0.070 Cl
ENDROOT
TORSDOF 0
ENDMDL
