MODEL 1
REMARK minimizedAffinity 7.27737522
REMARK minimizedRMSD -1
REMARK  0 active torsions:
REMARK  status: ('A' for Active; 'I' for Inactive)
ROOT
ATOM      1  C   UNL d   1       4.677   3.719   1.744  0.00  0.00     0.020 A 
ATOM      2  C1  UNL d   1       5.465   3.696   0.594  0.00  0.00     0.020 A 
ATOM      3  C2  UNL d   1       4.989   3.082  -0.566  0.00  0.00     0.034 A 
ATOM      4  C3  UNL d   1       3.721   2.490  -0.580  0.00  0.00     0.017 A 
ATOM      5  C4  UNL d   1       2.931   2.514   0.575  0.00  0.00     0.017 A 
ATOM      6  C5  UNL d   1       3.413   3.130   1.734  0.00  0.00     0.034 A 
ATOM      7 Cl   UNL d   1       1.356   1.804   0.636  0.00  0.00    -0.070 Cl
ATOM      8 Cl1  UNL d   1       3.195   1.750  -2.050  0.00  0.00    -0.070 Cl
ENDROOT
TORSDOF 0
ENDMDL
