MODEL 1
REMARK minimizedAffinity 10.513751
REMARK minimizedRMSD -1
REMARK  0 active torsions:
REMARK  status: ('A' for Active; 'I' for Inactive)
ROOT
ATOM      1  C   UNL d   1       5.507   3.655  -4.960  0.00  0.00     0.020 A 
ATOM      2  C1  UNL d   1       4.849   4.753  -5.514  0.00  0.00     0.020 A 
ATOM      3  C2  UNL d   1       3.516   5.008  -5.183  0.00  0.00     0.034 A 
ATOM      4  C3  UNL d   1       2.837   4.165  -4.296  0.00  0.00     0.017 A 
ATOM      5  C4  UNL d   1       3.499   3.064  -3.740  0.00  0.00     0.017 A 
ATOM      6  C5  UNL d   1       4.833   2.813  -4.075  0.00  0.00     0.034 A 
ATOM      7 Cl   UNL d   1       2.727   1.979  -2.637  0.00  0.00    -0.070 Cl
ATOM      8 Cl1  UNL d   1       1.191   4.542  -3.931  0.00  0.00    -0.070 Cl
ENDROOT
TORSDOF 0
ENDMDL
