MODEL 1
REMARK minimizedAffinity 14.0476818
REMARK minimizedRMSD -1
REMARK  0 active torsions:
REMARK  status: ('A' for Active; 'I' for Inactive)
ROOT
ATOM      1  C   UNL d   1       1.481   1.441  -1.089  0.00  0.00     0.020 A 
ATOM      2  C1  UNL d   1       2.868   1.307  -1.033  0.00  0.00     0.020 A 
ATOM      3  C2  UNL d   1       3.671   1.967  -1.966  0.00  0.00     0.034 A 
ATOM      4  C3  UNL d   1       3.089   2.764  -2.958  0.00  0.00     0.017 A 
ATOM      5  C4  UNL d   1       1.696   2.898  -3.013  0.00  0.00     0.017 A 
ATOM      6  C5  UNL d   1       0.897   2.235  -2.077  0.00  0.00     0.034 A 
ATOM      7 Cl   UNL d   1       0.905   3.864  -4.208  0.00  0.00    -0.070 Cl
ATOM      8 Cl1  UNL d   1       4.143   3.552  -4.078  0.00  0.00    -0.070 Cl
ENDROOT
TORSDOF 0
ENDMDL
