MODEL 1
REMARK minimizedAffinity 10.8351793
REMARK minimizedRMSD -1
REMARK  0 active torsions:
REMARK  status: ('A' for Active; 'I' for Inactive)
ROOT
ATOM      1  C   UNL d   1      -3.296  -0.082   1.971  0.00  0.00     0.020 A 
ATOM      2  C1  UNL d   1      -2.156   0.441   2.580  0.00  0.00     0.020 A 
ATOM      3  C2  UNL d   1      -0.996  -0.332   2.669  0.00  0.00     0.034 A 
ATOM      4  C3  UNL d   1      -0.973  -1.631   2.149  0.00  0.00     0.017 A 
ATOM      5  C4  UNL d   1      -2.118  -2.155   1.538  0.00  0.00     0.017 A 
ATOM      6  C5  UNL d   1      -3.277  -1.377   1.452  0.00  0.00     0.034 A 
ATOM      7 Cl   UNL d   1      -2.167  -3.749   0.873  0.00  0.00    -0.070 Cl
ATOM      8 Cl1  UNL d   1       0.496  -2.529   2.294  0.00  0.00    -0.070 Cl
ENDROOT
TORSDOF 0
ENDMDL
