MODEL 1
REMARK minimizedAffinity 13.1860857
REMARK minimizedRMSD -1
REMARK  0 active torsions:
REMARK  status: ('A' for Active; 'I' for Inactive)
ROOT
ATOM      1  C   UNL d   1      -5.256  -5.944   2.314  0.00  0.00     0.020 A 
ATOM      2  C1  UNL d   1      -5.914  -5.997   3.543  0.00  0.00     0.020 A 
ATOM      3  C2  UNL d   1      -5.490  -5.185   4.597  0.00  0.00     0.034 A 
ATOM      4  C3  UNL d   1      -4.407  -4.316   4.425  0.00  0.00     0.017 A 
ATOM      5  C4  UNL d   1      -3.748  -4.263   3.191  0.00  0.00     0.017 A 
ATOM      6  C5  UNL d   1      -4.176  -5.079   2.139  0.00  0.00     0.034 A 
ATOM      7 Cl   UNL d   1      -2.403  -3.216   2.903  0.00  0.00    -0.070 Cl
ATOM      8 Cl1  UNL d   1      -3.938  -3.340   5.771  0.00  0.00    -0.070 Cl
ENDROOT
TORSDOF 0
ENDMDL
