MODEL 1
REMARK minimizedAffinity 14.7130547
REMARK minimizedRMSD -1
REMARK  0 active torsions:
REMARK  status: ('A' for Active; 'I' for Inactive)
ROOT
ATOM      1  C   UNL d   1      -1.559  -5.986  -5.999  0.00  0.00     0.020 A 
ATOM      2  C1  UNL d   1      -2.711  -5.999  -5.213  0.00  0.00     0.020 A 
ATOM      3  C2  UNL d   1      -2.703  -5.397  -3.953  0.00  0.00     0.034 A 
ATOM      4  C3  UNL d   1      -1.542  -4.779  -3.475  0.00  0.00     0.017 A 
ATOM      5  C4  UNL d   1      -0.386  -4.767  -4.264  0.00  0.00     0.017 A 
ATOM      6  C5  UNL d   1      -0.399  -5.371  -5.525  0.00  0.00     0.034 A 
ATOM      7 Cl   UNL d   1       1.085  -4.025  -3.742  0.00  0.00    -0.070 Cl
ATOM      8 Cl1  UNL d   1      -1.604  -4.054  -1.908  0.00  0.00    -0.070 Cl
ENDROOT
TORSDOF 0
ENDMDL
