MODEL 1
REMARK minimizedAffinity 17.1446609
REMARK minimizedRMSD -1
REMARK  0 active torsions:
REMARK  status: ('A' for Active; 'I' for Inactive)
ROOT
ATOM      1  C   UNL d   1      -4.985  -4.891   5.999  0.00  0.00     0.020 A 
ATOM      2  C1  UNL d   1      -5.627  -5.973   5.398  0.00  0.00     0.020 A 
ATOM      3  C2  UNL d   1      -5.829  -5.986   4.016  0.00  0.00     0.034 A 
ATOM      4  C3  UNL d   1      -5.388  -4.916   3.230  0.00  0.00     0.017 A 
ATOM      5  C4  UNL d   1      -4.743  -3.830   3.834  0.00  0.00     0.017 A 
ATOM      6  C5  UNL d   1      -4.544  -3.822   5.218  0.00  0.00     0.034 A 
ATOM      7 Cl   UNL d   1      -4.170  -2.473   2.930  0.00  0.00    -0.070 Cl
ATOM      8 Cl1  UNL d   1      -5.670  -4.999   1.528  0.00  0.00    -0.070 Cl
ENDROOT
TORSDOF 0
ENDMDL
