MODEL 1
REMARK minimizedAffinity 12.5090275
REMARK minimizedRMSD -1
REMARK  0 active torsions:
REMARK  status: ('A' for Active; 'I' for Inactive)
ROOT
ATOM      1  C   UNL d   1      -2.572  -0.083   0.998  0.00  0.00     0.020 A 
ATOM      2  C1  UNL d   1      -1.736  -1.098   1.462  0.00  0.00     0.020 A 
ATOM      3  C2  UNL d   1      -1.475  -1.217   2.829  0.00  0.00     0.034 A 
ATOM      4  C3  UNL d   1      -2.051  -0.320   3.736  0.00  0.00     0.017 A 
ATOM      5  C4  UNL d   1      -2.890   0.698   3.269  0.00  0.00     0.017 A 
ATOM      6  C5  UNL d   1      -3.148   0.813   1.899  0.00  0.00     0.034 A 
ATOM      7 Cl   UNL d   1      -3.638   1.842   4.327  0.00  0.00    -0.070 Cl
ATOM      8 Cl1  UNL d   1      -1.686  -0.526   5.412  0.00  0.00    -0.070 Cl
ENDROOT
TORSDOF 0
ENDMDL
