MODEL 1
REMARK minimizedAffinity 5.92306805
REMARK minimizedRMSD -1
REMARK  2 active torsions:
REMARK  status: ('A' for Active; 'I' for Inactive)
REMARK    1  A    between atoms: C1_2  and  C2_3 
REMARK    2  A    between atoms: C2_3  and  C3_4 
ROOT
ATOM      1  C3  UNL d   1       4.376  -4.313  -1.326  0.00  0.00    -0.075 A 
ATOM      2  C4  UNL d   1       3.271  -3.746  -0.675  0.00  0.00     0.002 A 
ATOM      3  C5  UNL d   1       3.361  -2.478  -0.101  0.00  0.00     0.002 A 
ATOM      4  C6  UNL d   1       4.557  -1.766  -0.162  0.00  0.00    -0.004 A 
ATOM      5  C7  UNL d   1       5.666  -2.326  -0.791  0.00  0.00     0.002 A 
ATOM      6  C8  UNL d   1       5.578  -3.594  -1.370  0.00  0.00     0.002 A 
ENDROOT
BRANCH   1   7
ATOM      7  C2  UNL d   1       4.277  -5.673  -1.975  0.00  0.00     0.056 C 
BRANCH   7   8
ATOM      8  C1  UNL d   1       3.382  -5.708  -3.218  0.00  0.00     0.007 C 
ATOM      9  C   UNL d   1       3.487  -4.448  -4.068  0.00  0.00     0.009 C 
ENDBRANCH   7   8
ENDBRANCH   1   7
TORSDOF 2
ENDMDL
