MODEL 1
REMARK minimizedAffinity 2.03461885
REMARK minimizedRMSD -1
REMARK  2 active torsions:
REMARK  status: ('A' for Active; 'I' for Inactive)
REMARK    1  A    between atoms: C1_2  and  C2_3 
REMARK    2  A    between atoms: C2_3  and  C3_4 
ROOT
ATOM      1  C3  UNL d   1      -2.648   1.853  -1.943  0.00  0.00    -0.075 A 
ATOM      2  C4  UNL d   1      -3.435   0.744  -1.600  0.00  0.00     0.002 A 
ATOM      3  C5  UNL d   1      -4.827   0.816  -1.665  0.00  0.00     0.002 A 
ATOM      4  C6  UNL d   1      -5.449   1.998  -2.062  0.00  0.00    -0.004 A 
ATOM      5  C7  UNL d   1      -4.677   3.111  -2.389  0.00  0.00     0.002 A 
ATOM      6  C8  UNL d   1      -3.284   3.040  -2.330  0.00  0.00     0.002 A 
ENDROOT
BRANCH   1   7
ATOM      7  C2  UNL d   1      -1.141   1.773  -1.904  0.00  0.00     0.056 C 
BRANCH   7   8
ATOM      8  C1  UNL d   1      -0.504   2.554  -0.749  0.00  0.00     0.007 C 
ATOM      9  C   UNL d   1       0.093   3.886  -1.182  0.00  0.00     0.009 C 
ENDBRANCH   7   8
ENDBRANCH   1   7
TORSDOF 2
ENDMDL
