MODEL 1
REMARK minimizedAffinity 0.94641155
REMARK minimizedRMSD -1
REMARK  2 active torsions:
REMARK  status: ('A' for Active; 'I' for Inactive)
REMARK    1  A    between atoms: C1_2  and  C2_3 
REMARK    2  A    between atoms: C2_3  and  C3_4 
ROOT
ATOM      1  C3  UNL d   1       3.635  -4.266  -1.742  0.00  0.00    -0.075 A 
ATOM      2  C4  UNL d   1       4.970  -4.658  -1.563  0.00  0.00     0.002 A 
ATOM      3  C5  UNL d   1       5.915  -3.754  -1.078  0.00  0.00     0.002 A 
ATOM      4  C6  UNL d   1       5.542  -2.447  -0.775  0.00  0.00    -0.004 A 
ATOM      5  C7  UNL d   1       4.222  -2.041  -0.965  0.00  0.00     0.002 A 
ATOM      6  C8  UNL d   1       3.273  -2.945  -1.446  0.00  0.00     0.002 A 
ENDROOT
BRANCH   1   7
ATOM      7  C2  UNL d   1       2.601  -5.248  -2.239  0.00  0.00     0.056 C 
BRANCH   7   8
ATOM      8  C1  UNL d   1       1.655  -5.763  -1.149  0.00  0.00     0.007 C 
ATOM      9  C   UNL d   1       0.628  -4.728  -0.708  0.00  0.00     0.009 C 
ENDBRANCH   7   8
ENDBRANCH   1   7
TORSDOF 2
ENDMDL
