MODEL 1
REMARK minimizedAffinity 0.542874455
REMARK minimizedRMSD -1
REMARK  2 active torsions:
REMARK  status: ('A' for Active; 'I' for Inactive)
REMARK    1  A    between atoms: C1_2  and  C2_3 
REMARK    2  A    between atoms: C2_3  and  C3_4 
ROOT
ATOM      1  C3  UNL d   1       3.760  -4.174  -1.689  0.00  0.00    -0.075 A 
ATOM      2  C4  UNL d   1       4.507  -5.361  -1.653  0.00  0.00     0.002 A 
ATOM      3  C5  UNL d   1       4.879  -6.000  -2.836  0.00  0.00     0.002 A 
ATOM      4  C6  UNL d   1       4.501  -5.468  -4.067  0.00  0.00    -0.004 A 
ATOM      5  C7  UNL d   1       3.745  -4.299  -4.114  0.00  0.00     0.002 A 
ATOM      6  C8  UNL d   1       3.375  -3.655  -2.932  0.00  0.00     0.002 A 
ENDROOT
BRANCH   1   7
ATOM      7  C2  UNL d   1       3.380  -3.461  -0.413  0.00  0.00     0.056 C 
BRANCH   7   8
ATOM      8  C1  UNL d   1       4.135  -2.148  -0.183  0.00  0.00     0.007 C 
ATOM      9  C   UNL d   1       5.642  -2.283  -0.358  0.00  0.00     0.009 C 
ENDBRANCH   7   8
ENDBRANCH   1   7
TORSDOF 2
ENDMDL
