MODEL 1
REMARK minimizedAffinity -2.31411529
REMARK minimizedRMSD -1
REMARK  0 active torsions:
REMARK  status: ('A' for Active; 'I' for Inactive)
ROOT
ATOM      1  C4' PXY d   1       1.696  -0.424  -0.319  0.00  0.00     0.077 C 
ATOM      2  C1' PXY d   1      -3.310  -1.355  -3.056  0.00  0.00     0.077 C 
ATOM      3  C1  PXY d   1      -2.003  -1.114  -2.327  0.00  0.00    -0.082 A 
ATOM      4  C2  PXY d   1      -1.080  -0.342  -2.877  0.00  0.00     0.003 A 
ATOM      5  C3  PXY d   1       0.121  -0.139  -2.246  0.00  0.00     0.003 A 
ATOM      6  C4  PXY d   1       0.358  -0.688  -1.015  0.00  0.00    -0.082 A 
ATOM      7  C5  PXY d   1      -0.583  -1.468  -0.442  0.00  0.00     0.003 A 
ATOM      8  C6  PXY d   1      -1.779  -1.695  -1.118  0.00  0.00     0.003 A 
ENDROOT
TORSDOF 0
ENDMDL
