MODEL 1
REMARK minimizedAffinity -4.95163822
REMARK minimizedRMSD -1
REMARK  0 active torsions:
REMARK  status: ('A' for Active; 'I' for Inactive)
ROOT
ATOM      1  C4' PXY d   1      -1.903   0.673   1.841  0.00  0.00     0.077 C 
ATOM      2  C1' PXY d   1       3.633   1.018   0.212  0.00  0.00     0.077 C 
ATOM      3  C1  PXY d   1       2.178   0.921   0.628  0.00  0.00    -0.082 A 
ATOM      4  C2  PXY d   1       1.700   1.760   1.532  0.00  0.00     0.003 A 
ATOM      5  C3  PXY d   1       0.395   1.667   1.943  0.00  0.00     0.003 A 
ATOM      6  C4  PXY d   1      -0.443   0.739   1.384  0.00  0.00    -0.082 A 
ATOM      7  C5  PXY d   1       0.035  -0.113   0.453  0.00  0.00     0.003 A 
ATOM      8  C6  PXY d   1       1.374  -0.029   0.080  0.00  0.00     0.003 A 
ENDROOT
TORSDOF 0
ENDMDL
