MODEL 1
REMARK minimizedAffinity -4.51162291
REMARK minimizedRMSD -1
REMARK  0 active torsions:
REMARK  status: ('A' for Active; 'I' for Inactive)
ROOT
ATOM      1  C4' PXY d   1       2.368   2.657   1.202  0.00  0.00     0.077 C 
ATOM      2  C1' PXY d   1      -1.299  -1.505  -0.422  0.00  0.00     0.077 C 
ATOM      3  C1  PXY d   1      -0.347  -0.407   0.009  0.00  0.00    -0.082 A 
ATOM      4  C2  PXY d   1       0.782  -0.222  -0.655  0.00  0.00     0.003 A 
ATOM      5  C3  PXY d   1       1.669   0.746  -0.259  0.00  0.00     0.003 A 
ATOM      6  C4  PXY d   1       1.373   1.567   0.796  0.00  0.00    -0.082 A 
ATOM      7  C5  PXY d   1       0.218   1.391   1.472  0.00  0.00     0.003 A 
ATOM      8  C6  PXY d   1      -0.650   0.377   1.080  0.00  0.00     0.003 A 
ENDROOT
TORSDOF 0
ENDMDL
