MODEL 1
REMARK minimizedAffinity -2.82388425
REMARK minimizedRMSD -1
REMARK  0 active torsions:
REMARK  status: ('A' for Active; 'I' for Inactive)
ROOT
ATOM      1  C4' PXY d   1       3.912   0.973   1.325  0.00  0.00     0.077 C 
ATOM      2  C1' PXY d   1      -1.777   1.095   0.305  0.00  0.00     0.077 C 
ATOM      3  C1  PXY d   1      -0.284   1.051   0.567  0.00  0.00    -0.082 A 
ATOM      4  C2  PXY d   1       0.231   1.785   1.540  0.00  0.00     0.003 A 
ATOM      5  C3  PXY d   1       1.583   1.782   1.770  0.00  0.00     0.003 A 
ATOM      6  C4  PXY d   1       2.409   0.978   1.031  0.00  0.00    -0.082 A 
ATOM      7  C5  PXY d   1       1.890   0.219   0.043  0.00  0.00     0.003 A 
ATOM      8  C6  PXY d   1       0.521   0.268  -0.201  0.00  0.00     0.003 A 
ENDROOT
TORSDOF 0
ENDMDL
