MODEL 1
REMARK minimizedAffinity -5.35789204
REMARK minimizedRMSD -1
REMARK  0 active torsions:
REMARK  status: ('A' for Active; 'I' for Inactive)
ROOT
ATOM      1  C4' PXY d   1      -0.168  -0.666  -0.487  0.00  0.00     0.077 C 
ATOM      2  C1' PXY d   1       3.184   3.619   1.468  0.00  0.00     0.077 C 
ATOM      3  C1  PXY d   1       2.299   2.495   0.967  0.00  0.00    -0.082 A 
ATOM      4  C2  PXY d   1       2.746   1.680   0.026  0.00  0.00     0.003 A 
ATOM      5  C3  PXY d   1       1.946   0.678  -0.462  0.00  0.00     0.003 A 
ATOM      6  C4  PXY d   1       0.695   0.476   0.056  0.00  0.00    -0.082 A 
ATOM      7  C5  PXY d   1       0.236   1.298   1.024  0.00  0.00     0.003 A 
ATOM      8  C6  PXY d   1       1.047   2.334   1.476  0.00  0.00     0.003 A 
ENDROOT
TORSDOF 0
ENDMDL
