MODEL 1
REMARK minimizedAffinity -4.69091034
REMARK minimizedRMSD -1
REMARK  0 active torsions:
REMARK  status: ('A' for Active; 'I' for Inactive)
ROOT
ATOM      1  C4' PXY d   1      -0.662  -1.289  -0.636  0.00  0.00     0.077 C 
ATOM      2  C1' PXY d   1       2.949   2.750   1.378  0.00  0.00     0.077 C 
ATOM      3  C1  PXY d   1       1.994   1.693   0.860  0.00  0.00    -0.082 A 
ATOM      4  C2  PXY d   1       2.449   0.729   0.076  0.00  0.00     0.003 A 
ATOM      5  C3  PXY d   1       1.593  -0.217  -0.427  0.00  0.00     0.003 A 
ATOM      6  C4  PXY d   1       0.268  -0.206  -0.082  0.00  0.00    -0.082 A 
ATOM      7  C5  PXY d   1      -0.201   0.768   0.726  0.00  0.00     0.003 A 
ATOM      8  C6  PXY d   1       0.676   1.743   1.193  0.00  0.00     0.003 A 
ENDROOT
TORSDOF 0
ENDMDL
