MODEL 1
REMARK minimizedAffinity -4.20403433
REMARK minimizedRMSD -1
REMARK  0 active torsions:
REMARK  status: ('A' for Active; 'I' for Inactive)
ROOT
ATOM      1  C4' PXY d   1      -0.441  -0.384  -0.555  0.00  0.00     0.077 C 
ATOM      2  C1' PXY d   1       2.971   3.546   1.960  0.00  0.00     0.077 C 
ATOM      3  C1  PXY d   1       2.068   2.517   1.311  0.00  0.00    -0.082 A 
ATOM      4  C2  PXY d   1       2.580   1.639   0.463  0.00  0.00     0.003 A 
ATOM      5  C3  PXY d   1       1.772   0.721  -0.158  0.00  0.00     0.003 A 
ATOM      6  C4  PXY d   1       0.435   0.668   0.132  0.00  0.00    -0.082 A 
ATOM      7  C5  PXY d   1      -0.093   1.553   1.003  0.00  0.00     0.003 A 
ATOM      8  C6  PXY d   1       0.737   2.503   1.592  0.00  0.00     0.003 A 
ENDROOT
TORSDOF 0
ENDMDL
