MODEL 1
REMARK minimizedAffinity -4.58148432
REMARK minimizedRMSD -1
REMARK  0 active torsions:
REMARK  status: ('A' for Active; 'I' for Inactive)
ROOT
ATOM      1  C4' PXY d   1       2.741   3.561   1.740  0.00  0.00     0.077 C 
ATOM      2  C1' PXY d   1      -0.473  -0.917  -0.004  0.00  0.00     0.077 C 
ATOM      3  C1  PXY d   1       0.360   0.262   0.461  0.00  0.00    -0.082 A 
ATOM      4  C2  PXY d   1       1.348   0.705  -0.299  0.00  0.00     0.003 A 
ATOM      5  C3  PXY d   1       2.132   1.749   0.121  0.00  0.00     0.003 A 
ATOM      6  C4  PXY d   1       1.868   2.380   1.307  0.00  0.00    -0.082 A 
ATOM      7  C5  PXY d   1       0.855   1.940   2.083  0.00  0.00     0.003 A 
ATOM      8  C6  PXY d   1       0.097   0.853   1.658  0.00  0.00     0.003 A 
ENDROOT
TORSDOF 0
ENDMDL
