MODEL 1
REMARK minimizedAffinity -4.00166941
REMARK minimizedRMSD -1
REMARK  0 active torsions:
REMARK  status: ('A' for Active; 'I' for Inactive)
ROOT
ATOM      1  C4' PXY d   1       2.299   2.545   1.439  0.00  0.00     0.077 C 
ATOM      2  C1' PXY d   1      -0.940  -1.453  -1.195  0.00  0.00     0.077 C 
ATOM      3  C1  PXY d   1      -0.080  -0.411  -0.507  0.00  0.00    -0.082 A 
ATOM      4  C2  PXY d   1      -0.603   0.343   0.446  0.00  0.00     0.003 A 
ATOM      5  C3  PXY d   1       0.152   1.312   1.056  0.00  0.00     0.003 A 
ATOM      6  C4  PXY d   1       1.470   1.474   0.724  0.00  0.00    -0.082 A 
ATOM      7  C5  PXY d   1       2.014   0.702  -0.240  0.00  0.00     0.003 A 
ATOM      8  C6  PXY d   1       1.220  -0.248  -0.876  0.00  0.00     0.003 A 
ENDROOT
TORSDOF 0
ENDMDL
