MODEL 1
REMARK minimizedAffinity -2.52182722
REMARK minimizedRMSD -1
REMARK  0 active torsions:
REMARK  status: ('A' for Active; 'I' for Inactive)
ROOT
ATOM      1  C4' PXY d   1      -1.639  -1.536  -2.691  0.00  0.00     0.077 C 
ATOM      2  C1' PXY d   1       0.169   1.495   1.887  0.00  0.00     0.077 C 
ATOM      3  C1  PXY d   1      -0.293   0.694   0.686  0.00  0.00    -0.082 A 
ATOM      4  C2  PXY d   1      -1.263   1.166  -0.081  0.00  0.00     0.003 A 
ATOM      5  C3  PXY d   1      -1.715   0.440  -1.152  0.00  0.00     0.003 A 
ATOM      6  C4  PXY d   1      -1.133  -0.757  -1.473  0.00  0.00    -0.082 A 
ATOM      7  C5  PXY d   1      -0.136  -1.240  -0.703  0.00  0.00     0.003 A 
ATOM      8  C6  PXY d   1       0.281  -0.507   0.405  0.00  0.00     0.003 A 
ENDROOT
TORSDOF 0
ENDMDL
