MODEL 1
REMARK minimizedAffinity -0.684579551
REMARK minimizedRMSD -1
REMARK  0 active torsions:
REMARK  status: ('A' for Active; 'I' for Inactive)
ROOT
ATOM      1  C4' PXY d   1      -1.837  -2.239  -1.476  0.00  0.00     0.077 C 
ATOM      2  C1' PXY d   1       0.591   2.038   1.562  0.00  0.00     0.077 C 
ATOM      3  C1  PXY d   1      -0.034   0.912   0.763  0.00  0.00    -0.082 A 
ATOM      4  C2  PXY d   1      -1.258   1.054   0.279  0.00  0.00     0.003 A 
ATOM      5  C3  PXY d   1      -1.850   0.033  -0.419  0.00  0.00     0.003 A 
ATOM      6  C4  PXY d   1      -1.163  -1.124  -0.671  0.00  0.00    -0.082 A 
ATOM      7  C5  PXY d   1       0.089  -1.273  -0.189  0.00  0.00     0.003 A 
ATOM      8  C6  PXY d   1       0.657  -0.241   0.552  0.00  0.00     0.003 A 
ENDROOT
TORSDOF 0
ENDMDL
