MODEL 1
REMARK minimizedAffinity 1.14868081
REMARK minimizedRMSD -1
REMARK  0 active torsions:
REMARK  status: ('A' for Active; 'I' for Inactive)
ROOT
ATOM      1  C4' PXY d   1       0.229   0.966   2.082  0.00  0.00     0.077 C 
ATOM      2  C1' PXY d   1      -2.987  -1.107  -2.251  0.00  0.00     0.077 C 
ATOM      3  C1  PXY d   1      -2.143  -0.576  -1.110  0.00  0.00    -0.082 A 
ATOM      4  C2  PXY d   1      -2.262   0.689  -0.741  0.00  0.00     0.003 A 
ATOM      5  C3  PXY d   1      -1.483   1.195   0.267  0.00  0.00     0.003 A 
ATOM      6  C4  PXY d   1      -0.610   0.383   0.941  0.00  0.00    -0.082 A 
ATOM      7  C5  PXY d   1      -0.490  -0.911   0.579  0.00  0.00     0.003 A 
ATOM      8  C6  PXY d   1      -1.260  -1.395  -0.475  0.00  0.00     0.003 A 
ENDROOT
TORSDOF 0
ENDMDL
