MODEL 1
REMARK minimizedAffinity -5.292665
REMARK minimizedRMSD -1
REMARK  0 active torsions:
REMARK  status: ('A' for Active; 'I' for Inactive)
ROOT
ATOM      1  C4' PXY d   1      -1.141  -1.528  -0.783  0.00  0.00     0.077 C 
ATOM      2  C1' PXY d   1       2.589   2.397   1.241  0.00  0.00     0.077 C 
ATOM      3  C1  PXY d   1       1.602   1.371   0.720  0.00  0.00    -0.082 A 
ATOM      4  C2  PXY d   1       2.038   0.353  -0.005  0.00  0.00     0.003 A 
ATOM      5  C3  PXY d   1       1.156  -0.566  -0.511  0.00  0.00     0.003 A 
ATOM      6  C4  PXY d   1      -0.180  -0.473  -0.228  0.00  0.00    -0.082 A 
ATOM      7  C5  PXY d   1      -0.632   0.555   0.521  0.00  0.00     0.003 A 
ATOM      8  C6  PXY d   1       0.275   1.501   0.990  0.00  0.00     0.003 A 
ENDROOT
TORSDOF 0
ENDMDL
