MODEL 1
REMARK minimizedAffinity -2.71628571
REMARK minimizedRMSD -1
REMARK  0 active torsions:
REMARK  status: ('A' for Active; 'I' for Inactive)
ROOT
ATOM      1  C4' PXY d   1      -0.726  -1.611  -1.027  0.00  0.00     0.077 C 
ATOM      2  C1' PXY d   1       1.717   2.992   1.474  0.00  0.00     0.077 C 
ATOM      3  C1  PXY d   1       1.083   1.787   0.808  0.00  0.00    -0.082 A 
ATOM      4  C2  PXY d   1      -0.113   1.377   1.198  0.00  0.00     0.003 A 
ATOM      5  C3  PXY d   1      -0.686   0.270   0.628  0.00  0.00     0.003 A 
ATOM      6  C4  PXY d   1      -0.052  -0.394  -0.389  0.00  0.00    -0.082 A 
ATOM      7  C5  PXY d   1       1.163   0.025  -0.800  0.00  0.00     0.003 A 
ATOM      8  C6  PXY d   1       1.747   1.126  -0.180  0.00  0.00     0.003 A 
ENDROOT
TORSDOF 0
ENDMDL
