MODEL 1
REMARK minimizedAffinity -5.89494228
REMARK minimizedRMSD -1
REMARK  0 active torsions:
REMARK  status: ('A' for Active; 'I' for Inactive)
ROOT
ATOM      1  C4' PXY d   1      -0.840  -1.809  -0.488  0.00  0.00     0.077 C 
ATOM      2  C1' PXY d   1       2.177   2.859   1.099  0.00  0.00     0.077 C 
ATOM      3  C1  PXY d   1       1.379   1.636   0.694  0.00  0.00    -0.082 A 
ATOM      4  C2  PXY d   1       1.897   0.771  -0.162  0.00  0.00     0.003 A 
ATOM      5  C3  PXY d   1       1.177  -0.324  -0.564  0.00  0.00     0.003 A 
ATOM      6  C4  PXY d   1      -0.066  -0.565  -0.043  0.00  0.00    -0.082 A 
ATOM      7  C5  PXY d   1      -0.598   0.307   0.839  0.00  0.00     0.003 A 
ATOM      8  C6  PXY d   1       0.133   1.435   1.203  0.00  0.00     0.003 A 
ENDROOT
TORSDOF 0
ENDMDL
