MODEL 1
REMARK minimizedAffinity 2.59243989
REMARK minimizedRMSD -1
REMARK  0 active torsions:
REMARK  status: ('A' for Active; 'I' for Inactive)
ROOT
ATOM      1  C4' PXY d   1       2.223  -0.680  -0.791  0.00  0.00     0.077 C 
ATOM      2  C1' PXY d   1      -2.093   0.837   2.743  0.00  0.00     0.077 C 
ATOM      3  C1  PXY d   1      -0.969   0.431   1.809  0.00  0.00    -0.082 A 
ATOM      4  C2  PXY d   1       0.287   0.546   2.209  0.00  0.00     0.003 A 
ATOM      5  C3  PXY d   1       1.316   0.214   1.366  0.00  0.00     0.003 A 
ATOM      6  C4  PXY d   1       1.056  -0.292   0.121  0.00  0.00    -0.082 A 
ATOM      7  C5  PXY d   1      -0.223  -0.422  -0.291  0.00  0.00     0.003 A 
ATOM      8  C6  PXY d   1      -1.253  -0.040   0.565  0.00  0.00     0.003 A 
ENDROOT
TORSDOF 0
ENDMDL
