MODEL 1
REMARK minimizedAffinity -1.22168601
REMARK minimizedRMSD -1
REMARK  0 active torsions:
REMARK  status: ('A' for Active; 'I' for Inactive)
ROOT
ATOM      1  C4' PXY d   1      -0.921  -0.743  -2.882  0.00  0.00     0.077 C 
ATOM      2  C1' PXY d   1       0.710   1.077   2.357  0.00  0.00     0.077 C 
ATOM      3  C1  PXY d   1       0.295   0.601   0.979  0.00  0.00    -0.082 A 
ATOM      4  C2  PXY d   1      -0.963   0.737   0.591  0.00  0.00     0.003 A 
ATOM      5  C3  PXY d   1      -1.363   0.283  -0.639  0.00  0.00     0.003 A 
ATOM      6  C4  PXY d   1      -0.455  -0.268  -1.503  0.00  0.00    -0.082 A 
ATOM      7  C5  PXY d   1       0.833  -0.401  -1.119  0.00  0.00     0.003 A 
ATOM      8  C6  PXY d   1       1.210   0.029   0.150  0.00  0.00     0.003 A 
ENDROOT
TORSDOF 0
ENDMDL
