MODEL 1
REMARK minimizedAffinity -3.10089135
REMARK minimizedRMSD -1
REMARK  0 active torsions:
REMARK  status: ('A' for Active; 'I' for Inactive)
ROOT
ATOM      1  C4' PXY d   1      -1.837  -1.603  -2.246  0.00  0.00     0.077 C 
ATOM      2  C1' PXY d   1       0.417   1.794   1.852  0.00  0.00     0.077 C 
ATOM      3  C1  PXY d   1      -0.162   0.899   0.774  0.00  0.00    -0.082 A 
ATOM      4  C2  PXY d   1      -1.364   1.158   0.285  0.00  0.00     0.003 A 
ATOM      5  C3  PXY d   1      -1.916   0.341  -0.667  0.00  0.00     0.003 A 
ATOM      6  C4  PXY d   1      -1.209  -0.722  -1.163  0.00  0.00    -0.082 A 
ATOM      7  C5  PXY d   1       0.023  -0.986  -0.678  0.00  0.00     0.003 A 
ATOM      8  C6  PXY d   1       0.549  -0.168   0.318  0.00  0.00     0.003 A 
ENDROOT
TORSDOF 0
ENDMDL
