MODEL 1
REMARK minimizedAffinity -1.71034718
REMARK minimizedRMSD -1
REMARK  0 active torsions:
REMARK  status: ('A' for Active; 'I' for Inactive)
ROOT
ATOM      1  C4' PXY d   1       3.102   2.435   2.036  0.00  0.00     0.077 C 
ATOM      2  C1' PXY d   1      -0.768  -0.871  -0.704  0.00  0.00     0.077 C 
ATOM      3  C1  PXY d   1       0.238   0.004   0.018  0.00  0.00    -0.082 A 
ATOM      4  C2  PXY d   1       1.508  -0.019  -0.349  0.00  0.00     0.003 A 
ATOM      5  C3  PXY d   1       2.436   0.741   0.314  0.00  0.00     0.003 A 
ATOM      6  C4  PXY d   1       2.051   1.575   1.329  0.00  0.00    -0.082 A 
ATOM      7  C5  PXY d   1       0.754   1.613   1.703  0.00  0.00     0.003 A 
ATOM      8  C6  PXY d   1      -0.165   0.802   1.044  0.00  0.00     0.003 A 
ENDROOT
TORSDOF 0
ENDMDL
