MODEL 1
REMARK minimizedAffinity -4.75901461
REMARK minimizedRMSD -1
REMARK  0 active torsions:
REMARK  status: ('A' for Active; 'I' for Inactive)
ROOT
ATOM      1  C4' PXY d   1      -1.308  -0.758  -1.119  0.00  0.00     0.077 C 
ATOM      2  C1' PXY d   1       2.508   2.775   1.405  0.00  0.00     0.077 C 
ATOM      3  C1  PXY d   1       1.498   1.852   0.752  0.00  0.00    -0.082 A 
ATOM      4  C2  PXY d   1       1.921   0.831   0.024  0.00  0.00     0.003 A 
ATOM      5  C3  PXY d   1       1.021   0.005  -0.601  0.00  0.00     0.003 A 
ATOM      6  C4  PXY d   1      -0.324   0.195  -0.434  0.00  0.00    -0.082 A 
ATOM      7  C5  PXY d   1      -0.763   1.227   0.317  0.00  0.00     0.003 A 
ATOM      8  C6  PXY d   1       0.166   2.078   0.908  0.00  0.00     0.003 A 
ENDROOT
TORSDOF 0
ENDMDL
