MODEL 1
REMARK minimizedAffinity 7.12469721
REMARK minimizedRMSD -1
REMARK  0 active torsions:
REMARK  status: ('A' for Active; 'I' for Inactive)
ROOT
ATOM      1  C   UNL d   1       0.051  -5.993  -4.582  0.00  0.00     0.172 C 
ATOM      2  N   UNL d   1       0.995  -5.995  -3.490  0.00  0.00    -0.070 N 
ATOM      3  C1  UNL d   1       2.359  -5.994  -3.614  0.00  0.00    -0.004 A 
ATOM      4  C2  UNL d   1       2.898  -5.996  -2.346  0.00  0.00    -0.047 A 
ATOM      5  C3  UNL d   1       1.821  -6.000  -1.428  0.00  0.00    -0.047 A 
ATOM      6  C4  UNL d   1       0.655  -5.999  -2.163  0.00  0.00    -0.004 A 
ENDROOT
TORSDOF 0
ENDMDL
