MODEL 1
REMARK minimizedAffinity 5.66508245
REMARK minimizedRMSD -1
REMARK  0 active torsions:
REMARK  status: ('A' for Active; 'I' for Inactive)
ROOT
ATOM      1  C   UNL d   1       0.663   4.987  -0.651  0.00  0.00     0.172 C 
ATOM      2  N   UNL d   1       0.816   4.292   0.606  0.00  0.00    -0.070 N 
ATOM      3  C1  UNL d   1       1.885   4.403   1.455  0.00  0.00    -0.004 A 
ATOM      4  C2  UNL d   1       1.650   3.585   2.539  0.00  0.00    -0.047 A 
ATOM      5  C3  UNL d   1       0.397   2.960   2.334  0.00  0.00    -0.047 A 
ATOM      6  C4  UNL d   1      -0.098   3.415   1.130  0.00  0.00    -0.004 A 
ENDROOT
TORSDOF 0
ENDMDL
