MODEL 1
REMARK minimizedAffinity 5.69433212
REMARK minimizedRMSD -1
REMARK  0 active torsions:
REMARK  status: ('A' for Active; 'I' for Inactive)
ROOT
ATOM      1  C   UNL d   1       5.895  -3.667   5.999  0.00  0.00     0.172 C 
ATOM      2  N   UNL d   1       4.724  -3.014   5.462  0.00  0.00    -0.070 N 
ATOM      3  C1  UNL d   1       4.104  -1.918   6.000  0.00  0.00    -0.004 A 
ATOM      4  C2  UNL d   1       3.030  -1.603   5.195  0.00  0.00    -0.047 A 
ATOM      5  C3  UNL d   1       3.004  -2.543   4.138  0.00  0.00    -0.047 A 
ATOM      6  C4  UNL d   1       4.063  -3.405   4.328  0.00  0.00    -0.004 A 
ENDROOT
TORSDOF 0
ENDMDL
