MODEL 1
REMARK minimizedAffinity 4.71842146
REMARK minimizedRMSD -1
REMARK  0 active torsions:
REMARK  status: ('A' for Active; 'I' for Inactive)
ROOT
ATOM      1  C   UNL d   1       2.271   3.487   3.333  0.00  0.00     0.172 C 
ATOM      2  N   UNL d   1       1.486   3.793   2.160  0.00  0.00    -0.070 N 
ATOM      3  C1  UNL d   1       1.885   4.585   1.117  0.00  0.00    -0.004 A 
ATOM      4  C2  UNL d   1       0.857   4.626   0.200  0.00  0.00    -0.047 A 
ATOM      5  C3  UNL d   1      -0.197   3.831   0.711  0.00  0.00    -0.047 A 
ATOM      6  C4  UNL d   1       0.219   3.328   1.925  0.00  0.00    -0.004 A 
ENDROOT
TORSDOF 0
ENDMDL
