MODEL 1
REMARK minimizedAffinity 0.688376606
REMARK minimizedRMSD -1
REMARK  0 active torsions:
REMARK  status: ('A' for Active; 'I' for Inactive)
ROOT
ATOM      1  C   UNL d   1       1.531   3.272   2.175  0.00  0.00     0.172 C 
ATOM      2  N   UNL d   1       1.096   4.011   1.013  0.00  0.00    -0.070 N 
ATOM      3  C1  UNL d   1       0.042   3.679   0.204  0.00  0.00    -0.004 A 
ATOM      4  C2  UNL d   1      -0.045   4.632  -0.788  0.00  0.00    -0.047 A 
ATOM      5  C3  UNL d   1       0.994   5.567  -0.569  0.00  0.00    -0.047 A 
ATOM      6  C4  UNL d   1       1.685   5.159   0.552  0.00  0.00    -0.004 A 
ENDROOT
TORSDOF 0
ENDMDL
