MODEL 1
REMARK minimizedAffinity 7.03231812
REMARK minimizedRMSD -1
REMARK  0 active torsions:
REMARK  status: ('A' for Active; 'I' for Inactive)
ROOT
ATOM      1  C   UNL d   1       0.012   2.225   2.920  0.00  0.00     0.172 C 
ATOM      2  N   UNL d   1       0.184   3.197   1.866  0.00  0.00    -0.070 N 
ATOM      3  C1  UNL d   1       1.022   3.068   0.791  0.00  0.00    -0.004 A 
ATOM      4  C2  UNL d   1       0.896   4.203   0.020  0.00  0.00    -0.047 A 
ATOM      5  C3  UNL d   1      -0.050   5.044   0.654  0.00  0.00    -0.047 A 
ATOM      6  C4  UNL d   1      -0.474   4.396   1.794  0.00  0.00    -0.004 A 
ENDROOT
TORSDOF 0
ENDMDL
