MODEL 1
REMARK minimizedAffinity -0.318978846
REMARK minimizedRMSD -1
REMARK  0 active torsions:
REMARK  status: ('A' for Active; 'I' for Inactive)
ROOT
ATOM      1  C   UNL d   1      -0.124   3.284   2.249  0.00  0.00     0.172 C 
ATOM      2  N   UNL d   1      -0.045   4.172   1.113  0.00  0.00    -0.070 N 
ATOM      3  C1  UNL d   1      -0.308   5.516   1.131  0.00  0.00    -0.004 A 
ATOM      4  C2  UNL d   1      -0.119   6.000  -0.145  0.00  0.00    -0.047 A 
ATOM      5  C3  UNL d   1       0.271   4.909  -0.959  0.00  0.00    -0.047 A 
ATOM      6  C4  UNL d   1       0.309   3.790  -0.154  0.00  0.00    -0.004 A 
ENDROOT
TORSDOF 0
ENDMDL
