MODEL 1
REMARK minimizedAffinity 6.57842779
REMARK minimizedRMSD -1
REMARK  0 active torsions:
REMARK  status: ('A' for Active; 'I' for Inactive)
ROOT
ATOM      1  C   UNL d   1       4.802  -3.738  -4.109  0.00  0.00     0.172 C 
ATOM      2  N   UNL d   1       5.154  -3.185  -2.823  0.00  0.00    -0.070 N 
ATOM      3  C1  UNL d   1       5.804  -1.997  -2.616  0.00  0.00    -0.004 A 
ATOM      4  C2  UNL d   1       5.951  -1.828  -1.256  0.00  0.00    -0.047 A 
ATOM      5  C3  UNL d   1       5.370  -2.953  -0.624  0.00  0.00    -0.047 A 
ATOM      6  C4  UNL d   1       4.884  -3.777  -1.617  0.00  0.00    -0.004 A 
ENDROOT
TORSDOF 0
ENDMDL
