MODEL 1
REMARK minimizedAffinity 6.60204268
REMARK minimizedRMSD -1
REMARK  0 active torsions:
REMARK  status: ('A' for Active; 'I' for Inactive)
ROOT
ATOM      1  C   UNL d   1      -0.208   2.525   2.548  0.00  0.00     0.172 C 
ATOM      2  N   UNL d   1      -0.142   3.436   1.430  0.00  0.00    -0.070 N 
ATOM      3  C1  UNL d   1       0.460   3.181   0.227  0.00  0.00    -0.004 A 
ATOM      4  C2  UNL d   1       0.304   4.296  -0.568  0.00  0.00    -0.047 A 
ATOM      5  C3  UNL d   1      -0.415   5.255   0.184  0.00  0.00    -0.047 A 
ATOM      6  C4  UNL d   1      -0.679   4.696   1.417  0.00  0.00    -0.004 A 
ENDROOT
TORSDOF 0
ENDMDL
