MODEL 1
REMARK minimizedAffinity 5.77651644
REMARK minimizedRMSD -1
REMARK  0 active torsions:
REMARK  status: ('A' for Active; 'I' for Inactive)
ROOT
ATOM      1  C   UNL d   1      -5.875  -1.460   4.674  0.00  0.00     0.172 C 
ATOM      2  N   UNL d   1      -4.739  -0.764   4.116  0.00  0.00    -0.070 N 
ATOM      3  C1  UNL d   1      -4.725   0.544   3.712  0.00  0.00    -0.004 A 
ATOM      4  C2  UNL d   1      -3.460   0.827   3.242  0.00  0.00    -0.047 A 
ATOM      5  C3  UNL d   1      -2.689  -0.352   3.367  0.00  0.00    -0.047 A 
ATOM      6  C4  UNL d   1      -3.505  -1.322   3.911  0.00  0.00    -0.004 A 
ENDROOT
TORSDOF 0
ENDMDL
