MODEL 1
REMARK minimizedAffinity 2.82531071
REMARK minimizedRMSD -1
REMARK  0 active torsions:
REMARK  status: ('A' for Active; 'I' for Inactive)
ROOT
ATOM      1  C   UNL d   1       6.000  -1.896  -2.504  0.00  0.00     0.172 C 
ATOM      2  N   UNL d   1       5.442  -2.070  -1.183  0.00  0.00    -0.070 N 
ATOM      3  C1  UNL d   1       4.565  -1.217  -0.568  0.00  0.00    -0.004 A 
ATOM      4  C2  UNL d   1       4.273  -1.736   0.675  0.00  0.00    -0.047 A 
ATOM      5  C3  UNL d   1       5.001  -2.941   0.812  0.00  0.00    -0.047 A 
ATOM      6  C4  UNL d   1       5.716  -3.124  -0.352  0.00  0.00    -0.004 A 
ENDROOT
TORSDOF 0
ENDMDL
