MODEL 1
REMARK minimizedAffinity 3.23732424
REMARK minimizedRMSD -1
REMARK  0 active torsions:
REMARK  status: ('A' for Active; 'I' for Inactive)
ROOT
ATOM      1  C   UNL d   1      -1.544   6.000  -2.232  0.00  0.00     0.172 C 
ATOM      2  N   UNL d   1      -0.979   5.464  -1.016  0.00  0.00    -0.070 N 
ATOM      3  C1  UNL d   1      -1.124   6.000   0.236  0.00  0.00    -0.004 A 
ATOM      4  C2  UNL d   1      -0.438   5.197   1.121  0.00  0.00    -0.047 A 
ATOM      5  C3  UNL d   1       0.139   4.141   0.375  0.00  0.00    -0.047 A 
ATOM      6  C4  UNL d   1      -0.212   4.331  -0.945  0.00  0.00    -0.004 A 
ENDROOT
TORSDOF 0
ENDMDL
