MODEL 1
REMARK minimizedAffinity 2.14211154
REMARK minimizedRMSD -1
REMARK  0 active torsions:
REMARK  status: ('A' for Active; 'I' for Inactive)
ROOT
ATOM      1  C   UNL d   1       0.419   3.016   2.238  0.00  0.00     0.172 C 
ATOM      2  N   UNL d   1       0.350   4.005   1.188  0.00  0.00    -0.070 N 
ATOM      3  C1  UNL d   1      -0.219   5.246   1.296  0.00  0.00    -0.004 A 
ATOM      4  C2  UNL d   1      -0.080   5.881   0.080  0.00  0.00    -0.047 A 
ATOM      5  C3  UNL d   1       0.595   4.990  -0.788  0.00  0.00    -0.047 A 
ATOM      6  C4  UNL d   1       0.849   3.837  -0.077  0.00  0.00    -0.004 A 
ENDROOT
TORSDOF 0
ENDMDL
