MODEL 1
REMARK minimizedAffinity 7.69601011
REMARK minimizedRMSD -1
REMARK  1 active torsions:
REMARK  status: ('A' for Active; 'I' for Inactive)
REMARK    1  A    between atoms: C1_2  and  C2_3 
ROOT
ATOM      1  C2  UNL d   1      -4.814   1.846   1.616  0.00  0.00    -0.081 A 
ATOM      2  C3  UNL d   1      -6.000   1.299   2.120  0.00  0.00     0.006 A 
ATOM      3  C4  UNL d   1      -5.963   0.197   2.978  0.00  0.00     0.002 A 
ATOM      4  C5  UNL d   1      -4.741  -0.371   3.352  0.00  0.00    -0.080 A 
ATOM      5  C6  UNL d   1      -4.686  -1.535   4.297  0.00  0.00     0.076 C 
ATOM      6  C7  UNL d   1      -3.556   0.164   2.834  0.00  0.00     0.002 A 
ATOM      7  C8  UNL d   1      -3.592   1.265   1.976  0.00  0.00     0.006 A 
ENDROOT
BRANCH   1   8
ATOM      8  C1  UNL d   1      -4.846   3.073   0.742  0.00  0.00     0.054 C 
ATOM      9  C   UNL d   1      -5.999   3.992   1.121  0.00  0.00     0.018 C 
ENDBRANCH   1   8
TORSDOF 1
ENDMDL
