MODEL 1
REMARK minimizedAffinity 8.39912319
REMARK minimizedRMSD -1
REMARK  1 active torsions:
REMARK  status: ('A' for Active; 'I' for Inactive)
REMARK    1  A    between atoms: C1_2  and  C2_3 
ROOT
ATOM      1  C2  UNL d   1       1.637   0.186  -3.401  0.00  0.00    -0.081 A 
ATOM      2  C3  UNL d   1       2.764  -0.378  -2.789  0.00  0.00     0.006 A 
ATOM      3  C4  UNL d   1       2.928  -0.306  -1.404  0.00  0.00     0.002 A 
ATOM      4  C5  UNL d   1       1.966   0.322  -0.607  0.00  0.00    -0.080 A 
ATOM      5  C6  UNL d   1       2.115   0.379   0.885  0.00  0.00     0.076 C 
ATOM      6  C7  UNL d   1       0.849   0.900  -1.219  0.00  0.00     0.002 A 
ATOM      7  C8  UNL d   1       0.684   0.829  -2.604  0.00  0.00     0.006 A 
ENDROOT
BRANCH   1   8
ATOM      8  C1  UNL d   1       1.425   0.054  -4.887  0.00  0.00     0.054 C 
ATOM      9  C   UNL d   1       0.361   1.022  -5.382  0.00  0.00     0.018 C 
ENDBRANCH   1   8
TORSDOF 1
ENDMDL
