MODEL 1
REMARK minimizedAffinity 12.0583811
REMARK minimizedRMSD -1
REMARK  1 active torsions:
REMARK  status: ('A' for Active; 'I' for Inactive)
REMARK    1  A    between atoms: C1_2  and  C2_3 
ROOT
ATOM      1  C2  UNL d   1      -2.313   2.999  -5.752  0.00  0.00    -0.081 A 
ATOM      2  C3  UNL d   1      -3.659   2.635  -5.615  0.00  0.00     0.006 A 
ATOM      3  C4  UNL d   1      -4.663   3.604  -5.674  0.00  0.00     0.002 A 
ATOM      4  C5  UNL d   1      -4.341   4.950  -5.879  0.00  0.00    -0.080 A 
ATOM      5  C6  UNL d   1      -5.411   5.996  -5.975  0.00  0.00     0.076 C 
ATOM      6  C7  UNL d   1      -2.995   5.315  -5.999  0.00  0.00     0.002 A 
ATOM      7  C8  UNL d   1      -1.991   4.347  -5.939  0.00  0.00     0.006 A 
ENDROOT
BRANCH   1   8
ATOM      8  C1  UNL d   1      -1.232   1.948  -5.753  0.00  0.00     0.054 C 
ATOM      9  C   UNL d   1      -0.384   2.026  -4.492  0.00  0.00     0.018 C 
ENDBRANCH   1   8
TORSDOF 1
ENDMDL
