MODEL 1
REMARK minimizedAffinity 18.428194
REMARK minimizedRMSD -1
REMARK  1 active torsions:
REMARK  status: ('A' for Active; 'I' for Inactive)
REMARK    1  A    between atoms: C1_2  and  C2_3 
ROOT
ATOM      1  C2  UNL d   1       2.779   2.506   1.288  0.00  0.00    -0.081 A 
ATOM      2  C3  UNL d   1       3.956   3.158   0.899  0.00  0.00     0.006 A 
ATOM      3  C4  UNL d   1       4.996   3.347   1.813  0.00  0.00     0.002 A 
ATOM      4  C5  UNL d   1       4.879   2.881   3.127  0.00  0.00    -0.080 A 
ATOM      5  C6  UNL d   1       6.000   3.051   4.109  0.00  0.00     0.076 C 
ATOM      6  C7  UNL d   1       3.697   2.245   3.520  0.00  0.00     0.002 A 
ATOM      7  C8  UNL d   1       2.657   2.056   2.607  0.00  0.00     0.006 A 
ENDROOT
BRANCH   1   8
ATOM      8  C1  UNL d   1       1.683   2.243   0.287  0.00  0.00     0.054 C 
ATOM      9  C   UNL d   1       0.979   0.923   0.572  0.00  0.00     0.018 C 
ENDBRANCH   1   8
TORSDOF 1
ENDMDL
