MODEL 1
REMARK minimizedAffinity 7.38356781
REMARK minimizedRMSD -1
REMARK  1 active torsions:
REMARK  status: ('A' for Active; 'I' for Inactive)
REMARK    1  A    between atoms: C1_2  and  C2_3 
ROOT
ATOM      1  C2  UNL d   1       3.020   2.227   2.085  0.00  0.00    -0.081 A 
ATOM      2  C3  UNL d   1       3.323   2.917   0.905  0.00  0.00     0.006 A 
ATOM      3  C4  UNL d   1       2.557   2.722  -0.247  0.00  0.00     0.002 A 
ATOM      4  C5  UNL d   1       1.471   1.839  -0.236  0.00  0.00    -0.080 A 
ATOM      5  C6  UNL d   1       0.623   1.643  -1.456  0.00  0.00     0.076 C 
ATOM      6  C7  UNL d   1       1.179   1.136   0.938  0.00  0.00     0.002 A 
ATOM      7  C8  UNL d   1       1.945   1.331   2.090  0.00  0.00     0.006 A 
ENDROOT
BRANCH   1   8
ATOM      8  C1  UNL d   1       3.804   2.484   3.346  0.00  0.00     0.054 C 
ATOM      9  C   UNL d   1       5.200   1.884   3.262  0.00  0.00     0.018 C 
ENDBRANCH   1   8
TORSDOF 1
ENDMDL
