MODEL 1
REMARK minimizedAffinity 13.2835073
REMARK minimizedRMSD -1
REMARK  1 active torsions:
REMARK  status: ('A' for Active; 'I' for Inactive)
REMARK    1  A    between atoms: C1_2  and  C2_3 
ROOT
ATOM      1  C2  UNL d   1       3.186   1.690   1.575  0.00  0.00    -0.081 A 
ATOM      2  C3  UNL d   1       3.530   2.650   0.615  0.00  0.00     0.006 A 
ATOM      3  C4  UNL d   1       2.673   2.923  -0.453  0.00  0.00     0.002 A 
ATOM      4  C5  UNL d   1       1.454   2.246  -0.575  0.00  0.00    -0.080 A 
ATOM      5  C6  UNL d   1       0.510   2.551  -1.701  0.00  0.00     0.076 C 
ATOM      6  C7  UNL d   1       1.118   1.275   0.374  0.00  0.00     0.002 A 
ATOM      7  C8  UNL d   1       1.976   1.002   1.441  0.00  0.00     0.006 A 
ENDROOT
BRANCH   1   8
ATOM      8  C1  UNL d   1       4.079   1.440   2.763  0.00  0.00     0.054 C 
ATOM      9  C   UNL d   1       5.547   1.619   2.400  0.00  0.00     0.018 C 
ENDBRANCH   1   8
TORSDOF 1
ENDMDL
