MODEL 1
REMARK minimizedAffinity 12.0358763
REMARK minimizedRMSD -1
REMARK  1 active torsions:
REMARK  status: ('A' for Active; 'I' for Inactive)
REMARK    1  A    between atoms: C1_2  and  C2_3 
ROOT
ATOM      1  C2  UNL d   1       3.624   3.661  -0.930  0.00  0.00    -0.081 A 
ATOM      2  C3  UNL d   1       4.903   3.993  -1.395  0.00  0.00     0.006 A 
ATOM      3  C4  UNL d   1       5.679   3.048  -2.069  0.00  0.00     0.002 A 
ATOM      4  C5  UNL d   1       5.188   1.758  -2.297  0.00  0.00    -0.080 A 
ATOM      5  C6  UNL d   1       5.999   0.743  -3.046  0.00  0.00     0.076 C 
ATOM      6  C7  UNL d   1       3.917   1.420  -1.817  0.00  0.00     0.002 A 
ATOM      7  C8  UNL d   1       3.141   2.365  -1.143  0.00  0.00     0.006 A 
ENDROOT
BRANCH   1   8
ATOM      8  C1  UNL d   1       2.759   4.697  -0.259  0.00  0.00     0.054 C 
ATOM      9  C   UNL d   1       2.746   6.000  -1.046  0.00  0.00     0.018 C 
ENDBRANCH   1   8
TORSDOF 1
ENDMDL
