MODEL 1
REMARK minimizedAffinity 4.7040081
REMARK minimizedRMSD -1
REMARK  1 active torsions:
REMARK  status: ('A' for Active; 'I' for Inactive)
REMARK    1  A    between atoms: C1_2  and  C2_3 
ROOT
ATOM      1  C2  UNL d   1       1.514   1.513  -5.927  0.00  0.00    -0.081 A 
ATOM      2  C3  UNL d   1       1.789   2.886  -5.959  0.00  0.00     0.006 A 
ATOM      3  C4  UNL d   1       0.748   3.816  -5.995  0.00  0.00     0.002 A 
ATOM      4  C5  UNL d   1      -0.584   3.391  -5.992  0.00  0.00    -0.080 A 
ATOM      5  C6  UNL d   1      -1.712   4.380  -6.000  0.00  0.00     0.076 C 
ATOM      6  C7  UNL d   1      -0.860   2.019  -5.977  0.00  0.00     0.002 A 
ATOM      7  C8  UNL d   1       0.181   1.088  -5.942  0.00  0.00     0.006 A 
ENDROOT
BRANCH   1   8
ATOM      8  C1  UNL d   1       2.633   0.509  -5.823  0.00  0.00     0.054 C 
ATOM      9  C   UNL d   1       3.398   0.667  -4.516  0.00  0.00     0.018 C 
ENDBRANCH   1   8
TORSDOF 1
ENDMDL
