MODEL 1
REMARK minimizedAffinity 1.79051435
REMARK minimizedRMSD -1
REMARK  1 active torsions:
REMARK  status: ('A' for Active; 'I' for Inactive)
REMARK    1  A    between atoms: C1_2  and  C2_3 
ROOT
ATOM      1  C2  UNL d   1       4.698   4.334   4.529  0.00  0.00    -0.081 A 
ATOM      2  C3  UNL d   1       4.653   5.246   5.590  0.00  0.00     0.006 A 
ATOM      3  C4  UNL d   1       3.436   5.797   5.999  0.00  0.00     0.002 A 
ATOM      4  C5  UNL d   1       2.244   5.439   5.360  0.00  0.00    -0.080 A 
ATOM      5  C6  UNL d   1       0.928   6.000   5.809  0.00  0.00     0.076 C 
ATOM      6  C7  UNL d   1       2.291   4.541   4.289  0.00  0.00     0.002 A 
ATOM      7  C8  UNL d   1       3.508   3.990   3.879  0.00  0.00     0.006 A 
ENDROOT
BRANCH   1   8
ATOM      8  C1  UNL d   1       6.000   3.689   4.128  0.00  0.00     0.054 C 
ATOM      9  C   UNL d   1       5.974   2.188   4.378  0.00  0.00     0.018 C 
ENDBRANCH   1   8
TORSDOF 1
ENDMDL
