MODEL 1
REMARK minimizedAffinity 10.0434408
REMARK minimizedRMSD -1
REMARK  1 active torsions:
REMARK  status: ('A' for Active; 'I' for Inactive)
REMARK    1  A    between atoms: C1_2  and  C2_3 
ROOT
ATOM      1  C2  UNL d   1       3.202   4.064   1.493  0.00  0.00    -0.081 A 
ATOM      2  C3  UNL d   1       2.295   3.789   0.463  0.00  0.00     0.006 A 
ATOM      3  C4  UNL d   1       1.750   2.510   0.322  0.00  0.00     0.002 A 
ATOM      4  C5  UNL d   1       2.098   1.488   1.212  0.00  0.00    -0.080 A 
ATOM      5  C6  UNL d   1       1.497   0.119   1.091  0.00  0.00     0.076 C 
ATOM      6  C7  UNL d   1       3.018   1.759   2.231  0.00  0.00     0.002 A 
ATOM      7  C8  UNL d   1       3.563   3.037   2.372  0.00  0.00     0.006 A 
ENDROOT
BRANCH   1   8
ATOM      8  C1  UNL d   1       3.742   5.458   1.687  0.00  0.00     0.054 C 
ATOM      9  C   UNL d   1       3.393   5.999   3.066  0.00  0.00     0.018 C 
ENDBRANCH   1   8
TORSDOF 1
ENDMDL
