MODEL 1
REMARK minimizedAffinity 2.05517912
REMARK minimizedRMSD -1
REMARK  1 active torsions:
REMARK  status: ('A' for Active; 'I' for Inactive)
REMARK    1  A    between atoms: C1_2  and  C2_3 
ROOT
ATOM      1  C2  UNL d   1       3.354   4.858   3.121  0.00  0.00    -0.081 A 
ATOM      2  C3  UNL d   1       3.358   6.000   2.310  0.00  0.00     0.006 A 
ATOM      3  C4  UNL d   1       3.152   5.890   0.932  0.00  0.00     0.002 A 
ATOM      4  C5  UNL d   1       2.931   4.639   0.345  0.00  0.00    -0.080 A 
ATOM      5  C6  UNL d   1       2.678   4.511  -1.128  0.00  0.00     0.076 C 
ATOM      6  C7  UNL d   1       2.945   3.497   1.153  0.00  0.00     0.002 A 
ATOM      7  C8  UNL d   1       3.152   3.606   2.530  0.00  0.00     0.006 A 
ENDROOT
BRANCH   1   8
ATOM      8  C1  UNL d   1       3.512   4.980   4.615  0.00  0.00     0.054 C 
ATOM      9  C   UNL d   1       2.530   5.988   5.195  0.00  0.00     0.018 C 
ENDBRANCH   1   8
TORSDOF 1
ENDMDL
