MODEL 1
REMARK minimizedAffinity 14.1778984
REMARK minimizedRMSD -1
REMARK  1 active torsions:
REMARK  status: ('A' for Active; 'I' for Inactive)
REMARK    1  A    between atoms: C1_2  and  C2_3 
ROOT
ATOM      1  C2  UNL d   1       3.377   3.293   2.899  0.00  0.00    -0.081 A 
ATOM      2  C3  UNL d   1       2.638   4.444   3.201  0.00  0.00     0.006 A 
ATOM      3  C4  UNL d   1       3.060   5.311   4.212  0.00  0.00     0.002 A 
ATOM      4  C5  UNL d   1       4.230   5.046   4.931  0.00  0.00    -0.080 A 
ATOM      5  C6  UNL d   1       4.710   5.985   5.998  0.00  0.00     0.076 C 
ATOM      6  C7  UNL d   1       4.958   3.888   4.642  0.00  0.00     0.002 A 
ATOM      7  C8  UNL d   1       4.537   3.020   3.632  0.00  0.00     0.006 A 
ENDROOT
BRANCH   1   8
ATOM      8  C1  UNL d   1       2.960   2.390   1.766  0.00  0.00     0.054 C 
ATOM      9  C   UNL d   1       2.188   1.182   2.277  0.00  0.00     0.018 C 
ENDBRANCH   1   8
TORSDOF 1
ENDMDL
