MODEL 1
REMARK minimizedAffinity 2.59153318
REMARK minimizedRMSD -1
REMARK  2 active torsions:
REMARK  status: ('A' for Active; 'I' for Inactive)
REMARK    1  A    between atoms: C1_2  and  C2_3 
REMARK    2  A    between atoms: C2_3  and  C3_4 
ROOT
ATOM      1  C3  UNL d   1       4.534   1.176  -0.252  0.00  0.00    -0.075 A 
ATOM      2  C4  UNL d   1       5.020   1.453  -1.538  0.00  0.00     0.002 A 
ATOM      3  C5  UNL d   1       4.424   0.875  -2.660  0.00  0.00     0.002 A 
ATOM      4  C6  UNL d   1       3.344   0.008  -2.510  0.00  0.00    -0.004 A 
ATOM      5  C7  UNL d   1       2.863  -0.286  -1.236  0.00  0.00     0.002 A 
ATOM      6  C8  UNL d   1       3.454   0.294  -0.112  0.00  0.00     0.002 A 
ENDROOT
BRANCH   1   7
ATOM      7  C2  UNL d   1       5.155   1.821   0.964  0.00  0.00     0.056 C 
BRANCH   7   8
ATOM      8  C1  UNL d   1       4.265   2.873   1.636  0.00  0.00     0.007 C 
ATOM      9  C   UNL d   1       4.778   4.295   1.459  0.00  0.00     0.009 C 
ENDBRANCH   7   8
ENDBRANCH   1   7
TORSDOF 2
ENDMDL
