MODEL 1
REMARK minimizedAffinity 1.52084064
REMARK minimizedRMSD -1
REMARK  2 active torsions:
REMARK  status: ('A' for Active; 'I' for Inactive)
REMARK    1  A    between atoms: C1_2  and  C2_3 
REMARK    2  A    between atoms: C2_3  and  C3_4 
ROOT
ATOM      1  C3  UNL d   1       5.117   1.682  -2.000  0.00  0.00    -0.075 A 
ATOM      2  C4  UNL d   1       4.322   0.666  -2.550  0.00  0.00     0.002 A 
ATOM      3  C5  UNL d   1       3.683  -0.258  -1.723  0.00  0.00     0.002 A 
ATOM      4  C6  UNL d   1       3.838  -0.185  -0.341  0.00  0.00    -0.004 A 
ATOM      5  C7  UNL d   1       4.638   0.810   0.215  0.00  0.00     0.002 A 
ATOM      6  C8  UNL d   1       5.276   1.739  -0.609  0.00  0.00     0.002 A 
ENDROOT
BRANCH   1   7
ATOM      7  C2  UNL d   1       5.788   2.704  -2.887  0.00  0.00     0.056 C 
BRANCH   7   8
ATOM      8  C1  UNL d   1       5.833   4.114  -2.291  0.00  0.00     0.007 C 
ATOM      9  C   UNL d   1       5.493   5.204  -3.299  0.00  0.00     0.009 C 
ENDBRANCH   7   8
ENDBRANCH   1   7
TORSDOF 2
ENDMDL
