MODEL 1
REMARK minimizedAffinity 2.16268992
REMARK minimizedRMSD -1
REMARK  2 active torsions:
REMARK  status: ('A' for Active; 'I' for Inactive)
REMARK    1  A    between atoms: C1_2  and  C2_3 
REMARK    2  A    between atoms: C2_3  and  C3_4 
ROOT
ATOM      1  C3  UNL d   1       2.985   3.338   5.224  0.00  0.00    -0.075 A 
ATOM      2  C4  UNL d   1       3.061   3.213   3.830  0.00  0.00     0.002 A 
ATOM      3  C5  UNL d   1       4.114   3.794   3.122  0.00  0.00     0.002 A 
ATOM      4  C6  UNL d   1       5.096   4.515   3.797  0.00  0.00    -0.004 A 
ATOM      5  C7  UNL d   1       5.022   4.660   5.181  0.00  0.00     0.002 A 
ATOM      6  C8  UNL d   1       3.972   4.076   5.891  0.00  0.00     0.002 A 
ENDROOT
BRANCH   1   7
ATOM      7  C2  UNL d   1       1.864   2.687   5.999  0.00  0.00     0.056 C 
BRANCH   7   8
ATOM      8  C1  UNL d   1       1.043   1.684   5.182  0.00  0.00     0.007 C 
ATOM      9  C   UNL d   1      -0.424   1.638   5.588  0.00  0.00     0.009 C 
ENDBRANCH   7   8
ENDBRANCH   1   7
TORSDOF 2
ENDMDL
