MODEL 1
REMARK minimizedAffinity 8.62601471
REMARK minimizedRMSD -1
REMARK  2 active torsions:
REMARK  status: ('A' for Active; 'I' for Inactive)
REMARK    1  A    between atoms: C1_2  and  C2_3 
REMARK    2  A    between atoms: C2_3  and  C3_4 
ROOT
ATOM      1  C3  UNL d   1       3.796   0.284  -1.542  0.00  0.00    -0.075 A 
ATOM      2  C4  UNL d   1       4.570   0.969  -0.594  0.00  0.00     0.002 A 
ATOM      3  C5  UNL d   1       5.661   1.741  -0.995  0.00  0.00     0.002 A 
ATOM      4  C6  UNL d   1       5.998   1.830  -2.344  0.00  0.00    -0.004 A 
ATOM      5  C7  UNL d   1       5.246   1.140  -3.293  0.00  0.00     0.002 A 
ATOM      6  C8  UNL d   1       4.151   0.371  -2.895  0.00  0.00     0.002 A 
ENDROOT
BRANCH   1   7
ATOM      7  C2  UNL d   1       2.596  -0.529  -1.117  0.00  0.00     0.056 C 
BRANCH   7   8
ATOM      8  C1  UNL d   1       1.252   0.150  -1.399  0.00  0.00     0.007 C 
ATOM      9  C   UNL d   1       0.092  -0.832  -1.493  0.00  0.00     0.009 C 
ENDBRANCH   7   8
ENDBRANCH   1   7
TORSDOF 2
ENDMDL
