MODEL 1
REMARK minimizedAffinity 0.578908682
REMARK minimizedRMSD -1
REMARK  2 active torsions:
REMARK  status: ('A' for Active; 'I' for Inactive)
REMARK    1  A    between atoms: C1_2  and  C2_3 
REMARK    2  A    between atoms: C2_3  and  C3_4 
ROOT
ATOM      1  C3  UNL d   1       1.428   0.388  -0.264  0.00  0.00    -0.075 A 
ATOM      2  C4  UNL d   1       0.065   0.410  -0.595  0.00  0.00     0.002 A 
ATOM      3  C5  UNL d   1      -0.633  -0.780  -0.803  0.00  0.00     0.002 A 
ATOM      4  C6  UNL d   1       0.023  -2.004  -0.692  0.00  0.00    -0.004 A 
ATOM      5  C7  UNL d   1       1.381  -2.037  -0.380  0.00  0.00     0.002 A 
ATOM      6  C8  UNL d   1       2.081  -0.848  -0.168  0.00  0.00     0.002 A 
ENDROOT
BRANCH   1   7
ATOM      7  C2  UNL d   1       2.182   1.671  -0.010  0.00  0.00     0.056 C 
BRANCH   7   8
ATOM      8  C1  UNL d   1       3.575   1.713  -0.647  0.00  0.00     0.007 C 
ATOM      9  C   UNL d   1       4.352   2.979  -0.310  0.00  0.00     0.009 C 
ENDBRANCH   7   8
ENDBRANCH   1   7
TORSDOF 2
ENDMDL
