MODEL 1
REMARK minimizedAffinity -3.70542502
REMARK minimizedRMSD -1
REMARK  0 active torsions:
REMARK  status: ('A' for Active; 'I' for Inactive)
ROOT
ATOM      1  C1  BNZ d   1      -0.470   1.342   1.213  0.00  0.00     0.000 A 
ATOM      2  C2  BNZ d   1      -0.598   1.686   2.532  0.00  0.00     0.000 A 
ATOM      3  C3  BNZ d   1      -1.522   1.072   3.329  0.00  0.00     0.000 A 
ATOM      4  C4  BNZ d   1      -2.344   0.144   2.797  0.00  0.00     0.000 A 
ATOM      5  C5  BNZ d   1      -2.234  -0.207   1.467  0.00  0.00     0.000 A 
ATOM      6  C6  BNZ d   1      -1.276   0.386   0.677  0.00  0.00     0.000 A 
ENDROOT
TORSDOF 0
ENDMDL
