MODEL 1
REMARK minimizedAffinity -4.1587081
REMARK minimizedRMSD -1
REMARK  0 active torsions:
REMARK  status: ('A' for Active; 'I' for Inactive)
ROOT
ATOM      1  C1  BNZ d   1      -1.517   0.428   0.921  0.00  0.00     0.000 A 
ATOM      2  C2  BNZ d   1      -1.199   1.089   2.078  0.00  0.00     0.000 A 
ATOM      3  C3  BNZ d   1       0.105   1.314   2.420  0.00  0.00     0.000 A 
ATOM      4  C4  BNZ d   1       1.089   0.844   1.627  0.00  0.00     0.000 A 
ATOM      5  C5  BNZ d   1       0.785   0.168   0.462  0.00  0.00     0.000 A 
ATOM      6  C6  BNZ d   1      -0.529  -0.023   0.101  0.00  0.00     0.000 A 
ENDROOT
TORSDOF 0
ENDMDL
