MODEL 1
REMARK minimizedAffinity -0.196818843
REMARK minimizedRMSD -1
REMARK  0 active torsions:
REMARK  status: ('A' for Active; 'I' for Inactive)
ROOT
ATOM      1  C1  BNZ d   1       0.272  -1.433  -0.626  0.00  0.00     0.000 A 
ATOM      2  C2  BNZ d   1       0.475  -0.527   0.380  0.00  0.00     0.000 A 
ATOM      3  C3  BNZ d   1       0.841   0.760   0.100  0.00  0.00     0.000 A 
ATOM      4  C4  BNZ d   1       1.042   1.128  -1.182  0.00  0.00     0.000 A 
ATOM      5  C5  BNZ d   1       0.851   0.223  -2.207  0.00  0.00     0.000 A 
ATOM      6  C6  BNZ d   1       0.445  -1.061  -1.924  0.00  0.00     0.000 A 
ENDROOT
TORSDOF 0
ENDMDL
