MODEL 1
REMARK minimizedAffinity -4.18064308
REMARK minimizedRMSD -1
REMARK  0 active torsions:
REMARK  status: ('A' for Active; 'I' for Inactive)
ROOT
ATOM      1  C1  BNZ d   1       0.225   0.713   1.249  0.00  0.00     0.000 A 
ATOM      2  C2  BNZ d   1       0.068   0.424  -0.080  0.00  0.00     0.000 A 
ATOM      3  C3  BNZ d   1      -1.124  -0.044  -0.559  0.00  0.00     0.000 A 
ATOM      4  C4  BNZ d   1      -2.143  -0.261   0.298  0.00  0.00     0.000 A 
ATOM      5  C5  BNZ d   1      -1.997   0.017   1.642  0.00  0.00     0.000 A 
ATOM      6  C6  BNZ d   1      -0.809   0.525   2.114  0.00  0.00     0.000 A 
ENDROOT
TORSDOF 0
ENDMDL
