MODEL 1
REMARK minimizedAffinity -2.7040379
REMARK minimizedRMSD -1
REMARK  0 active torsions:
REMARK  status: ('A' for Active; 'I' for Inactive)
ROOT
ATOM      1  C1  BNZ d   1      -2.574   0.087   2.692  0.00  0.00     0.000 A 
ATOM      2  C2  BNZ d   1      -1.513   0.932   2.884  0.00  0.00     0.000 A 
ATOM      3  C3  BNZ d   1      -0.881   1.513   1.821  0.00  0.00     0.000 A 
ATOM      4  C4  BNZ d   1      -1.283   1.220   0.568  0.00  0.00     0.000 A 
ATOM      5  C5  BNZ d   1      -2.345   0.363   0.358  0.00  0.00     0.000 A 
ATOM      6  C6  BNZ d   1      -3.005  -0.190   1.431  0.00  0.00     0.000 A 
ENDROOT
TORSDOF 0
ENDMDL
