MODEL 1
REMARK minimizedAffinity -3.90834999
REMARK minimizedRMSD -1
REMARK  0 active torsions:
REMARK  status: ('A' for Active; 'I' for Inactive)
ROOT
ATOM      1  C1  BNZ d   1       1.629  -1.021  -1.964  0.00  0.00     0.000 A 
ATOM      2  C2  BNZ d   1       1.818  -0.705  -3.284  0.00  0.00     0.000 A 
ATOM      3  C3  BNZ d   1       1.000   0.191  -3.913  0.00  0.00     0.000 A 
ATOM      4  C4  BNZ d   1      -0.028   0.739  -3.235  0.00  0.00     0.000 A 
ATOM      5  C5  BNZ d   1      -0.238   0.424  -1.908  0.00  0.00     0.000 A 
ATOM      6  C6  BNZ d   1       0.611  -0.448  -1.266  0.00  0.00     0.000 A 
ENDROOT
TORSDOF 0
ENDMDL
