MODEL 1
REMARK minimizedAffinity -3.47798944
REMARK minimizedRMSD -1
REMARK  0 active torsions:
REMARK  status: ('A' for Active; 'I' for Inactive)
ROOT
ATOM      1  C1  BNZ d   1       0.430   0.607  -3.381  0.00  0.00     0.000 A 
ATOM      2  C2  BNZ d   1      -0.208  -0.194  -2.472  0.00  0.00     0.000 A 
ATOM      3  C3  BNZ d   1       0.153  -0.183  -1.154  0.00  0.00     0.000 A 
ATOM      4  C4  BNZ d   1       1.177   0.598  -0.754  0.00  0.00     0.000 A 
ATOM      5  C5  BNZ d   1       1.836   1.405  -1.660  0.00  0.00     0.000 A 
ATOM      6  C6  BNZ d   1       1.444   1.420  -2.979  0.00  0.00     0.000 A 
ENDROOT
TORSDOF 0
ENDMDL
