MODEL 1
REMARK minimizedAffinity 3.51130748
REMARK minimizedRMSD -1
REMARK  0 active torsions:
REMARK  status: ('A' for Active; 'I' for Inactive)
ROOT
ATOM      1  C   UNL d   1      -2.696   2.667  -2.750  0.00  0.00     0.078 C 
ATOM      2  C1  UNL d   1      -1.263   2.236  -2.650  0.00  0.00    -0.077 A 
ATOM      3  C2  UNL d   1      -0.273   2.836  -3.438  0.00  0.00    -0.001 A 
ATOM      4  C3  UNL d   1       1.056   2.419  -3.341  0.00  0.00     0.003 A 
ATOM      5  C4  UNL d   1       1.406   1.400  -2.458  0.00  0.00    -0.005 A 
ATOM      6  C5  UNL d   1       0.428   0.795  -1.671  0.00  0.00     0.003 A 
ATOM      7  C6  UNL d   1      -0.901   1.211  -1.767  0.00  0.00    -0.001 A 
ENDROOT
TORSDOF 0
ENDMDL
