MODEL 1
REMARK minimizedAffinity 4.64108944
REMARK minimizedRMSD -1
REMARK  0 active torsions:
REMARK  status: ('A' for Active; 'I' for Inactive)
ROOT
ATOM      1  C   UNL d   1       5.315  -4.798   0.909  0.00  0.00     0.078 C 
ATOM      2  C1  UNL d   1       3.984  -4.184   1.223  0.00  0.00    -0.077 A 
ATOM      3  C2  UNL d   1       3.895  -2.903   1.782  0.00  0.00    -0.001 A 
ATOM      4  C3  UNL d   1       2.649  -2.347   2.077  0.00  0.00     0.003 A 
ATOM      5  C4  UNL d   1       1.483  -3.065   1.818  0.00  0.00    -0.005 A 
ATOM      6  C5  UNL d   1       1.562  -4.341   1.264  0.00  0.00     0.003 A 
ATOM      7  C6  UNL d   1       2.807  -4.898   0.968  0.00  0.00    -0.001 A 
ENDROOT
TORSDOF 0
ENDMDL
