MODEL 1
REMARK minimizedAffinity 3.2070241
REMARK minimizedRMSD -1
REMARK  0 active torsions:
REMARK  status: ('A' for Active; 'I' for Inactive)
ROOT
ATOM      1  C   UNL d   1       6.000   1.193  -1.650  0.00  0.00     0.078 C 
ATOM      2  C1  UNL d   1       5.992   0.517  -2.988  0.00  0.00    -0.077 A 
ATOM      3  C2  UNL d   1       5.997  -0.879  -3.091  0.00  0.00    -0.001 A 
ATOM      4  C3  UNL d   1       5.999  -1.495  -4.343  0.00  0.00     0.003 A 
ATOM      5  C4  UNL d   1       5.998  -0.722  -5.503  0.00  0.00    -0.005 A 
ATOM      6  C5  UNL d   1       5.995   0.668  -5.411  0.00  0.00     0.003 A 
ATOM      7  C6  UNL d   1       5.992   1.286  -4.159  0.00  0.00    -0.001 A 
ENDROOT
TORSDOF 0
ENDMDL
