MODEL 1
REMARK minimizedAffinity 1.41744411
REMARK minimizedRMSD -1
REMARK  0 active torsions:
REMARK  status: ('A' for Active; 'I' for Inactive)
ROOT
ATOM      1  C   UNL d   1       1.848  -2.134   0.437  0.00  0.00     0.078 C 
ATOM      2  C1  UNL d   1       0.760  -1.751   1.395  0.00  0.00    -0.077 A 
ATOM      3  C2  UNL d   1      -0.480  -1.294   0.932  0.00  0.00    -0.001 A 
ATOM      4  C3  UNL d   1      -1.481  -0.931   1.835  0.00  0.00     0.003 A 
ATOM      5  C4  UNL d   1      -1.252  -1.022   3.207  0.00  0.00    -0.005 A 
ATOM      6  C5  UNL d   1      -0.021  -1.474   3.677  0.00  0.00     0.003 A 
ATOM      7  C6  UNL d   1       0.981  -1.836   2.775  0.00  0.00    -0.001 A 
ENDROOT
TORSDOF 0
ENDMDL
