MODEL 1
REMARK minimizedAffinity 2.96799898
REMARK minimizedRMSD -1
REMARK  0 active torsions:
REMARK  status: ('A' for Active; 'I' for Inactive)
ROOT
ATOM      1  C   UNL d   1       5.999   4.436  -3.578  0.00  0.00     0.078 C 
ATOM      2  C1  UNL d   1       5.992   3.013  -4.050  0.00  0.00    -0.077 A 
ATOM      3  C2  UNL d   1       5.967   2.706  -5.416  0.00  0.00    -0.001 A 
ATOM      4  C3  UNL d   1       5.951   1.376  -5.841  0.00  0.00     0.003 A 
ATOM      5  C4  UNL d   1       5.958   0.343  -4.906  0.00  0.00    -0.005 A 
ATOM      6  C5  UNL d   1       5.980   0.638  -3.545  0.00  0.00     0.003 A 
ATOM      7  C6  UNL d   1       5.996   1.967  -3.118  0.00  0.00    -0.001 A 
ENDROOT
TORSDOF 0
ENDMDL
