MODEL 1
REMARK minimizedAffinity 4.83297586
REMARK minimizedRMSD -1
REMARK  0 active torsions:
REMARK  status: ('A' for Active; 'I' for Inactive)
ROOT
ATOM      1  C   UNL d   1      -0.579   2.989  -2.951  0.00  0.00     0.078 C 
ATOM      2  C1  UNL d   1       0.524   2.075  -2.510  0.00  0.00    -0.077 A 
ATOM      3  C2  UNL d   1       0.796   0.887  -3.200  0.00  0.00    -0.001 A 
ATOM      4  C3  UNL d   1       1.820   0.040  -2.772  0.00  0.00     0.003 A 
ATOM      5  C4  UNL d   1       2.580   0.372  -1.653  0.00  0.00    -0.005 A 
ATOM      6  C5  UNL d   1       2.316   1.551  -0.959  0.00  0.00     0.003 A 
ATOM      7  C6  UNL d   1       1.292   2.399  -1.385  0.00  0.00    -0.001 A 
ENDROOT
TORSDOF 0
ENDMDL
