MODEL 1
REMARK minimizedAffinity -2.32354879
REMARK minimizedRMSD -1
REMARK  0 active torsions:
REMARK  status: ('A' for Active; 'I' for Inactive)
ROOT
ATOM      1  C   UNL d   1       0.937  -1.853   0.421  0.00  0.00     0.078 C 
ATOM      2  C1  UNL d   1       1.149  -0.742  -0.564  0.00  0.00    -0.077 A 
ATOM      3  C2  UNL d   1       0.717  -0.861  -1.890  0.00  0.00    -0.001 A 
ATOM      4  C3  UNL d   1       0.930   0.178  -2.798  0.00  0.00     0.003 A 
ATOM      5  C4  UNL d   1       1.578   1.342  -2.390  0.00  0.00    -0.005 A 
ATOM      6  C5  UNL d   1       2.014   1.468  -1.073  0.00  0.00     0.003 A 
ATOM      7  C6  UNL d   1       1.801   0.431  -0.163  0.00  0.00    -0.001 A 
ENDROOT
TORSDOF 0
ENDMDL
