MODEL 1
REMARK minimizedAffinity 6.03586626
REMARK minimizedRMSD -1
REMARK  2 active torsions:
REMARK  status: ('A' for Active; 'I' for Inactive)
REMARK    1  A    between atoms: C2'_3  and  C1'_4 
REMARK    2  A    between atoms: C1'_4  and  C1_5 
ROOT
ATOM      1  C1  I4B d   1       1.861   0.914   2.440  0.00  0.00    -0.075 A 
ATOM      2  C2  I4B d   1       0.834   0.995   3.348  0.00  0.00     0.003 A 
ATOM      3  C3  I4B d   1      -0.223   0.055   3.314  0.00  0.00     0.002 A 
ATOM      4  C4  I4B d   1      -0.240  -0.914   2.331  0.00  0.00    -0.004 A 
ATOM      5  C5  I4B d   1       0.813  -1.009   1.426  0.00  0.00     0.002 A 
ATOM      6  C6  I4B d   1       1.876  -0.097   1.488  0.00  0.00     0.003 A 
ENDROOT
BRANCH   1   7
ATOM      7  C1' I4B d   1       2.944   1.944   2.483  0.00  0.00     0.060 C 
BRANCH   7   8
ATOM      8  C2' I4B d   1       3.382   2.221   1.060  0.00  0.00    -0.013 C 
ATOM      9  C4' I4B d   1       3.575   3.696   0.825  0.00  0.00     0.013 C 
ATOM     10  C3' I4B d   1       4.652   1.463   0.810  0.00  0.00     0.013 C 
ENDBRANCH   7   8
ENDBRANCH   1   7
TORSDOF 2
ENDMDL
