MODEL 1
REMARK minimizedAffinity 5.06721687
REMARK minimizedRMSD -1
REMARK  2 active torsions:
REMARK  status: ('A' for Active; 'I' for Inactive)
REMARK    1  A    between atoms: C2'_3  and  C1'_4 
REMARK    2  A    between atoms: C1'_4  and  C1_5 
ROOT
ATOM      1  C1  I4B d   1       0.450  -1.529   1.210  0.00  0.00    -0.075 A 
ATOM      2  C2  I4B d   1      -0.903  -1.402   1.020  0.00  0.00     0.003 A 
ATOM      3  C3  I4B d   1      -1.705  -0.776   2.005  0.00  0.00     0.002 A 
ATOM      4  C4  I4B d   1      -1.124  -0.338   3.177  0.00  0.00    -0.004 A 
ATOM      5  C5  I4B d   1       0.252  -0.446   3.358  0.00  0.00     0.002 A 
ATOM      6  C6  I4B d   1       1.046  -1.034   2.362  0.00  0.00     0.003 A 
ENDROOT
BRANCH   1   7
ATOM      7  C1' I4B d   1       1.262  -2.225   0.164  0.00  0.00     0.060 C 
BRANCH   7   8
ATOM      8  C2' I4B d   1       1.964  -3.396   0.822  0.00  0.00    -0.013 C 
ATOM      9  C4' I4B d   1       1.040  -4.577   0.962  0.00  0.00     0.013 C 
ATOM     10  C3' I4B d   1       3.163  -3.743  -0.009  0.00  0.00     0.013 C 
ENDBRANCH   7   8
ENDBRANCH   1   7
TORSDOF 2
ENDMDL
