MODEL 1
REMARK minimizedAffinity 11.9443865
REMARK minimizedRMSD -1
REMARK  2 active torsions:
REMARK  status: ('A' for Active; 'I' for Inactive)
REMARK    1  A    between atoms: C2'_3  and  C1'_4 
REMARK    2  A    between atoms: C1'_4  and  C1_5 
ROOT
ATOM      1  C1  I4B d   1       3.446   5.073   3.951  0.00  0.00    -0.075 A 
ATOM      2  C2  I4B d   1       2.466   4.613   3.107  0.00  0.00     0.003 A 
ATOM      3  C3  I4B d   1       1.483   3.710   3.580  0.00  0.00     0.002 A 
ATOM      4  C4  I4B d   1       1.548   3.257   4.882  0.00  0.00    -0.004 A 
ATOM      5  C5  I4B d   1       2.528   3.742   5.743  0.00  0.00     0.002 A 
ATOM      6  C6  I4B d   1       3.476   4.665   5.278  0.00  0.00     0.003 A 
ENDROOT
BRANCH   1   7
ATOM      7  C1' I4B d   1       4.487   6.000   3.409  0.00  0.00     0.060 C 
BRANCH   7   8
ATOM      8  C2' I4B d   1       5.821   5.606   4.009  0.00  0.00    -0.013 C 
ATOM      9  C4' I4B d   1       5.892   5.972   5.468  0.00  0.00     0.013 C 
ATOM     10  C3' I4B d   1       6.000   4.130   3.812  0.00  0.00     0.013 C 
ENDBRANCH   7   8
ENDBRANCH   1   7
TORSDOF 2
ENDMDL
