MODEL 1
REMARK minimizedAffinity 1.88954902
REMARK minimizedRMSD -1
REMARK  2 active torsions:
REMARK  status: ('A' for Active; 'I' for Inactive)
REMARK    1  A    between atoms: C2'_3  and  C1'_4 
REMARK    2  A    between atoms: C1'_4  and  C1_5 
ROOT
ATOM      1  C1  I4B d   1       3.237   5.502   4.786  0.00  0.00    -0.075 A 
ATOM      2  C2  I4B d   1       3.924   5.462   5.974  0.00  0.00     0.003 A 
ATOM      3  C3  I4B d   1       5.319   5.705   5.999  0.00  0.00     0.002 A 
ATOM      4  C4  I4B d   1       5.991   5.932   4.816  0.00  0.00    -0.004 A 
ATOM      5  C5  I4B d   1       5.289   5.995   3.615  0.00  0.00     0.002 A 
ATOM      6  C6  I4B d   1       3.902   5.791   3.601  0.00  0.00     0.003 A 
ENDROOT
BRANCH   1   7
ATOM      7  C1' I4B d   1       1.771   5.208   4.791  0.00  0.00     0.060 C 
BRANCH   7   8
ATOM      8  C2' I4B d   1       1.493   4.197   3.697  0.00  0.00    -0.013 C 
ATOM      9  C4' I4B d   1       1.923   2.814   4.112  0.00  0.00     0.013 C 
ATOM     10  C3' I4B d   1       0.026   4.238   3.389  0.00  0.00     0.013 C 
ENDBRANCH   7   8
ENDBRANCH   1   7
TORSDOF 2
ENDMDL
