MODEL 1
REMARK minimizedAffinity 6.72470284
REMARK minimizedRMSD -1
REMARK  2 active torsions:
REMARK  status: ('A' for Active; 'I' for Inactive)
REMARK    1  A    between atoms: C2'_3  and  C1'_4 
REMARK    2  A    between atoms: C1'_4  and  C1_5 
ROOT
ATOM      1  C1  I4B d   1       3.356   5.944   4.178  0.00  0.00    -0.075 A 
ATOM      2  C2  I4B d   1       4.389   5.935   3.273  0.00  0.00     0.003 A 
ATOM      3  C3  I4B d   1       5.731   5.935   3.724  0.00  0.00     0.002 A 
ATOM      4  C4  I4B d   1       5.994   5.995   5.077  0.00  0.00    -0.004 A 
ATOM      5  C5  I4B d   1       4.946   5.980   5.993  0.00  0.00     0.002 A 
ATOM      6  C6  I4B d   1       3.619   5.942   5.542  0.00  0.00     0.003 A 
ENDROOT
BRANCH   1   7
ATOM      7  C1' I4B d   1       1.951   5.976   3.667  0.00  0.00     0.060 C 
BRANCH   7   8
ATOM      8  C2' I4B d   1       1.222   4.771   4.227  0.00  0.00    -0.013 C 
ATOM      9  C4' I4B d   1       1.149   3.659   3.214  0.00  0.00     0.013 C 
ATOM     10  C3' I4B d   1       1.943   4.329   5.466  0.00  0.00     0.013 C 
ENDBRANCH   7   8
ENDBRANCH   1   7
TORSDOF 2
ENDMDL
