MODEL 1
REMARK minimizedAffinity 4.8114562
REMARK minimizedRMSD -1
REMARK  0 active torsions:
REMARK  status: ('A' for Active; 'I' for Inactive)
ROOT
ATOM      1  C1  DEN d   1       1.644  -1.244   0.399  0.00  0.00     0.130 A 
ATOM      2  C2  DEN d   1       2.223  -2.532   0.770  0.00  0.00    -0.031 A 
ATOM      3  C3  DEN d   1       3.686  -2.361   0.878  0.00  0.00     0.027 A 
ATOM      4  C4  DEN d   1       5.103  -0.237   0.513  0.00  0.00     0.027 A 
ATOM      5  C5  DEN d   1       5.059   1.097   0.173  0.00  0.00    -0.003 A 
ATOM      6  C6  DEN d   1       3.887   1.731  -0.146  0.00  0.00     0.001 A 
ATOM      7  C7  DEN d   1       2.705   1.042  -0.088  0.00  0.00     0.017 A 
ATOM      8  C8  DEN d   1       2.742  -0.306   0.247  0.00  0.00    -0.094 A 
ATOM      9  C9  DEN d   1       3.935  -0.925   0.578  0.00  0.00    -0.072 A 
ENDROOT
TORSDOF 0
ENDMDL
