MODEL 1
REMARK minimizedAffinity 8.77015686
REMARK minimizedRMSD -1
REMARK  0 active torsions:
REMARK  status: ('A' for Active; 'I' for Inactive)
ROOT
ATOM      1  C1  DEN d   1       0.056  -0.331   1.976  0.00  0.00     0.130 A 
ATOM      2  C2  DEN d   1      -0.744  -0.922   3.045  0.00  0.00    -0.031 A 
ATOM      3  C3  DEN d   1      -0.223  -2.279   3.307  0.00  0.00     0.027 A 
ATOM      4  C4  DEN d   1       1.737  -3.512   2.170  0.00  0.00     0.027 A 
ATOM      5  C5  DEN d   1       2.709  -3.420   1.199  0.00  0.00    -0.003 A 
ATOM      6  C6  DEN d   1       2.842  -2.314   0.402  0.00  0.00     0.001 A 
ATOM      7  C7  DEN d   1       2.018  -1.237   0.593  0.00  0.00     0.017 A 
ATOM      8  C8  DEN d   1       1.030  -1.325   1.565  0.00  0.00    -0.094 A 
ATOM      9  C9  DEN d   1       0.920  -2.447   2.369  0.00  0.00    -0.072 A 
ENDROOT
TORSDOF 0
ENDMDL
