MODEL 1
REMARK minimizedAffinity 2.937042
REMARK minimizedRMSD -1
REMARK  0 active torsions:
REMARK  status: ('A' for Active; 'I' for Inactive)
ROOT
ATOM      1  C1  DEN d   1       0.232  -0.999   2.715  0.00  0.00     0.130 A 
ATOM      2  C2  DEN d   1      -1.006  -1.483   3.322  0.00  0.00    -0.031 A 
ATOM      3  C3  DEN d   1      -1.029  -2.954   3.198  0.00  0.00     0.027 A 
ATOM      4  C4  DEN d   1       0.722  -4.522   2.137  0.00  0.00     0.027 A 
ATOM      5  C5  DEN d   1       1.933  -4.572   1.482  0.00  0.00    -0.003 A 
ATOM      6  C6  DEN d   1       2.640  -3.443   1.166  0.00  0.00     0.001 A 
ATOM      7  C7  DEN d   1       2.162  -2.215   1.543  0.00  0.00     0.017 A 
ATOM      8  C8  DEN d   1       0.939  -2.156   2.197  0.00  0.00    -0.094 A 
ATOM      9  C9  DEN d   1       0.245  -3.310   2.519  0.00  0.00    -0.072 A 
ENDROOT
TORSDOF 0
ENDMDL
