MODEL 1
REMARK minimizedAffinity -3.91794491
REMARK minimizedRMSD -1
REMARK  0 active torsions:
REMARK  status: ('A' for Active; 'I' for Inactive)
ROOT
ATOM      1  C1  DEN d   1      -1.907   4.131   5.249  0.00  0.00     0.130 A 
ATOM      2  C2  DEN d   1      -1.666   5.474   4.729  0.00  0.00    -0.031 A 
ATOM      3  C3  DEN d   1      -2.945   6.000   4.213  0.00  0.00     0.027 A 
ATOM      4  C4  DEN d   1      -5.265   4.873   4.172  0.00  0.00     0.027 A 
ATOM      5  C5  DEN d   1      -5.963   3.729   4.490  0.00  0.00    -0.003 A 
ATOM      6  C6  DEN d   1      -5.356   2.635   5.048  0.00  0.00     0.001 A 
ATOM      7  C7  DEN d   1      -4.020   2.678   5.346  0.00  0.00     0.017 A 
ATOM      8  C8  DEN d   1      -3.308   3.825   5.021  0.00  0.00    -0.094 A 
ATOM      9  C9  DEN d   1      -3.942   4.926   4.469  0.00  0.00    -0.072 A 
ENDROOT
TORSDOF 0
ENDMDL
