MODEL 1
REMARK minimizedAffinity 5.53857422
REMARK minimizedRMSD -1
REMARK  0 active torsions:
REMARK  status: ('A' for Active; 'I' for Inactive)
ROOT
ATOM      1  C1  DEN d   1      -2.588   5.686  -5.139  0.00  0.00     0.130 A 
ATOM      2  C2  DEN d   1      -3.937   6.000  -4.677  0.00  0.00    -0.031 A 
ATOM      3  C3  DEN d   1      -4.405   4.879  -3.838  0.00  0.00     0.027 A 
ATOM      4  C4  DEN d   1      -3.176   2.701  -3.207  0.00  0.00     0.027 A 
ATOM      5  C5  DEN d   1      -2.013   1.981  -3.370  0.00  0.00    -0.003 A 
ATOM      6  C6  DEN d   1      -0.982   2.426  -4.155  0.00  0.00     0.001 A 
ATOM      7  C7  DEN d   1      -1.076   3.646  -4.771  0.00  0.00     0.017 A 
ATOM      8  C8  DEN d   1      -2.248   4.374  -4.617  0.00  0.00    -0.094 A 
ATOM      9  C9  DEN d   1      -3.274   3.913  -3.810  0.00  0.00    -0.072 A 
ENDROOT
TORSDOF 0
ENDMDL
