MODEL 1
REMARK minimizedAffinity 12.1719322
REMARK minimizedRMSD -1
REMARK  0 active torsions:
REMARK  status: ('A' for Active; 'I' for Inactive)
ROOT
ATOM      1  C1  DEN d   1      -0.955  -4.560   1.868  0.00  0.00     0.130 A 
ATOM      2  C2  DEN d   1      -0.185  -5.396   0.950  0.00  0.00    -0.031 A 
ATOM      3  C3  DEN d   1       0.949  -4.595   0.445  0.00  0.00     0.027 A 
ATOM      4  C4  DEN d   1       1.586  -2.157   0.996  0.00  0.00     0.027 A 
ATOM      5  C5  DEN d   1       1.226  -1.038   1.713  0.00  0.00    -0.003 A 
ATOM      6  C6  DEN d   1       0.105  -1.004   2.500  0.00  0.00     0.001 A 
ATOM      7  C7  DEN d   1      -0.672  -2.125   2.623  0.00  0.00     0.017 A 
ATOM      8  C8  DEN d   1      -0.320  -3.255   1.897  0.00  0.00    -0.094 A 
ATOM      9  C9  DEN d   1       0.823  -3.274   1.117  0.00  0.00    -0.072 A 
ENDROOT
TORSDOF 0
ENDMDL
