MODEL 1
REMARK minimizedAffinity 9.32057571
REMARK minimizedRMSD -1
REMARK  0 active torsions:
REMARK  status: ('A' for Active; 'I' for Inactive)
ROOT
ATOM      1  C   UNL d   1       4.745   0.399  -1.848  0.00  0.00     0.124 A 
ATOM      2  C1  UNL d   1       3.743  -0.518  -1.563  0.00  0.00     0.062 A 
ATOM      3  C2  UNL d   1       2.870  -0.293  -0.502  0.00  0.00     0.162 A 
ATOM      4  C3  UNL d   1       2.994   0.856   0.280  0.00  0.00    -0.034 A 
ATOM      5  C4  UNL d   1       4.005   1.773  -0.013  0.00  0.00     0.162 A 
ATOM      6  C5  UNL d   1       4.875   1.543  -1.074  0.00  0.00     0.062 A 
ATOM      7  F   UNL d   1       5.842   2.430  -1.348  0.00  0.00    -0.097 F 
ATOM      8  F1  UNL d   1       4.152   2.887   0.719  0.00  0.00    -0.096 F 
ATOM      9  I   UNL d   1       1.690   1.196   1.866  0.00  0.00    -0.060 I 
ATOM     10  F2  UNL d   1       1.911  -1.196  -0.249  0.00  0.00    -0.096 F 
ATOM     11  F3  UNL d   1       3.616  -1.624  -2.309  0.00  0.00    -0.097 F 
ATOM     12  F4  UNL d   1       5.584   0.180  -2.869  0.00  0.00    -0.092 F 
ENDROOT
TORSDOF 0
ENDMDL
