MODEL 1
REMARK minimizedAffinity 2.71882844
REMARK minimizedRMSD -1
REMARK  0 active torsions:
REMARK  status: ('A' for Active; 'I' for Inactive)
ROOT
ATOM      1  C   UNL d   1       3.590  -0.110  -2.248  0.00  0.00     0.124 A 
ATOM      2  C1  UNL d   1       3.770   0.784  -1.201  0.00  0.00     0.062 A 
ATOM      3  C2  UNL d   1       3.338   0.456   0.081  0.00  0.00     0.162 A 
ATOM      4  C3  UNL d   1       2.723  -0.772   0.324  0.00  0.00    -0.034 A 
ATOM      5  C4  UNL d   1       2.545  -1.665  -0.734  0.00  0.00     0.162 A 
ATOM      6  C5  UNL d   1       2.978  -1.333  -2.013  0.00  0.00     0.062 A 
ATOM      7  F   UNL d   1       2.804  -2.198  -3.023  0.00  0.00    -0.097 F 
ATOM      8  F1  UNL d   1       1.958  -2.854  -0.535  0.00  0.00    -0.096 F 
ATOM      9  I   UNL d   1       2.076  -1.265   2.240  0.00  0.00    -0.060 I 
ATOM     10  F2  UNL d   1       3.525   1.339   1.073  0.00  0.00    -0.096 F 
ATOM     11  F3  UNL d   1       4.360   1.967  -1.426  0.00  0.00    -0.097 F 
ATOM     12  F4  UNL d   1       4.005   0.208  -3.481  0.00  0.00    -0.092 F 
ENDROOT
TORSDOF 0
ENDMDL
