MODEL 1
REMARK minimizedAffinity 15.6291876
REMARK minimizedRMSD -1
REMARK  0 active torsions:
REMARK  status: ('A' for Active; 'I' for Inactive)
ROOT
ATOM      1  C   UNL d   1      -5.078   0.902  -3.628  0.00  0.00     0.124 A 
ATOM      2  C1  UNL d   1      -5.005   2.261  -3.352  0.00  0.00     0.062 A 
ATOM      3  C2  UNL d   1      -5.268   2.729  -2.068  0.00  0.00     0.162 A 
ATOM      4  C3  UNL d   1      -5.606   1.838  -1.049  0.00  0.00    -0.034 A 
ATOM      5  C4  UNL d   1      -5.678   0.474  -1.335  0.00  0.00     0.162 A 
ATOM      6  C5  UNL d   1      -5.414   0.010  -2.620  0.00  0.00     0.062 A 
ATOM      7  F   UNL d   1      -5.485  -1.302  -2.885  0.00  0.00    -0.097 F 
ATOM      8  F1  UNL d   1      -6.000  -0.411  -0.379  0.00  0.00    -0.096 F 
ATOM      9  I   UNL d   1      -6.000   2.535   0.872  0.00  0.00    -0.060 I 
ATOM     10  F2  UNL d   1      -5.191   4.047  -1.830  0.00  0.00    -0.096 F 
ATOM     11  F3  UNL d   1      -4.682   3.125  -4.325  0.00  0.00    -0.097 F 
ATOM     12  F4  UNL d   1      -4.826   0.455  -4.865  0.00  0.00    -0.092 F 
ENDROOT
TORSDOF 0
ENDMDL
