MODEL 1
REMARK minimizedAffinity 12.965292
REMARK minimizedRMSD -1
REMARK  0 active torsions:
REMARK  status: ('A' for Active; 'I' for Inactive)
ROOT
ATOM      1  C   UNL d   1      -2.586   2.475  -2.998  0.00  0.00     0.124 A 
ATOM      2  C1  UNL d   1      -2.323   1.113  -3.026  0.00  0.00     0.062 A 
ATOM      3  C2  UNL d   1      -3.296   0.221  -3.469  0.00  0.00     0.162 A 
ATOM      4  C3  UNL d   1      -4.541   0.689  -3.889  0.00  0.00    -0.034 A 
ATOM      5  C4  UNL d   1      -4.798   2.061  -3.857  0.00  0.00     0.162 A 
ATOM      6  C5  UNL d   1      -3.823   2.948  -3.413  0.00  0.00     0.062 A 
ATOM      7  F   UNL d   1      -4.079   4.264  -3.386  0.00  0.00    -0.097 F 
ATOM      8  F1  UNL d   1      -5.985   2.545  -4.253  0.00  0.00    -0.096 F 
ATOM      9  I   UNL d   1      -5.998  -0.640  -4.552  0.00  0.00    -0.060 I 
ATOM     10  F2  UNL d   1      -3.014  -1.090  -3.485  0.00  0.00    -0.096 F 
ATOM     11  F3  UNL d   1      -1.129   0.653  -2.624  0.00  0.00    -0.097 F 
ATOM     12  F4  UNL d   1      -1.649   3.331  -2.570  0.00  0.00    -0.092 F 
ENDROOT
TORSDOF 0
ENDMDL
