MODEL 1
REMARK minimizedAffinity 10.819581
REMARK minimizedRMSD -1
REMARK  0 active torsions:
REMARK  status: ('A' for Active; 'I' for Inactive)
ROOT
ATOM      1  C   UNL d   1       1.793   0.140  -0.651  0.00  0.00     0.124 A 
ATOM      2  C1  UNL d   1       2.280  -1.159  -0.710  0.00  0.00     0.062 A 
ATOM      3  C2  UNL d   1       1.419  -2.218  -0.982  0.00  0.00     0.162 A 
ATOM      4  C3  UNL d   1       0.061  -1.983  -1.199  0.00  0.00    -0.034 A 
ATOM      5  C4  UNL d   1      -0.422  -0.675  -1.137  0.00  0.00     0.162 A 
ATOM      6  C5  UNL d   1       0.443   0.380  -0.865  0.00  0.00     0.062 A 
ATOM      7  F   UNL d   1      -0.030   1.634  -0.809  0.00  0.00    -0.097 F 
ATOM      8  F1  UNL d   1      -1.721  -0.414  -1.341  0.00  0.00    -0.096 F 
ATOM      9  I   UNL d   1      -1.230  -3.564  -1.606  0.00  0.00    -0.060 I 
ATOM     10  F2  UNL d   1       1.917  -3.462  -1.032  0.00  0.00    -0.096 F 
ATOM     11  F3  UNL d   1       3.584  -1.394  -0.503  0.00  0.00    -0.097 F 
ATOM     12  F4  UNL d   1       2.623   1.157  -0.388  0.00  0.00    -0.092 F 
ENDROOT
TORSDOF 0
ENDMDL
