MODEL 1
REMARK minimizedAffinity 9.63050842
REMARK minimizedRMSD -1
REMARK  1 active torsions:
REMARK  status: ('A' for Active; 'I' for Inactive)
REMARK    1  A    between atoms: C1_2  and  C2_3 
ROOT
ATOM      1  C2  UNL d   1      -3.608  -1.268   4.135  0.00  0.00    -0.077 A 
ATOM      2  C3  UNL d   1      -3.560  -0.620   5.377  0.00  0.00     0.002 A 
ATOM      3  C4  UNL d   1      -3.622   0.773   5.449  0.00  0.00     0.002 A 
ATOM      4  C5  UNL d   1      -3.736   1.529   4.285  0.00  0.00    -0.004 A 
ATOM      5  C6  UNL d   1      -3.783   0.894   3.044  0.00  0.00     0.002 A 
ATOM      6  C7  UNL d   1      -3.720  -0.499   2.970  0.00  0.00     0.002 A 
ENDROOT
BRANCH   1   7
ATOM      7  C1  UNL d   1      -3.592  -2.772   4.057  0.00  0.00     0.055 C 
ATOM      8  C   UNL d   1      -3.912  -3.400   5.406  0.00  0.00     0.019 C 
ENDBRANCH   1   7
TORSDOF 1
ENDMDL
