MODEL 1
REMARK minimizedAffinity 8.62388992
REMARK minimizedRMSD -1
REMARK  1 active torsions:
REMARK  status: ('A' for Active; 'I' for Inactive)
REMARK    1  A    between atoms: C1_2  and  C2_3 
ROOT
ATOM      1  C2  UNL d   1       3.059  -0.104  -0.421  0.00  0.00    -0.077 A 
ATOM      2  C3  UNL d   1       3.923  -1.030   0.181  0.00  0.00     0.002 A 
ATOM      3  C4  UNL d   1       3.711  -2.401   0.021  0.00  0.00     0.002 A 
ATOM      4  C5  UNL d   1       2.639  -2.857  -0.743  0.00  0.00    -0.004 A 
ATOM      5  C6  UNL d   1       1.773  -1.944  -1.344  0.00  0.00     0.002 A 
ATOM      6  C7  UNL d   1       1.983  -0.574  -1.184  0.00  0.00     0.002 A 
ENDROOT
BRANCH   1   7
ATOM      7  C1  UNL d   1       3.315   1.375  -0.290  0.00  0.00     0.055 C 
ATOM      8  C   UNL d   1       4.752   1.653   0.127  0.00  0.00     0.019 C 
ENDBRANCH   1   7
TORSDOF 1
ENDMDL
