MODEL 1
REMARK minimizedAffinity 22.2023659
REMARK minimizedRMSD -1
REMARK  1 active torsions:
REMARK  status: ('A' for Active; 'I' for Inactive)
REMARK    1  A    between atoms: C1_2  and  C2_3 
ROOT
ATOM      1  C2  UNL d   1       2.769   0.119  -0.056  0.00  0.00    -0.077 A 
ATOM      2  C3  UNL d   1       2.893  -1.238   0.276  0.00  0.00     0.002 A 
ATOM      3  C4  UNL d   1       2.273  -2.216  -0.503  0.00  0.00     0.002 A 
ATOM      4  C5  UNL d   1       1.527  -1.848  -1.622  0.00  0.00    -0.004 A 
ATOM      5  C6  UNL d   1       1.396  -0.502  -1.959  0.00  0.00     0.002 A 
ATOM      6  C7  UNL d   1       2.014   0.477  -1.180  0.00  0.00     0.002 A 
ENDROOT
BRANCH   1   7
ATOM      7  C1  UNL d   1       3.478   1.172   0.755  0.00  0.00     0.055 C 
ATOM      8  C   UNL d   1       4.708   1.695   0.028  0.00  0.00     0.019 C 
ENDBRANCH   1   7
TORSDOF 1
ENDMDL
