MODEL 1
REMARK minimizedAffinity 4.47686005
REMARK minimizedRMSD -1
REMARK  1 active torsions:
REMARK  status: ('A' for Active; 'I' for Inactive)
REMARK    1  A    between atoms: C1_2  and  C2_3 
ROOT
ATOM      1  C2  UNL d   1       3.716   0.151  -0.106  0.00  0.00    -0.077 A 
ATOM      2  C3  UNL d   1       4.446  -0.822   0.590  0.00  0.00     0.002 A 
ATOM      3  C4  UNL d   1       4.055  -2.162   0.549  0.00  0.00     0.002 A 
ATOM      4  C5  UNL d   1       2.935  -2.540  -0.189  0.00  0.00    -0.004 A 
ATOM      5  C6  UNL d   1       2.201  -1.579  -0.883  0.00  0.00     0.002 A 
ATOM      6  C7  UNL d   1       2.591  -0.239  -0.843  0.00  0.00     0.002 A 
ENDROOT
BRANCH   1   7
ATOM      7  C1  UNL d   1       4.166   1.589  -0.104  0.00  0.00     0.055 C 
ATOM      8  C   UNL d   1       3.741   2.300   1.172  0.00  0.00     0.019 C 
ENDBRANCH   1   7
TORSDOF 1
ENDMDL
