MODEL 1
REMARK minimizedAffinity 17.1567669
REMARK minimizedRMSD -1
REMARK  1 active torsions:
REMARK  status: ('A' for Active; 'I' for Inactive)
REMARK    1  A    between atoms: C1_2  and  C2_3 
ROOT
ATOM      1  C2  UNL d   1      -1.849   0.942   2.742  0.00  0.00    -0.077 A 
ATOM      2  C3  UNL d   1      -0.804   0.248   3.368  0.00  0.00     0.002 A 
ATOM      3  C4  UNL d   1       0.525   0.594   3.116  0.00  0.00     0.002 A 
ATOM      4  C5  UNL d   1       0.821   1.638   2.242  0.00  0.00    -0.004 A 
ATOM      5  C6  UNL d   1      -0.211   2.333   1.612  0.00  0.00     0.002 A 
ATOM      6  C7  UNL d   1      -1.540   1.987   1.862  0.00  0.00     0.002 A 
ENDROOT
BRANCH   1   7
ATOM      7  C1  UNL d   1      -3.284   0.602   3.050  0.00  0.00     0.055 C 
ATOM      8  C   UNL d   1      -3.421  -0.834   3.533  0.00  0.00     0.019 C 
ENDBRANCH   1   7
TORSDOF 1
ENDMDL
