MODEL 1
REMARK minimizedAffinity 11.6055527
REMARK minimizedRMSD -1
REMARK  1 active torsions:
REMARK  status: ('A' for Active; 'I' for Inactive)
REMARK    1  A    between atoms: C1_2  and  C2_3 
ROOT
ATOM      1  C2  UNL d   1       2.688  -0.820  -1.190  0.00  0.00    -0.077 A 
ATOM      2  C3  UNL d   1       1.679  -1.145  -2.108  0.00  0.00     0.002 A 
ATOM      3  C4  UNL d   1       1.173  -2.445  -2.171  0.00  0.00     0.002 A 
ATOM      4  C5  UNL d   1       1.666  -3.428  -1.315  0.00  0.00    -0.004 A 
ATOM      5  C6  UNL d   1       2.670  -3.115  -0.400  0.00  0.00     0.002 A 
ATOM      6  C7  UNL d   1       3.178  -1.817  -0.337  0.00  0.00     0.002 A 
ENDROOT
BRANCH   1   7
ATOM      7  C1  UNL d   1       3.200   0.593  -1.087  0.00  0.00     0.055 C 
ATOM      8  C   UNL d   1       3.888   0.836   0.248  0.00  0.00     0.019 C 
ENDBRANCH   1   7
TORSDOF 1
ENDMDL
