MODEL 1
REMARK minimizedAffinity 13.5432329
REMARK minimizedRMSD -1
REMARK  1 active torsions:
REMARK  status: ('A' for Active; 'I' for Inactive)
REMARK    1  A    between atoms: C1_2  and  C2_3 
ROOT
ATOM      1  C2  UNL d   1       3.090  -2.250  -0.464  0.00  0.00    -0.077 A 
ATOM      2  C3  UNL d   1       4.439  -2.604  -0.323  0.00  0.00     0.002 A 
ATOM      3  C4  UNL d   1       4.791  -3.878   0.127  0.00  0.00     0.002 A 
ATOM      4  C5  UNL d   1       3.802  -4.809   0.436  0.00  0.00    -0.004 A 
ATOM      5  C6  UNL d   1       2.457  -4.465   0.301  0.00  0.00     0.002 A 
ATOM      6  C7  UNL d   1       2.102  -3.192  -0.148  0.00  0.00     0.002 A 
ENDROOT
BRANCH   1   7
ATOM      7  C1  UNL d   1       2.708  -0.894  -0.996  0.00  0.00     0.055 C 
ATOM      8  C   UNL d   1       2.204  -0.983  -2.429  0.00  0.00     0.019 C 
ENDBRANCH   1   7
TORSDOF 1
ENDMDL
