MODEL 1
REMARK minimizedAffinity 14.0451746
REMARK minimizedRMSD -1
REMARK  1 active torsions:
REMARK  status: ('A' for Active; 'I' for Inactive)
REMARK    1  A    between atoms: C1_2  and  C2_3 
ROOT
ATOM      1  C2  UNL d   1       2.614  -3.074  -0.864  0.00  0.00    -0.077 A 
ATOM      2  C3  UNL d   1       2.067  -3.228  -2.145  0.00  0.00     0.002 A 
ATOM      3  C4  UNL d   1       1.474  -2.144  -2.795  0.00  0.00     0.002 A 
ATOM      4  C5  UNL d   1       1.426  -0.898  -2.174  0.00  0.00    -0.004 A 
ATOM      5  C6  UNL d   1       1.966  -0.735  -0.898  0.00  0.00     0.002 A 
ATOM      6  C7  UNL d   1       2.558  -1.818  -0.246  0.00  0.00     0.002 A 
ENDROOT
BRANCH   1   7
ATOM      7  C1  UNL d   1       3.297  -4.230  -0.181  0.00  0.00     0.055 C 
ATOM      8  C   UNL d   1       4.804  -4.023  -0.118  0.00  0.00     0.019 C 
ENDBRANCH   1   7
TORSDOF 1
ENDMDL
