MODEL 1
REMARK minimizedAffinity 13.6916084
REMARK minimizedRMSD -1
REMARK  1 active torsions:
REMARK  status: ('A' for Active; 'I' for Inactive)
REMARK    1  A    between atoms: C1_2  and  C2_3 
ROOT
ATOM      1  C2  UNL d   1      -3.336  -1.023   2.414  0.00  0.00    -0.077 A 
ATOM      2  C3  UNL d   1      -2.053  -0.667   1.974  0.00  0.00     0.002 A 
ATOM      3  C4  UNL d   1      -1.538   0.601   2.252  0.00  0.00     0.002 A 
ATOM      4  C5  UNL d   1      -2.296   1.520   2.974  0.00  0.00    -0.004 A 
ATOM      5  C6  UNL d   1      -3.574   1.176   3.413  0.00  0.00     0.002 A 
ATOM      6  C7  UNL d   1      -4.091  -0.090   3.136  0.00  0.00     0.002 A 
ENDROOT
BRANCH   1   7
ATOM      7  C1  UNL d   1      -3.874  -2.406   2.158  0.00  0.00     0.055 C 
ATOM      8  C   UNL d   1      -5.350  -2.367   1.789  0.00  0.00     0.019 C 
ENDBRANCH   1   7
TORSDOF 1
ENDMDL
