MODEL 1
REMARK minimizedAffinity 11.4885683
REMARK minimizedRMSD -1
REMARK  1 active torsions:
REMARK  status: ('A' for Active; 'I' for Inactive)
REMARK    1  A    between atoms: C1_2  and  C2_3 
ROOT
ATOM      1  C2  UNL d   1      -0.578   0.788   3.485  0.00  0.00    -0.077 A 
ATOM      2  C3  UNL d   1      -1.749   1.391   3.965  0.00  0.00     0.002 A 
ATOM      3  C4  UNL d   1      -2.897   1.437   3.172  0.00  0.00     0.002 A 
ATOM      4  C5  UNL d   1      -2.887   0.877   1.896  0.00  0.00    -0.004 A 
ATOM      5  C6  UNL d   1      -1.727   0.277   1.408  0.00  0.00     0.002 A 
ATOM      6  C7  UNL d   1      -0.578   0.231   2.199  0.00  0.00     0.002 A 
ENDROOT
BRANCH   1   7
ATOM      7  C1  UNL d   1       0.646   0.694   4.357  0.00  0.00     0.055 C 
ATOM      8  C   UNL d   1       0.273   0.655   5.832  0.00  0.00     0.019 C 
ENDBRANCH   1   7
TORSDOF 1
ENDMDL
