MODEL 1
REMARK minimizedAffinity 8.49059677
REMARK minimizedRMSD -1
REMARK  1 active torsions:
REMARK  status: ('A' for Active; 'I' for Inactive)
REMARK    1  A    between atoms: C1_2  and  C2_3 
ROOT
ATOM      1  C2  UNL d   1      -3.824   1.318   3.777  0.00  0.00    -0.077 A 
ATOM      2  C3  UNL d   1      -4.868   2.219   3.526  0.00  0.00     0.002 A 
ATOM      3  C4  UNL d   1      -5.264   3.132   4.505  0.00  0.00     0.002 A 
ATOM      4  C5  UNL d   1      -4.618   3.155   5.740  0.00  0.00    -0.004 A 
ATOM      5  C6  UNL d   1      -3.580   2.262   6.000  0.00  0.00     0.002 A 
ATOM      6  C7  UNL d   1      -3.184   1.348   5.022  0.00  0.00     0.002 A 
ENDROOT
BRANCH   1   7
ATOM      7  C1  UNL d   1      -3.363   0.365   2.704  0.00  0.00     0.055 C 
ATOM      8  C   UNL d   1      -2.060   0.832   2.072  0.00  0.00     0.019 C 
ENDBRANCH   1   7
TORSDOF 1
ENDMDL
