MODEL 1
REMARK minimizedAffinity 2.42920065
REMARK minimizedRMSD -1
REMARK  1 active torsions:
REMARK  status: ('A' for Active; 'I' for Inactive)
REMARK    1  A    between atoms: C1_2  and  C2_3 
ROOT
ATOM      1  C2  UNL d   1      -2.072  -4.081  -4.750  0.00  0.00    -0.077 A 
ATOM      2  C3  UNL d   1      -0.674  -4.004  -4.692  0.00  0.00     0.002 A 
ATOM      3  C4  UNL d   1       0.010  -4.430  -3.552  0.00  0.00     0.002 A 
ATOM      4  C5  UNL d   1      -0.695  -4.940  -2.464  0.00  0.00    -0.004 A 
ATOM      5  C6  UNL d   1      -2.086  -5.019  -2.512  0.00  0.00     0.002 A 
ATOM      6  C7  UNL d   1      -2.772  -4.593  -3.650  0.00  0.00     0.002 A 
ENDROOT
BRANCH   1   7
ATOM      7  C1  UNL d   1      -2.808  -3.668  -5.998  0.00  0.00     0.055 C 
ATOM      8  C   UNL d   1      -4.145  -3.022  -5.664  0.00  0.00     0.019 C 
ENDBRANCH   1   7
TORSDOF 1
ENDMDL
