MODEL 1
REMARK minimizedAffinity 6.77758551
REMARK minimizedRMSD -1
REMARK  1 active torsions:
REMARK  status: ('A' for Active; 'I' for Inactive)
REMARK    1  A    between atoms: C1_2  and  C2_3 
ROOT
ATOM      1  C2  UNL d   1      -1.743   0.784   2.825  0.00  0.00    -0.077 A 
ATOM      2  C3  UNL d   1      -0.879  -0.314   2.932  0.00  0.00     0.002 A 
ATOM      3  C4  UNL d   1       0.438  -0.138   3.363  0.00  0.00     0.002 A 
ATOM      4  C5  UNL d   1       0.900   1.134   3.694  0.00  0.00    -0.004 A 
ATOM      5  C6  UNL d   1       0.049   2.233   3.589  0.00  0.00     0.002 A 
ATOM      6  C7  UNL d   1      -1.267   2.059   3.157  0.00  0.00     0.002 A 
ENDROOT
BRANCH   1   7
ATOM      7  C1  UNL d   1      -3.177   0.589   2.408  0.00  0.00     0.055 C 
ATOM      8  C   UNL d   1      -4.136   1.178   3.432  0.00  0.00     0.019 C 
ENDBRANCH   1   7
TORSDOF 1
ENDMDL
