MODEL 1
REMARK minimizedAffinity 0.528288543
REMARK minimizedRMSD -1
REMARK  1 active torsions:
REMARK  status: ('A' for Active; 'I' for Inactive)
REMARK    1  A    between atoms: N_2  and  C1_3 
ROOT
ATOM      1  C1  UNL d   1      -0.515   0.629  -1.433  0.00  0.00     0.143 A 
ATOM      2  C2  UNL d   1      -0.324  -0.557  -0.717  0.00  0.00    -0.057 A 
ATOM      3  C3  UNL d   1      -1.208  -0.943   0.298  0.00  0.00     0.033 A 
ATOM      4  C4  UNL d   1      -2.286  -0.131   0.636  0.00  0.00    -0.042 A 
ATOM      5  C5  UNL d   1      -2.481   1.065  -0.046  0.00  0.00     0.033 A 
ATOM      6  C6  UNL d   1      -1.599   1.442  -1.063  0.00  0.00    -0.057 A 
ENDROOT
BRANCH   1   7
ATOM      7  N   UNL d   1       0.383   1.116  -2.386  0.00  0.00    -0.732 N 
ATOM      8  C   UNL d   1       0.102   0.983  -3.800  0.00  0.00     0.284 C 
ATOM      9  H3  UNL d   1       0.778   2.016  -2.124  0.00  0.00     0.395 HD
ENDBRANCH   1   7
TORSDOF 1
ENDMDL
