MODEL 1
REMARK minimizedAffinity 2.98490477
REMARK minimizedRMSD -1
REMARK  1 active torsions:
REMARK  status: ('A' for Active; 'I' for Inactive)
REMARK    1  A    between atoms: N_2  and  C1_3 
ROOT
ATOM      1  C1  UNL d   1       0.147   0.055  -0.362  0.00  0.00     0.143 A 
ATOM      2  C2  UNL d   1      -0.608  -1.114  -0.221  0.00  0.00    -0.057 A 
ATOM      3  C3  UNL d   1      -2.004  -1.069  -0.119  0.00  0.00     0.033 A 
ATOM      4  C4  UNL d   1      -2.669   0.153  -0.129  0.00  0.00    -0.042 A 
ATOM      5  C5  UNL d   1      -1.937   1.329  -0.243  0.00  0.00     0.033 A 
ATOM      6  C6  UNL d   1      -0.544   1.277  -0.351  0.00  0.00    -0.057 A 
ENDROOT
BRANCH   1   7
ATOM      7  N   UNL d   1       1.544   0.082  -0.368  0.00  0.00    -0.732 N 
ATOM      8  C   UNL d   1       2.301  -0.749   0.542  0.00  0.00     0.284 C 
ATOM      9  H3  UNL d   1       1.927   0.125  -1.310  0.00  0.00     0.395 HD
ENDBRANCH   1   7
TORSDOF 1
ENDMDL
