MODEL 1
REMARK minimizedAffinity -3.1397872
REMARK minimizedRMSD -1
REMARK  1 active torsions:
REMARK  status: ('A' for Active; 'I' for Inactive)
REMARK    1  A    between atoms: N_2  and  C1_3 
ROOT
ATOM      1  C1  UNL d   1      -0.722   0.028   1.715  0.00  0.00     0.143 A 
ATOM      2  C2  UNL d   1       0.577  -0.374   1.385  0.00  0.00    -0.057 A 
ATOM      3  C3  UNL d   1       0.865  -0.952   0.143  0.00  0.00     0.033 A 
ATOM      4  C4  UNL d   1      -0.150  -1.166  -0.783  0.00  0.00    -0.042 A 
ATOM      5  C5  UNL d   1      -1.453  -0.797  -0.468  0.00  0.00     0.033 A 
ATOM      6  C6  UNL d   1      -1.733  -0.214   0.772  0.00  0.00    -0.057 A 
ENDROOT
BRANCH   1   7
ATOM      7  N   UNL d   1      -1.090   0.519   2.970  0.00  0.00    -0.732 N 
ATOM      8  C   UNL d   1      -0.082   0.902   3.936  0.00  0.00     0.284 C 
ATOM      9  H3  UNL d   1      -1.882   1.155   2.922  0.00  0.00     0.395 HD
ENDBRANCH   1   7
TORSDOF 1
ENDMDL
