MODEL 1
REMARK minimizedAffinity -1.10478914
REMARK minimizedRMSD -1
REMARK  1 active torsions:
REMARK  status: ('A' for Active; 'I' for Inactive)
REMARK    1  A    between atoms: N_2  and  C1_3 
ROOT
ATOM      1  C1  UNL d   1      -0.197  -0.322   0.140  0.00  0.00     0.143 A 
ATOM      2  C2  UNL d   1      -0.437  -0.193   1.512  0.00  0.00    -0.057 A 
ATOM      3  C3  UNL d   1      -1.674   0.250   1.995  0.00  0.00     0.033 A 
ATOM      4  C4  UNL d   1      -2.687   0.601   1.109  0.00  0.00    -0.042 A 
ATOM      5  C5  UNL d   1      -2.463   0.505  -0.260  0.00  0.00     0.033 A 
ATOM      6  C6  UNL d   1      -1.227   0.056  -0.735  0.00  0.00    -0.057 A 
ENDROOT
BRANCH   1   7
ATOM      7  N   UNL d   1       1.044  -0.662  -0.405  0.00  0.00    -0.732 N 
ATOM      8  C   UNL d   1       2.151  -1.026   0.454  0.00  0.00     0.284 C 
ATOM      9  H3  UNL d   1       0.957  -1.240  -1.238  0.00  0.00     0.395 HD
ENDBRANCH   1   7
TORSDOF 1
ENDMDL
