MODEL 1
REMARK minimizedAffinity 0.979757309
REMARK minimizedRMSD -1
REMARK  1 active torsions:
REMARK  status: ('A' for Active; 'I' for Inactive)
REMARK    1  A    between atoms: N_2  and  C1_3 
ROOT
ATOM      1  C1  UNL d   1       0.100  -0.344   0.574  0.00  0.00     0.143 A 
ATOM      2  C2  UNL d   1      -0.820  -0.018   1.576  0.00  0.00    -0.057 A 
ATOM      3  C3  UNL d   1      -2.042   0.592   1.269  0.00  0.00     0.033 A 
ATOM      4  C4  UNL d   1      -2.354   0.914  -0.048  0.00  0.00    -0.042 A 
ATOM      5  C5  UNL d   1      -1.444   0.622  -1.057  0.00  0.00     0.033 A 
ATOM      6  C6  UNL d   1      -0.227   0.007  -0.745  0.00  0.00    -0.057 A 
ENDROOT
BRANCH   1   7
ATOM      7  N   UNL d   1       1.374  -0.861   0.826  0.00  0.00    -0.732 N 
ATOM      8  C   UNL d   1       2.063  -0.553   2.060  0.00  0.00     0.284 C 
ATOM      9  H3  UNL d   1       1.465  -1.830   0.529  0.00  0.00     0.395 HD
ENDBRANCH   1   7
TORSDOF 1
ENDMDL
