MODEL 1
REMARK minimizedAffinity 3.72048473
REMARK minimizedRMSD -1
REMARK  1 active torsions:
REMARK  status: ('A' for Active; 'I' for Inactive)
REMARK    1  A    between atoms: N_2  and  C1_3 
ROOT
ATOM      1  C1  UNL d   1       0.535  -0.396   0.743  0.00  0.00     0.143 A 
ATOM      2  C2  UNL d   1      -0.108  -0.605  -0.482  0.00  0.00    -0.057 A 
ATOM      3  C3  UNL d   1      -1.469  -0.319  -0.646  0.00  0.00     0.033 A 
ATOM      4  C4  UNL d   1      -2.220   0.156   0.424  0.00  0.00    -0.042 A 
ATOM      5  C5  UNL d   1      -1.608   0.347   1.658  0.00  0.00     0.033 A 
ATOM      6  C6  UNL d   1      -0.247   0.066   1.814  0.00  0.00    -0.057 A 
ENDROOT
BRANCH   1   7
ATOM      7  N   UNL d   1       1.861  -0.754   0.997  0.00  0.00    -0.732 N 
ATOM      8  C   UNL d   1       2.426  -0.600   2.320  0.00  0.00     0.284 C 
ATOM      9  H3  UNL d   1       2.126  -1.618   0.529  0.00  0.00     0.395 HD
ENDBRANCH   1   7
TORSDOF 1
ENDMDL
