MODEL 1
REMARK minimizedAffinity 1.58533037
REMARK minimizedRMSD -1
REMARK  1 active torsions:
REMARK  status: ('A' for Active; 'I' for Inactive)
REMARK    1  A    between atoms: N_2  and  C1_3 
ROOT
ATOM      1  C1  UNL d   1      -2.851  -1.428  -0.116  0.00  0.00     0.143 A 
ATOM      2  C2  UNL d   1      -3.295  -0.176   0.325  0.00  0.00    -0.057 A 
ATOM      3  C3  UNL d   1      -2.389   0.835   0.669  0.00  0.00     0.033 A 
ATOM      4  C4  UNL d   1      -1.020   0.602   0.605  0.00  0.00    -0.042 A 
ATOM      5  C5  UNL d   1      -0.556  -0.643   0.193  0.00  0.00     0.033 A 
ATOM      6  C6  UNL d   1      -1.465  -1.646  -0.155  0.00  0.00    -0.057 A 
ENDROOT
BRANCH   1   7
ATOM      7  N   UNL d   1      -3.700  -2.506  -0.378  0.00  0.00    -0.732 N 
ATOM      8  C   UNL d   1      -4.898  -2.325  -1.169  0.00  0.00     0.284 C 
ATOM      9  H3  UNL d   1      -3.189  -3.361  -0.586  0.00  0.00     0.395 HD
ENDBRANCH   1   7
TORSDOF 1
ENDMDL
