MODEL 1
REMARK minimizedAffinity -5.22651196
REMARK minimizedRMSD -1
REMARK  1 active torsions:
REMARK  status: ('A' for Active; 'I' for Inactive)
REMARK    1  A    between atoms: N_2  and  C1_3 
ROOT
ATOM      1  C1  UNL d   1       0.413  -0.222   0.585  0.00  0.00     0.143 A 
ATOM      2  C2  UNL d   1      -0.878   0.308   0.680  0.00  0.00    -0.057 A 
ATOM      3  C3  UNL d   1      -1.299   0.991   1.828  0.00  0.00     0.033 A 
ATOM      4  C4  UNL d   1      -0.443   1.130   2.915  0.00  0.00    -0.042 A 
ATOM      5  C5  UNL d   1       0.836   0.590   2.852  0.00  0.00     0.033 A 
ATOM      6  C6  UNL d   1       1.253  -0.085   1.701  0.00  0.00    -0.057 A 
ENDROOT
BRANCH   1   7
ATOM      7  N   UNL d   1       0.859  -0.996  -0.490  0.00  0.00    -0.732 N 
ATOM      8  C   UNL d   1       0.720  -0.520  -1.849  0.00  0.00     0.284 C 
ATOM      9  H3  UNL d   1       1.748  -1.452  -0.297  0.00  0.00     0.395 HD
ENDBRANCH   1   7
TORSDOF 1
ENDMDL
