MODEL 1
REMARK minimizedAffinity -3.73742175
REMARK minimizedRMSD -1
REMARK  0 active torsions:
REMARK  status: ('A' for Active; 'I' for Inactive)
ROOT
ATOM      1  C1  BNZ d   1      -3.098   1.939  -5.751  0.00  0.00     0.000 A 
ATOM      2  C2  BNZ d   1      -4.427   2.157  -5.998  0.00  0.00     0.000 A 
ATOM      3  C3  BNZ d   1      -5.344   1.157  -5.829  0.00  0.00     0.000 A 
ATOM      4  C4  BNZ d   1      -4.926  -0.069  -5.453  0.00  0.00     0.000 A 
ATOM      5  C5  BNZ d   1      -3.588  -0.307  -5.209  0.00  0.00     0.000 A 
ATOM      6  C6  BNZ d   1      -2.673   0.712  -5.343  0.00  0.00     0.000 A 
ENDROOT
TORSDOF 0
ENDMDL
