MODEL 1
REMARK minimizedAffinity 0.863528132
REMARK minimizedRMSD -1
REMARK  0 active torsions:
REMARK  status: ('A' for Active; 'I' for Inactive)
ROOT
ATOM      1  C1  BNZ d   1      -5.395  -1.652  -3.820  0.00  0.00     0.000 A 
ATOM      2  C2  BNZ d   1      -4.877  -0.384  -3.832  0.00  0.00     0.000 A 
ATOM      3  C3  BNZ d   1      -4.219   0.093  -4.930  0.00  0.00     0.000 A 
ATOM      4  C4  BNZ d   1      -4.045  -0.710  -6.000  0.00  0.00     0.000 A 
ATOM      5  C5  BNZ d   1      -4.553  -1.994  -6.000  0.00  0.00     0.000 A 
ATOM      6  C6  BNZ d   1      -5.249  -2.458  -4.907  0.00  0.00     0.000 A 
ENDROOT
TORSDOF 0
ENDMDL
