MODEL 1
REMARK minimizedAffinity -1.69735479
REMARK minimizedRMSD -1
REMARK  0 active torsions:
REMARK  status: ('A' for Active; 'I' for Inactive)
ROOT
ATOM      1  C1  BNZ d   1      -2.585   1.693  -5.998  0.00  0.00     0.000 A 
ATOM      2  C2  BNZ d   1      -2.604   3.062  -5.976  0.00  0.00     0.000 A 
ATOM      3  C3  BNZ d   1      -3.787   3.745  -5.938  0.00  0.00     0.000 A 
ATOM      4  C4  BNZ d   1      -4.949   3.060  -5.963  0.00  0.00     0.000 A 
ATOM      5  C5  BNZ d   1      -4.946   1.680  -5.996  0.00  0.00     0.000 A 
ATOM      6  C6  BNZ d   1      -3.753   0.995  -5.994  0.00  0.00     0.000 A 
ENDROOT
TORSDOF 0
ENDMDL
