MODEL 1
REMARK minimizedAffinity -2.98051262
REMARK minimizedRMSD -1
REMARK  0 active torsions:
REMARK  status: ('A' for Active; 'I' for Inactive)
ROOT
ATOM      1  C1  BNZ d   1      -3.049   3.018  -5.940  0.00  0.00     0.000 A 
ATOM      2  C2  BNZ d   1      -3.572   1.753  -5.932  0.00  0.00     0.000 A 
ATOM      3  C3  BNZ d   1      -4.924   1.554  -5.982  0.00  0.00     0.000 A 
ATOM      4  C4  BNZ d   1      -5.750   2.620  -6.000  0.00  0.00     0.000 A 
ATOM      5  C5  BNZ d   1      -5.238   3.902  -5.999  0.00  0.00     0.000 A 
ATOM      6  C6  BNZ d   1      -3.876   4.097  -5.988  0.00  0.00     0.000 A 
ENDROOT
TORSDOF 0
ENDMDL
