MODEL 1
REMARK minimizedAffinity -2.29866409
REMARK minimizedRMSD -1
REMARK  0 active torsions:
REMARK  status: ('A' for Active; 'I' for Inactive)
ROOT
ATOM      1  C1  BNZ d   1      -3.641   1.695  -6.000  0.00  0.00     0.000 A 
ATOM      2  C2  BNZ d   1      -3.674   3.061  -5.915  0.00  0.00     0.000 A 
ATOM      3  C3  BNZ d   1      -4.852   3.721  -5.704  0.00  0.00     0.000 A 
ATOM      4  C4  BNZ d   1      -6.000   3.018  -5.617  0.00  0.00     0.000 A 
ATOM      5  C5  BNZ d   1      -5.984   1.641  -5.709  0.00  0.00     0.000 A 
ATOM      6  C6  BNZ d   1      -4.791   0.977  -5.883  0.00  0.00     0.000 A 
ENDROOT
TORSDOF 0
ENDMDL
