MODEL 1
REMARK minimizedAffinity -3.31225276
REMARK minimizedRMSD -1
REMARK  0 active torsions:
REMARK  status: ('A' for Active; 'I' for Inactive)
ROOT
ATOM      1  C1  BNZ d   1      -5.184  -0.215  -5.874  0.00  0.00     0.000 A 
ATOM      2  C2  BNZ d   1      -5.360   1.137  -6.000  0.00  0.00     0.000 A 
ATOM      3  C3  BNZ d   1      -4.305   1.996  -5.866  0.00  0.00     0.000 A 
ATOM      4  C4  BNZ d   1      -3.085   1.505  -5.566  0.00  0.00     0.000 A 
ATOM      5  C5  BNZ d   1      -2.894   0.145  -5.426  0.00  0.00     0.000 A 
ATOM      6  C6  BNZ d   1      -3.950  -0.719  -5.601  0.00  0.00     0.000 A 
ENDROOT
TORSDOF 0
ENDMDL
