MODEL 1
REMARK minimizedAffinity -2.44438124
REMARK minimizedRMSD -1
REMARK  0 active torsions:
REMARK  status: ('A' for Active; 'I' for Inactive)
ROOT
ATOM      1  C1  BNZ d   1      -5.250   1.469  -5.963  0.00  0.00     0.000 A 
ATOM      2  C2  BNZ d   1      -4.874   0.152  -5.999  0.00  0.00     0.000 A 
ATOM      3  C3  BNZ d   1      -3.553  -0.198  -5.997  0.00  0.00     0.000 A 
ATOM      4  C4  BNZ d   1      -2.611   0.767  -6.000  0.00  0.00     0.000 A 
ATOM      5  C5  BNZ d   1      -2.974   2.098  -5.974  0.00  0.00     0.000 A 
ATOM      6  C6  BNZ d   1      -4.305   2.447  -5.937  0.00  0.00     0.000 A 
ENDROOT
TORSDOF 0
ENDMDL
