MODEL 1
REMARK minimizedAffinity -1.92837965
REMARK minimizedRMSD -1
REMARK  0 active torsions:
REMARK  status: ('A' for Active; 'I' for Inactive)
ROOT
ATOM      1  C1  BNZ d   1      -2.908   1.688  -6.000  0.00  0.00     0.000 A 
ATOM      2  C2  BNZ d   1      -2.596   3.021  -5.986  0.00  0.00     0.000 A 
ATOM      3  C3  BNZ d   1      -3.581   3.970  -5.953  0.00  0.00     0.000 A 
ATOM      4  C4  BNZ d   1      -4.873   3.585  -5.974  0.00  0.00     0.000 A 
ATOM      5  C5  BNZ d   1      -5.203   2.244  -5.997  0.00  0.00     0.000 A 
ATOM      6  C6  BNZ d   1      -4.210   1.292  -5.991  0.00  0.00     0.000 A 
ENDROOT
TORSDOF 0
ENDMDL
