MODEL 1
REMARK minimizedAffinity -2.46892118
REMARK minimizedRMSD -1
REMARK  0 active torsions:
REMARK  status: ('A' for Active; 'I' for Inactive)
ROOT
ATOM      1  C1  BNZ d   1      -3.560   1.937  -5.972  0.00  0.00     0.000 A 
ATOM      2  C2  BNZ d   1      -2.967   3.172  -5.991  0.00  0.00     0.000 A 
ATOM      3  C3  BNZ d   1      -3.722   4.311  -5.985  0.00  0.00     0.000 A 
ATOM      4  C4  BNZ d   1      -5.067   4.215  -6.000  0.00  0.00     0.000 A 
ATOM      5  C5  BNZ d   1      -5.680   2.978  -5.990  0.00  0.00     0.000 A 
ATOM      6  C6  BNZ d   1      -4.917   1.833  -5.957  0.00  0.00     0.000 A 
ENDROOT
TORSDOF 0
ENDMDL
