MODEL 1
REMARK minimizedAffinity -2.37607217
REMARK minimizedRMSD -1
REMARK  0 active torsions:
REMARK  status: ('A' for Active; 'I' for Inactive)
ROOT
ATOM      1  C1  BNZ d   1      -3.046  -4.286  -5.998  0.00  0.00     0.000 A 
ATOM      2  C2  BNZ d   1      -3.452  -2.979  -5.975  0.00  0.00     0.000 A 
ATOM      3  C3  BNZ d   1      -4.781  -2.659  -5.938  0.00  0.00     0.000 A 
ATOM      4  C4  BNZ d   1      -5.701  -3.645  -5.965  0.00  0.00     0.000 A 
ATOM      5  C5  BNZ d   1      -5.307  -4.968  -5.997  0.00  0.00     0.000 A 
ATOM      6  C6  BNZ d   1      -3.968  -5.287  -5.995  0.00  0.00     0.000 A 
ENDROOT
TORSDOF 0
ENDMDL
