MODEL 1
REMARK minimizedAffinity 1.84444058
REMARK minimizedRMSD -1
REMARK  2 active torsions:
REMARK  status: ('A' for Active; 'I' for Inactive)
REMARK    1  A    between atoms: C2'_3  and  C1'_4 
REMARK    2  A    between atoms: C1'_4  and  C1_5 
ROOT
ATOM      1  C1  I4B d   1       1.539   0.424   0.034  0.00  0.00    -0.075 A 
ATOM      2  C2  I4B d   1       2.508  -0.159  -0.744  0.00  0.00     0.003 A 
ATOM      3  C3  I4B d   1       3.749   0.491  -0.944  0.00  0.00     0.002 A 
ATOM      4  C4  I4B d   1       3.960   1.738  -0.392  0.00  0.00    -0.004 A 
ATOM      5  C5  I4B d   1       2.987   2.318   0.415  0.00  0.00     0.002 A 
ATOM      6  C6  I4B d   1       1.773   1.652   0.640  0.00  0.00     0.003 A 
ENDROOT
BRANCH   1   7
ATOM      7  C1' I4B d   1       0.227  -0.275   0.198  0.00  0.00     0.060 C 
BRANCH   7   8
ATOM      8  C2' I4B d   1       0.278  -1.557  -0.608  0.00  0.00    -0.013 C 
ATOM      9  C4' I4B d   1       0.177  -2.766   0.285  0.00  0.00     0.013 C 
ATOM     10  C3' I4B d   1      -0.843  -1.524  -1.603  0.00  0.00     0.013 C 
ENDBRANCH   7   8
ENDBRANCH   1   7
TORSDOF 2
ENDMDL
