MODEL 1
REMARK minimizedAffinity 8.9065094
REMARK minimizedRMSD -1
REMARK  2 active torsions:
REMARK  status: ('A' for Active; 'I' for Inactive)
REMARK    1  A    between atoms: C2'_3  and  C1'_4 
REMARK    2  A    between atoms: C1'_4  and  C1_5 
ROOT
ATOM      1  C1  I4B d   1       2.862  -0.623   0.712  0.00  0.00    -0.075 A 
ATOM      2  C2  I4B d   1       2.138   0.409   0.169  0.00  0.00     0.003 A 
ATOM      3  C3  I4B d   1       2.431   1.748   0.522  0.00  0.00     0.002 A 
ATOM      4  C4  I4B d   1       3.416   2.006   1.453  0.00  0.00    -0.004 A 
ATOM      5  C5  I4B d   1       4.164   0.960   1.986  0.00  0.00     0.002 A 
ATOM      6  C6  I4B d   1       3.894  -0.362   1.604  0.00  0.00     0.003 A 
ENDROOT
BRANCH   1   7
ATOM      7  C1' I4B d   1       2.505  -2.028   0.342  0.00  0.00     0.060 C 
BRANCH   7   8
ATOM      8  C2' I4B d   1       1.712  -1.983  -0.949  0.00  0.00    -0.013 C 
ATOM      9  C4' I4B d   1       2.613  -2.127  -2.147  0.00  0.00     0.013 C 
ATOM     10  C3' I4B d   1       0.692  -3.081  -0.904  0.00  0.00     0.013 C 
ENDBRANCH   7   8
ENDBRANCH   1   7
TORSDOF 2
ENDMDL
