MODEL 1
REMARK minimizedAffinity 3.54476976
REMARK minimizedRMSD -1
REMARK  2 active torsions:
REMARK  status: ('A' for Active; 'I' for Inactive)
REMARK    1  A    between atoms: C2'_3  and  C1'_4 
REMARK    2  A    between atoms: C1'_4  and  C1_5 
ROOT
ATOM      1  C1  I4B d   1       3.057   0.554   0.312  0.00  0.00    -0.075 A 
ATOM      2  C2  I4B d   1       3.755   1.658  -0.110  0.00  0.00     0.003 A 
ATOM      3  C3  I4B d   1       3.187   2.949   0.010  0.00  0.00     0.002 A 
ATOM      4  C4  I4B d   1       1.906   3.085   0.506  0.00  0.00    -0.004 A 
ATOM      5  C5  I4B d   1       1.209   1.967   0.954  0.00  0.00     0.002 A 
ATOM      6  C6  I4B d   1       1.792   0.695   0.868  0.00  0.00     0.003 A 
ENDROOT
BRANCH   1   7
ATOM      7  C1' I4B d   1       3.674  -0.798   0.141  0.00  0.00     0.060 C 
BRANCH   7   8
ATOM      8  C2' I4B d   1       2.705  -1.657  -0.647  0.00  0.00    -0.013 C 
ATOM      9  C4' I4B d   1       3.239  -1.960  -2.022  0.00  0.00     0.013 C 
ATOM     10  C3' I4B d   1       2.466  -2.916   0.131  0.00  0.00     0.013 C 
ENDBRANCH   7   8
ENDBRANCH   1   7
TORSDOF 2
ENDMDL
