MODEL 1
REMARK minimizedAffinity 4.91172695
REMARK minimizedRMSD -1
REMARK  2 active torsions:
REMARK  status: ('A' for Active; 'I' for Inactive)
REMARK    1  A    between atoms: C2'_3  and  C1'_4 
REMARK    2  A    between atoms: C1'_4  and  C1_5 
ROOT
ATOM      1  C1  I4B d   1       1.325   0.770   0.076  0.00  0.00    -0.075 A 
ATOM      2  C2  I4B d   1       2.214   1.816   0.079  0.00  0.00     0.003 A 
ATOM      3  C3  I4B d   1       3.607   1.568   0.032  0.00  0.00     0.002 A 
ATOM      4  C4  I4B d   1       4.066   0.266   0.033  0.00  0.00    -0.004 A 
ATOM      5  C5  I4B d   1       3.163  -0.793   0.007  0.00  0.00     0.002 A 
ATOM      6  C6  I4B d   1       1.783  -0.539   0.017  0.00  0.00     0.003 A 
ENDROOT
BRANCH   1   7
ATOM      7  C1' I4B d   1      -0.139   1.068   0.160  0.00  0.00     0.060 C 
BRANCH   7   8
ATOM      8  C2' I4B d   1      -0.392   1.800   1.462  0.00  0.00    -0.013 C 
ATOM      9  C4' I4B d   1      -1.409   2.896   1.282  0.00  0.00     0.013 C 
ATOM     10  C3' I4B d   1      -0.852   0.796   2.477  0.00  0.00     0.013 C 
ENDBRANCH   7   8
ENDBRANCH   1   7
TORSDOF 2
ENDMDL
