MODEL 1
REMARK minimizedAffinity 9.55042362
REMARK minimizedRMSD -1
REMARK  2 active torsions:
REMARK  status: ('A' for Active; 'I' for Inactive)
REMARK    1  A    between atoms: C2'_3  and  C1'_4 
REMARK    2  A    between atoms: C1'_4  and  C1_5 
ROOT
ATOM      1  C1  I4B d   1       1.893   0.161  -0.178  0.00  0.00    -0.075 A 
ATOM      2  C2  I4B d   1       2.729  -0.593   0.608  0.00  0.00     0.003 A 
ATOM      3  C3  I4B d   1       2.779  -1.999   0.452  0.00  0.00     0.002 A 
ATOM      4  C4  I4B d   1       1.944  -2.612  -0.460  0.00  0.00    -0.004 A 
ATOM      5  C5  I4B d   1       1.113  -1.844  -1.272  0.00  0.00     0.002 A 
ATOM      6  C6  I4B d   1       1.096  -0.448  -1.139  0.00  0.00     0.003 A 
ENDROOT
BRANCH   1   7
ATOM      7  C1' I4B d   1       1.842   1.640   0.036  0.00  0.00     0.060 C 
BRANCH   7   8
ATOM      8  C2' I4B d   1       3.229   2.103   0.433  0.00  0.00    -0.013 C 
ATOM      9  C4' I4B d   1       4.291   1.376  -0.351  0.00  0.00     0.013 C 
ATOM     10  C3' I4B d   1       3.306   3.583   0.205  0.00  0.00     0.013 C 
ENDBRANCH   7   8
ENDBRANCH   1   7
TORSDOF 2
ENDMDL
