MODEL 1
REMARK minimizedAffinity 1.07685089
REMARK minimizedRMSD -1
REMARK  2 active torsions:
REMARK  status: ('A' for Active; 'I' for Inactive)
REMARK    1  A    between atoms: C2'_3  and  C1'_4 
REMARK    2  A    between atoms: C1'_4  and  C1_5 
ROOT
ATOM      1  C1  I4B d   1       3.264   0.164  -0.657  0.00  0.00    -0.075 A 
ATOM      2  C2  I4B d   1       4.136   0.977  -1.336  0.00  0.00     0.003 A 
ATOM      3  C3  I4B d   1       4.241   2.349  -0.999  0.00  0.00     0.002 A 
ATOM      4  C4  I4B d   1       3.425   2.871  -0.016  0.00  0.00    -0.004 A 
ATOM      5  C5  I4B d   1       2.558   2.040   0.687  0.00  0.00     0.002 A 
ATOM      6  C6  I4B d   1       2.486   0.675   0.374  0.00  0.00     0.003 A 
ENDROOT
BRANCH   1   7
ATOM      7  C1' I4B d   1       3.154  -1.272  -1.061  0.00  0.00     0.060 C 
BRANCH   7   8
ATOM      8  C2' I4B d   1       2.146  -1.939  -0.148  0.00  0.00    -0.013 C 
ATOM      9  C4' I4B d   1       0.986  -2.496  -0.930  0.00  0.00     0.013 C 
ATOM     10  C3' I4B d   1       2.854  -3.019   0.614  0.00  0.00     0.013 C 
ENDBRANCH   7   8
ENDBRANCH   1   7
TORSDOF 2
ENDMDL
