MODEL 1
REMARK minimizedAffinity 6.44826078
REMARK minimizedRMSD -1
REMARK  2 active torsions:
REMARK  status: ('A' for Active; 'I' for Inactive)
REMARK    1  A    between atoms: C2'_3  and  C1'_4 
REMARK    2  A    between atoms: C1'_4  and  C1_5 
ROOT
ATOM      1  C1  I4B d   1       2.822  -0.033  -0.092  0.00  0.00    -0.075 A 
ATOM      2  C2  I4B d   1       1.780   0.694   0.428  0.00  0.00     0.003 A 
ATOM      3  C3  I4B d   1       1.973   2.045   0.806  0.00  0.00     0.002 A 
ATOM      4  C4  I4B d   1       3.227   2.609   0.694  0.00  0.00    -0.004 A 
ATOM      5  C5  I4B d   1       4.276   1.878   0.146  0.00  0.00     0.002 A 
ATOM      6  C6  I4B d   1       4.070   0.552  -0.262  0.00  0.00     0.003 A 
ENDROOT
BRANCH   1   7
ATOM      7  C1' I4B d   1       2.592  -1.467  -0.450  0.00  0.00     0.060 C 
BRANCH   7   8
ATOM      8  C2' I4B d   1       1.310  -1.916   0.222  0.00  0.00    -0.013 C 
ATOM      9  C4' I4B d   1       0.773  -3.173  -0.412  0.00  0.00     0.013 C 
ATOM     10  C3' I4B d   1       1.599  -2.125   1.678  0.00  0.00     0.013 C 
ENDBRANCH   7   8
ENDBRANCH   1   7
TORSDOF 2
ENDMDL
