MODEL 1
REMARK minimizedAffinity -0.934660673
REMARK minimizedRMSD -1
REMARK  0 active torsions:
REMARK  status: ('A' for Active; 'I' for Inactive)
ROOT
ATOM      1  C   UNL d   1      -0.047  -1.444   1.088  0.00  0.00     0.020 A 
ATOM      2  C1  UNL d   1       0.639  -1.335  -0.121  0.00  0.00     0.020 A 
ATOM      3  C2  UNL d   1       0.687  -0.109  -0.788  0.00  0.00     0.034 A 
ATOM      4  C3  UNL d   1       0.048   1.013  -0.247  0.00  0.00     0.017 A 
ATOM      5  C4  UNL d   1      -0.640   0.902   0.967  0.00  0.00     0.017 A 
ATOM      6  C5  UNL d   1      -0.685  -0.328   1.631  0.00  0.00     0.034 A 
ATOM      7 Cl   UNL d   1      -1.453   2.241   1.697  0.00  0.00    -0.070 Cl
ATOM      8 Cl1  UNL d   1       0.148   2.497  -1.126  0.00  0.00    -0.070 Cl
ENDROOT
TORSDOF 0
ENDMDL
