MODEL 1
REMARK minimizedAffinity -3.49567151
REMARK minimizedRMSD -1
REMARK  0 active torsions:
REMARK  status: ('A' for Active; 'I' for Inactive)
ROOT
ATOM      1  C   UNL d   1      -1.066   3.346   0.505  0.00  0.00     0.020 A 
ATOM      2  C1  UNL d   1      -1.836   2.950   1.598  0.00  0.00     0.020 A 
ATOM      3  C2  UNL d   1      -1.846   1.612   1.997  0.00  0.00     0.034 A 
ATOM      4  C3  UNL d   1      -1.085   0.665   1.303  0.00  0.00     0.017 A 
ATOM      5  C4  UNL d   1      -0.313   1.062   0.206  0.00  0.00     0.017 A 
ATOM      6  C5  UNL d   1      -0.306   2.403  -0.190  0.00  0.00     0.034 A 
ATOM      7 Cl   UNL d   1       0.652  -0.049  -0.700  0.00  0.00    -0.070 Cl
ATOM      8 Cl1  UNL d   1      -1.145  -0.972   1.852  0.00  0.00    -0.070 Cl
ENDROOT
TORSDOF 0
ENDMDL
