MODEL 1
REMARK minimizedAffinity -2.60634828
REMARK minimizedRMSD -1
REMARK  0 active torsions:
REMARK  status: ('A' for Active; 'I' for Inactive)
ROOT
ATOM      1  C   UNL d   1      -1.436  -0.090   1.948  0.00  0.00     0.020 A 
ATOM      2  C1  UNL d   1      -1.418   1.302   2.020  0.00  0.00     0.020 A 
ATOM      3  C2  UNL d   1      -0.771   2.044   1.029  0.00  0.00     0.034 A 
ATOM      4  C3  UNL d   1      -0.140   1.394  -0.038  0.00  0.00     0.017 A 
ATOM      5  C4  UNL d   1      -0.158  -0.003  -0.109  0.00  0.00     0.017 A 
ATOM      6  C5  UNL d   1      -0.808  -0.741   0.886  0.00  0.00     0.034 A 
ATOM      7 Cl   UNL d   1       0.598  -0.876  -1.395  0.00  0.00    -0.070 Cl
ATOM      8 Cl1  UNL d   1       0.641   2.375  -1.227  0.00  0.00    -0.070 Cl
ENDROOT
TORSDOF 0
ENDMDL
