MODEL 1
REMARK minimizedAffinity -0.990900636
REMARK minimizedRMSD -1
REMARK  0 active torsions:
REMARK  status: ('A' for Active; 'I' for Inactive)
ROOT
ATOM      1  C   UNL d   1       0.185  -3.372  -2.666  0.00  0.00     0.020 A 
ATOM      2  C1  UNL d   1      -0.775  -3.697  -1.708  0.00  0.00     0.020 A 
ATOM      3  C2  UNL d   1      -1.014  -2.832  -0.637  0.00  0.00     0.034 A 
ATOM      4  C3  UNL d   1      -0.291  -1.639  -0.522  0.00  0.00     0.017 A 
ATOM      5  C4  UNL d   1       0.672  -1.315  -1.483  0.00  0.00     0.017 A 
ATOM      6  C5  UNL d   1       0.907  -2.184  -2.553  0.00  0.00     0.034 A 
ATOM      7 Cl   UNL d   1       1.604   0.140  -1.408  0.00  0.00    -0.070 Cl
ATOM      8 Cl1  UNL d   1      -0.638  -0.617   0.828  0.00  0.00    -0.070 Cl
ENDROOT
TORSDOF 0
ENDMDL
