MODEL 1
REMARK minimizedAffinity -3.1329093
REMARK minimizedRMSD -1
REMARK  0 active torsions:
REMARK  status: ('A' for Active; 'I' for Inactive)
ROOT
ATOM      1  C   UNL d   1       0.311  -1.200   0.728  0.00  0.00     0.020 A 
ATOM      2  C1  UNL d   1       1.010  -0.956  -0.453  0.00  0.00     0.020 A 
ATOM      3  C2  UNL d   1       1.018   0.326  -1.007  0.00  0.00     0.034 A 
ATOM      4  C3  UNL d   1       0.325   1.368  -0.381  0.00  0.00     0.017 A 
ATOM      5  C4  UNL d   1      -0.376   1.122   0.805  0.00  0.00     0.017 A 
ATOM      6  C5  UNL d   1      -0.381  -0.164   1.356  0.00  0.00     0.034 A 
ATOM      7 Cl   UNL d   1      -1.255   2.357   1.636  0.00  0.00    -0.070 Cl
ATOM      8 Cl1  UNL d   1       0.378   2.928  -1.121  0.00  0.00    -0.070 Cl
ENDROOT
TORSDOF 0
ENDMDL
