MODEL 1
REMARK minimizedAffinity -0.940041721
REMARK minimizedRMSD -1
REMARK  0 active torsions:
REMARK  status: ('A' for Active; 'I' for Inactive)
ROOT
ATOM      1  C   UNL d   1       0.275  -1.459   0.675  0.00  0.00     0.020 A 
ATOM      2  C1  UNL d   1       0.762  -1.088  -0.578  0.00  0.00     0.020 A 
ATOM      3  C2  UNL d   1       0.620   0.229  -1.020  0.00  0.00     0.034 A 
ATOM      4  C3  UNL d   1      -0.009   1.180  -0.209  0.00  0.00     0.017 A 
ATOM      5  C4  UNL d   1      -0.497   0.807   1.049  0.00  0.00     0.017 A 
ATOM      6  C5  UNL d   1      -0.353  -0.513   1.487  0.00  0.00     0.034 A 
ATOM      7 Cl   UNL d   1      -1.285   1.925   2.106  0.00  0.00    -0.070 Cl
ATOM      8 Cl1  UNL d   1      -0.149   2.791  -0.819  0.00  0.00    -0.070 Cl
ENDROOT
TORSDOF 0
ENDMDL
