MODEL 1
REMARK minimizedAffinity -3.36320376
REMARK minimizedRMSD -1
REMARK  0 active torsions:
REMARK  status: ('A' for Active; 'I' for Inactive)
ROOT
ATOM      1  C   UNL d   1       1.232   0.013  -1.435  0.00  0.00     0.020 A 
ATOM      2  C1  UNL d   1       0.629   1.201  -1.848  0.00  0.00     0.020 A 
ATOM      3  C2  UNL d   1      -0.379   1.778  -1.072  0.00  0.00     0.034 A 
ATOM      4  C3  UNL d   1      -0.787   1.168   0.119  0.00  0.00     0.017 A 
ATOM      5  C4  UNL d   1      -0.182  -0.024   0.532  0.00  0.00     0.017 A 
ATOM      6  C5  UNL d   1       0.827  -0.598  -0.247  0.00  0.00     0.034 A 
ATOM      7 Cl   UNL d   1      -0.632  -0.836   1.991  0.00  0.00    -0.070 Cl
ATOM      8 Cl1  UNL d   1      -2.039   1.938   1.028  0.00  0.00    -0.070 Cl
ENDROOT
TORSDOF 0
ENDMDL
