MODEL 1
REMARK minimizedAffinity 1.02558219
REMARK minimizedRMSD -1
REMARK  0 active torsions:
REMARK  status: ('A' for Active; 'I' for Inactive)
ROOT
ATOM      1  C   UNL d   1      -1.586   1.472   2.481  0.00  0.00     0.020 A 
ATOM      2  C1  UNL d   1      -1.195   0.139   2.595  0.00  0.00     0.020 A 
ATOM      3  C2  UNL d   1      -0.445  -0.457   1.579  0.00  0.00     0.034 A 
ATOM      4  C3  UNL d   1      -0.084   0.280   0.445  0.00  0.00     0.017 A 
ATOM      5  C4  UNL d   1      -0.477   1.618   0.332  0.00  0.00     0.017 A 
ATOM      6  C5  UNL d   1      -1.228   2.210   1.352  0.00  0.00     0.034 A 
ATOM      7 Cl   UNL d   1      -0.070   2.592  -1.037  0.00  0.00    -0.070 Cl
ATOM      8 Cl1  UNL d   1       0.844  -0.522  -0.772  0.00  0.00    -0.070 Cl
ENDROOT
TORSDOF 0
ENDMDL
