MODEL 1
REMARK minimizedAffinity -2.69719052
REMARK minimizedRMSD -1
REMARK  0 active torsions:
REMARK  status: ('A' for Active; 'I' for Inactive)
ROOT
ATOM      1  C   UNL d   1      -1.060  -3.431  -2.017  0.00  0.00     0.020 A 
ATOM      2  C1  UNL d   1       0.135  -3.269  -2.718  0.00  0.00     0.020 A 
ATOM      3  C2  UNL d   1       1.028  -2.261  -2.350  0.00  0.00     0.034 A 
ATOM      4  C3  UNL d   1       0.729  -1.411  -1.279  0.00  0.00     0.017 A 
ATOM      5  C4  UNL d   1      -0.471  -1.575  -0.576  0.00  0.00     0.017 A 
ATOM      6  C5  UNL d   1      -1.362  -2.586  -0.949  0.00  0.00     0.034 A 
ATOM      7 Cl   UNL d   1      -0.910  -0.566   0.756  0.00  0.00    -0.070 Cl
ATOM      8 Cl1  UNL d   1       1.880  -0.187  -0.878  0.00  0.00    -0.070 Cl
ENDROOT
TORSDOF 0
ENDMDL
