MODEL 1
REMARK minimizedAffinity -3.97275424
REMARK minimizedRMSD -1
REMARK  0 active torsions:
REMARK  status: ('A' for Active; 'I' for Inactive)
ROOT
ATOM      1  C   UNL d   1       0.601  -1.036  -0.175  0.00  0.00     0.020 A 
ATOM      2  C1  UNL d   1      -0.125  -1.168   1.007  0.00  0.00     0.020 A 
ATOM      3  C2  UNL d   1      -0.998  -0.154   1.408  0.00  0.00     0.034 A 
ATOM      4  C3  UNL d   1      -1.147   0.996   0.624  0.00  0.00     0.017 A 
ATOM      5  C4  UNL d   1      -0.418   1.128  -0.563  0.00  0.00     0.017 A 
ATOM      6  C5  UNL d   1       0.455   0.109  -0.959  0.00  0.00     0.034 A 
ATOM      7 Cl   UNL d   1      -0.548   2.517  -1.582  0.00  0.00    -0.070 Cl
ATOM      8 Cl1  UNL d   1      -2.244   2.210   1.180  0.00  0.00    -0.070 Cl
ENDROOT
TORSDOF 0
ENDMDL
