MODEL 1
REMARK minimizedAffinity -3.6542182
REMARK minimizedRMSD -1
REMARK  0 active torsions:
REMARK  status: ('A' for Active; 'I' for Inactive)
ROOT
ATOM      1  C   UNL d   1       0.447   0.319  -3.026  0.00  0.00     0.020 A 
ATOM      2  C1  UNL d   1       0.354   1.096  -1.872  0.00  0.00     0.020 A 
ATOM      3  C2  UNL d   1       0.385   0.487  -0.616  0.00  0.00     0.034 A 
ATOM      4  C3  UNL d   1       0.510  -0.903  -0.510  0.00  0.00     0.017 A 
ATOM      5  C4  UNL d   1       0.604  -1.682  -1.669  0.00  0.00     0.017 A 
ATOM      6  C5  UNL d   1       0.572  -1.067  -2.925  0.00  0.00     0.034 A 
ATOM      7 Cl   UNL d   1       0.761  -3.402  -1.619  0.00  0.00    -0.070 Cl
ATOM      8 Cl1  UNL d   1       0.542  -1.589   1.075  0.00  0.00    -0.070 Cl
ENDROOT
TORSDOF 0
ENDMDL
