MODEL 1
REMARK minimizedAffinity -2.15156674
REMARK minimizedRMSD -1
REMARK  0 active torsions:
REMARK  status: ('A' for Active; 'I' for Inactive)
ROOT
ATOM      1  C   UNL d   1      -0.691   2.234   0.725  0.00  0.00     0.020 A 
ATOM      2  C1  UNL d   1      -1.281   2.113   1.983  0.00  0.00     0.020 A 
ATOM      3  C2  UNL d   1      -1.426   0.854   2.568  0.00  0.00     0.034 A 
ATOM      4  C3  UNL d   1      -0.981  -0.290   1.895  0.00  0.00     0.017 A 
ATOM      5  C4  UNL d   1      -0.389  -0.168   0.633  0.00  0.00     0.017 A 
ATOM      6  C5  UNL d   1      -0.246   1.096   0.052  0.00  0.00     0.034 A 
ATOM      7 Cl   UNL d   1       0.184  -1.534  -0.258  0.00  0.00    -0.070 Cl
ATOM      8 Cl1  UNL d   1      -1.192  -1.816   2.678  0.00  0.00    -0.070 Cl
ENDROOT
TORSDOF 0
ENDMDL
