MODEL 1
REMARK minimizedAffinity -4.92830229
REMARK minimizedRMSD -1
REMARK  0 active torsions:
REMARK  status: ('A' for Active; 'I' for Inactive)
ROOT
ATOM      1  C   UNL d   1       0.156  -0.809   0.906  0.00  0.00     0.020 A 
ATOM      2  C1  UNL d   1      -0.649  -0.112   1.806  0.00  0.00     0.020 A 
ATOM      3  C2  UNL d   1      -0.786   1.273   1.693  0.00  0.00     0.034 A 
ATOM      4  C3  UNL d   1      -0.117   1.966   0.678  0.00  0.00     0.017 A 
ATOM      5  C4  UNL d   1       0.691   1.266  -0.225  0.00  0.00     0.017 A 
ATOM      6  C5  UNL d   1       0.824  -0.121  -0.108  0.00  0.00     0.034 A 
ATOM      7 Cl   UNL d   1       1.547   2.051  -1.504  0.00  0.00    -0.070 Cl
ATOM      8 Cl1  UNL d   1      -0.332   3.678   0.598  0.00  0.00    -0.070 Cl
ENDROOT
TORSDOF 0
ENDMDL
