MODEL 1
REMARK minimizedAffinity -1.4146502
REMARK minimizedRMSD -1
REMARK  0 active torsions:
REMARK  status: ('A' for Active; 'I' for Inactive)
ROOT
ATOM      1  C   UNL d   1       0.136  -2.761  -2.934  0.00  0.00     0.020 A 
ATOM      2  C1  UNL d   1       0.962  -3.505  -2.094  0.00  0.00     0.020 A 
ATOM      3  C2  UNL d   1       1.327  -2.998  -0.845  0.00  0.00     0.034 A 
ATOM      4  C3  UNL d   1       0.866  -1.743  -0.432  0.00  0.00     0.017 A 
ATOM      5  C4  UNL d   1       0.036  -0.996  -1.276  0.00  0.00     0.017 A 
ATOM      6  C5  UNL d   1      -0.327  -1.509  -2.526  0.00  0.00     0.034 A 
ATOM      7 Cl   UNL d   1      -0.574   0.560  -0.837  0.00  0.00    -0.070 Cl
ATOM      8 Cl1  UNL d   1       1.356  -1.179   1.125  0.00  0.00    -0.070 Cl
ENDROOT
TORSDOF 0
ENDMDL
