MODEL 1
REMARK minimizedAffinity -2.39607215
REMARK minimizedRMSD -1
REMARK  0 active torsions:
REMARK  status: ('A' for Active; 'I' for Inactive)
ROOT
ATOM      1  C   UNL d   1       0.660  -2.135  -1.485  0.00  0.00     0.020 A 
ATOM      2  C1  UNL d   1       1.470  -1.396  -0.623  0.00  0.00     0.020 A 
ATOM      3  C2  UNL d   1       0.891  -0.539   0.316  0.00  0.00     0.034 A 
ATOM      4  C3  UNL d   1      -0.501  -0.419   0.395  0.00  0.00     0.017 A 
ATOM      5  C4  UNL d   1      -1.313  -1.162  -0.470  0.00  0.00     0.017 A 
ATOM      6  C5  UNL d   1      -0.728  -2.018  -1.408  0.00  0.00     0.034 A 
ATOM      7 Cl   UNL d   1      -3.038  -1.067  -0.432  0.00  0.00    -0.070 Cl
ATOM      8 Cl1  UNL d   1      -1.148   0.658   1.580  0.00  0.00    -0.070 Cl
ENDROOT
TORSDOF 0
ENDMDL
