MODEL 1
REMARK minimizedAffinity -5.3938942
REMARK minimizedRMSD -1
REMARK  0 active torsions:
REMARK  status: ('A' for Active; 'I' for Inactive)
ROOT
ATOM      1  C   UNL d   1      -0.955   3.600   1.047  0.00  0.00     0.020 A 
ATOM      2  C1  UNL d   1      -1.517   2.480   1.658  0.00  0.00     0.020 A 
ATOM      3  C2  UNL d   1      -1.209   1.201   1.190  0.00  0.00     0.034 A 
ATOM      4  C3  UNL d   1      -0.336   1.039   0.108  0.00  0.00     0.017 A 
ATOM      5  C4  UNL d   1       0.228   2.164  -0.505  0.00  0.00     0.017 A 
ATOM      6  C5  UNL d   1      -0.084   3.442  -0.032  0.00  0.00     0.034 A 
ATOM      7 Cl   UNL d   1       1.313   2.043  -1.844  0.00  0.00    -0.070 Cl
ATOM      8 Cl1  UNL d   1       0.001  -0.572  -0.418  0.00  0.00    -0.070 Cl
ENDROOT
TORSDOF 0
ENDMDL
