MODEL 1
REMARK minimizedAffinity -5.13588285
REMARK minimizedRMSD -1
REMARK  0 active torsions:
REMARK  status: ('A' for Active; 'I' for Inactive)
ROOT
ATOM      1  C   UNL d   1      -0.094   3.413  -0.734  0.00  0.00     0.020 A 
ATOM      2  C1  UNL d   1      -0.766   3.667   0.461  0.00  0.00     0.020 A 
ATOM      3  C2  UNL d   1      -1.006   2.628   1.363  0.00  0.00     0.034 A 
ATOM      4  C3  UNL d   1      -0.573   1.329   1.071  0.00  0.00     0.017 A 
ATOM      5  C4  UNL d   1       0.101   1.075  -0.128  0.00  0.00     0.017 A 
ATOM      6  C5  UNL d   1       0.338   2.119  -1.028  0.00  0.00     0.034 A 
ATOM      7 Cl   UNL d   1       0.665  -0.502  -0.558  0.00  0.00    -0.070 Cl
ATOM      8 Cl1  UNL d   1      -0.904   0.093   2.232  0.00  0.00    -0.070 Cl
ENDROOT
TORSDOF 0
ENDMDL
