MODEL 1
REMARK minimizedAffinity -3.21481657
REMARK minimizedRMSD -1
REMARK  0 active torsions:
REMARK  status: ('A' for Active; 'I' for Inactive)
ROOT
ATOM      1  C   UNL d   1      -0.900   1.722   1.628  0.00  0.00     0.020 A 
ATOM      2  C1  UNL d   1      -1.145   0.367   1.849  0.00  0.00     0.020 A 
ATOM      3  C2  UNL d   1      -0.610  -0.589   0.983  0.00  0.00     0.034 A 
ATOM      4  C3  UNL d   1       0.173  -0.192  -0.107  0.00  0.00     0.017 A 
ATOM      5  C4  UNL d   1       0.418   1.169  -0.327  0.00  0.00     0.017 A 
ATOM      6  C5  UNL d   1      -0.120   2.122   0.543  0.00  0.00     0.034 A 
ATOM      7 Cl   UNL d   1       1.375   1.736  -1.651  0.00  0.00    -0.070 Cl
ATOM      8 Cl1  UNL d   1       0.804  -1.428  -1.137  0.00  0.00    -0.070 Cl
ENDROOT
TORSDOF 0
ENDMDL
