MODEL 1
REMARK minimizedAffinity -1.44484603
REMARK minimizedRMSD -1
REMARK  0 active torsions:
REMARK  status: ('A' for Active; 'I' for Inactive)
ROOT
ATOM      1  C   UNL d   1      -0.462  -3.321  -2.969  0.00  0.00     0.020 A 
ATOM      2  C1  UNL d   1      -0.807  -1.972  -2.881  0.00  0.00     0.020 A 
ATOM      3  C2  UNL d   1      -0.216  -1.163  -1.908  0.00  0.00     0.034 A 
ATOM      4  C3  UNL d   1       0.722  -1.701  -1.019  0.00  0.00     0.017 A 
ATOM      5  C4  UNL d   1       1.067  -3.054  -1.109  0.00  0.00     0.017 A 
ATOM      6  C5  UNL d   1       0.473  -3.860  -2.085  0.00  0.00     0.034 A 
ATOM      7 Cl   UNL d   1       2.217  -3.790  -0.048  0.00  0.00    -0.070 Cl
ATOM      8 Cl1  UNL d   1       1.412  -0.642   0.158  0.00  0.00    -0.070 Cl
ENDROOT
TORSDOF 0
ENDMDL
