MODEL 1
REMARK minimizedAffinity -2.95779157
REMARK minimizedRMSD -1
REMARK  0 active torsions:
REMARK  status: ('A' for Active; 'I' for Inactive)
ROOT
ATOM      1  C   UNL d   1       1.214  -0.906   3.164  0.00  0.00    -0.002 A 
ATOM      2  C1  UNL d   1       2.359  -0.940   2.380  0.00  0.00     0.010 A 
ATOM      3  C2  UNL d   1       2.299  -0.623   1.022  0.00  0.00     0.041 A 
ATOM      4  C3  UNL d   1       1.058  -0.267   0.458  0.00  0.00    -0.075 A 
ATOM      5  S   UNL d   1       0.746   0.161  -1.182  0.00  0.00     0.015 SA
ATOM      6  C4  UNL d   1      -0.915   0.399  -0.882  0.00  0.00     0.022 A 
ATOM      7  C5  UNL d   1      -1.240   0.162   0.432  0.00  0.00     0.026 A 
ATOM      8  C6  UNL d   1      -0.108  -0.225   1.227  0.00  0.00    -0.082 A 
ATOM      9  C7  UNL d   1      -0.016  -0.552   2.601  0.00  0.00     0.045 A 
ENDROOT
TORSDOF 0
ENDMDL
