MODEL 1
REMARK minimizedAffinity -3.13456726
REMARK minimizedRMSD -1
REMARK  0 active torsions:
REMARK  status: ('A' for Active; 'I' for Inactive)
ROOT
ATOM      1  C   UNL d   1      -1.808   2.287  -3.234  0.00  0.00    -0.002 A 
ATOM      2  C1  UNL d   1      -1.071   3.315  -2.663  0.00  0.00     0.010 A 
ATOM      3  C2  UNL d   1      -0.364   3.108  -1.477  0.00  0.00     0.041 A 
ATOM      4  C3  UNL d   1      -0.408   1.838  -0.870  0.00  0.00    -0.075 A 
ATOM      5  S   UNL d   1       0.380   1.352   0.584  0.00  0.00     0.015 SA
ATOM      6  C4  UNL d   1      -0.242  -0.231   0.481  0.00  0.00     0.022 A 
ATOM      7  C5  UNL d   1      -1.033  -0.403  -0.630  0.00  0.00     0.026 A 
ATOM      8  C6  UNL d   1      -1.142   0.786  -1.427  0.00  0.00    -0.082 A 
ATOM      9  C7  UNL d   1      -1.849   1.028  -2.629  0.00  0.00     0.045 A 
ENDROOT
TORSDOF 0
ENDMDL
