MODEL 1
REMARK minimizedAffinity -2.10629463
REMARK minimizedRMSD -1
REMARK  0 active torsions:
REMARK  status: ('A' for Active; 'I' for Inactive)
ROOT
ATOM      1  C   UNL d   1       1.248  -1.025   2.578  0.00  0.00    -0.002 A 
ATOM      2  C1  UNL d   1       2.093  -1.370   1.533  0.00  0.00     0.010 A 
ATOM      3  C2  UNL d   1       1.838  -0.921   0.235  0.00  0.00     0.041 A 
ATOM      4  C3  UNL d   1       0.710  -0.109   0.004  0.00  0.00    -0.075 A 
ATOM      5  S   UNL d   1       0.200   0.558  -1.501  0.00  0.00     0.015 SA
ATOM      6  C4  UNL d   1      -1.151   1.318  -0.792  0.00  0.00     0.022 A 
ATOM      7  C5  UNL d   1      -1.226   1.079   0.560  0.00  0.00     0.026 A 
ATOM      8  C6  UNL d   1      -0.155   0.253   1.041  0.00  0.00    -0.082 A 
ATOM      9  C7  UNL d   1       0.130  -0.219   2.345  0.00  0.00     0.045 A 
ENDROOT
TORSDOF 0
ENDMDL
