MODEL 1
REMARK minimizedAffinity 4.95494938
REMARK minimizedRMSD -1
REMARK  3 active torsions:
REMARK  status: ('A' for Active; 'I' for Inactive)
REMARK    1  A    between atoms: C3'_2  and  C2'_3 
REMARK    2  A    between atoms: C2'_3  and  C1'_4 
REMARK    3  A    between atoms: C1'_4  and  C1_5 
ROOT
ATOM      1  C1  N4B d   1       0.472  -5.263  -2.702  0.00  0.00    -0.075 A 
ATOM      2  C2  N4B d   1       0.213  -3.996  -2.135  0.00  0.00     0.002 A 
ATOM      3  C3  N4B d   1       1.010  -3.521  -1.123  0.00  0.00     0.002 A 
ATOM      4  C4  N4B d   1       2.056  -4.300  -0.650  0.00  0.00    -0.004 A 
ATOM      5  C5  N4B d   1       2.315  -5.512  -1.220  0.00  0.00     0.002 A 
ATOM      6  C6  N4B d   1       1.524  -6.000  -2.241  0.00  0.00     0.002 A 
ENDROOT
BRANCH   1   7
ATOM      7  C1' N4B d   1      -0.423  -5.861  -3.752  0.00  0.00     0.057 C 
BRANCH   7   8
ATOM      8  C2' N4B d   1      -1.139  -4.739  -4.499  0.00  0.00     0.009 C 
BRANCH   8   9
ATOM      9  C3' N4B d   1      -1.770  -5.229  -5.791  0.00  0.00     0.004 C 
ATOM     10  C4' N4B d   1      -3.036  -6.000  -5.563  0.00  0.00     0.003 C 
ENDBRANCH   8   9
ENDBRANCH   7   8
ENDBRANCH   1   7
TORSDOF 3
ENDMDL
