MODEL 1
REMARK minimizedAffinity 4.02266312
REMARK minimizedRMSD -1
REMARK  3 active torsions:
REMARK  status: ('A' for Active; 'I' for Inactive)
REMARK    1  A    between atoms: C3'_2  and  C2'_3 
REMARK    2  A    between atoms: C2'_3  and  C1'_4 
REMARK    3  A    between atoms: C1'_4  and  C1_5 
ROOT
ATOM      1  C1  N4B d   1      -0.458  -4.953  -4.411  0.00  0.00    -0.075 A 
ATOM      2  C2  N4B d   1      -1.393  -5.979  -4.152  0.00  0.00     0.002 A 
ATOM      3  C3  N4B d   1      -2.592  -6.000  -4.822  0.00  0.00     0.002 A 
ATOM      4  C4  N4B d   1      -2.884  -4.999  -5.737  0.00  0.00    -0.004 A 
ATOM      5  C5  N4B d   1      -1.965  -4.026  -5.999  0.00  0.00     0.002 A 
ATOM      6  C6  N4B d   1      -0.754  -3.995  -5.336  0.00  0.00     0.002 A 
ENDROOT
BRANCH   1   7
ATOM      7  C1' N4B d   1       0.830  -4.840  -3.641  0.00  0.00     0.057 C 
BRANCH   7   8
ATOM      8  C2' N4B d   1       0.808  -5.830  -2.481  0.00  0.00     0.009 C 
BRANCH   8   9
ATOM      9  C3' N4B d   1       1.271  -5.193  -1.181  0.00  0.00     0.004 C 
ATOM     10  C4' N4B d   1       0.871  -3.753  -1.066  0.00  0.00     0.003 C 
ENDBRANCH   8   9
ENDBRANCH   7   8
ENDBRANCH   1   7
TORSDOF 3
ENDMDL
