MODEL 1
REMARK minimizedAffinity 10.5928221
REMARK minimizedRMSD -1
REMARK  3 active torsions:
REMARK  status: ('A' for Active; 'I' for Inactive)
REMARK    1  A    between atoms: C3'_2  and  C2'_3 
REMARK    2  A    between atoms: C2'_3  and  C1'_4 
REMARK    3  A    between atoms: C1'_4  and  C1_5 
ROOT
ATOM      1  C1  N4B d   1      -3.004  -3.855  -5.831  0.00  0.00    -0.075 A 
ATOM      2  C2  N4B d   1      -4.267  -3.229  -5.926  0.00  0.00     0.002 A 
ATOM      3  C3  N4B d   1      -5.406  -3.992  -5.998  0.00  0.00     0.002 A 
ATOM      4  C4  N4B d   1      -5.307  -5.375  -5.996  0.00  0.00    -0.004 A 
ATOM      5  C5  N4B d   1      -4.086  -5.971  -5.879  0.00  0.00     0.002 A 
ATOM      6  C6  N4B d   1      -2.932  -5.217  -5.801  0.00  0.00     0.002 A 
ENDROOT
BRANCH   1   7
ATOM      7  C1' N4B d   1      -1.724  -3.064  -5.836  0.00  0.00     0.057 C 
BRANCH   7   8
ATOM      8  C2' N4B d   1      -0.541  -4.027  -5.862  0.00  0.00     0.009 C 
BRANCH   8   9
ATOM      9  C3' N4B d   1       0.745  -3.360  -5.406  0.00  0.00     0.004 C 
ATOM     10  C4' N4B d   1       1.001  -3.533  -3.938  0.00  0.00     0.003 C 
ENDBRANCH   8   9
ENDBRANCH   7   8
ENDBRANCH   1   7
TORSDOF 3
ENDMDL
