MODEL 1
REMARK minimizedAffinity 5.31775713
REMARK minimizedRMSD -1
REMARK  3 active torsions:
REMARK  status: ('A' for Active; 'I' for Inactive)
REMARK    1  A    between atoms: C3'_2  and  C2'_3 
REMARK    2  A    between atoms: C2'_3  and  C1'_4 
REMARK    3  A    between atoms: C1'_4  and  C1_5 
ROOT
ATOM      1  C1  N4B d   1      -0.789  -3.479  -4.422  0.00  0.00    -0.075 A 
ATOM      2  C2  N4B d   1      -1.635  -4.609  -4.479  0.00  0.00     0.002 A 
ATOM      3  C3  N4B d   1      -2.755  -4.588  -5.272  0.00  0.00     0.002 A 
ATOM      4  C4  N4B d   1      -3.060  -3.447  -6.000  0.00  0.00    -0.004 A 
ATOM      5  C5  N4B d   1      -2.224  -2.369  -5.959  0.00  0.00     0.002 A 
ATOM      6  C6  N4B d   1      -1.092  -2.378  -5.169  0.00  0.00     0.002 A 
ENDROOT
BRANCH   1   7
ATOM      7  C1' N4B d   1       0.401  -3.424  -3.503  0.00  0.00     0.057 C 
BRANCH   7   8
ATOM      8  C2' N4B d   1      -0.006  -3.940  -2.126  0.00  0.00     0.009 C 
BRANCH   8   9
ATOM      9  C3' N4B d   1       1.164  -3.954  -1.156  0.00  0.00     0.004 C 
ATOM     10  C4' N4B d   1       1.622  -5.341  -0.818  0.00  0.00     0.003 C 
ENDBRANCH   8   9
ENDBRANCH   7   8
ENDBRANCH   1   7
TORSDOF 3
ENDMDL
