MODEL 1
REMARK minimizedAffinity 9.31592655
REMARK minimizedRMSD -1
REMARK  3 active torsions:
REMARK  status: ('A' for Active; 'I' for Inactive)
REMARK    1  A    between atoms: C3'_2  and  C2'_3 
REMARK    2  A    between atoms: C2'_3  and  C1'_4 
REMARK    3  A    between atoms: C1'_4  and  C1_5 
ROOT
ATOM      1  C1  N4B d   1       0.471   4.883  -2.197  0.00  0.00    -0.075 A 
ATOM      2  C2  N4B d   1      -0.872   4.852  -2.635  0.00  0.00     0.002 A 
ATOM      3  C3  N4B d   1      -1.211   5.398  -3.849  0.00  0.00     0.002 A 
ATOM      4  C4  N4B d   1      -0.233   5.995  -4.630  0.00  0.00    -0.004 A 
ATOM      5  C5  N4B d   1       1.066   5.999  -4.211  0.00  0.00     0.002 A 
ATOM      6  C6  N4B d   1       1.422   5.450  -2.996  0.00  0.00     0.002 A 
ENDROOT
BRANCH   1   7
ATOM      7  C1' N4B d   1       0.875   4.376  -0.840  0.00  0.00     0.057 C 
BRANCH   7   8
ATOM      8  C2' N4B d   1      -0.137   3.334  -0.373  0.00  0.00     0.009 C 
BRANCH   8   9
ATOM      9  C3' N4B d   1       0.153   2.854   1.039  0.00  0.00     0.004 C 
ATOM     10  C4' N4B d   1      -1.053   2.905   1.929  0.00  0.00     0.003 C 
ENDBRANCH   8   9
ENDBRANCH   7   8
ENDBRANCH   1   7
TORSDOF 3
ENDMDL
