MODEL 1
REMARK minimizedAffinity 7.93676519
REMARK minimizedRMSD -1
REMARK  1 active torsions:
REMARK  status: ('A' for Active; 'I' for Inactive)
REMARK    1  A    between atoms: C1_2  and  C2_3 
ROOT
ATOM      1  C2  UNL d   1       0.888  -2.586   0.799  0.00  0.00    -0.077 A 
ATOM      2  C3  UNL d   1       1.717  -1.585   0.274  0.00  0.00     0.002 A 
ATOM      3  C4  UNL d   1       2.193  -0.560   1.094  0.00  0.00     0.002 A 
ATOM      4  C5  UNL d   1       1.848  -0.528   2.444  0.00  0.00    -0.004 A 
ATOM      5  C6  UNL d   1       1.022  -1.518   2.975  0.00  0.00     0.002 A 
ATOM      6  C7  UNL d   1       0.544  -2.542   2.157  0.00  0.00     0.002 A 
ENDROOT
BRANCH   1   7
ATOM      7  C1  UNL d   1       0.414  -3.720  -0.072  0.00  0.00     0.055 C 
ATOM      8  C   UNL d   1       1.056  -5.038   0.337  0.00  0.00     0.019 C 
ENDBRANCH   1   7
TORSDOF 1
ENDMDL
