MODEL 1
REMARK minimizedAffinity 7.88314009
REMARK minimizedRMSD -1
REMARK  1 active torsions:
REMARK  status: ('A' for Active; 'I' for Inactive)
REMARK    1  A    between atoms: C1_2  and  C2_3 
ROOT
ATOM      1  C2  UNL d   1      -2.979   1.896  -1.042  0.00  0.00    -0.077 A 
ATOM      2  C3  UNL d   1      -4.082   2.426  -1.726  0.00  0.00     0.002 A 
ATOM      3  C4  UNL d   1      -4.578   1.791  -2.866  0.00  0.00     0.002 A 
ATOM      4  C5  UNL d   1      -3.981   0.621  -3.330  0.00  0.00    -0.004 A 
ATOM      5  C6  UNL d   1      -2.882   0.087  -2.658  0.00  0.00     0.002 A 
ATOM      6  C7  UNL d   1      -2.384   0.721  -1.519  0.00  0.00     0.002 A 
ENDROOT
BRANCH   1   7
ATOM      7  C1  UNL d   1      -2.473   2.552   0.216  0.00  0.00     0.055 C 
ATOM      8  C   UNL d   1      -3.622   3.028   1.092  0.00  0.00     0.019 C 
ENDBRANCH   1   7
TORSDOF 1
ENDMDL
