MODEL 1
REMARK minimizedAffinity 1.24942946
REMARK minimizedRMSD -1
REMARK  1 active torsions:
REMARK  status: ('A' for Active; 'I' for Inactive)
REMARK    1  A    between atoms: C1_2  and  C2_3 
ROOT
ATOM      1  C2  UNL d   1       3.636  -2.417   3.691  0.00  0.00    -0.077 A 
ATOM      2  C3  UNL d   1       4.972  -2.559   3.288  0.00  0.00     0.002 A 
ATOM      3  C4  UNL d   1       6.000  -2.538   4.233  0.00  0.00     0.002 A 
ATOM      4  C5  UNL d   1       5.703  -2.381   5.585  0.00  0.00    -0.004 A 
ATOM      5  C6  UNL d   1       4.378  -2.238   5.995  0.00  0.00     0.002 A 
ATOM      6  C7  UNL d   1       3.349  -2.257   5.052  0.00  0.00     0.002 A 
ENDROOT
BRANCH   1   7
ATOM      7  C1  UNL d   1       2.522  -2.488   2.679  0.00  0.00     0.055 C 
ATOM      8  C   UNL d   1       1.177  -2.164   3.312  0.00  0.00     0.019 C 
ENDBRANCH   1   7
TORSDOF 1
ENDMDL
