MODEL 1
REMARK minimizedAffinity -0.855780602
REMARK minimizedRMSD -1
REMARK  0 active torsions:
REMARK  status: ('A' for Active; 'I' for Inactive)
ROOT
ATOM      1  C   UNL d   1      -0.204  -0.540   1.618  0.00  0.00     0.020 A 
ATOM      2  C1  UNL d   1      -0.134  -1.549   0.659  0.00  0.00     0.020 A 
ATOM      3  C2  UNL d   1       0.492  -1.307  -0.565  0.00  0.00     0.034 A 
ATOM      4  C3  UNL d   1       1.050  -0.052  -0.834  0.00  0.00     0.017 A 
ATOM      5  C4  UNL d   1       0.979   0.961   0.129  0.00  0.00     0.017 A 
ATOM      6  C5  UNL d   1       0.351   0.713   1.354  0.00  0.00     0.034 A 
ATOM      7 Cl   UNL d   1       1.644   2.535  -0.130  0.00  0.00    -0.070 Cl
ATOM      8 Cl1  UNL d   1       1.809   0.178  -2.369  0.00  0.00    -0.070 Cl
ENDROOT
TORSDOF 0
ENDMDL
