MODEL 1
REMARK minimizedAffinity 0.205173895
REMARK minimizedRMSD -1
REMARK  0 active torsions:
REMARK  status: ('A' for Active; 'I' for Inactive)
ROOT
ATOM      1  C   UNL d   1      -0.041   1.645   1.259  0.00  0.00     0.020 A 
ATOM      2  C1  UNL d   1      -0.716   0.526   1.745  0.00  0.00     0.020 A 
ATOM      3  C2  UNL d   1      -0.469  -0.733   1.192  0.00  0.00     0.034 A 
ATOM      4  C3  UNL d   1       0.455  -0.876   0.151  0.00  0.00     0.017 A 
ATOM      5  C4  UNL d   1       1.132   0.248  -0.336  0.00  0.00     0.017 A 
ATOM      6  C5  UNL d   1       0.881   1.506   0.221  0.00  0.00     0.034 A 
ATOM      7 Cl   UNL d   1       2.287   0.151  -1.618  0.00  0.00    -0.070 Cl
ATOM      8 Cl1  UNL d   1       0.710  -2.462  -0.485  0.00  0.00    -0.070 Cl
ENDROOT
TORSDOF 0
ENDMDL
