MODEL 1
REMARK minimizedAffinity -3.56289506
REMARK minimizedRMSD -1
REMARK  0 active torsions:
REMARK  status: ('A' for Active; 'I' for Inactive)
ROOT
ATOM      1  C   UNL d   1       1.652   0.040  -2.348  0.00  0.00     0.020 A 
ATOM      2  C1  UNL d   1       1.467   1.189  -1.579  0.00  0.00     0.020 A 
ATOM      3  C2  UNL d   1       0.960   1.087  -0.282  0.00  0.00     0.034 A 
ATOM      4  C3  UNL d   1       0.634  -0.166   0.250  0.00  0.00     0.017 A 
ATOM      5  C4  UNL d   1       0.820  -1.319  -0.523  0.00  0.00     0.017 A 
ATOM      6  C5  UNL d   1       1.328  -1.211  -1.821  0.00  0.00     0.034 A 
ATOM      7 Cl   UNL d   1       0.442  -2.899   0.065  0.00  0.00    -0.070 Cl
ATOM      8 Cl1  UNL d   1       0.011  -0.219   1.861  0.00  0.00    -0.070 Cl
ENDROOT
TORSDOF 0
ENDMDL
