MODEL 1
REMARK minimizedAffinity -0.751672685
REMARK minimizedRMSD -1
REMARK  0 active torsions:
REMARK  status: ('A' for Active; 'I' for Inactive)
ROOT
ATOM      1  C   UNL d   1      -1.166   0.420  -0.775  0.00  0.00     0.020 A 
ATOM      2  C1  UNL d   1      -0.419  -0.557  -1.431  0.00  0.00     0.020 A 
ATOM      3  C2  UNL d   1       0.970  -0.436  -1.514  0.00  0.00     0.034 A 
ATOM      4  C3  UNL d   1       1.616   0.665  -0.939  0.00  0.00     0.017 A 
ATOM      5  C4  UNL d   1       0.866   1.645  -0.280  0.00  0.00     0.017 A 
ATOM      6  C5  UNL d   1      -0.525   1.519  -0.200  0.00  0.00     0.034 A 
ATOM      7 Cl   UNL d   1       1.592   3.031   0.454  0.00  0.00    -0.070 Cl
ATOM      8 Cl1  UNL d   1       3.336   0.750  -1.079  0.00  0.00    -0.070 Cl
ENDROOT
TORSDOF 0
ENDMDL
