MODEL 1
REMARK minimizedAffinity 2.37014389
REMARK minimizedRMSD -1
REMARK  0 active torsions:
REMARK  status: ('A' for Active; 'I' for Inactive)
ROOT
ATOM      1  C   UNL d   1       0.594  -0.777  -2.969  0.00  0.00     0.020 A 
ATOM      2  C1  UNL d   1       1.097  -1.652  -2.007  0.00  0.00     0.020 A 
ATOM      3  C2  UNL d   1       1.119  -1.274  -0.663  0.00  0.00     0.034 A 
ATOM      4  C3  UNL d   1       0.637  -0.018  -0.277  0.00  0.00     0.017 A 
ATOM      5  C4  UNL d   1       0.132   0.859  -1.243  0.00  0.00     0.017 A 
ATOM      6  C5  UNL d   1       0.113   0.476  -2.588  0.00  0.00     0.034 A 
ATOM      7 Cl   UNL d   1      -0.480   2.425  -0.844  0.00  0.00    -0.070 Cl
ATOM      8 Cl1  UNL d   1       0.694   0.383   1.403  0.00  0.00    -0.070 Cl
ENDROOT
TORSDOF 0
ENDMDL
