MODEL 1
REMARK minimizedAffinity 6.09301376
REMARK minimizedRMSD -1
REMARK  0 active torsions:
REMARK  status: ('A' for Active; 'I' for Inactive)
ROOT
ATOM      1  C   UNL d   1      -4.796   4.292  -5.997  0.00  0.00     0.020 A 
ATOM      2  C1  UNL d   1      -3.421   4.527  -5.997  0.00  0.00     0.020 A 
ATOM      3  C2  UNL d   1      -2.530   3.452  -5.998  0.00  0.00     0.034 A 
ATOM      4  C3  UNL d   1      -3.011   2.138  -5.999  0.00  0.00     0.017 A 
ATOM      5  C4  UNL d   1      -4.391   1.903  -5.998  0.00  0.00     0.017 A 
ATOM      6  C5  UNL d   1      -5.279   2.983  -5.998  0.00  0.00     0.034 A 
ATOM      7 Cl   UNL d   1      -5.060   0.309  -5.999  0.00  0.00    -0.070 Cl
ATOM      8 Cl1  UNL d   1      -1.851   0.857  -6.000  0.00  0.00    -0.070 Cl
ENDROOT
TORSDOF 0
ENDMDL
