MODEL 1
REMARK minimizedAffinity 7.90740776
REMARK minimizedRMSD -1
REMARK  0 active torsions:
REMARK  status: ('A' for Active; 'I' for Inactive)
ROOT
ATOM      1  C   UNL d   1       1.837   2.571  -0.034  0.00  0.00     0.020 A 
ATOM      2  C1  UNL d   1       1.443   1.731   1.006  0.00  0.00     0.020 A 
ATOM      3  C2  UNL d   1       0.930   0.463   0.724  0.00  0.00     0.034 A 
ATOM      4  C3  UNL d   1       0.810   0.031  -0.602  0.00  0.00     0.017 A 
ATOM      5  C4  UNL d   1       1.207   0.875  -1.646  0.00  0.00     0.017 A 
ATOM      6  C5  UNL d   1       1.719   2.144  -1.358  0.00  0.00     0.034 A 
ATOM      7 Cl   UNL d   1       1.089   0.413  -3.307  0.00  0.00    -0.070 Cl
ATOM      8 Cl1  UNL d   1       0.168  -1.549  -0.878  0.00  0.00    -0.070 Cl
ENDROOT
TORSDOF 0
ENDMDL
