MODEL 1
REMARK minimizedAffinity -1.84153676
REMARK minimizedRMSD -1
REMARK  0 active torsions:
REMARK  status: ('A' for Active; 'I' for Inactive)
ROOT
ATOM      1  C   UNL d   1      -3.651  -0.868  -5.994  0.00  0.00     0.020 A 
ATOM      2  C1  UNL d   1      -5.042  -0.966  -5.992  0.00  0.00     0.020 A 
ATOM      3  C2  UNL d   1      -5.653  -2.222  -5.989  0.00  0.00     0.034 A 
ATOM      4  C3  UNL d   1      -4.873  -3.384  -5.988  0.00  0.00     0.017 A 
ATOM      5  C4  UNL d   1      -3.477  -3.284  -5.990  0.00  0.00     0.017 A 
ATOM      6  C5  UNL d   1      -2.870  -2.024  -5.993  0.00  0.00     0.034 A 
ATOM      7 Cl   UNL d   1      -2.448  -4.673  -5.988  0.00  0.00    -0.070 Cl
ATOM      8 Cl1  UNL d   1      -5.695  -4.904  -5.983  0.00  0.00    -0.070 Cl
ENDROOT
TORSDOF 0
ENDMDL
