MODEL 1
REMARK minimizedAffinity 3.29829431
REMARK minimizedRMSD -1
REMARK  0 active torsions:
REMARK  status: ('A' for Active; 'I' for Inactive)
ROOT
ATOM      1  C   UNL d   1      -3.678  -4.718  -5.999  0.00  0.00     0.020 A 
ATOM      2  C1  UNL d   1      -5.068  -4.610  -6.000  0.00  0.00     0.020 A 
ATOM      3  C2  UNL d   1      -5.671  -3.351  -6.000  0.00  0.00     0.034 A 
ATOM      4  C3  UNL d   1      -4.884  -2.194  -5.999  0.00  0.00     0.017 A 
ATOM      5  C4  UNL d   1      -3.488  -2.302  -5.998  0.00  0.00     0.017 A 
ATOM      6  C5  UNL d   1      -2.890  -3.566  -5.999  0.00  0.00     0.034 A 
ATOM      7 Cl   UNL d   1      -2.451  -0.920  -5.997  0.00  0.00    -0.070 Cl
ATOM      8 Cl1  UNL d   1      -5.697  -0.669  -5.999  0.00  0.00    -0.070 Cl
ENDROOT
TORSDOF 0
ENDMDL
