MODEL 1
REMARK minimizedAffinity -1.55385733
REMARK minimizedRMSD -1
REMARK  0 active torsions:
REMARK  status: ('A' for Active; 'I' for Inactive)
ROOT
ATOM      1  C   UNL d   1      -3.045   1.404  -5.936  0.00  0.00     0.020 A 
ATOM      2  C1  UNL d   1      -4.417   1.168  -5.999  0.00  0.00     0.020 A 
ATOM      3  C2  UNL d   1      -5.312   2.239  -5.966  0.00  0.00     0.034 A 
ATOM      4  C3  UNL d   1      -4.836   3.552  -5.869  0.00  0.00     0.017 A 
ATOM      5  C4  UNL d   1      -3.458   3.788  -5.805  0.00  0.00     0.017 A 
ATOM      6  C5  UNL d   1      -2.566   2.711  -5.839  0.00  0.00     0.034 A 
ATOM      7 Cl   UNL d   1      -2.795   5.379  -5.684  0.00  0.00    -0.070 Cl
ATOM      8 Cl1  UNL d   1      -6.000   4.828  -5.833  0.00  0.00    -0.070 Cl
ENDROOT
TORSDOF 0
ENDMDL
