MODEL 1
REMARK minimizedAffinity -0.302733272
REMARK minimizedRMSD -1
REMARK  0 active torsions:
REMARK  status: ('A' for Active; 'I' for Inactive)
ROOT
ATOM      1  C   UNL d   1      -5.257  -2.335  -5.988  0.00  0.00     0.020 A 
ATOM      2  C1  UNL d   1      -3.891  -2.612  -5.990  0.00  0.00     0.020 A 
ATOM      3  C2  UNL d   1      -2.966  -1.565  -5.994  0.00  0.00     0.034 A 
ATOM      4  C3  UNL d   1      -3.408  -0.237  -5.996  0.00  0.00     0.017 A 
ATOM      5  C4  UNL d   1      -4.780   0.040  -5.994  0.00  0.00     0.017 A 
ATOM      6  C5  UNL d   1      -5.701  -1.012  -5.990  0.00  0.00     0.034 A 
ATOM      7 Cl   UNL d   1      -5.400   1.653  -5.996  0.00  0.00    -0.070 Cl
ATOM      8 Cl1  UNL d   1      -2.209   1.008  -6.000  0.00  0.00    -0.070 Cl
ENDROOT
TORSDOF 0
ENDMDL
