MODEL 1
REMARK minimizedAffinity 1.64753675
REMARK minimizedRMSD -1
REMARK  0 active torsions:
REMARK  status: ('A' for Active; 'I' for Inactive)
ROOT
ATOM      1  C   UNL d   1      -4.870   4.116  -5.983  0.00  0.00     0.020 A 
ATOM      2  C1  UNL d   1      -5.648   2.959  -5.995  0.00  0.00     0.020 A 
ATOM      3  C2  UNL d   1      -5.034   1.705  -6.000  0.00  0.00     0.034 A 
ATOM      4  C3  UNL d   1      -3.638   1.605  -5.992  0.00  0.00     0.017 A 
ATOM      5  C4  UNL d   1      -2.858   2.766  -5.980  0.00  0.00     0.017 A 
ATOM      6  C5  UNL d   1      -3.478   4.020  -5.975  0.00  0.00     0.034 A 
ATOM      7 Cl   UNL d   1      -1.130   2.723  -5.970  0.00  0.00    -0.070 Cl
ATOM      8 Cl1  UNL d   1      -2.946   0.021  -5.999  0.00  0.00    -0.070 Cl
ENDROOT
TORSDOF 0
ENDMDL
