MODEL 1
REMARK minimizedAffinity 7.02000141
REMARK minimizedRMSD -1
REMARK  0 active torsions:
REMARK  status: ('A' for Active; 'I' for Inactive)
ROOT
ATOM      1  C   UNL d   1      -3.586   3.368  -4.030  0.00  0.00     0.020 A 
ATOM      2  C1  UNL d   1      -3.415   3.364  -5.414  0.00  0.00     0.020 A 
ATOM      3  C2  UNL d   1      -2.445   4.181  -6.000  0.00  0.00     0.034 A 
ATOM      4  C3  UNL d   1      -1.644   5.006  -5.202  0.00  0.00     0.017 A 
ATOM      5  C4  UNL d   1      -1.816   5.009  -3.813  0.00  0.00     0.017 A 
ATOM      6  C5  UNL d   1      -2.788   4.189  -3.232  0.00  0.00     0.034 A 
ATOM      7 Cl   UNL d   1      -0.865   6.000  -2.764  0.00  0.00    -0.070 Cl
ATOM      8 Cl1  UNL d   1      -0.465   5.990  -5.995  0.00  0.00    -0.070 Cl
ENDROOT
TORSDOF 0
ENDMDL
