MODEL 1
REMARK minimizedAffinity 6.03854275
REMARK minimizedRMSD -1
REMARK  0 active torsions:
REMARK  status: ('A' for Active; 'I' for Inactive)
ROOT
ATOM      1  C   UNL d   1      -2.254   2.410   4.322  0.00  0.00     0.020 A 
ATOM      2  C1  UNL d   1      -2.692   1.347   5.111  0.00  0.00     0.020 A 
ATOM      3  C2  UNL d   1      -3.633   0.446   4.608  0.00  0.00     0.034 A 
ATOM      4  C3  UNL d   1      -4.139   0.607   3.313  0.00  0.00     0.017 A 
ATOM      5  C4  UNL d   1      -3.698   1.674   2.522  0.00  0.00     0.017 A 
ATOM      6  C5  UNL d   1      -2.756   2.573   3.031  0.00  0.00     0.034 A 
ATOM      7 Cl   UNL d   1      -4.277   1.937   0.915  0.00  0.00    -0.070 Cl
ATOM      8 Cl1  UNL d   1      -5.300  -0.545   2.756  0.00  0.00    -0.070 Cl
ENDROOT
TORSDOF 0
ENDMDL
