MODEL 1
REMARK minimizedAffinity 10.8893452
REMARK minimizedRMSD -1
REMARK  0 active torsions:
REMARK  status: ('A' for Active; 'I' for Inactive)
ROOT
ATOM      1  C   UNL d   1      -3.561   3.495   1.584  0.00  0.00     0.020 A 
ATOM      2  C1  UNL d   1      -2.498   3.849   2.413  0.00  0.00     0.020 A 
ATOM      3  C2  UNL d   1      -2.290   3.165   3.613  0.00  0.00     0.034 A 
ATOM      4  C3  UNL d   1      -3.146   2.122   3.986  0.00  0.00     0.017 A 
ATOM      5  C4  UNL d   1      -4.213   1.767   3.152  0.00  0.00     0.017 A 
ATOM      6  C5  UNL d   1      -4.417   2.456   1.953  0.00  0.00     0.034 A 
ATOM      7 Cl   UNL d   1      -5.311   0.492   3.545  0.00  0.00    -0.070 Cl
ATOM      8 Cl1  UNL d   1      -2.829   1.319   5.482  0.00  0.00    -0.070 Cl
ENDROOT
TORSDOF 0
ENDMDL
