MODEL 1
REMARK minimizedAffinity 19.7769318
REMARK minimizedRMSD -1
REMARK  0 active torsions:
REMARK  status: ('A' for Active; 'I' for Inactive)
ROOT
ATOM      1  C   UNL d   1      -2.000   3.356   2.495  0.00  0.00     0.020 A 
ATOM      2  C1  UNL d   1      -3.004   3.167   1.546  0.00  0.00     0.020 A 
ATOM      3  C2  UNL d   1      -4.153   2.448   1.880  0.00  0.00     0.034 A 
ATOM      4  C3  UNL d   1      -4.302   1.915   3.165  0.00  0.00     0.017 A 
ATOM      5  C4  UNL d   1      -3.293   2.104   4.117  0.00  0.00     0.017 A 
ATOM      6  C5  UNL d   1      -2.144   2.826   3.778  0.00  0.00     0.034 A 
ATOM      7 Cl   UNL d   1      -3.405   1.477   5.724  0.00  0.00    -0.070 Cl
ATOM      8 Cl1  UNL d   1      -5.750   1.036   3.509  0.00  0.00    -0.070 Cl
ENDROOT
TORSDOF 0
ENDMDL
