MODEL 1
REMARK minimizedAffinity 15.7786999
REMARK minimizedRMSD -1
REMARK  0 active torsions:
REMARK  status: ('A' for Active; 'I' for Inactive)
ROOT
ATOM      1  C   UNL d   1      -0.270  -1.676  -1.540  0.00  0.00     0.020 A 
ATOM      2  C1  UNL d   1       0.533  -1.693  -0.400  0.00  0.00     0.020 A 
ATOM      3  C2  UNL d   1       1.424  -2.747  -0.191  0.00  0.00     0.034 A 
ATOM      4  C3  UNL d   1       1.515  -3.788  -1.122  0.00  0.00     0.017 A 
ATOM      5  C4  UNL d   1       0.709  -3.770  -2.266  0.00  0.00     0.017 A 
ATOM      6  C5  UNL d   1      -0.182  -2.712  -2.471  0.00  0.00     0.034 A 
ATOM      7 Cl   UNL d   1       0.764  -5.019  -3.459  0.00  0.00    -0.070 Cl
ATOM      8 Cl1  UNL d   1       2.640  -5.060  -0.799  0.00  0.00    -0.070 Cl
ENDROOT
TORSDOF 0
ENDMDL
