MODEL 1
REMARK minimizedAffinity 6.88154411
REMARK minimizedRMSD -1
REMARK  0 active torsions:
REMARK  status: ('A' for Active; 'I' for Inactive)
ROOT
ATOM      1  C   UNL d   1       1.046   2.008  -0.602  0.00  0.00     0.020 A 
ATOM      2  C1  UNL d   1       1.337   1.675   0.720  0.00  0.00     0.020 A 
ATOM      3  C2  UNL d   1       1.596   2.681   1.653  0.00  0.00     0.034 A 
ATOM      4  C3  UNL d   1       1.564   4.026   1.265  0.00  0.00     0.017 A 
ATOM      5  C4  UNL d   1       1.272   4.359  -0.063  0.00  0.00     0.017 A 
ATOM      6  C5  UNL d   1       1.014   3.347  -0.993  0.00  0.00     0.034 A 
ATOM      7 Cl   UNL d   1       1.215   5.995  -0.617  0.00  0.00    -0.070 Cl
ATOM      8 Cl1  UNL d   1       1.894   5.218   2.471  0.00  0.00    -0.070 Cl
ENDROOT
TORSDOF 0
ENDMDL
