MODEL 1
REMARK minimizedAffinity -1.03928876
REMARK minimizedRMSD -1
REMARK  0 active torsions:
REMARK  status: ('A' for Active; 'I' for Inactive)
ROOT
ATOM      1  C   UNL d   1       1.958   2.113   0.193  0.00  0.00     0.020 A 
ATOM      2  C1  UNL d   1       1.697   1.511  -1.037  0.00  0.00     0.020 A 
ATOM      3  C2  UNL d   1       0.835   0.415  -1.109  0.00  0.00     0.034 A 
ATOM      4  C3  UNL d   1       0.231  -0.083   0.052  0.00  0.00     0.017 A 
ATOM      5  C4  UNL d   1       0.494   0.522   1.286  0.00  0.00     0.017 A 
ATOM      6  C5  UNL d   1       1.358   1.619   1.352  0.00  0.00     0.034 A 
ATOM      7 Cl   UNL d   1      -0.213  -0.036   2.761  0.00  0.00    -0.070 Cl
ATOM      8 Cl1  UNL d   1      -0.824  -1.442  -0.111  0.00  0.00    -0.070 Cl
ENDROOT
TORSDOF 0
ENDMDL
