MODEL 1
REMARK minimizedAffinity -5.46529245
REMARK minimizedRMSD -1
REMARK  0 active torsions:
REMARK  status: ('A' for Active; 'I' for Inactive)
ROOT
ATOM      1  C   UNL d   1       0.382   3.234  -0.001  0.00  0.00     0.077 C 
ATOM      2  C1  UNL d   1       0.062   1.777   0.159  0.00  0.00    -0.074 A 
ATOM      3  C2  UNL d   1       0.957   0.793  -0.274  0.00  0.00    -0.005 A 
ATOM      4  C3  UNL d   1       0.651  -0.557  -0.110  0.00  0.00     0.006 A 
ATOM      5  C4  UNL d   1      -0.552  -0.938   0.486  0.00  0.00    -0.005 A 
ATOM      6  C5  UNL d   1      -1.459   0.032   0.926  0.00  0.00    -0.074 A 
ATOM      7  C6  UNL d   1      -2.752  -0.359   1.578  0.00  0.00     0.077 C 
ATOM      8  C7  UNL d   1      -1.141   1.387   0.764  0.00  0.00    -0.001 A 
ENDROOT
TORSDOF 0
ENDMDL
