MODEL 1
REMARK minimizedAffinity -4.20016384
REMARK minimizedRMSD -1
REMARK  0 active torsions:
REMARK  status: ('A' for Active; 'I' for Inactive)
ROOT
ATOM      1  C   UNL d   1       0.758  -1.459   0.281  0.00  0.00     0.077 C 
ATOM      2  C1  UNL d   1      -0.010  -0.170   0.292  0.00  0.00    -0.074 A 
ATOM      3  C2  UNL d   1      -1.361  -0.141   0.652  0.00  0.00    -0.005 A 
ATOM      4  C3  UNL d   1      -2.059   1.066   0.667  0.00  0.00     0.006 A 
ATOM      5  C4  UNL d   1      -1.414   2.255   0.323  0.00  0.00    -0.005 A 
ATOM      6  C5  UNL d   1      -0.063   2.245  -0.038  0.00  0.00    -0.074 A 
ATOM      7  C6  UNL d   1       0.648   3.515  -0.401  0.00  0.00     0.077 C 
ATOM      8  C7  UNL d   1       0.633   1.029  -0.044  0.00  0.00    -0.001 A 
ENDROOT
TORSDOF 0
ENDMDL
