MODEL 1
REMARK minimizedAffinity -4.66663456
REMARK minimizedRMSD -1
REMARK  0 active torsions:
REMARK  status: ('A' for Active; 'I' for Inactive)
ROOT
ATOM      1  C   UNL d   1       2.526  -0.659   0.415  0.00  0.00     0.077 C 
ATOM      2  C1  UNL d   1       1.163  -0.043   0.305  0.00  0.00    -0.074 A 
ATOM      3  C2  UNL d   1       0.014  -0.782   0.604  0.00  0.00    -0.005 A 
ATOM      4  C3  UNL d   1      -1.247  -0.193   0.506  0.00  0.00     0.006 A 
ATOM      5  C4  UNL d   1      -1.371   1.139   0.108  0.00  0.00    -0.005 A 
ATOM      6  C5  UNL d   1      -0.233   1.894  -0.195  0.00  0.00    -0.074 A 
ATOM      7  C6  UNL d   1      -0.348   3.329  -0.615  0.00  0.00     0.077 C 
ATOM      8  C7  UNL d   1       1.030   1.296  -0.087  0.00  0.00    -0.001 A 
ENDROOT
TORSDOF 0
ENDMDL
