MODEL 1
REMARK minimizedAffinity -4.71451712
REMARK minimizedRMSD -1
REMARK  0 active torsions:
REMARK  status: ('A' for Active; 'I' for Inactive)
ROOT
ATOM      1  C   UNL d   1       0.364   3.192  -0.236  0.00  0.00     0.077 C 
ATOM      2  C1  UNL d   1      -0.237   1.822  -0.131  0.00  0.00    -0.074 A 
ATOM      3  C2  UNL d   1      -1.604   1.654   0.116  0.00  0.00    -0.005 A 
ATOM      4  C3  UNL d   1      -2.151   0.374   0.202  0.00  0.00     0.006 A 
ATOM      5  C4  UNL d   1      -1.338  -0.750   0.043  0.00  0.00    -0.005 A 
ATOM      6  C5  UNL d   1       0.030  -0.601  -0.205  0.00  0.00    -0.074 A 
ATOM      7  C6  UNL d   1       0.916  -1.798  -0.387  0.00  0.00     0.077 C 
ATOM      8  C7  UNL d   1       0.571   0.689  -0.297  0.00  0.00    -0.001 A 
ENDROOT
TORSDOF 0
ENDMDL
