MODEL 1
REMARK minimizedAffinity -4.70497465
REMARK minimizedRMSD -1
REMARK  0 active torsions:
REMARK  status: ('A' for Active; 'I' for Inactive)
ROOT
ATOM      1  C   UNL d   1      -0.218  -2.624  -0.068  0.00  0.00     0.077 C 
ATOM      2  C1  UNL d   1       0.470  -1.301   0.093  0.00  0.00    -0.074 A 
ATOM      3  C2  UNL d   1       1.837  -1.231   0.380  0.00  0.00    -0.005 A 
ATOM      4  C3  UNL d   1       2.465   0.007   0.518  0.00  0.00     0.006 A 
ATOM      5  C4  UNL d   1       1.733   1.186   0.370  0.00  0.00    -0.005 A 
ATOM      6  C5  UNL d   1       0.365   1.136   0.082  0.00  0.00    -0.074 A 
ATOM      7  C6  UNL d   1      -0.434   2.394  -0.089  0.00  0.00     0.077 C 
ATOM      8  C7  UNL d   1      -0.257  -0.112  -0.061  0.00  0.00    -0.001 A 
ENDROOT
TORSDOF 0
ENDMDL
