MODEL 1
REMARK minimizedAffinity -3.79273701
REMARK minimizedRMSD -1
REMARK  0 active torsions:
REMARK  status: ('A' for Active; 'I' for Inactive)
ROOT
ATOM      1  C   UNL d   1       0.583   3.577  -0.231  0.00  0.00     0.077 C 
ATOM      2  C1  UNL d   1      -0.128   2.286   0.047  0.00  0.00    -0.074 A 
ATOM      3  C2  UNL d   1      -1.370   2.273   0.691  0.00  0.00    -0.005 A 
ATOM      4  C3  UNL d   1      -2.024   1.066   0.934  0.00  0.00     0.006 A 
ATOM      5  C4  UNL d   1      -1.444  -0.140   0.537  0.00  0.00    -0.005 A 
ATOM      6  C5  UNL d   1      -0.203  -0.147  -0.108  0.00  0.00    -0.074 A 
ATOM      7  C6  UNL d   1       0.429  -1.433  -0.550  0.00  0.00     0.077 C 
ATOM      8  C7  UNL d   1       0.444   1.071  -0.356  0.00  0.00    -0.001 A 
ENDROOT
TORSDOF 0
ENDMDL
