MODEL 1
REMARK minimizedAffinity -2.46792245
REMARK minimizedRMSD -1
REMARK  0 active torsions:
REMARK  status: ('A' for Active; 'I' for Inactive)
ROOT
ATOM      1  C   UNL d   1       2.596   1.424   0.093  0.00  0.00     0.077 C 
ATOM      2  C1  UNL d   1       1.215   0.842   0.133  0.00  0.00    -0.074 A 
ATOM      3  C2  UNL d   1       0.103   1.647   0.403  0.00  0.00    -0.005 A 
ATOM      4  C3  UNL d   1      -1.177   1.093   0.428  0.00  0.00     0.006 A 
ATOM      5  C4  UNL d   1      -1.358  -0.268   0.184  0.00  0.00    -0.005 A 
ATOM      6  C5  UNL d   1      -0.259  -1.089  -0.088  0.00  0.00    -0.074 A 
ATOM      7  C6  UNL d   1      -0.437  -2.553  -0.362  0.00  0.00     0.077 C 
ATOM      8  C7  UNL d   1       1.024  -0.524  -0.118  0.00  0.00    -0.001 A 
ENDROOT
TORSDOF 0
ENDMDL
