MODEL 1
REMARK minimizedAffinity -5.62762499
REMARK minimizedRMSD -1
REMARK  0 active torsions:
REMARK  status: ('A' for Active; 'I' for Inactive)
ROOT
ATOM      1  C   UNL d   1       0.892  -1.365  -0.784  0.00  0.00     0.077 C 
ATOM      2  C1  UNL d   1       0.153  -0.120  -0.393  0.00  0.00    -0.074 A 
ATOM      3  C2  UNL d   1       0.752   1.138  -0.513  0.00  0.00    -0.005 A 
ATOM      4  C3  UNL d   1       0.049   2.288  -0.154  0.00  0.00     0.006 A 
ATOM      5  C4  UNL d   1      -1.258   2.192   0.328  0.00  0.00    -0.005 A 
ATOM      6  C5  UNL d   1      -1.873   0.942   0.453  0.00  0.00    -0.074 A 
ATOM      7  C6  UNL d   1      -3.279   0.821   0.960  0.00  0.00     0.077 C 
ATOM      8  C7  UNL d   1      -1.162  -0.208   0.084  0.00  0.00    -0.001 A 
ENDROOT
TORSDOF 0
ENDMDL
