MODEL 1
REMARK minimizedAffinity -3.69273114
REMARK minimizedRMSD -1
REMARK  0 active torsions:
REMARK  status: ('A' for Active; 'I' for Inactive)
ROOT
ATOM      1  C   UNL d   1       1.463   3.206   0.631  0.00  0.00     0.077 C 
ATOM      2  C1  UNL d   1       0.412   2.149   0.469  0.00  0.00    -0.074 A 
ATOM      3  C2  UNL d   1      -0.947   2.479   0.485  0.00  0.00    -0.005 A 
ATOM      4  C3  UNL d   1      -1.914   1.487   0.324  0.00  0.00     0.006 A 
ATOM      5  C4  UNL d   1      -1.532   0.157   0.144  0.00  0.00    -0.005 A 
ATOM      6  C5  UNL d   1      -0.178  -0.192   0.124  0.00  0.00    -0.074 A 
ATOM      7  C6  UNL d   1       0.250  -1.615  -0.078  0.00  0.00     0.077 C 
ATOM      8  C7  UNL d   1       0.787   0.812   0.280  0.00  0.00    -0.001 A 
ENDROOT
TORSDOF 0
ENDMDL
