MODEL 1
REMARK minimizedAffinity -3.1171844
REMARK minimizedRMSD -1
REMARK  0 active torsions:
REMARK  status: ('A' for Active; 'I' for Inactive)
ROOT
ATOM      1  C   UNL d   1       1.518   2.407  -0.712  0.00  0.00     0.077 C 
ATOM      2  C1  UNL d   1       0.718   1.204  -0.307  0.00  0.00    -0.074 A 
ATOM      3  C2  UNL d   1       0.011   1.184   0.899  0.00  0.00    -0.005 A 
ATOM      4  C3  UNL d   1      -0.736   0.062   1.257  0.00  0.00     0.006 A 
ATOM      5  C4  UNL d   1      -0.784  -1.049   0.414  0.00  0.00    -0.005 A 
ATOM      6  C5  UNL d   1      -0.084  -1.047  -0.796  0.00  0.00    -0.074 A 
ATOM      7  C6  UNL d   1      -0.132  -2.228  -1.719  0.00  0.00     0.077 C 
ATOM      8  C7  UNL d   1       0.659   0.087  -1.153  0.00  0.00    -0.001 A 
ENDROOT
TORSDOF 0
ENDMDL
