MODEL 1
REMARK minimizedAffinity -3.99074125
REMARK minimizedRMSD -1
REMARK  0 active torsions:
REMARK  status: ('A' for Active; 'I' for Inactive)
ROOT
ATOM      1  C   UNL d   1       1.118  -1.518   0.080  0.00  0.00     0.077 C 
ATOM      2  C1  UNL d   1       0.300  -0.268   0.217  0.00  0.00    -0.074 A 
ATOM      3  C2  UNL d   1      -1.062  -0.330   0.526  0.00  0.00    -0.005 A 
ATOM      4  C3  UNL d   1      -1.808   0.841   0.660  0.00  0.00     0.006 A 
ATOM      5  C4  UNL d   1      -1.199   2.085   0.486  0.00  0.00    -0.005 A 
ATOM      6  C5  UNL d   1       0.162   2.167   0.177  0.00  0.00    -0.074 A 
ATOM      7  C6  UNL d   1       0.834   3.496  -0.004  0.00  0.00     0.077 C 
ATOM      8  C7  UNL d   1       0.906   0.986   0.051  0.00  0.00    -0.001 A 
ENDROOT
TORSDOF 0
ENDMDL
