MODEL 1
REMARK minimizedAffinity -3.2614522
REMARK minimizedRMSD -1
REMARK  0 active torsions:
REMARK  status: ('A' for Active; 'I' for Inactive)
ROOT
ATOM      1  C   UNL d   1      -2.436  -0.065   1.666  0.00  0.00     0.077 C 
ATOM      2  C1  UNL d   1      -1.249   0.335   0.840  0.00  0.00    -0.074 A 
ATOM      3  C2  UNL d   1      -0.256  -0.594   0.514  0.00  0.00    -0.005 A 
ATOM      4  C3  UNL d   1       0.838  -0.210  -0.262  0.00  0.00     0.006 A 
ATOM      5  C4  UNL d   1       0.948   1.103  -0.720  0.00  0.00    -0.005 A 
ATOM      6  C5  UNL d   1      -0.036   2.045  -0.405  0.00  0.00    -0.074 A 
ATOM      7  C6  UNL d   1       0.062   3.459  -0.897  0.00  0.00     0.077 C 
ATOM      8  C7  UNL d   1      -1.135   1.650   0.370  0.00  0.00    -0.001 A 
ENDROOT
TORSDOF 0
ENDMDL
