MODEL 1
REMARK minimizedAffinity -5.84716129
REMARK minimizedRMSD -1
REMARK  0 active torsions:
REMARK  status: ('A' for Active; 'I' for Inactive)
ROOT
ATOM      1  C   UNL d   1      -3.418   0.758   0.732  0.00  0.00     0.077 C 
ATOM      2  C1  UNL d   1      -1.939   0.824   0.490  0.00  0.00    -0.074 A 
ATOM      3  C2  UNL d   1      -1.162  -0.339   0.465  0.00  0.00    -0.005 A 
ATOM      4  C3  UNL d   1       0.210  -0.262   0.229  0.00  0.00     0.006 A 
ATOM      5  C4  UNL d   1       0.819   0.975   0.016  0.00  0.00    -0.005 A 
ATOM      6  C5  UNL d   1       0.058   2.149   0.036  0.00  0.00    -0.074 A 
ATOM      7  C6  UNL d   1       0.694   3.486  -0.201  0.00  0.00     0.077 C 
ATOM      8  C7  UNL d   1      -1.322   2.063   0.267  0.00  0.00    -0.001 A 
ENDROOT
TORSDOF 0
ENDMDL
