MODEL 1
REMARK minimizedAffinity -3.74862385
REMARK minimizedRMSD -1
REMARK  0 active torsions:
REMARK  status: ('A' for Active; 'I' for Inactive)
ROOT
ATOM      1  C   UNL d   1       2.793   1.564   0.514  0.00  0.00     0.077 C 
ATOM      2  C1  UNL d   1       1.322   1.272   0.531  0.00  0.00    -0.074 A 
ATOM      3  C2  UNL d   1       0.388   2.295   0.726  0.00  0.00    -0.005 A 
ATOM      4  C3  UNL d   1      -0.977   2.009   0.730  0.00  0.00     0.006 A 
ATOM      5  C4  UNL d   1      -1.422   0.701   0.538  0.00  0.00    -0.005 A 
ATOM      6  C5  UNL d   1      -0.503  -0.335   0.340  0.00  0.00    -0.074 A 
ATOM      7  C6  UNL d   1      -0.964  -1.745   0.122  0.00  0.00     0.077 C 
ATOM      8  C7  UNL d   1       0.867  -0.039   0.331  0.00  0.00    -0.001 A 
ENDROOT
TORSDOF 0
ENDMDL
