MODEL 1
REMARK minimizedAffinity -5.43227482
REMARK minimizedRMSD -1
REMARK  1 active torsions:
REMARK  status: ('A' for Active; 'I' for Inactive)
REMARK    1  A    between atoms: C1_2  and  C2_3 
ROOT
ATOM      1  C2  UNL d   1      -0.932   0.047   1.734  0.00  0.00    -0.073 A 
ATOM      2  C3  UNL d   1       0.172   0.170   2.584  0.00  0.00    -0.002 A 
ATOM      3  C4  UNL d   1       1.453   0.341   2.056  0.00  0.00     0.004 A 
ATOM      4  C5  UNL d   1       1.641   0.398   0.675  0.00  0.00    -0.004 A 
ATOM      5  C6  UNL d   1       0.548   0.290  -0.190  0.00  0.00    -0.075 A 
ATOM      6  C7  UNL d   1       0.733   0.347  -1.678  0.00  0.00     0.076 C 
ATOM      7  C8  UNL d   1      -0.734   0.115   0.347  0.00  0.00     0.001 A 
ENDROOT
BRANCH   1   8
ATOM      8  C1  UNL d   1      -2.318  -0.131   2.300  0.00  0.00     0.053 C 
ATOM      9  C   UNL d   1      -3.394   0.070   1.245  0.00  0.00     0.018 C 
ENDBRANCH   1   8
TORSDOF 1
ENDMDL
