MODEL 1
REMARK minimizedAffinity -2.92114568
REMARK minimizedRMSD -1
REMARK  1 active torsions:
REMARK  status: ('A' for Active; 'I' for Inactive)
REMARK    1  A    between atoms: C1_2  and  C2_3 
ROOT
ATOM      1  C2  UNL d   1       0.417  -0.077  -0.930  0.00  0.00    -0.073 A 
ATOM      2  C3  UNL d   1      -0.948  -0.040  -1.239  0.00  0.00    -0.002 A 
ATOM      3  C4  UNL d   1      -1.896   0.108  -0.227  0.00  0.00     0.004 A 
ATOM      4  C5  UNL d   1      -1.491   0.228   1.102  0.00  0.00    -0.004 A 
ATOM      5  C6  UNL d   1      -0.132   0.206   1.430  0.00  0.00    -0.075 A 
ATOM      6  C7  UNL d   1       0.320   0.331   2.856  0.00  0.00     0.076 C 
ATOM      7  C8  UNL d   1       0.815   0.054   0.408  0.00  0.00     0.001 A 
ENDROOT
BRANCH   1   8
ATOM      8  C1  UNL d   1       1.445  -0.230  -2.021  0.00  0.00     0.053 C 
ATOM      9  C   UNL d   1       1.041  -1.283  -3.041  0.00  0.00     0.018 C 
ENDBRANCH   1   8
TORSDOF 1
ENDMDL
