MODEL 1
REMARK minimizedAffinity -6.68076611
REMARK minimizedRMSD -1
REMARK  1 active torsions:
REMARK  status: ('A' for Active; 'I' for Inactive)
REMARK    1  A    between atoms: C1_2  and  C2_3 
ROOT
ATOM      1  C2  UNL d   1       0.488   0.333   0.659  0.00  0.00    -0.073 A 
ATOM      2  C3  UNL d   1       1.009   0.222   1.953  0.00  0.00    -0.002 A 
ATOM      3  C4  UNL d   1       0.159  -0.001   3.038  0.00  0.00     0.004 A 
ATOM      4  C5  UNL d   1      -1.216  -0.121   2.840  0.00  0.00    -0.004 A 
ATOM      5  C6  UNL d   1      -1.754  -0.024   1.553  0.00  0.00    -0.075 A 
ATOM      6  C7  UNL d   1      -3.232  -0.148   1.323  0.00  0.00     0.076 C 
ATOM      7  C8  UNL d   1      -0.895   0.203   0.469  0.00  0.00     0.001 A 
ENDROOT
BRANCH   1   8
ATOM      8  C1  UNL d   1       1.402   0.567  -0.516  0.00  0.00     0.053 C 
ATOM      9  C   UNL d   1       0.727   0.235  -1.837  0.00  0.00     0.018 C 
ENDBRANCH   1   8
TORSDOF 1
ENDMDL
