MODEL 1
REMARK minimizedAffinity -4.46293783
REMARK minimizedRMSD -1
REMARK  1 active torsions:
REMARK  status: ('A' for Active; 'I' for Inactive)
REMARK    1  A    between atoms: C1_2  and  C2_3 
ROOT
ATOM      1  C2  UNL d   1      -0.127  -0.629   0.368  0.00  0.00    -0.073 A 
ATOM      2  C3  UNL d   1      -0.790  -1.722   0.938  0.00  0.00    -0.002 A 
ATOM      3  C4  UNL d   1      -1.079  -1.737   2.304  0.00  0.00     0.004 A 
ATOM      4  C5  UNL d   1      -0.715  -0.659   3.110  0.00  0.00    -0.004 A 
ATOM      5  C6  UNL d   1      -0.063   0.448   2.557  0.00  0.00    -0.075 A 
ATOM      6  C7  UNL d   1       0.337   1.614   3.412  0.00  0.00     0.076 C 
ATOM      7  C8  UNL d   1       0.226   0.455   1.186  0.00  0.00     0.001 A 
ENDROOT
BRANCH   1   8
ATOM      8  C1  UNL d   1       0.181  -0.604  -1.106  0.00  0.00     0.053 C 
ATOM      9  C   UNL d   1       0.553   0.789  -1.588  0.00  0.00     0.018 C 
ENDBRANCH   1   8
TORSDOF 1
ENDMDL
