MODEL 1
REMARK minimizedAffinity -5.90325546
REMARK minimizedRMSD -1
REMARK  1 active torsions:
REMARK  status: ('A' for Active; 'I' for Inactive)
REMARK    1  A    between atoms: C1_2  and  C2_3 
ROOT
ATOM      1  C2  UNL d   1      -1.583  -0.200   2.056  0.00  0.00    -0.073 A 
ATOM      2  C3  UNL d   1      -0.772  -0.408   3.177  0.00  0.00    -0.002 A 
ATOM      3  C4  UNL d   1       0.616  -0.447   3.045  0.00  0.00     0.004 A 
ATOM      4  C5  UNL d   1       1.208  -0.272   1.795  0.00  0.00    -0.004 A 
ATOM      5  C6  UNL d   1       0.415  -0.050   0.664  0.00  0.00    -0.075 A 
ATOM      6  C7  UNL d   1       1.036   0.138  -0.689  0.00  0.00     0.076 C 
ATOM      7  C8  UNL d   1      -0.979  -0.015   0.804  0.00  0.00     0.001 A 
ENDROOT
BRANCH   1   8
ATOM      8  C1  UNL d   1      -3.083  -0.150   2.194  0.00  0.00     0.053 C 
ATOM      9  C   UNL d   1      -3.767   0.174   0.875  0.00  0.00     0.018 C 
ENDBRANCH   1   8
TORSDOF 1
ENDMDL
