MODEL 1
REMARK minimizedAffinity -5.04221392
REMARK minimizedRMSD -1
REMARK  1 active torsions:
REMARK  status: ('A' for Active; 'I' for Inactive)
REMARK    1  A    between atoms: C1_2  and  C2_3 
ROOT
ATOM      1  C2  UNL d   1      -0.282  -0.128   0.248  0.00  0.00    -0.073 A 
ATOM      2  C3  UNL d   1      -1.301  -0.895   0.824  0.00  0.00    -0.002 A 
ATOM      3  C4  UNL d   1      -1.221  -1.281   2.163  0.00  0.00     0.004 A 
ATOM      4  C5  UNL d   1      -0.128  -0.899   2.940  0.00  0.00    -0.004 A 
ATOM      5  C6  UNL d   1       0.894  -0.122   2.386  0.00  0.00    -0.075 A 
ATOM      6  C7  UNL d   1       2.078   0.296   3.208  0.00  0.00     0.076 C 
ATOM      7  C8  UNL d   1       0.809   0.259   1.040  0.00  0.00     0.001 A 
ENDROOT
BRANCH   1   8
ATOM      8  C1  UNL d   1      -0.366   0.297  -1.195  0.00  0.00     0.053 C 
ATOM      9  C   UNL d   1       0.667  -0.410  -2.059  0.00  0.00     0.018 C 
ENDBRANCH   1   8
TORSDOF 1
ENDMDL
