MODEL 1
REMARK minimizedAffinity -0.55884999
REMARK minimizedRMSD -1
REMARK  2 active torsions:
REMARK  status: ('A' for Active; 'I' for Inactive)
REMARK    1  A    between atoms: C2'_3  and  C1'_4 
REMARK    2  A    between atoms: C1'_4  and  C1_5 
ROOT
ATOM      1  C1  I4B d   1      -0.002  -0.507  -1.142  0.00  0.00    -0.075 A 
ATOM      2  C2  I4B d   1      -0.085   0.833  -0.855  0.00  0.00     0.003 A 
ATOM      3  C3  I4B d   1       0.267   1.310   0.430  0.00  0.00     0.002 A 
ATOM      4  C4  I4B d   1       0.645   0.413   1.408  0.00  0.00    -0.004 A 
ATOM      5  C5  I4B d   1       0.751  -0.942   1.110  0.00  0.00     0.002 A 
ATOM      6  C6  I4B d   1       0.437  -1.404  -0.177  0.00  0.00     0.003 A 
ENDROOT
BRANCH   1   7
ATOM      7  C1' I4B d   1      -0.412  -0.981  -2.500  0.00  0.00     0.060 C 
BRANCH   7   8
ATOM      8  C2' I4B d   1       0.604  -2.005  -2.964  0.00  0.00    -0.013 C 
ATOM      9  C4' I4B d   1      -0.013  -2.989  -3.922  0.00  0.00     0.013 C 
ATOM     10  C3' I4B d   1       1.744  -1.270  -3.602  0.00  0.00     0.013 C 
ENDBRANCH   7   8
ENDBRANCH   1   7
TORSDOF 2
ENDMDL
