MODEL 1
REMARK minimizedAffinity -4.32748461
REMARK minimizedRMSD -1
REMARK  2 active torsions:
REMARK  status: ('A' for Active; 'I' for Inactive)
REMARK    1  A    between atoms: C2'_3  and  C1'_4 
REMARK    2  A    between atoms: C1'_4  and  C1_5 
ROOT
ATOM      1  C1  I4B d   1       0.308  -0.414  -0.040  0.00  0.00    -0.075 A 
ATOM      2  C2  I4B d   1       0.719   0.667   0.700  0.00  0.00     0.003 A 
ATOM      3  C3  I4B d   1       0.720   0.604   2.115  0.00  0.00     0.002 A 
ATOM      4  C4  I4B d   1       0.259  -0.534   2.744  0.00  0.00    -0.004 A 
ATOM      5  C5  I4B d   1      -0.135  -1.637   1.993  0.00  0.00     0.002 A 
ATOM      6  C6  I4B d   1      -0.099  -1.582   0.592  0.00  0.00     0.003 A 
ENDROOT
BRANCH   1   7
ATOM      7  C1' I4B d   1       0.288  -0.301  -1.531  0.00  0.00     0.060 C 
BRANCH   7   8
ATOM      8  C2' I4B d   1       1.503  -1.029  -2.071  0.00  0.00    -0.013 C 
ATOM      9  C4' I4B d   1       1.130  -2.382  -2.615  0.00  0.00     0.013 C 
ATOM     10  C3' I4B d   1       2.123  -0.170  -3.132  0.00  0.00     0.013 C 
ENDBRANCH   7   8
ENDBRANCH   1   7
TORSDOF 2
ENDMDL
