MODEL 1
REMARK minimizedAffinity -2.74935532
REMARK minimizedRMSD -1
REMARK  2 active torsions:
REMARK  status: ('A' for Active; 'I' for Inactive)
REMARK    1  A    between atoms: C2'_3  and  C1'_4 
REMARK    2  A    between atoms: C1'_4  and  C1_5 
ROOT
ATOM      1  C1  I4B d   1      -0.167   0.195  -0.395  0.00  0.00    -0.075 A 
ATOM      2  C2  I4B d   1       0.869   0.864   0.207  0.00  0.00     0.003 A 
ATOM      3  C3  I4B d   1       1.083   0.741   1.601  0.00  0.00     0.002 A 
ATOM      4  C4  I4B d   1       0.211  -0.014   2.359  0.00  0.00    -0.004 A 
ATOM      5  C5  I4B d   1      -0.826  -0.710   1.743  0.00  0.00     0.002 A 
ATOM      6  C6  I4B d   1      -1.009  -0.615   0.356  0.00  0.00     0.003 A 
ENDROOT
BRANCH   1   7
ATOM      7  C1' I4B d   1      -0.383   0.373  -1.864  0.00  0.00     0.060 C 
BRANCH   7   8
ATOM      8  C2' I4B d   1       0.604  -0.517  -2.592  0.00  0.00    -0.013 C 
ATOM      9  C4' I4B d   1      -0.105  -1.528  -3.454  0.00  0.00     0.013 C 
ATOM     10  C3' I4B d   1       1.500   0.362  -3.414  0.00  0.00     0.013 C 
ENDBRANCH   7   8
ENDBRANCH   1   7
TORSDOF 2
ENDMDL
