MODEL 1
REMARK minimizedAffinity -0.985815287
REMARK minimizedRMSD -1
REMARK  2 active torsions:
REMARK  status: ('A' for Active; 'I' for Inactive)
REMARK    1  A    between atoms: C2'_3  and  C1'_4 
REMARK    2  A    between atoms: C1'_4  and  C1_5 
ROOT
ATOM      1  C1  I4B d   1       0.001  -0.389  -1.884  0.00  0.00    -0.075 A 
ATOM      2  C2  I4B d   1       1.166   0.315  -2.058  0.00  0.00     0.003 A 
ATOM      3  C3  I4B d   1       2.062  -0.034  -3.098  0.00  0.00     0.002 A 
ATOM      4  C4  I4B d   1       1.779  -1.118  -3.903  0.00  0.00    -0.004 A 
ATOM      5  C5  I4B d   1       0.586  -1.817  -3.740  0.00  0.00     0.002 A 
ATOM      6  C6  I4B d   1      -0.315  -1.443  -2.733  0.00  0.00     0.003 A 
ENDROOT
BRANCH   1   7
ATOM      7  C1' I4B d   1      -0.906  -0.015  -0.756  0.00  0.00     0.060 C 
BRANCH   7   8
ATOM      8  C2' I4B d   1      -0.351  -0.630   0.513  0.00  0.00    -0.013 C 
ATOM      9  C4' I4B d   1       0.138   0.430   1.464  0.00  0.00     0.013 C 
ATOM     10  C3' I4B d   1      -1.434  -1.459   1.137  0.00  0.00     0.013 C 
ENDBRANCH   7   8
ENDBRANCH   1   7
TORSDOF 2
ENDMDL
