MODEL 1
REMARK minimizedAffinity -1.08665502
REMARK minimizedRMSD -1
REMARK  2 active torsions:
REMARK  status: ('A' for Active; 'I' for Inactive)
REMARK    1  A    between atoms: C2'_3  and  C1'_4 
REMARK    2  A    between atoms: C1'_4  and  C1_5 
ROOT
ATOM      1  C1  I4B d   1       0.142  -0.038  -0.420  0.00  0.00    -0.075 A 
ATOM      2  C2  I4B d   1       1.142   0.348   0.438  0.00  0.00     0.003 A 
ATOM      3  C3  I4B d   1       0.987   0.179   1.835  0.00  0.00     0.002 A 
ATOM      4  C4  I4B d   1      -0.196  -0.331   2.331  0.00  0.00    -0.004 A 
ATOM      5  C5  I4B d   1      -1.199  -0.743   1.459  0.00  0.00     0.002 A 
ATOM      6  C6  I4B d   1      -1.024  -0.608   0.074  0.00  0.00     0.003 A 
ENDROOT
BRANCH   1   7
ATOM      7  C1' I4B d   1       0.326   0.185  -1.887  0.00  0.00     0.060 C 
BRANCH   7   8
ATOM      8  C2' I4B d   1       0.998  -1.043  -2.466  0.00  0.00    -0.013 C 
ATOM      9  C4' I4B d   1       0.092  -1.754  -3.437  0.00  0.00     0.013 C 
ATOM     10  C3' I4B d   1       2.268  -0.605  -3.133  0.00  0.00     0.013 C 
ENDBRANCH   7   8
ENDBRANCH   1   7
TORSDOF 2
ENDMDL
