MODEL 1
REMARK minimizedAffinity -3.99879432
REMARK minimizedRMSD -1
REMARK  2 active torsions:
REMARK  status: ('A' for Active; 'I' for Inactive)
REMARK    1  A    between atoms: C2'_3  and  C1'_4 
REMARK    2  A    between atoms: C1'_4  and  C1_5 
ROOT
ATOM      1  C1  I4B d   1       0.116  -0.079  -0.156  0.00  0.00    -0.075 A 
ATOM      2  C2  I4B d   1      -0.997  -0.228   0.633  0.00  0.00     0.003 A 
ATOM      3  C3  I4B d   1      -0.860  -0.422   2.029  0.00  0.00     0.002 A 
ATOM      4  C4  I4B d   1       0.401  -0.511   2.582  0.00  0.00    -0.004 A 
ATOM      5  C5  I4B d   1       1.527  -0.337   1.784  0.00  0.00     0.002 A 
ATOM      6  C6  I4B d   1       1.385  -0.107   0.408  0.00  0.00     0.003 A 
ENDROOT
BRANCH   1   7
ATOM      7  C1' I4B d   1      -0.064   0.091  -1.632  0.00  0.00     0.060 C 
BRANCH   7   8
ATOM      8  C2' I4B d   1       0.894  -0.851  -2.331  0.00  0.00    -0.013 C 
ATOM      9  C4' I4B d   1       0.152  -1.892  -3.127  0.00  0.00     0.013 C 
ATOM     10  C3' I4B d   1       1.789  -0.032  -3.212  0.00  0.00     0.013 C 
ENDBRANCH   7   8
ENDBRANCH   1   7
TORSDOF 2
ENDMDL
