MODEL 1
REMARK minimizedAffinity -2.24909329
REMARK minimizedRMSD -1
REMARK  2 active torsions:
REMARK  status: ('A' for Active; 'I' for Inactive)
REMARK    1  A    between atoms: C2'_3  and  C1'_4 
REMARK    2  A    between atoms: C1'_4  and  C1_5 
ROOT
ATOM      1  C1  I4B d   1       0.101  -0.350  -1.192  0.00  0.00    -0.075 A 
ATOM      2  C2  I4B d   1      -1.122   0.268  -1.271  0.00  0.00     0.003 A 
ATOM      3  C3  I4B d   1      -1.997   0.262  -0.157  0.00  0.00     0.002 A 
ATOM      4  C4  I4B d   1      -1.632  -0.413   0.990  0.00  0.00    -0.004 A 
ATOM      5  C5  I4B d   1      -0.382  -1.019   1.076  0.00  0.00     0.002 A 
ATOM      6  C6  I4B d   1       0.495  -0.977  -0.018  0.00  0.00     0.003 A 
ENDROOT
BRANCH   1   7
ATOM      7  C1' I4B d   1       0.986  -0.352  -2.398  0.00  0.00     0.060 C 
BRANCH   7   8
ATOM      8  C2' I4B d   1       0.806  -1.679  -3.107  0.00  0.00    -0.013 C 
ATOM      9  C4' I4B d   1      -0.024  -1.524  -4.354  0.00  0.00     0.013 C 
ATOM     10  C3' I4B d   1       2.167  -2.222  -3.426  0.00  0.00     0.013 C 
ENDBRANCH   7   8
ENDBRANCH   1   7
TORSDOF 2
ENDMDL
