MODEL 1
REMARK minimizedAffinity -3.35820389
REMARK minimizedRMSD -1
REMARK  2 active torsions:
REMARK  status: ('A' for Active; 'I' for Inactive)
REMARK    1  A    between atoms: C2'_3  and  C1'_4 
REMARK    2  A    between atoms: C1'_4  and  C1_5 
ROOT
ATOM      1  C1  I4B d   1       0.075  -0.190   0.284  0.00  0.00    -0.075 A 
ATOM      2  C2  I4B d   1       0.831   0.461   1.227  0.00  0.00     0.003 A 
ATOM      3  C3  I4B d   1       0.382   0.541   2.568  0.00  0.00     0.002 A 
ATOM      4  C4  I4B d   1      -0.842   0.004   2.909  0.00  0.00    -0.004 A 
ATOM      5  C5  I4B d   1      -1.596  -0.676   1.956  0.00  0.00     0.002 A 
ATOM      6  C6  I4B d   1      -1.129  -0.785   0.638  0.00  0.00     0.003 A 
ENDROOT
BRANCH   1   7
ATOM      7  C1' I4B d   1       0.563  -0.227  -1.129  0.00  0.00     0.060 C 
BRANCH   7   8
ATOM      8  C2' I4B d   1       1.136   1.135  -1.461  0.00  0.00    -0.013 C 
ATOM      9  C4' I4B d   1       2.018   1.073  -2.681  0.00  0.00     0.013 C 
ATOM     10  C3' I4B d   1      -0.009   2.081  -1.669  0.00  0.00     0.013 C 
ENDBRANCH   7   8
ENDBRANCH   1   7
TORSDOF 2
ENDMDL
