MODEL 1
REMARK minimizedAffinity -3.21297264
REMARK minimizedRMSD -1
REMARK  2 active torsions:
REMARK  status: ('A' for Active; 'I' for Inactive)
REMARK    1  A    between atoms: C2'_3  and  C1'_4 
REMARK    2  A    between atoms: C1'_4  and  C1_5 
ROOT
ATOM      1  C1  I4B d   1       0.111  -0.256   0.058  0.00  0.00    -0.075 A 
ATOM      2  C2  I4B d   1      -1.146  -0.673   0.418  0.00  0.00     0.003 A 
ATOM      3  C3  I4B d   1      -1.481  -0.831   1.785  0.00  0.00     0.002 A 
ATOM      4  C4  I4B d   1      -0.519  -0.612   2.749  0.00  0.00    -0.004 A 
ATOM      5  C5  I4B d   1       0.749  -0.167   2.383  0.00  0.00     0.002 A 
ATOM      6  C6  I4B d   1       1.062   0.024   1.030  0.00  0.00     0.003 A 
ENDROOT
BRANCH   1   7
ATOM      7  C1' I4B d   1       0.440  -0.132  -1.396  0.00  0.00     0.060 C 
BRANCH   7   8
ATOM      8  C2' I4B d   1       0.789  -1.512  -1.916  0.00  0.00    -0.013 C 
ATOM      9  C4' I4B d   1      -0.373  -2.127  -2.652  0.00  0.00     0.013 C 
ATOM     10  C3' I4B d   1       1.987  -1.381  -2.808  0.00  0.00     0.013 C 
ENDBRANCH   7   8
ENDBRANCH   1   7
TORSDOF 2
ENDMDL
