MODEL 1
REMARK minimizedAffinity -2.0910635
REMARK minimizedRMSD -1
REMARK  2 active torsions:
REMARK  status: ('A' for Active; 'I' for Inactive)
REMARK    1  A    between atoms: C2'_3  and  C1'_4 
REMARK    2  A    between atoms: C1'_4  and  C1_5 
ROOT
ATOM      1  C1  I4B d   1       0.178  -0.001  -0.512  0.00  0.00    -0.075 A 
ATOM      2  C2  I4B d   1      -1.125  -0.339  -0.243  0.00  0.00     0.003 A 
ATOM      3  C3  I4B d   1      -1.564  -0.477   1.096  0.00  0.00     0.002 A 
ATOM      4  C4  I4B d   1      -0.661  -0.318   2.127  0.00  0.00    -0.004 A 
ATOM      5  C5  I4B d   1       0.654   0.048   1.854  0.00  0.00     0.002 A 
ATOM      6  C6  I4B d   1       1.074   0.219   0.526  0.00  0.00     0.003 A 
ENDROOT
BRANCH   1   7
ATOM      7  C1' I4B d   1       0.616   0.104  -1.938  0.00  0.00     0.060 C 
BRANCH   7   8
ATOM      8  C2' I4B d   1       0.993  -1.285  -2.414  0.00  0.00    -0.013 C 
ATOM      9  C4' I4B d   1      -0.179  -1.979  -3.055  0.00  0.00     0.013 C 
ATOM     10  C3' I4B d   1       2.136  -1.150  -3.376  0.00  0.00     0.013 C 
ENDBRANCH   7   8
ENDBRANCH   1   7
TORSDOF 2
ENDMDL
