MODEL 1
REMARK minimizedAffinity -2.49274874
REMARK minimizedRMSD -1
REMARK  2 active torsions:
REMARK  status: ('A' for Active; 'I' for Inactive)
REMARK    1  A    between atoms: C2'_3  and  C1'_4 
REMARK    2  A    between atoms: C1'_4  and  C1_5 
ROOT
ATOM      1  C1  I4B d   1      -0.879  -0.327   0.943  0.00  0.00    -0.075 A 
ATOM      2  C2  I4B d   1      -1.440   0.324  -0.128  0.00  0.00     0.003 A 
ATOM      3  C3  I4B d   1      -0.624   0.787  -1.188  0.00  0.00     0.002 A 
ATOM      4  C4  I4B d   1       0.744   0.624  -1.114  0.00  0.00    -0.004 A 
ATOM      5  C5  I4B d   1       1.309  -0.056  -0.039  0.00  0.00     0.002 A 
ATOM      6  C6  I4B d   1       0.492  -0.545   0.990  0.00  0.00     0.003 A 
ENDROOT
BRANCH   1   7
ATOM      7  C1' I4B d   1      -1.766  -0.773   2.061  0.00  0.00     0.060 C 
BRANCH   7   8
ATOM      8  C2' I4B d   1      -1.006  -0.593   3.360  0.00  0.00    -0.013 C 
ATOM      9  C4' I4B d   1      -0.422   0.791   3.463  0.00  0.00     0.013 C 
ATOM     10  C3' I4B d   1      -1.952  -0.868   4.491  0.00  0.00     0.013 C 
ENDBRANCH   7   8
ENDBRANCH   1   7
TORSDOF 2
ENDMDL
