MODEL 1
REMARK minimizedAffinity 10.8390074
REMARK minimizedRMSD -1
REMARK  0 active torsions:
REMARK  status: ('A' for Active; 'I' for Inactive)
ROOT
ATOM      1  C   UNL d   1       3.298  -1.268  -1.015  0.00  0.00     0.020 A 
ATOM      2  C1  UNL d   1       2.515  -0.610  -1.962  0.00  0.00     0.020 A 
ATOM      3  C2  UNL d   1       1.168  -0.946  -2.110  0.00  0.00     0.034 A 
ATOM      4  C3  UNL d   1       0.599  -1.943  -1.309  0.00  0.00     0.017 A 
ATOM      5  C4  UNL d   1       1.386  -2.603  -0.358  0.00  0.00     0.017 A 
ATOM      6  C5  UNL d   1       2.734  -2.262  -0.214  0.00  0.00     0.034 A 
ATOM      7 Cl   UNL d   1       0.755  -3.844   0.666  0.00  0.00    -0.070 Cl
ATOM      8 Cl1  UNL d   1      -1.073  -2.307  -1.546  0.00  0.00    -0.070 Cl
ENDROOT
TORSDOF 0
ENDMDL
