MODEL 1
REMARK minimizedAffinity 8.45227432
REMARK minimizedRMSD -1
REMARK  0 active torsions:
REMARK  status: ('A' for Active; 'I' for Inactive)
ROOT
ATOM      1  C   UNL d   1       0.532   1.945  -1.008  0.00  0.00     0.020 A 
ATOM      2  C1  UNL d   1      -0.609   1.283  -0.557  0.00  0.00     0.020 A 
ATOM      3  C2  UNL d   1      -0.601  -0.106  -0.415  0.00  0.00     0.034 A 
ATOM      4  C3  UNL d   1       0.551  -0.838  -0.725  0.00  0.00     0.017 A 
ATOM      5  C4  UNL d   1       1.696  -0.173  -1.178  0.00  0.00     0.017 A 
ATOM      6  C5  UNL d   1       1.682   1.218  -1.318  0.00  0.00     0.034 A 
ATOM      7 Cl   UNL d   1       3.155  -1.009  -1.580  0.00  0.00    -0.070 Cl
ATOM      8 Cl1  UNL d   1       0.490  -2.554  -0.527  0.00  0.00    -0.070 Cl
ENDROOT
TORSDOF 0
ENDMDL
