MODEL 1
REMARK minimizedAffinity 5.88448811
REMARK minimizedRMSD -1
REMARK  0 active torsions:
REMARK  status: ('A' for Active; 'I' for Inactive)
ROOT
ATOM      1  C   UNL d   1       1.448  -1.190  -1.988  0.00  0.00     0.020 A 
ATOM      2  C1  UNL d   1       2.747  -1.086  -1.492  0.00  0.00     0.020 A 
ATOM      3  C2  UNL d   1       3.225   0.146  -1.041  0.00  0.00     0.034 A 
ATOM      4  C3  UNL d   1       2.404   1.279  -1.086  0.00  0.00     0.017 A 
ATOM      5  C4  UNL d   1       1.101   1.173  -1.585  0.00  0.00     0.017 A 
ATOM      6  C5  UNL d   1       0.627  -0.063  -2.035  0.00  0.00     0.034 A 
ATOM      7 Cl   UNL d   1       0.029   2.527  -1.672  0.00  0.00    -0.070 Cl
ATOM      8 Cl1  UNL d   1       3.061   2.771  -0.512  0.00  0.00    -0.070 Cl
ENDROOT
TORSDOF 0
ENDMDL
