MODEL 1
REMARK minimizedAffinity 6.87246513
REMARK minimizedRMSD -1
REMARK  0 active torsions:
REMARK  status: ('A' for Active; 'I' for Inactive)
ROOT
ATOM      1  C   UNL d   1       2.307   1.519  -3.438  0.00  0.00     0.020 A 
ATOM      2  C1  UNL d   1       1.499   2.535  -2.928  0.00  0.00     0.020 A 
ATOM      3  C2  UNL d   1       0.563   2.249  -1.931  0.00  0.00     0.034 A 
ATOM      4  C3  UNL d   1       0.432   0.944  -1.442  0.00  0.00     0.017 A 
ATOM      5  C4  UNL d   1       1.243  -0.075  -1.955  0.00  0.00     0.017 A 
ATOM      6  C5  UNL d   1       2.179   0.217  -2.952  0.00  0.00     0.034 A 
ATOM      7 Cl   UNL d   1       1.140  -1.709  -1.401  0.00  0.00    -0.070 Cl
ATOM      8 Cl1  UNL d   1      -0.746   0.662  -0.210  0.00  0.00    -0.070 Cl
ENDROOT
TORSDOF 0
ENDMDL
