MODEL 1
REMARK minimizedAffinity 4.85390186
REMARK minimizedRMSD -1
REMARK  0 active torsions:
REMARK  status: ('A' for Active; 'I' for Inactive)
ROOT
ATOM      1  C   UNL d   1       0.684  -1.883  -0.538  0.00  0.00     0.020 A 
ATOM      2  C1  UNL d   1       1.856  -1.677  -1.265  0.00  0.00     0.020 A 
ATOM      3  C2  UNL d   1       2.078  -0.454  -1.901  0.00  0.00     0.034 A 
ATOM      4  C3  UNL d   1       1.126   0.568  -1.812  0.00  0.00     0.017 A 
ATOM      5  C4  UNL d   1      -0.050   0.361  -1.082  0.00  0.00     0.017 A 
ATOM      6  C5  UNL d   1      -0.267  -0.865  -0.447  0.00  0.00     0.034 A 
ATOM      7 Cl   UNL d   1      -1.270   1.575  -0.927  0.00  0.00    -0.070 Cl
ATOM      8 Cl1  UNL d   1       1.466   2.055  -2.624  0.00  0.00    -0.070 Cl
ENDROOT
TORSDOF 0
ENDMDL
