MODEL 1
REMARK minimizedAffinity 3.82989335
REMARK minimizedRMSD -1
REMARK  0 active torsions:
REMARK  status: ('A' for Active; 'I' for Inactive)
ROOT
ATOM      1  C   UNL d   1       2.827  -0.787  -0.900  0.00  0.00     0.020 A 
ATOM      2  C1  UNL d   1       2.764   0.529  -1.355  0.00  0.00     0.020 A 
ATOM      3  C2  UNL d   1       2.299   0.801  -2.643  0.00  0.00     0.034 A 
ATOM      4  C3  UNL d   1       1.895  -0.245  -3.481  0.00  0.00     0.017 A 
ATOM      5  C4  UNL d   1       1.958  -1.566  -3.023  0.00  0.00     0.017 A 
ATOM      6  C5  UNL d   1       2.424  -1.832  -1.732  0.00  0.00     0.034 A 
ATOM      7 Cl   UNL d   1       1.477  -2.909  -3.999  0.00  0.00    -0.070 Cl
ATOM      8 Cl1  UNL d   1       1.330   0.164  -5.062  0.00  0.00    -0.070 Cl
ENDROOT
TORSDOF 0
ENDMDL
