MODEL 1
REMARK minimizedAffinity 5.90640116
REMARK minimizedRMSD -1
REMARK  0 active torsions:
REMARK  status: ('A' for Active; 'I' for Inactive)
ROOT
ATOM      1  C   UNL d   1       3.032  -0.507  -1.610  0.00  0.00     0.020 A 
ATOM      2  C1  UNL d   1       3.726  -1.394  -0.787  0.00  0.00     0.020 A 
ATOM      3  C2  UNL d   1       3.025  -2.317  -0.008  0.00  0.00     0.034 A 
ATOM      4  C3  UNL d   1       1.627  -2.355  -0.049  0.00  0.00     0.017 A 
ATOM      5  C4  UNL d   1       0.931  -1.464  -0.875  0.00  0.00     0.017 A 
ATOM      6  C5  UNL d   1       1.638  -0.543  -1.653  0.00  0.00     0.034 A 
ATOM      7 Cl   UNL d   1      -0.794  -1.452  -0.979  0.00  0.00    -0.070 Cl
ATOM      8 Cl1  UNL d   1       0.825  -3.522   0.941  0.00  0.00    -0.070 Cl
ENDROOT
TORSDOF 0
ENDMDL
