MODEL 1
REMARK minimizedAffinity 8.3450613
REMARK minimizedRMSD -1
REMARK  0 active torsions:
REMARK  status: ('A' for Active; 'I' for Inactive)
ROOT
ATOM      1  C   UNL d   1       1.199   1.686  -2.651  0.00  0.00     0.020 A 
ATOM      2  C1  UNL d   1       2.535   1.408  -2.363  0.00  0.00     0.020 A 
ATOM      3  C2  UNL d   1       2.977   1.407  -1.039  0.00  0.00     0.034 A 
ATOM      4  C3  UNL d   1       2.084   1.685   0.002  0.00  0.00     0.017 A 
ATOM      5  C4  UNL d   1       0.744   1.963  -0.288  0.00  0.00     0.017 A 
ATOM      6  C5  UNL d   1       0.306   1.963  -1.616  0.00  0.00     0.034 A 
ATOM      7 Cl   UNL d   1      -0.418   2.315   0.943  0.00  0.00    -0.070 Cl
ATOM      8 Cl1  UNL d   1       2.700   1.666   1.617  0.00  0.00    -0.070 Cl
ENDROOT
TORSDOF 0
ENDMDL
