MODEL 1
REMARK minimizedAffinity 2.97545552
REMARK minimizedRMSD -1
REMARK  0 active torsions:
REMARK  status: ('A' for Active; 'I' for Inactive)
ROOT
ATOM      1  C   UNL d   1       1.478   2.631  -3.279  0.00  0.00     0.020 A 
ATOM      2  C1  UNL d   1       2.568   1.832  -3.620  0.00  0.00     0.020 A 
ATOM      3  C2  UNL d   1       2.757   0.601  -2.988  0.00  0.00     0.034 A 
ATOM      4  C3  UNL d   1       1.855   0.166  -2.011  0.00  0.00     0.017 A 
ATOM      5  C4  UNL d   1       0.761   0.969  -1.668  0.00  0.00     0.017 A 
ATOM      6  C5  UNL d   1       0.576   2.200  -2.305  0.00  0.00     0.034 A 
ATOM      7 Cl   UNL d   1      -0.395   0.500  -0.472  0.00  0.00    -0.070 Cl
ATOM      8 Cl1  UNL d   1       2.150  -1.367  -1.270  0.00  0.00    -0.070 Cl
ENDROOT
TORSDOF 0
ENDMDL
