MODEL 1
REMARK minimizedAffinity -2.82349706
REMARK minimizedRMSD -1
REMARK  0 active torsions:
REMARK  status: ('A' for Active; 'I' for Inactive)
ROOT
ATOM      1  C   UNL d   1       2.789  -1.822  -1.504  0.00  0.00     0.020 A 
ATOM      2  C1  UNL d   1       1.797  -2.132  -0.574  0.00  0.00     0.020 A 
ATOM      3  C2  UNL d   1       0.771  -1.220  -0.319  0.00  0.00     0.034 A 
ATOM      4  C3  UNL d   1       0.734   0.005  -0.994  0.00  0.00     0.017 A 
ATOM      5  C4  UNL d   1       1.730   0.315  -1.927  0.00  0.00     0.017 A 
ATOM      6  C5  UNL d   1       2.756  -0.601  -2.179  0.00  0.00     0.034 A 
ATOM      7 Cl   UNL d   1       1.751   1.807  -2.799  0.00  0.00    -0.070 Cl
ATOM      8 Cl1  UNL d   1      -0.565   1.085  -0.629  0.00  0.00    -0.070 Cl
ENDROOT
TORSDOF 0
ENDMDL
