MODEL 1
REMARK minimizedAffinity 1.72502744
REMARK minimizedRMSD -1
REMARK  0 active torsions:
REMARK  status: ('A' for Active; 'I' for Inactive)
ROOT
ATOM      1  C   UNL d   1       2.803  -1.061  -1.462  0.00  0.00     0.020 A 
ATOM      2  C1  UNL d   1       2.133  -2.260  -1.219  0.00  0.00     0.020 A 
ATOM      3  C2  UNL d   1       0.749  -2.260  -1.033  0.00  0.00     0.034 A 
ATOM      4  C3  UNL d   1       0.031  -1.060  -1.089  0.00  0.00     0.017 A 
ATOM      5  C4  UNL d   1       0.704   0.142  -1.333  0.00  0.00     0.017 A 
ATOM      6  C5  UNL d   1       2.090   0.137  -1.519  0.00  0.00     0.034 A 
ATOM      7 Cl   UNL d   1      -0.114   1.662  -1.417  0.00  0.00    -0.070 Cl
ATOM      8 Cl1  UNL d   1      -1.679  -1.135  -0.850  0.00  0.00    -0.070 Cl
ENDROOT
TORSDOF 0
ENDMDL
