MODEL 1
REMARK minimizedAffinity 5.7541399
REMARK minimizedRMSD -1
REMARK  0 active torsions:
REMARK  status: ('A' for Active; 'I' for Inactive)
ROOT
ATOM      1  C   UNL d   1       2.439   0.850  -2.331  0.00  0.00     0.020 A 
ATOM      2  C1  UNL d   1       3.430  -0.040  -1.919  0.00  0.00     0.020 A 
ATOM      3  C2  UNL d   1       3.090  -1.160  -1.157  0.00  0.00     0.034 A 
ATOM      4  C3  UNL d   1       1.755  -1.392  -0.805  0.00  0.00     0.017 A 
ATOM      5  C4  UNL d   1       0.761  -0.498  -1.220  0.00  0.00     0.017 A 
ATOM      6  C5  UNL d   1       1.108   0.621  -1.982  0.00  0.00     0.034 A 
ATOM      7 Cl   UNL d   1      -0.907  -0.719  -0.824  0.00  0.00    -0.070 Cl
ATOM      8 Cl1  UNL d   1       1.406  -2.797   0.139  0.00  0.00    -0.070 Cl
ENDROOT
TORSDOF 0
ENDMDL
