MODEL 1
REMARK minimizedAffinity 11.6387978
REMARK minimizedRMSD -1
REMARK  0 active torsions:
REMARK  status: ('A' for Active; 'I' for Inactive)
ROOT
ATOM      1  C   UNL d   1       0.883   1.625  -2.359  0.00  0.00     0.020 A 
ATOM      2  C1  UNL d   1       2.136   1.214  -1.905  0.00  0.00     0.020 A 
ATOM      3  C2  UNL d   1       2.472   1.359  -0.558  0.00  0.00     0.034 A 
ATOM      4  C3  UNL d   1       1.555   1.916   0.341  0.00  0.00     0.017 A 
ATOM      5  C4  UNL d   1       0.298   2.329  -0.116  0.00  0.00     0.017 A 
ATOM      6  C5  UNL d   1      -0.034   2.181  -1.466  0.00  0.00     0.034 A 
ATOM      7 Cl   UNL d   1      -0.887   3.025   0.933  0.00  0.00    -0.070 Cl
ATOM      8 Cl1  UNL d   1       2.038   2.065   1.993  0.00  0.00    -0.070 Cl
ENDROOT
TORSDOF 0
ENDMDL
