MODEL 1
REMARK minimizedAffinity 2.83530927
REMARK minimizedRMSD -1
REMARK  0 active torsions:
REMARK  status: ('A' for Active; 'I' for Inactive)
ROOT
ATOM      1  C   UNL d   1       2.426  -3.057  -0.001  0.00  0.00     0.020 A 
ATOM      2  C1  UNL d   1       3.384  -2.090  -0.307  0.00  0.00     0.020 A 
ATOM      3  C2  UNL d   1       3.056  -1.024  -1.148  0.00  0.00     0.034 A 
ATOM      4  C3  UNL d   1       1.768  -0.922  -1.686  0.00  0.00     0.017 A 
ATOM      5  C4  UNL d   1       0.808  -1.893  -1.378  0.00  0.00     0.017 A 
ATOM      6  C5  UNL d   1       1.141  -2.958  -0.536  0.00  0.00     0.034 A 
ATOM      7 Cl   UNL d   1      -0.802  -1.834  -2.004  0.00  0.00    -0.070 Cl
ATOM      8 Cl1  UNL d   1       1.433   0.422  -2.717  0.00  0.00    -0.070 Cl
ENDROOT
TORSDOF 0
ENDMDL
