MODEL 1
REMARK minimizedAffinity 2.24505591
REMARK minimizedRMSD -1
REMARK  0 active torsions:
REMARK  status: ('A' for Active; 'I' for Inactive)
ROOT
ATOM      1  C   UNL d   1       2.592  -0.037  -1.486  0.00  0.00     0.020 A 
ATOM      2  C1  UNL d   1       3.394  -0.753  -0.598  0.00  0.00     0.020 A 
ATOM      3  C2  UNL d   1       2.914  -1.929  -0.016  0.00  0.00     0.034 A 
ATOM      4  C3  UNL d   1       1.629  -2.392  -0.322  0.00  0.00     0.017 A 
ATOM      5  C4  UNL d   1       0.825  -1.672  -1.213  0.00  0.00     0.017 A 
ATOM      6  C5  UNL d   1       1.310  -0.496  -1.793  0.00  0.00     0.034 A 
ATOM      7 Cl   UNL d   1      -0.771  -2.181  -1.639  0.00  0.00    -0.070 Cl
ATOM      8 Cl1  UNL d   1       1.101  -3.853   0.434  0.00  0.00    -0.070 Cl
ENDROOT
TORSDOF 0
ENDMDL
