MODEL 1
REMARK minimizedAffinity 5.77991915
REMARK minimizedRMSD -1
REMARK  0 active torsions:
REMARK  status: ('A' for Active; 'I' for Inactive)
ROOT
ATOM      1  C   UNL d   1       3.182   0.236  -2.385  0.00  0.00     0.020 A 
ATOM      2  C1  UNL d   1       2.513   1.451  -2.240  0.00  0.00     0.020 A 
ATOM      3  C2  UNL d   1       1.315   1.507  -1.525  0.00  0.00     0.034 A 
ATOM      4  C3  UNL d   1       0.782   0.346  -0.952  0.00  0.00     0.017 A 
ATOM      5  C4  UNL d   1       1.455  -0.873  -1.098  0.00  0.00     0.017 A 
ATOM      6  C5  UNL d   1       2.654  -0.923  -1.815  0.00  0.00     0.034 A 
ATOM      7 Cl   UNL d   1       0.859  -2.347  -0.419  0.00  0.00    -0.070 Cl
ATOM      8 Cl1  UNL d   1      -0.703   0.489  -0.081  0.00  0.00    -0.070 Cl
ENDROOT
TORSDOF 0
ENDMDL
