MODEL 1
REMARK minimizedAffinity 13.4037056
REMARK minimizedRMSD -1
REMARK  0 active torsions:
REMARK  status: ('A' for Active; 'I' for Inactive)
ROOT
ATOM      1  C   UNL d   1       1.595  -1.256  -1.463  0.00  0.00     0.020 A 
ATOM      2  C1  UNL d   1       2.497  -0.740  -2.392  0.00  0.00     0.020 A 
ATOM      3  C2  UNL d   1       2.325   0.554  -2.889  0.00  0.00     0.034 A 
ATOM      4  C3  UNL d   1       1.247   1.336  -2.457  0.00  0.00     0.017 A 
ATOM      5  C4  UNL d   1       0.342   0.816  -1.525  0.00  0.00     0.017 A 
ATOM      6  C5  UNL d   1       0.519  -0.480  -1.031  0.00  0.00     0.034 A 
ATOM      7 Cl   UNL d   1      -1.012   1.721  -0.945  0.00  0.00    -0.070 Cl
ATOM      8 Cl1  UNL d   1       1.095   2.927  -3.113  0.00  0.00    -0.070 Cl
ENDROOT
TORSDOF 0
ENDMDL
