MODEL 1
REMARK minimizedAffinity -0.824937463
REMARK minimizedRMSD -1
REMARK  0 active torsions:
REMARK  status: ('A' for Active; 'I' for Inactive)
ROOT
ATOM      1  C   UNL d   1       2.448  -2.164  -0.054  0.00  0.00     0.020 A 
ATOM      2  C1  UNL d   1       3.500  -1.577  -0.756  0.00  0.00     0.020 A 
ATOM      3  C2  UNL d   1       3.258  -0.487  -1.594  0.00  0.00     0.034 A 
ATOM      4  C3  UNL d   1       1.961   0.021  -1.732  0.00  0.00     0.017 A 
ATOM      5  C4  UNL d   1       0.905  -0.569  -1.027  0.00  0.00     0.017 A 
ATOM      6  C5  UNL d   1       1.153  -1.661  -0.189  0.00  0.00     0.034 A 
ATOM      7 Cl   UNL d   1      -0.722   0.001  -1.146  0.00  0.00    -0.070 Cl
ATOM      8 Cl1  UNL d   1       1.734   1.372  -2.784  0.00  0.00    -0.070 Cl
ENDROOT
TORSDOF 0
ENDMDL
