MODEL 1
REMARK minimizedAffinity 6.25546122
REMARK minimizedRMSD -1
REMARK  0 active torsions:
REMARK  status: ('A' for Active; 'I' for Inactive)
ROOT
ATOM      1  C   UNL d   1       1.576   1.128  -1.535  0.00  0.00     0.020 A 
ATOM      2  C1  UNL d   1       0.204   1.306  -1.713  0.00  0.00     0.020 A 
ATOM      3  C2  UNL d   1      -0.567   1.857  -0.688  0.00  0.00     0.034 A 
ATOM      4  C3  UNL d   1       0.031   2.232   0.520  0.00  0.00     0.017 A 
ATOM      5  C4  UNL d   1       1.408   2.053   0.698  0.00  0.00     0.017 A 
ATOM      6  C5  UNL d   1       2.176   1.501  -0.331  0.00  0.00     0.034 A 
ATOM      7 Cl   UNL d   1       2.218   2.492   2.161  0.00  0.00    -0.070 Cl
ATOM      8 Cl1  UNL d   1      -0.984   2.908   1.744  0.00  0.00    -0.070 Cl
ENDROOT
TORSDOF 0
ENDMDL
