MODEL 1
REMARK minimizedAffinity 19.0126419
REMARK minimizedRMSD -1
REMARK  3 active torsions:
REMARK  status: ('A' for Active; 'I' for Inactive)
REMARK    1  A    between atoms: C3'_2  and  C2'_3 
REMARK    2  A    between atoms: C2'_3  and  C1'_4 
REMARK    3  A    between atoms: C1'_4  and  C1_5 
ROOT
ATOM      1  C1  N4B d   1       0.938  -1.528   3.835  0.00  0.00    -0.075 A 
ATOM      2  C2  N4B d   1      -0.411  -1.466   3.419  0.00  0.00     0.002 A 
ATOM      3  C3  N4B d   1      -0.853  -0.395   2.682  0.00  0.00     0.002 A 
ATOM      4  C4  N4B d   1       0.026   0.630   2.366  0.00  0.00    -0.004 A 
ATOM      5  C5  N4B d   1       1.333   0.550   2.749  0.00  0.00     0.002 A 
ATOM      6  C6  N4B d   1       1.792  -0.523   3.487  0.00  0.00     0.002 A 
ENDROOT
BRANCH   1   7
ATOM      7  C1' N4B d   1       1.447  -2.637   4.715  0.00  0.00     0.057 C 
BRANCH   7   8
ATOM      8  C2' N4B d   1       2.959  -2.503   4.865  0.00  0.00     0.009 C 
BRANCH   8   9
ATOM      9  C3' N4B d   1       3.496  -3.358   6.000  0.00  0.00     0.004 C 
ATOM     10  C4' N4B d   1       4.896  -3.836   5.755  0.00  0.00     0.003 C 
ENDBRANCH   8   9
ENDBRANCH   7   8
ENDBRANCH   1   7
TORSDOF 3
ENDMDL
