MODEL 1
REMARK minimizedAffinity 15.5256996
REMARK minimizedRMSD -1
REMARK  3 active torsions:
REMARK  status: ('A' for Active; 'I' for Inactive)
REMARK    1  A    between atoms: C3'_2  and  C2'_3 
REMARK    2  A    between atoms: C2'_3  and  C1'_4 
REMARK    3  A    between atoms: C1'_4  and  C1_5 
ROOT
ATOM      1  C1  N4B d   1       0.174  -3.693  -5.867  0.00  0.00    -0.075 A 
ATOM      2  C2  N4B d   1       0.604  -4.999  -5.544  0.00  0.00     0.002 A 
ATOM      3  C3  N4B d   1      -0.319  -5.998  -5.354  0.00  0.00     0.002 A 
ATOM      4  C4  N4B d   1      -1.672  -5.713  -5.464  0.00  0.00    -0.004 A 
ATOM      5  C5  N4B d   1      -2.078  -4.455  -5.802  0.00  0.00     0.002 A 
ATOM      6  C6  N4B d   1      -1.161  -3.442  -5.999  0.00  0.00     0.002 A 
ENDROOT
BRANCH   1   7
ATOM      7  C1' N4B d   1       1.140  -2.548  -5.999  0.00  0.00     0.057 C 
BRANCH   7   8
ATOM      8  C2' N4B d   1       0.472  -1.269  -5.505  0.00  0.00     0.009 C 
BRANCH   8   9
ATOM      9  C3' N4B d   1       1.232  -0.641  -4.349  0.00  0.00     0.004 C 
ATOM     10  C4' N4B d   1       2.720  -0.719  -4.521  0.00  0.00     0.003 C 
ENDBRANCH   8   9
ENDBRANCH   7   8
ENDBRANCH   1   7
TORSDOF 3
ENDMDL
