MODEL 1
REMARK minimizedAffinity 9.37439919
REMARK minimizedRMSD -1
REMARK  3 active torsions:
REMARK  status: ('A' for Active; 'I' for Inactive)
REMARK    1  A    between atoms: C3'_2  and  C2'_3 
REMARK    2  A    between atoms: C2'_3  and  C1'_4 
REMARK    3  A    between atoms: C1'_4  and  C1_5 
ROOT
ATOM      1  C1  N4B d   1       2.982   1.489   5.192  0.00  0.00    -0.075 A 
ATOM      2  C2  N4B d   1       4.296   1.288   4.715  0.00  0.00     0.002 A 
ATOM      3  C3  N4B d   1       5.185   2.335   4.690  0.00  0.00     0.002 A 
ATOM      4  C4  N4B d   1       4.779   3.590   5.117  0.00  0.00    -0.004 A 
ATOM      5  C5  N4B d   1       3.516   3.770   5.600  0.00  0.00     0.002 A 
ATOM      6  C6  N4B d   1       2.613   2.726   5.635  0.00  0.00     0.002 A 
ENDROOT
BRANCH   1   7
ATOM      7  C1' N4B d   1       1.949   0.396   5.158  0.00  0.00     0.057 C 
BRANCH   7   8
ATOM      8  C2' N4B d   1       0.818   0.805   4.218  0.00  0.00     0.009 C 
BRANCH   8   9
ATOM      9  C3' N4B d   1       0.643  -0.183   3.078  0.00  0.00     0.004 C 
ATOM     10  C4' N4B d   1      -0.358   0.277   2.060  0.00  0.00     0.003 C 
ENDBRANCH   8   9
ENDBRANCH   7   8
ENDBRANCH   1   7
TORSDOF 3
ENDMDL
