MODEL 1
REMARK minimizedAffinity -3.22837257
REMARK minimizedRMSD -1
REMARK  0 active torsions:
REMARK  status: ('A' for Active; 'I' for Inactive)
ROOT
ATOM      1  C   UNL d   1      -0.428   0.307   0.346  0.00  0.00     0.172 C 
ATOM      2  N   UNL d   1       0.737  -0.275  -0.279  0.00  0.00    -0.070 N 
ATOM      3  C1  UNL d   1       1.901   0.385  -0.569  0.00  0.00    -0.004 A 
ATOM      4  C2  UNL d   1       2.762  -0.516  -1.157  0.00  0.00    -0.047 A 
ATOM      5  C3  UNL d   1       2.092  -1.761  -1.224  0.00  0.00    -0.047 A 
ATOM      6  C4  UNL d   1       0.840  -1.583  -0.673  0.00  0.00    -0.004 A 
ENDROOT
TORSDOF 0
ENDMDL
