MODEL 1
REMARK minimizedAffinity -2.90525937
REMARK minimizedRMSD -1
REMARK  0 active torsions:
REMARK  status: ('A' for Active; 'I' for Inactive)
ROOT
ATOM      1  C   UNL d   1      -5.442  -3.216   3.414  0.00  0.00     0.172 C 
ATOM      2  N   UNL d   1      -4.494  -2.133   3.537  0.00  0.00    -0.070 N 
ATOM      3  C1  UNL d   1      -3.820  -1.787   4.678  0.00  0.00    -0.004 A 
ATOM      4  C2  UNL d   1      -3.016  -0.708   4.382  0.00  0.00    -0.047 A 
ATOM      5  C3  UNL d   1      -3.213  -0.394   3.016  0.00  0.00    -0.047 A 
ATOM      6  C4  UNL d   1      -4.133  -1.292   2.517  0.00  0.00    -0.004 A 
ENDROOT
TORSDOF 0
ENDMDL
