MODEL 1
REMARK minimizedAffinity -3.40256095
REMARK minimizedRMSD -1
REMARK  0 active torsions:
REMARK  status: ('A' for Active; 'I' for Inactive)
ROOT
ATOM      1  C   UNL d   1      -4.237  -1.577   2.582  0.00  0.00     0.172 C 
ATOM      2  N   UNL d   1      -3.330  -0.459   2.701  0.00  0.00    -0.070 N 
ATOM      3  C1  UNL d   1      -2.568   0.061   1.690  0.00  0.00    -0.004 A 
ATOM      4  C2  UNL d   1      -1.844   1.114   2.206  0.00  0.00    -0.047 A 
ATOM      5  C3  UNL d   1      -2.182   1.230   3.575  0.00  0.00    -0.047 A 
ATOM      6  C4  UNL d   1      -3.104   0.243   3.855  0.00  0.00    -0.004 A 
ENDROOT
TORSDOF 0
ENDMDL
