MODEL 1
REMARK minimizedAffinity -2.44110394
REMARK minimizedRMSD -1
REMARK  0 active torsions:
REMARK  status: ('A' for Active; 'I' for Inactive)
ROOT
ATOM      1  C   UNL d   1       0.280  -1.622  -0.196  0.00  0.00     0.172 C 
ATOM      2  N   UNL d   1       1.092  -0.621  -0.848  0.00  0.00    -0.070 N 
ATOM      3  C1  UNL d   1       2.254  -0.857  -1.533  0.00  0.00    -0.004 A 
ATOM      4  C2  UNL d   1       2.721   0.352  -2.001  0.00  0.00    -0.047 A 
ATOM      5  C3  UNL d   1       1.809   1.349  -1.583  0.00  0.00    -0.047 A 
ATOM      6  C4  UNL d   1       0.810   0.720  -0.870  0.00  0.00    -0.004 A 
ENDROOT
TORSDOF 0
ENDMDL
