MODEL 1
REMARK minimizedAffinity -2.30369163
REMARK minimizedRMSD -1
REMARK  0 active torsions:
REMARK  status: ('A' for Active; 'I' for Inactive)
ROOT
ATOM      1  C   UNL d   1      -1.106   0.331   0.250  0.00  0.00     0.172 C 
ATOM      2  N   UNL d   1      -1.606   0.380   1.604  0.00  0.00    -0.070 N 
ATOM      3  C1  UNL d   1      -1.384   1.390   2.500  0.00  0.00    -0.004 A 
ATOM      4  C2  UNL d   1      -2.027   1.062   3.674  0.00  0.00    -0.047 A 
ATOM      5  C3  UNL d   1      -2.657  -0.190   3.476  0.00  0.00    -0.047 A 
ATOM      6  C4  UNL d   1      -2.380  -0.589   2.186  0.00  0.00    -0.004 A 
ENDROOT
TORSDOF 0
ENDMDL
