MODEL 1
REMARK minimizedAffinity 5.68667746
REMARK minimizedRMSD -1
REMARK  0 active torsions:
REMARK  status: ('A' for Active; 'I' for Inactive)
ROOT
ATOM      1  C   UNL d   1      -2.171  -2.299  -1.185  0.00  0.00     0.172 C 
ATOM      2  N   UNL d   1      -0.762  -2.234  -1.494  0.00  0.00    -0.070 N 
ATOM      3  C1  UNL d   1       0.138  -1.365  -0.936  0.00  0.00    -0.004 A 
ATOM      4  C2  UNL d   1       1.372  -1.622  -1.492  0.00  0.00    -0.047 A 
ATOM      5  C3  UNL d   1       1.208  -2.680  -2.417  0.00  0.00    -0.047 A 
ATOM      6  C4  UNL d   1      -0.123  -3.040  -2.398  0.00  0.00    -0.004 A 
ENDROOT
TORSDOF 0
ENDMDL
