MODEL 1
REMARK minimizedAffinity -2.91636539
REMARK minimizedRMSD -1
REMARK  0 active torsions:
REMARK  status: ('A' for Active; 'I' for Inactive)
ROOT
ATOM      1  C   UNL d   1       5.381  -0.614   5.993  0.00  0.00     0.172 C 
ATOM      2  N   UNL d   1       5.110   0.784   5.755  0.00  0.00    -0.070 N 
ATOM      3  C1  UNL d   1       3.943   1.298   5.255  0.00  0.00    -0.004 A 
ATOM      4  C2  UNL d   1       4.083   2.667   5.180  0.00  0.00    -0.047 A 
ATOM      5  C3  UNL d   1       5.378   2.987   5.650  0.00  0.00    -0.047 A 
ATOM      6  C4  UNL d   1       5.993   1.803   6.000  0.00  0.00    -0.004 A 
ENDROOT
TORSDOF 0
ENDMDL
