MODEL 1
REMARK minimizedAffinity -3.35835838
REMARK minimizedRMSD -1
REMARK  0 active torsions:
REMARK  status: ('A' for Active; 'I' for Inactive)
ROOT
ATOM      1  C   UNL d   1       0.871  -1.702  -0.745  0.00  0.00     0.172 C 
ATOM      2  N   UNL d   1       0.915  -0.266  -0.592  0.00  0.00    -0.070 N 
ATOM      3  C1  UNL d   1       2.004   0.460  -0.191  0.00  0.00    -0.004 A 
ATOM      4  C2  UNL d   1       1.641   1.790  -0.172  0.00  0.00    -0.047 A 
ATOM      5  C3  UNL d   1       0.287   1.864  -0.575  0.00  0.00    -0.047 A 
ATOM      6  C4  UNL d   1      -0.138   0.577  -0.829  0.00  0.00    -0.004 A 
ENDROOT
TORSDOF 0
ENDMDL
