MODEL 1
REMARK minimizedAffinity -2.15500093
REMARK minimizedRMSD -1
REMARK  0 active torsions:
REMARK  status: ('A' for Active; 'I' for Inactive)
ROOT
ATOM      1  C   UNL d   1      -0.199   2.044  -0.082  0.00  0.00     0.172 C 
ATOM      2  N   UNL d   1       0.156   0.792  -0.707  0.00  0.00    -0.070 N 
ATOM      3  C1  UNL d   1       0.136  -0.437  -0.102  0.00  0.00    -0.004 A 
ATOM      4  C2  UNL d   1       0.541  -1.371  -1.031  0.00  0.00    -0.047 A 
ATOM      5  C3  UNL d   1       0.814  -0.681  -2.235  0.00  0.00    -0.047 A 
ATOM      6  C4  UNL d   1       0.568   0.657  -2.007  0.00  0.00    -0.004 A 
ENDROOT
TORSDOF 0
ENDMDL
