MODEL 1
REMARK minimizedAffinity 0.518454075
REMARK minimizedRMSD -1
REMARK  0 active torsions:
REMARK  status: ('A' for Active; 'I' for Inactive)
ROOT
ATOM      1  C   UNL d   1       2.378  -1.286  -0.993  0.00  0.00     0.172 C 
ATOM      2  N   UNL d   1       1.974  -0.167  -1.810  0.00  0.00    -0.070 N 
ATOM      3  C1  UNL d   1       1.051   0.783  -1.463  0.00  0.00    -0.004 A 
ATOM      4  C2  UNL d   1       0.949   1.675  -2.509  0.00  0.00    -0.047 A 
ATOM      5  C3  UNL d   1       1.841   1.245  -3.520  0.00  0.00    -0.047 A 
ATOM      6  C4  UNL d   1       2.462   0.103  -3.062  0.00  0.00    -0.004 A 
ENDROOT
TORSDOF 0
ENDMDL
