MODEL 1
REMARK minimizedAffinity -3.9433856
REMARK minimizedRMSD -1
REMARK  0 active torsions:
REMARK  status: ('A' for Active; 'I' for Inactive)
ROOT
ATOM      1  C   UNL d   1      -0.762   0.312  -0.323  0.00  0.00     0.172 C 
ATOM      2  N   UNL d   1       0.550   0.578  -0.866  0.00  0.00    -0.070 N 
ATOM      3  C1  UNL d   1       1.726   0.047  -0.408  0.00  0.00    -0.004 A 
ATOM      4  C2  UNL d   1       2.746   0.544  -1.190  0.00  0.00    -0.047 A 
ATOM      5  C3  UNL d   1       2.163   1.404  -2.150  0.00  0.00    -0.047 A 
ATOM      6  C4  UNL d   1       0.802   1.406  -1.927  0.00  0.00    -0.004 A 
ENDROOT
TORSDOF 0
ENDMDL
