MODEL 1
REMARK minimizedAffinity -0.219719723
REMARK minimizedRMSD -1
REMARK  0 active torsions:
REMARK  status: ('A' for Active; 'I' for Inactive)
ROOT
ATOM      1  C   UNL d   1      -3.619   1.295   4.059  0.00  0.00     0.172 C 
ATOM      2  N   UNL d   1      -3.034   1.717   2.808  0.00  0.00    -0.070 N 
ATOM      3  C1  UNL d   1      -2.108   2.713   2.656  0.00  0.00    -0.004 A 
ATOM      4  C2  UNL d   1      -1.805   2.807   1.315  0.00  0.00    -0.047 A 
ATOM      5  C3  UNL d   1      -2.576   1.833   0.637  0.00  0.00    -0.047 A 
ATOM      6  C4  UNL d   1      -3.328   1.172   1.586  0.00  0.00    -0.004 A 
ENDROOT
TORSDOF 0
ENDMDL
