MODEL 1
REMARK minimizedAffinity -1.43046749
REMARK minimizedRMSD -1
REMARK  0 active torsions:
REMARK  status: ('A' for Active; 'I' for Inactive)
ROOT
ATOM      1  C   UNL d   1      -2.419  -0.154   2.414  0.00  0.00     0.172 C 
ATOM      2  N   UNL d   1      -1.306  -0.087   1.496  0.00  0.00    -0.070 N 
ATOM      3  C1  UNL d   1       0.008   0.080   1.845  0.00  0.00    -0.004 A 
ATOM      4  C2  UNL d   1       0.754   0.092   0.686  0.00  0.00    -0.047 A 
ATOM      5  C3  UNL d   1      -0.142  -0.072  -0.396  0.00  0.00    -0.047 A 
ATOM      6  C4  UNL d   1      -1.411  -0.180   0.133  0.00  0.00    -0.004 A 
ENDROOT
TORSDOF 0
ENDMDL
