MODEL 1
REMARK minimizedAffinity -2.58795834
REMARK minimizedRMSD -1
REMARK  0 active torsions:
REMARK  status: ('A' for Active; 'I' for Inactive)
ROOT
ATOM      1  C   UNL d   1       2.992  -0.177  -1.500  0.00  0.00     0.172 C 
ATOM      2  N   UNL d   1       1.639  -0.229  -0.998  0.00  0.00    -0.070 N 
ATOM      3  C1  UNL d   1       0.964  -1.366  -0.640  0.00  0.00    -0.004 A 
ATOM      4  C2  UNL d   1      -0.293  -0.994  -0.214  0.00  0.00    -0.047 A 
ATOM      5  C3  UNL d   1      -0.377   0.415  -0.320  0.00  0.00    -0.047 A 
ATOM      6  C4  UNL d   1       0.833   0.862  -0.808  0.00  0.00    -0.004 A 
ENDROOT
TORSDOF 0
ENDMDL
