MODEL 1
REMARK minimizedAffinity -1.38526428
REMARK minimizedRMSD -1
REMARK  0 active torsions:
REMARK  status: ('A' for Active; 'I' for Inactive)
ROOT
ATOM      1  C   UNL d   1      -0.792   0.266   0.420  0.00  0.00     0.172 C 
ATOM      2  N   UNL d   1       0.137  -0.569  -0.305  0.00  0.00    -0.070 N 
ATOM      3  C1  UNL d   1       0.035  -1.925  -0.463  0.00  0.00    -0.004 A 
ATOM      4  C2  UNL d   1       1.112  -2.344  -1.214  0.00  0.00    -0.047 A 
ATOM      5  C3  UNL d   1       1.888  -1.200  -1.516  0.00  0.00    -0.047 A 
ATOM      6  C4  UNL d   1       1.262  -0.115  -0.941  0.00  0.00    -0.004 A 
ENDROOT
TORSDOF 0
ENDMDL
