MODEL 1
REMARK minimizedAffinity -1.53948259
REMARK minimizedRMSD -1
REMARK  0 active torsions:
REMARK  status: ('A' for Active; 'I' for Inactive)
ROOT
ATOM      1  C   UNL d   1      -0.758   0.198   0.105  0.00  0.00     0.172 C 
ATOM      2  N   UNL d   1       0.385  -0.514  -0.416  0.00  0.00    -0.070 N 
ATOM      3  C1  UNL d   1       0.456  -1.866  -0.626  0.00  0.00    -0.004 A 
ATOM      4  C2  UNL d   1       1.707  -2.150  -1.130  0.00  0.00    -0.047 A 
ATOM      5  C3  UNL d   1       2.413  -0.927  -1.225  0.00  0.00    -0.047 A 
ATOM      6  C4  UNL d   1       1.571   0.069  -0.777  0.00  0.00    -0.004 A 
ENDROOT
TORSDOF 0
ENDMDL
