MODEL 1
REMARK minimizedAffinity -3.38491154
REMARK minimizedRMSD -1
REMARK  0 active torsions:
REMARK  status: ('A' for Active; 'I' for Inactive)
ROOT
ATOM      1  C   UNL d   1      -1.297   0.615   0.084  0.00  0.00     0.172 C 
ATOM      2  N   UNL d   1      -0.000   0.311  -0.475  0.00  0.00    -0.070 N 
ATOM      3  C1  UNL d   1       0.733  -0.818  -0.224  0.00  0.00    -0.004 A 
ATOM      4  C2  UNL d   1       1.904  -0.729  -0.945  0.00  0.00    -0.047 A 
ATOM      5  C3  UNL d   1       1.874   0.495  -1.654  0.00  0.00    -0.047 A 
ATOM      6  C4  UNL d   1       0.684   1.119  -1.345  0.00  0.00    -0.004 A 
ENDROOT
TORSDOF 0
ENDMDL
