MODEL 1
REMARK minimizedAffinity -0.852000654
REMARK minimizedRMSD -1
REMARK  0 active torsions:
REMARK  status: ('A' for Active; 'I' for Inactive)
ROOT
ATOM      1  C   UNL d   1       2.007   1.366  -2.302  0.00  0.00     0.172 C 
ATOM      2  N   UNL d   1       1.869   0.037  -1.755  0.00  0.00    -0.070 N 
ATOM      3  C1  UNL d   1       2.839  -0.653  -1.078  0.00  0.00    -0.004 A 
ATOM      4  C2  UNL d   1       2.316  -1.877  -0.723  0.00  0.00    -0.047 A 
ATOM      5  C3  UNL d   1       0.986  -1.926  -1.205  0.00  0.00    -0.047 A 
ATOM      6  C4  UNL d   1       0.736  -0.728  -1.840  0.00  0.00    -0.004 A 
ENDROOT
TORSDOF 0
ENDMDL
