MODEL 1
REMARK minimizedAffinity -2.04467177
REMARK minimizedRMSD -1
REMARK  1 active torsions:
REMARK  status: ('A' for Active; 'I' for Inactive)
REMARK    1  A    between atoms: N_2  and  C1_3 
ROOT
ATOM      1  C1  UNL d   1      -5.006  -5.275  -3.989  0.00  0.00     0.143 A 
ATOM      2  C2  UNL d   1      -5.953  -4.455  -3.366  0.00  0.00    -0.057 A 
ATOM      3  C3  UNL d   1      -5.999  -4.326  -1.973  0.00  0.00     0.033 A 
ATOM      4  C4  UNL d   1      -5.112  -5.040  -1.173  0.00  0.00    -0.042 A 
ATOM      5  C5  UNL d   1      -4.178  -5.880  -1.769  0.00  0.00     0.033 A 
ATOM      6  C6  UNL d   1      -4.133  -5.999  -3.161  0.00  0.00    -0.057 A 
ENDROOT
BRANCH   1   7
ATOM      7  N   UNL d   1      -4.973  -5.521  -5.364  0.00  0.00    -0.732 N 
ATOM      8  C   UNL d   1      -3.761  -5.991  -6.000  0.00  0.00     0.284 C 
ATOM      9  H3  UNL d   1      -5.821  -5.975  -5.697  0.00  0.00     0.395 HD
ENDBRANCH   1   7
TORSDOF 1
ENDMDL
