MODEL 1
REMARK minimizedAffinity 0.446007907
REMARK minimizedRMSD -1
REMARK  1 active torsions:
REMARK  status: ('A' for Active; 'I' for Inactive)
REMARK    1  A    between atoms: N_2  and  C1_3 
ROOT
ATOM      1  C1  UNL d   1       4.054  -1.954  -3.687  0.00  0.00     0.143 A 
ATOM      2  C2  UNL d   1       5.423  -1.980  -3.974  0.00  0.00    -0.057 A 
ATOM      3  C3  UNL d   1       5.999  -1.055  -4.854  0.00  0.00     0.033 A 
ATOM      4  C4  UNL d   1       5.206  -0.104  -5.488  0.00  0.00    -0.042 A 
ATOM      5  C5  UNL d   1       3.839  -0.076  -5.238  0.00  0.00     0.033 A 
ATOM      6  C6  UNL d   1       3.272  -0.997  -4.353  0.00  0.00    -0.057 A 
ENDROOT
BRANCH   1   7
ATOM      7  N   UNL d   1       3.407  -2.907  -2.898  0.00  0.00    -0.732 N 
ATOM      8  C   UNL d   1       1.962  -2.990  -2.877  0.00  0.00     0.284 C 
ATOM      9  H3  UNL d   1       3.874  -3.811  -2.918  0.00  0.00     0.395 HD
ENDBRANCH   1   7
TORSDOF 1
ENDMDL
