MODEL 1
REMARK minimizedAffinity 0.916074455
REMARK minimizedRMSD -1
REMARK  1 active torsions:
REMARK  status: ('A' for Active; 'I' for Inactive)
REMARK    1  A    between atoms: N_2  and  C1_3 
ROOT
ATOM      1  C1  UNL d   1       1.244   2.841   0.276  0.00  0.00     0.143 A 
ATOM      2  C2  UNL d   1       1.657   3.951  -0.469  0.00  0.00    -0.057 A 
ATOM      3  C3  UNL d   1       0.775   4.619  -1.327  0.00  0.00     0.033 A 
ATOM      4  C4  UNL d   1      -0.533   4.168  -1.478  0.00  0.00    -0.042 A 
ATOM      5  C5  UNL d   1      -0.958   3.052  -0.766  0.00  0.00     0.033 A 
ATOM      6  C6  UNL d   1      -0.074   2.394   0.094  0.00  0.00    -0.057 A 
ENDROOT
BRANCH   1   7
ATOM      7  N   UNL d   1       2.101   2.075   1.070  0.00  0.00    -0.732 N 
ATOM      8  C   UNL d   1       2.279   0.662   0.813  0.00  0.00     0.284 C 
ATOM      9  H3  UNL d   1       2.961   2.568   1.301  0.00  0.00     0.395 HD
ENDBRANCH   1   7
TORSDOF 1
ENDMDL
