MODEL 1
REMARK minimizedAffinity -0.399519444
REMARK minimizedRMSD -1
REMARK  1 active torsions:
REMARK  status: ('A' for Active; 'I' for Inactive)
REMARK    1  A    between atoms: N_2  and  C1_3 
ROOT
ATOM      1  C1  UNL d   1      -5.106  -5.319  -3.572  0.00  0.00     0.143 A 
ATOM      2  C2  UNL d   1      -5.032  -5.995  -4.795  0.00  0.00    -0.057 A 
ATOM      3  C3  UNL d   1      -5.339  -5.351  -6.000  0.00  0.00     0.033 A 
ATOM      4  C4  UNL d   1      -5.756  -4.023  -6.000  0.00  0.00    -0.042 A 
ATOM      5  C5  UNL d   1      -5.860  -3.340  -4.793  0.00  0.00     0.033 A 
ATOM      6  C6  UNL d   1      -5.546  -3.986  -3.594  0.00  0.00    -0.057 A 
ENDROOT
BRANCH   1   7
ATOM      7  N   UNL d   1      -4.909  -5.932  -2.332  0.00  0.00    -0.732 N 
ATOM      8  C   UNL d   1      -5.967  -5.956  -1.345  0.00  0.00     0.284 C 
ATOM      9  H3  UNL d   1      -4.392  -6.805  -2.408  0.00  0.00     0.395 HD
ENDBRANCH   1   7
TORSDOF 1
ENDMDL
