MODEL 1
REMARK minimizedAffinity -2.14076257
REMARK minimizedRMSD -1
REMARK  1 active torsions:
REMARK  status: ('A' for Active; 'I' for Inactive)
REMARK    1  A    between atoms: N_2  and  C1_3 
ROOT
ATOM      1  C1  UNL d   1      -4.938  -4.713  -3.158  0.00  0.00     0.143 A 
ATOM      2  C2  UNL d   1      -5.452  -3.578  -3.795  0.00  0.00    -0.057 A 
ATOM      3  C3  UNL d   1      -5.988  -3.650  -5.086  0.00  0.00     0.033 A 
ATOM      4  C4  UNL d   1      -5.992  -4.858  -5.778  0.00  0.00    -0.042 A 
ATOM      5  C5  UNL d   1      -5.464  -5.993  -5.174  0.00  0.00     0.033 A 
ATOM      6  C6  UNL d   1      -4.936  -5.916  -3.882  0.00  0.00    -0.057 A 
ENDROOT
BRANCH   1   7
ATOM      7  N   UNL d   1      -4.302  -4.687  -1.915  0.00  0.00    -0.732 N 
ATOM      8  C   UNL d   1      -3.362  -5.723  -1.545  0.00  0.00     0.284 C 
ATOM      9  H3  UNL d   1      -4.014  -3.749  -1.646  0.00  0.00     0.395 HD
ENDBRANCH   1   7
TORSDOF 1
ENDMDL
