MODEL 1
REMARK minimizedAffinity -4.06078386
REMARK minimizedRMSD -1
REMARK  0 active torsions:
REMARK  status: ('A' for Active; 'I' for Inactive)
ROOT
ATOM      1  C   UNL d   1       1.389  -0.796   0.870  0.00  0.00     0.124 A 
ATOM      2  C1  UNL d   1       0.854  -1.267   2.062  0.00  0.00     0.062 A 
ATOM      3  C2  UNL d   1      -0.525  -1.302   2.244  0.00  0.00     0.162 A 
ATOM      4  C3  UNL d   1      -1.381  -0.867   1.232  0.00  0.00    -0.034 A 
ATOM      5  C4  UNL d   1      -0.836  -0.395   0.037  0.00  0.00     0.162 A 
ATOM      6  C5  UNL d   1       0.544  -0.361  -0.141  0.00  0.00     0.062 A 
ATOM      7  F   UNL d   1       1.058   0.094  -1.292  0.00  0.00    -0.097 F 
ATOM      8  F1  UNL d   1      -1.629   0.032  -0.957  0.00  0.00    -0.096 F 
ATOM      9  I   UNL d   1      -3.444  -0.919   1.501  0.00  0.00    -0.060 I 
ATOM     10  F2  UNL d   1      -1.014  -1.762   3.406  0.00  0.00    -0.096 F 
ATOM     11  F3  UNL d   1       1.668  -1.687   3.041  0.00  0.00    -0.097 F 
ATOM     12  F4  UNL d   1       2.716  -0.762   0.698  0.00  0.00    -0.092 F 
ENDROOT
TORSDOF 0
ENDMDL
