MODEL 1
REMARK minimizedAffinity -2.29474497
REMARK minimizedRMSD -1
REMARK  0 active torsions:
REMARK  status: ('A' for Active; 'I' for Inactive)
ROOT
ATOM      1  C   UNL d   1       1.513  -1.294   2.051  0.00  0.00     0.124 A 
ATOM      2  C1  UNL d   1       0.283  -0.658   2.144  0.00  0.00     0.062 A 
ATOM      3  C2  UNL d   1      -0.343  -0.173   0.999  0.00  0.00     0.162 A 
ATOM      4  C3  UNL d   1       0.260  -0.323  -0.250  0.00  0.00    -0.034 A 
ATOM      5  C4  UNL d   1       1.498  -0.963  -0.335  0.00  0.00     0.162 A 
ATOM      6  C5  UNL d   1       2.120  -1.445   0.812  0.00  0.00     0.062 A 
ATOM      7  F   UNL d   1       3.308  -2.059   0.720  0.00  0.00    -0.097 F 
ATOM      8  F1  UNL d   1       2.106  -1.124  -1.520  0.00  0.00    -0.096 F 
ATOM      9  I   UNL d   1      -0.673   0.400  -1.964  0.00  0.00    -0.060 I 
ATOM     10  F2  UNL d   1      -1.532   0.436   1.119  0.00  0.00    -0.096 F 
ATOM     11  F3  UNL d   1      -0.304  -0.510   3.340  0.00  0.00    -0.097 F 
ATOM     12  F4  UNL d   1       2.114  -1.758   3.154  0.00  0.00    -0.092 F 
ENDROOT
TORSDOF 0
ENDMDL
