MODEL 1
REMARK minimizedAffinity -2.38154769
REMARK minimizedRMSD -1
REMARK  0 active torsions:
REMARK  status: ('A' for Active; 'I' for Inactive)
ROOT
ATOM      1  C   UNL d   1       2.014  -1.546   0.451  0.00  0.00     0.124 A 
ATOM      2  C1  UNL d   1       1.059  -1.088  -0.446  0.00  0.00     0.062 A 
ATOM      3  C2  UNL d   1      -0.123  -0.521   0.020  0.00  0.00     0.162 A 
ATOM      4  C3  UNL d   1      -0.358  -0.408   1.390  0.00  0.00    -0.034 A 
ATOM      5  C4  UNL d   1       0.607  -0.871   2.286  0.00  0.00     0.162 A 
ATOM      6  C5  UNL d   1       1.788  -1.437   1.815  0.00  0.00     0.062 A 
ATOM      7  F   UNL d   1       2.709  -1.879   2.683  0.00  0.00    -0.097 F 
ATOM      8  F1  UNL d   1       0.414  -0.778   3.610  0.00  0.00    -0.096 F 
ATOM      9  I   UNL d   1      -2.125   0.440   2.091  0.00  0.00    -0.060 I 
ATOM     10  F2  UNL d   1      -1.029  -0.087  -0.870  0.00  0.00    -0.096 F 
ATOM     11  F3  UNL d   1       1.276  -1.192  -1.765  0.00  0.00    -0.097 F 
ATOM     12  F4  UNL d   1       3.151  -2.092  -0.000  0.00  0.00    -0.092 F 
ENDROOT
TORSDOF 0
ENDMDL
