MODEL 1
REMARK minimizedAffinity -3.09881592
REMARK minimizedRMSD -1
REMARK  0 active torsions:
REMARK  status: ('A' for Active; 'I' for Inactive)
ROOT
ATOM      1  C   UNL d   1      -0.694  -0.482   2.506  0.00  0.00     0.124 A 
ATOM      2  C1  UNL d   1       0.538  -0.748   1.925  0.00  0.00     0.062 A 
ATOM      3  C2  UNL d   1       0.731  -0.536   0.563  0.00  0.00     0.162 A 
ATOM      4  C3  UNL d   1      -0.312  -0.055  -0.228  0.00  0.00    -0.034 A 
ATOM      5  C4  UNL d   1      -1.549   0.209   0.362  0.00  0.00     0.162 A 
ATOM      6  C5  UNL d   1      -1.736  -0.004   1.724  0.00  0.00     0.062 A 
ATOM      7  F   UNL d   1      -2.928   0.254   2.283  0.00  0.00    -0.097 F 
ATOM      8  F1  UNL d   1      -2.573   0.672  -0.370  0.00  0.00    -0.096 F 
ATOM      9  I   UNL d   1      -0.029   0.262  -2.266  0.00  0.00    -0.060 I 
ATOM     10  F2  UNL d   1       1.932  -0.802   0.029  0.00  0.00    -0.096 F 
ATOM     11  F3  UNL d   1       1.547  -1.210   2.679  0.00  0.00    -0.097 F 
ATOM     12  F4  UNL d   1      -0.877  -0.687   3.817  0.00  0.00    -0.092 F 
ENDROOT
TORSDOF 0
ENDMDL
