MODEL 1
REMARK minimizedAffinity -0.585457802
REMARK minimizedRMSD -1
REMARK  0 active torsions:
REMARK  status: ('A' for Active; 'I' for Inactive)
ROOT
ATOM      1  C   UNL d   1      -0.828  -0.730   2.033  0.00  0.00     0.124 A 
ATOM      2  C1  UNL d   1      -1.660  -0.082   1.131  0.00  0.00     0.062 A 
ATOM      3  C2  UNL d   1      -1.196   0.247  -0.139  0.00  0.00     0.162 A 
ATOM      4  C3  UNL d   1       0.109  -0.073  -0.516  0.00  0.00    -0.034 A 
ATOM      5  C4  UNL d   1       0.941  -0.724   0.397  0.00  0.00     0.162 A 
ATOM      6  C5  UNL d   1       0.471  -1.051   1.665  0.00  0.00     0.062 A 
ATOM      7  F   UNL d   1       1.277  -1.677   2.535  0.00  0.00    -0.097 F 
ATOM      8  F1  UNL d   1       2.200  -1.046   0.068  0.00  0.00    -0.096 F 
ATOM      9  I   UNL d   1       0.808   0.417  -2.414  0.00  0.00    -0.060 I 
ATOM     10  F2  UNL d   1      -2.022   0.873  -0.990  0.00  0.00    -0.096 F 
ATOM     11  F3  UNL d   1      -2.916   0.230   1.484  0.00  0.00    -0.097 F 
ATOM     12  F4  UNL d   1      -1.277  -1.044   3.255  0.00  0.00    -0.092 F 
ENDROOT
TORSDOF 0
ENDMDL
