MODEL 1
REMARK minimizedAffinity -3.10090566
REMARK minimizedRMSD -1
REMARK  0 active torsions:
REMARK  status: ('A' for Active; 'I' for Inactive)
ROOT
ATOM      1  C   UNL d   1       2.308  -1.307   2.548  0.00  0.00     0.124 A 
ATOM      2  C1  UNL d   1       2.358  -1.785   1.246  0.00  0.00     0.062 A 
ATOM      3  C2  UNL d   1       1.503  -1.267   0.277  0.00  0.00     0.162 A 
ATOM      4  C3  UNL d   1       0.592  -0.263   0.606  0.00  0.00    -0.034 A 
ATOM      5  C4  UNL d   1       0.547   0.211   1.918  0.00  0.00     0.162 A 
ATOM      6  C5  UNL d   1       1.403  -0.310   2.883  0.00  0.00     0.062 A 
ATOM      7  F   UNL d   1       1.353   0.153   4.140  0.00  0.00    -0.097 F 
ATOM      8  F1  UNL d   1      -0.317   1.176   2.269  0.00  0.00    -0.096 F 
ATOM      9  I   UNL d   1      -0.687   0.514  -0.840  0.00  0.00    -0.060 I 
ATOM     10  F2  UNL d   1       1.573  -1.747  -0.974  0.00  0.00    -0.096 F 
ATOM     11  F3  UNL d   1       3.230  -2.750   0.920  0.00  0.00    -0.097 F 
ATOM     12  F4  UNL d   1       3.130  -1.809   3.479  0.00  0.00    -0.092 F 
ENDROOT
TORSDOF 0
ENDMDL
