MODEL 1
REMARK minimizedAffinity -1.44816804
REMARK minimizedRMSD -1
REMARK  0 active torsions:
REMARK  status: ('A' for Active; 'I' for Inactive)
ROOT
ATOM      1  C   UNL d   1      -0.703  -0.378   2.251  0.00  0.00     0.124 A 
ATOM      2  C1  UNL d   1      -1.744   0.037   1.432  0.00  0.00     0.062 A 
ATOM      3  C2  UNL d   1      -1.498   0.377   0.105  0.00  0.00     0.162 A 
ATOM      4  C3  UNL d   1      -0.204   0.304  -0.411  0.00  0.00    -0.034 A 
ATOM      5  C4  UNL d   1       0.838  -0.113   0.419  0.00  0.00     0.162 A 
ATOM      6  C5  UNL d   1       0.586  -0.453   1.744  0.00  0.00     0.062 A 
ATOM      7  F   UNL d   1       1.593  -0.854   2.534  0.00  0.00    -0.097 F 
ATOM      8  F1  UNL d   1       2.093  -0.196  -0.046  0.00  0.00    -0.096 F 
ATOM      9  I   UNL d   1       0.169   0.813  -2.395  0.00  0.00    -0.060 I 
ATOM     10  F2  UNL d   1      -2.523   0.775  -0.663  0.00  0.00    -0.096 F 
ATOM     11  F3  UNL d   1      -2.991   0.111   1.920  0.00  0.00    -0.097 F 
ATOM     12  F4  UNL d   1      -0.943  -0.705   3.528  0.00  0.00    -0.092 F 
ENDROOT
TORSDOF 0
ENDMDL
