MODEL 1
REMARK minimizedAffinity -0.377272099
REMARK minimizedRMSD -1
REMARK  0 active torsions:
REMARK  status: ('A' for Active; 'I' for Inactive)
ROOT
ATOM      1  C   UNL d   1      -0.326   0.770  -2.258  0.00  0.00     0.124 A 
ATOM      2  C1  UNL d   1       0.384  -0.391  -1.985  0.00  0.00     0.062 A 
ATOM      3  C2  UNL d   1       0.630  -0.768  -0.668  0.00  0.00     0.162 A 
ATOM      4  C3  UNL d   1       0.165   0.017   0.388  0.00  0.00    -0.034 A 
ATOM      5  C4  UNL d   1      -0.547   1.184   0.105  0.00  0.00     0.162 A 
ATOM      6  C5  UNL d   1      -0.791   1.556  -1.213  0.00  0.00     0.062 A 
ATOM      7  F   UNL d   1      -1.477   2.678  -1.474  0.00  0.00    -0.097 F 
ATOM      8  F1  UNL d   1      -1.009   1.961   1.096  0.00  0.00    -0.096 F 
ATOM      9  I   UNL d   1       0.531  -0.543   2.358  0.00  0.00    -0.060 I 
ATOM     10  F2  UNL d   1       1.319  -1.895  -0.434  0.00  0.00    -0.096 F 
ATOM     11  F3  UNL d   1       0.835  -1.152  -2.993  0.00  0.00    -0.097 F 
ATOM     12  F4  UNL d   1      -0.561   1.131  -3.526  0.00  0.00    -0.092 F 
ENDROOT
TORSDOF 0
ENDMDL
