MODEL 1
REMARK minimizedAffinity -5.29844236
REMARK minimizedRMSD -1
REMARK  0 active torsions:
REMARK  status: ('A' for Active; 'I' for Inactive)
ROOT
ATOM      1  C   UNL d   1       1.915  -1.576   1.536  0.00  0.00     0.124 A 
ATOM      2  C1  UNL d   1       1.978  -1.846   0.176  0.00  0.00     0.062 A 
ATOM      3  C2  UNL d   1       1.201  -1.116  -0.719  0.00  0.00     0.162 A 
ATOM      4  C3  UNL d   1       0.356  -0.108  -0.257  0.00  0.00    -0.034 A 
ATOM      5  C4  UNL d   1       0.297   0.158   1.112  0.00  0.00     0.162 A 
ATOM      6  C5  UNL d   1       1.075  -0.575   2.003  0.00  0.00     0.062 A 
ATOM      7  F   UNL d   1       1.014  -0.312   3.316  0.00  0.00    -0.097 F 
ATOM      8  F1  UNL d   1      -0.505   1.121   1.590  0.00  0.00    -0.096 F 
ATOM      9  I   UNL d   1      -0.807   0.986  -1.593  0.00  0.00    -0.060 I 
ATOM     10  F2  UNL d   1       1.282  -1.399  -2.028  0.00  0.00    -0.096 F 
ATOM     11  F3  UNL d   1       2.788  -2.814  -0.277  0.00  0.00    -0.097 F 
ATOM     12  F4  UNL d   1       2.663  -2.281   2.395  0.00  0.00    -0.092 F 
ENDROOT
TORSDOF 0
ENDMDL
