MODEL 1
REMARK minimizedAffinity -0.347381085
REMARK minimizedRMSD -1
REMARK  0 active torsions:
REMARK  status: ('A' for Active; 'I' for Inactive)
ROOT
ATOM      1  C   UNL d   1      -1.380   0.117  -2.695  0.00  0.00     0.124 A 
ATOM      2  C1  UNL d   1      -2.355   0.210  -1.711  0.00  0.00     0.062 A 
ATOM      3  C2  UNL d   1      -2.101  -0.265  -0.427  0.00  0.00     0.162 A 
ATOM      4  C3  UNL d   1      -0.867  -0.837  -0.120  0.00  0.00    -0.034 A 
ATOM      5  C4  UNL d   1       0.108  -0.929  -1.115  0.00  0.00     0.162 A 
ATOM      6  C5  UNL d   1      -0.151  -0.452  -2.396  0.00  0.00     0.062 A 
ATOM      7  F   UNL d   1       0.792  -0.544  -3.346  0.00  0.00    -0.097 F 
ATOM      8  F1  UNL d   1       1.305  -1.473  -0.854  0.00  0.00    -0.096 F 
ATOM      9  I   UNL d   1      -0.484  -1.549   1.798  0.00  0.00    -0.060 I 
ATOM     10  F2  UNL d   1      -3.061  -0.161   0.504  0.00  0.00    -0.096 F 
ATOM     11  F3  UNL d   1      -3.544   0.759  -1.997  0.00  0.00    -0.097 F 
ATOM     12  F4  UNL d   1      -1.627   0.574  -3.929  0.00  0.00    -0.092 F 
ENDROOT
TORSDOF 0
ENDMDL
