MODEL 1
REMARK minimizedAffinity 1.74374115
REMARK minimizedRMSD -1
REMARK  2 active torsions:
REMARK  status: ('A' for Active; 'I' for Inactive)
REMARK    1  A    between atoms: C2'_3  and  C1'_4 
REMARK    2  A    between atoms: C1'_4  and  C1_5 
ROOT
ATOM      1  C1  I4B d   1      -0.171  -2.671   1.736  0.00  0.00    -0.075 A 
ATOM      2  C2  I4B d   1      -1.528  -2.876   1.750  0.00  0.00     0.003 A 
ATOM      3  C3  I4B d   1      -2.101  -3.905   0.964  0.00  0.00     0.002 A 
ATOM      4  C4  I4B d   1      -1.292  -4.666   0.146  0.00  0.00    -0.004 A 
ATOM      5  C5  I4B d   1       0.086  -4.471   0.150  0.00  0.00     0.002 A 
ATOM      6  C6  I4B d   1       0.652  -3.476   0.959  0.00  0.00     0.003 A 
ENDROOT
BRANCH   1   7
ATOM      7  C1' I4B d   1       0.398  -1.554   2.553  0.00  0.00     0.060 C 
BRANCH   7   8
ATOM      8  C2' I4B d   1       1.485  -2.130   3.438  0.00  0.00    -0.013 C 
ATOM      9  C4' I4B d   1       1.216  -3.576   3.762  0.00  0.00     0.013 C 
ATOM     10  C3' I4B d   1       2.795  -1.969   2.726  0.00  0.00     0.013 C 
ENDBRANCH   7   8
ENDBRANCH   1   7
TORSDOF 2
ENDMDL
