MODEL 1
REMARK minimizedAffinity 7.17913675
REMARK minimizedRMSD -1
REMARK  2 active torsions:
REMARK  status: ('A' for Active; 'I' for Inactive)
REMARK    1  A    between atoms: C2'_3  and  C1'_4 
REMARK    2  A    between atoms: C1'_4  and  C1_5 
ROOT
ATOM      1  C1  I4B d   1       0.938   4.660  -3.718  0.00  0.00    -0.075 A 
ATOM      2  C2  I4B d   1       1.420   4.859  -4.988  0.00  0.00     0.003 A 
ATOM      3  C3  I4B d   1       0.572   5.371  -6.000  0.00  0.00     0.002 A 
ATOM      4  C4  I4B d   1      -0.755   5.620  -5.713  0.00  0.00    -0.004 A 
ATOM      5  C5  I4B d   1      -1.235   5.440  -4.419  0.00  0.00     0.002 A 
ATOM      6  C6  I4B d   1      -0.381   4.968  -3.412  0.00  0.00     0.003 A 
ENDROOT
BRANCH   1   7
ATOM      7  C1' I4B d   1       1.853   4.086  -2.682  0.00  0.00     0.060 C 
BRANCH   7   8
ATOM      8  C2' I4B d   1       1.122   2.954  -1.990  0.00  0.00    -0.013 C 
ATOM      9  C4' I4B d   1       1.630   1.614  -2.453  0.00  0.00     0.013 C 
ATOM     10  C3' I4B d   1       1.305   3.121  -0.511  0.00  0.00     0.013 C 
ENDBRANCH   7   8
ENDBRANCH   1   7
TORSDOF 2
ENDMDL
