MODEL 1
REMARK minimizedAffinity 4.18812037
REMARK minimizedRMSD -1
REMARK  2 active torsions:
REMARK  status: ('A' for Active; 'I' for Inactive)
REMARK    1  A    between atoms: C2'_3  and  C1'_4 
REMARK    2  A    between atoms: C1'_4  and  C1_5 
ROOT
ATOM      1  C1  I4B d   1      -3.713  -5.554  -3.760  0.00  0.00    -0.075 A 
ATOM      2  C2  I4B d   1      -3.254  -5.972  -4.983  0.00  0.00     0.003 A 
ATOM      3  C3  I4B d   1      -1.902  -5.763  -5.347  0.00  0.00     0.002 A 
ATOM      4  C4  I4B d   1      -1.062  -5.090  -4.484  0.00  0.00    -0.004 A 
ATOM      5  C5  I4B d   1      -1.523  -4.687  -3.234  0.00  0.00     0.002 A 
ATOM      6  C6  I4B d   1      -2.854  -4.931  -2.864  0.00  0.00     0.003 A 
ENDROOT
BRANCH   1   7
ATOM      7  C1' I4B d   1      -5.155  -5.762  -3.421  0.00  0.00     0.060 C 
BRANCH   7   8
ATOM      8  C2' I4B d   1      -5.960  -4.689  -4.127  0.00  0.00    -0.013 C 
ATOM      9  C4' I4B d   1      -5.707  -3.332  -3.525  0.00  0.00     0.013 C 
ATOM     10  C3' I4B d   1      -5.591  -4.715  -5.580  0.00  0.00     0.013 C 
ENDBRANCH   7   8
ENDBRANCH   1   7
TORSDOF 2
ENDMDL
