MODEL 1
REMARK minimizedAffinity 1.98786116
REMARK minimizedRMSD -1
REMARK  2 active torsions:
REMARK  status: ('A' for Active; 'I' for Inactive)
REMARK    1  A    between atoms: C2'_3  and  C1'_4 
REMARK    2  A    between atoms: C1'_4  and  C1_5 
ROOT
ATOM      1  C1  I4B d   1       0.696   4.325  -3.660  0.00  0.00    -0.075 A 
ATOM      2  C2  I4B d   1       1.297   4.857  -4.774  0.00  0.00     0.003 A 
ATOM      3  C3  I4B d   1       0.547   5.070  -5.955  0.00  0.00     0.002 A 
ATOM      4  C4  I4B d   1      -0.780   4.694  -5.995  0.00  0.00    -0.004 A 
ATOM      5  C5  I4B d   1      -1.393   4.176  -4.858  0.00  0.00     0.002 A 
ATOM      6  C6  I4B d   1      -0.654   4.002  -3.679  0.00  0.00     0.003 A 
ENDROOT
BRANCH   1   7
ATOM      7  C1' I4B d   1       1.527   4.082  -2.439  0.00  0.00     0.060 C 
BRANCH   7   8
ATOM      8  C2' I4B d   1       0.883   2.959  -1.653  0.00  0.00    -0.013 C 
ATOM      9  C4' I4B d   1       1.348   1.613  -2.145  0.00  0.00     0.013 C 
ATOM     10  C3' I4B d   1       1.223   3.153  -0.205  0.00  0.00     0.013 C 
ENDBRANCH   7   8
ENDBRANCH   1   7
TORSDOF 2
ENDMDL
