MODEL 1
REMARK minimizedAffinity 6.8947711
REMARK minimizedRMSD -1
REMARK  2 active torsions:
REMARK  status: ('A' for Active; 'I' for Inactive)
REMARK    1  A    between atoms: C2'_3  and  C1'_4 
REMARK    2  A    between atoms: C1'_4  and  C1_5 
ROOT
ATOM      1  C1  I4B d   1       0.963   4.675  -4.053  0.00  0.00    -0.075 A 
ATOM      2  C2  I4B d   1      -0.297   4.130  -4.065  0.00  0.00     0.003 A 
ATOM      3  C3  I4B d   1      -1.226   4.504  -5.066  0.00  0.00     0.002 A 
ATOM      4  C4  I4B d   1      -0.872   5.457  -5.999  0.00  0.00    -0.004 A 
ATOM      5  C5  I4B d   1       0.413   5.991  -5.999  0.00  0.00     0.002 A 
ATOM      6  C6  I4B d   1       1.341   5.589  -5.028  0.00  0.00     0.003 A 
ENDROOT
BRANCH   1   7
ATOM      7  C1' I4B d   1       1.908   4.282  -2.962  0.00  0.00     0.060 C 
BRANCH   7   8
ATOM      8  C2' I4B d   1       1.299   3.112  -2.215  0.00  0.00    -0.013 C 
ATOM      9  C4' I4B d   1       2.043   1.835  -2.503  0.00  0.00     0.013 C 
ATOM     10  C3' I4B d   1       1.322   3.435  -0.751  0.00  0.00     0.013 C 
ENDBRANCH   7   8
ENDBRANCH   1   7
TORSDOF 2
ENDMDL
