MODEL 1
REMARK minimizedAffinity 14.1900177
REMARK minimizedRMSD -1
REMARK  2 active torsions:
REMARK  status: ('A' for Active; 'I' for Inactive)
REMARK    1  A    between atoms: C2'_3  and  C1'_4 
REMARK    2  A    between atoms: C1'_4  and  C1_5 
ROOT
ATOM      1  C1  I4B d   1      -0.027   3.870  -3.863  0.00  0.00    -0.075 A 
ATOM      2  C2  I4B d   1       0.798   4.099  -4.936  0.00  0.00     0.003 A 
ATOM      3  C3  I4B d   1       0.370   4.930  -6.000  0.00  0.00     0.002 A 
ATOM      4  C4  I4B d   1      -0.900   5.468  -5.973  0.00  0.00    -0.004 A 
ATOM      5  C5  I4B d   1      -1.726   5.254  -4.874  0.00  0.00     0.002 A 
ATOM      6  C6  I4B d   1      -1.283   4.460  -3.806  0.00  0.00     0.003 A 
ENDROOT
BRANCH   1   7
ATOM      7  C1' I4B d   1       0.444   2.961  -2.772  0.00  0.00     0.060 C 
BRANCH   7   8
ATOM      8  C2' I4B d   1       1.520   3.687  -1.991  0.00  0.00    -0.013 C 
ATOM      9  C4' I4B d   1       1.506   3.285  -0.540  0.00  0.00     0.013 C 
ATOM     10  C3' I4B d   1       2.843   3.375  -2.626  0.00  0.00     0.013 C 
ENDBRANCH   7   8
ENDBRANCH   1   7
TORSDOF 2
ENDMDL
