MODEL 1
REMARK minimizedAffinity 7.16441298
REMARK minimizedRMSD -1
REMARK  2 active torsions:
REMARK  status: ('A' for Active; 'I' for Inactive)
REMARK    1  A    between atoms: C2'_3  and  C1'_4 
REMARK    2  A    between atoms: C1'_4  and  C1_5 
ROOT
ATOM      1  C1  I4B d   1       1.207   4.415  -3.888  0.00  0.00    -0.075 A 
ATOM      2  C2  I4B d   1       1.679   4.873  -5.094  0.00  0.00     0.003 A 
ATOM      3  C3  I4B d   1       0.807   5.526  -5.998  0.00  0.00     0.002 A 
ATOM      4  C4  I4B d   1      -0.530   5.653  -5.681  0.00  0.00    -0.004 A 
ATOM      5  C5  I4B d   1      -1.001   5.209  -4.449  0.00  0.00     0.002 A 
ATOM      6  C6  I4B d   1      -0.125   4.597  -3.541  0.00  0.00     0.003 A 
ENDROOT
BRANCH   1   7
ATOM      7  C1' I4B d   1       2.149   3.701  -2.971  0.00  0.00     0.060 C 
BRANCH   7   8
ATOM      8  C2' I4B d   1       1.332   2.774  -2.094  0.00  0.00    -0.013 C 
ATOM      9  C4' I4B d   1       1.885   1.373  -2.119  0.00  0.00     0.013 C 
ATOM     10  C3' I4B d   1       1.334   3.332  -0.702  0.00  0.00     0.013 C 
ENDBRANCH   7   8
ENDBRANCH   1   7
TORSDOF 2
ENDMDL
