MODEL 1
REMARK minimizedAffinity 6.32815313
REMARK minimizedRMSD -1
REMARK  2 active torsions:
REMARK  status: ('A' for Active; 'I' for Inactive)
REMARK    1  A    between atoms: C2'_3  and  C1'_4 
REMARK    2  A    between atoms: C1'_4  and  C1_5 
ROOT
ATOM      1  C1  I4B d   1       0.418   3.950  -4.111  0.00  0.00    -0.075 A 
ATOM      2  C2  I4B d   1       1.519   4.211  -4.888  0.00  0.00     0.003 A 
ATOM      3  C3  I4B d   1       1.491   5.267  -5.832  0.00  0.00     0.002 A 
ATOM      4  C4  I4B d   1       0.333   5.998  -6.000  0.00  0.00    -0.004 A 
ATOM      5  C5  I4B d   1      -0.775   5.746  -5.195  0.00  0.00     0.002 A 
ATOM      6  C6  I4B d   1      -0.729   4.724  -4.236  0.00  0.00     0.003 A 
ENDROOT
BRANCH   1   7
ATOM      7  C1' I4B d   1       0.470   2.806  -3.148  0.00  0.00     0.060 C 
BRANCH   7   8
ATOM      8  C2' I4B d   1       1.808   2.855  -2.439  0.00  0.00    -0.013 C 
ATOM      9  C4' I4B d   1       1.757   3.766  -1.240  0.00  0.00     0.013 C 
ATOM     10  C3' I4B d   1       2.172   1.456  -2.040  0.00  0.00     0.013 C 
ENDBRANCH   7   8
ENDBRANCH   1   7
TORSDOF 2
ENDMDL
