MODEL 1
REMARK minimizedAffinity 3.67051649
REMARK minimizedRMSD -1
REMARK  2 active torsions:
REMARK  status: ('A' for Active; 'I' for Inactive)
REMARK    1  A    between atoms: C2'_3  and  C1'_4 
REMARK    2  A    between atoms: C1'_4  and  C1_5 
ROOT
ATOM      1  C1  I4B d   1       1.082   4.400  -4.223  0.00  0.00    -0.075 A 
ATOM      2  C2  I4B d   1      -0.251   4.074  -4.238  0.00  0.00     0.003 A 
ATOM      3  C3  I4B d   1      -1.128   4.702  -5.155  0.00  0.00     0.002 A 
ATOM      4  C4  I4B d   1      -0.642   5.680  -5.999  0.00  0.00    -0.004 A 
ATOM      5  C5  I4B d   1       0.714   5.992  -5.999  0.00  0.00     0.002 A 
ATOM      6  C6  I4B d   1       1.585   5.340  -5.114  0.00  0.00     0.003 A 
ENDROOT
BRANCH   1   7
ATOM      7  C1' I4B d   1       1.974   3.741  -3.220  0.00  0.00     0.060 C 
BRANCH   7   8
ATOM      8  C2' I4B d   1       1.126   2.803  -2.385  0.00  0.00    -0.013 C 
ATOM      9  C4' I4B d   1       1.501   1.365  -2.629  0.00  0.00     0.013 C 
ATOM     10  C3' I4B d   1       1.307   3.173  -0.944  0.00  0.00     0.013 C 
ENDBRANCH   7   8
ENDBRANCH   1   7
TORSDOF 2
ENDMDL
