MODEL 1
REMARK minimizedAffinity 3.51518273
REMARK minimizedRMSD -1
REMARK  2 active torsions:
REMARK  status: ('A' for Active; 'I' for Inactive)
REMARK    1  A    between atoms: C2'_3  and  C1'_4 
REMARK    2  A    between atoms: C1'_4  and  C1_5 
ROOT
ATOM      1  C1  I4B d   1       1.497   3.364  -2.389  0.00  0.00    -0.075 A 
ATOM      2  C2  I4B d   1       1.464   2.029  -2.705  0.00  0.00     0.003 A 
ATOM      3  C3  I4B d   1       1.402   1.055  -1.680  0.00  0.00     0.002 A 
ATOM      4  C4  I4B d   1       1.425   1.456  -0.359  0.00  0.00    -0.004 A 
ATOM      5  C5  I4B d   1       1.436   2.811  -0.041  0.00  0.00     0.002 A 
ATOM      6  C6  I4B d   1       1.460   3.772  -1.062  0.00  0.00     0.003 A 
ENDROOT
BRANCH   1   7
ATOM      7  C1' I4B d   1       1.596   4.365  -3.497  0.00  0.00     0.060 C 
BRANCH   7   8
ATOM      8  C2' I4B d   1       0.438   4.128  -4.445  0.00  0.00    -0.013 C 
ATOM      9  C4' I4B d   1      -0.842   4.698  -3.894  0.00  0.00     0.013 C 
ATOM     10  C3' I4B d   1       0.785   4.751  -5.764  0.00  0.00     0.013 C 
ENDBRANCH   7   8
ENDBRANCH   1   7
TORSDOF 2
ENDMDL
