MODEL 1
REMARK minimizedAffinity 9.91963387
REMARK minimizedRMSD -1
REMARK  2 active torsions:
REMARK  status: ('A' for Active; 'I' for Inactive)
REMARK    1  A    between atoms: C2'_3  and  C1'_4 
REMARK    2  A    between atoms: C1'_4  and  C1_5 
ROOT
ATOM      1  C1  I4B d   1       0.947   4.556  -3.996  0.00  0.00    -0.075 A 
ATOM      2  C2  I4B d   1       1.521   5.255  -5.030  0.00  0.00     0.003 A 
ATOM      3  C3  I4B d   1       0.707   5.888  -6.000  0.00  0.00     0.002 A 
ATOM      4  C4  I4B d   1      -0.665   5.757  -5.927  0.00  0.00    -0.004 A 
ATOM      5  C5  I4B d   1      -1.245   5.068  -4.866  0.00  0.00     0.002 A 
ATOM      6  C6  I4B d   1      -0.435   4.474  -3.887  0.00  0.00     0.003 A 
ENDROOT
BRANCH   1   7
ATOM      7  C1' I4B d   1       1.837   3.872  -3.008  0.00  0.00     0.060 C 
BRANCH   7   8
ATOM      8  C2' I4B d   1       0.990   2.899  -2.213  0.00  0.00    -0.013 C 
ATOM      9  C4' I4B d   1       1.454   1.481  -2.415  0.00  0.00     0.013 C 
ATOM     10  C3' I4B d   1       1.067   3.293  -0.768  0.00  0.00     0.013 C 
ENDBRANCH   7   8
ENDBRANCH   1   7
TORSDOF 2
ENDMDL
