MODEL 1
REMARK minimizedAffinity 4.82889891
REMARK minimizedRMSD -1
REMARK  2 active torsions:
REMARK  status: ('A' for Active; 'I' for Inactive)
REMARK    1  A    between atoms: C2'_3  and  C1'_4 
REMARK    2  A    between atoms: C1'_4  and  C1_5 
ROOT
ATOM      1  C1  I4B d   1       0.954   3.294  -2.951  0.00  0.00    -0.075 A 
ATOM      2  C2  I4B d   1       0.021   3.660  -3.888  0.00  0.00     0.003 A 
ATOM      3  C3  I4B d   1       0.177   4.863  -4.618  0.00  0.00     0.002 A 
ATOM      4  C4  I4B d   1       1.248   5.690  -4.345  0.00  0.00    -0.004 A 
ATOM      5  C5  I4B d   1       2.206   5.306  -3.411  0.00  0.00     0.002 A 
ATOM      6  C6  I4B d   1       2.065   4.094  -2.718  0.00  0.00     0.003 A 
ENDROOT
BRANCH   1   7
ATOM      7  C1' I4B d   1       0.741   2.033  -2.176  0.00  0.00     0.060 C 
BRANCH   7   8
ATOM      8  C2' I4B d   1       1.805   1.961  -1.100  0.00  0.00    -0.013 C 
ATOM      9  C4' I4B d   1       1.198   2.053   0.275  0.00  0.00     0.013 C 
ATOM     10  C3' I4B d   1       2.555   0.674  -1.276  0.00  0.00     0.013 C 
ENDBRANCH   7   8
ENDBRANCH   1   7
TORSDOF 2
ENDMDL
