MODEL 1
REMARK minimizedAffinity 10.2224274
REMARK minimizedRMSD -1
REMARK  2 active torsions:
REMARK  status: ('A' for Active; 'I' for Inactive)
REMARK    1  A    between atoms: C2'_3  and  C1'_4 
REMARK    2  A    between atoms: C1'_4  and  C1_5 
ROOT
ATOM      1  C1  I4B d   1       1.203   4.540  -3.666  0.00  0.00    -0.075 A 
ATOM      2  C2  I4B d   1       1.661   4.590  -4.958  0.00  0.00     0.003 A 
ATOM      3  C3  I4B d   1       0.811   5.035  -5.999  0.00  0.00     0.002 A 
ATOM      4  C4  I4B d   1      -0.497   5.370  -5.712  0.00  0.00    -0.004 A 
ATOM      5  C5  I4B d   1      -0.953   5.340  -4.397  0.00  0.00     0.002 A 
ATOM      6  C6  I4B d   1      -0.094   4.934  -3.365  0.00  0.00     0.003 A 
ENDROOT
BRANCH   1   7
ATOM      7  C1' I4B d   1       2.118   4.033  -2.596  0.00  0.00     0.060 C 
BRANCH   7   8
ATOM      8  C2' I4B d   1       1.325   3.095  -1.709  0.00  0.00    -0.013 C 
ATOM      9  C4' I4B d   1       1.812   1.676  -1.843  0.00  0.00     0.013 C 
ATOM     10  C3' I4B d   1       1.449   3.578  -0.295  0.00  0.00     0.013 C 
ENDBRANCH   7   8
ENDBRANCH   1   7
TORSDOF 2
ENDMDL
