MODEL 1
REMARK minimizedAffinity 5.38540459
REMARK minimizedRMSD -1
REMARK  2 active torsions:
REMARK  status: ('A' for Active; 'I' for Inactive)
REMARK    1  A    between atoms: C2'_3  and  C1'_4 
REMARK    2  A    between atoms: C1'_4  and  C1_5 
ROOT
ATOM      1  C1  I4B d   1       0.422   3.853  -3.229  0.00  0.00    -0.075 A 
ATOM      2  C2  I4B d   1       1.756   3.926  -2.913  0.00  0.00     0.003 A 
ATOM      3  C3  I4B d   1       2.394   2.844  -2.259  0.00  0.00     0.002 A 
ATOM      4  C4  I4B d   1       1.654   1.737  -1.897  0.00  0.00    -0.004 A 
ATOM      5  C5  I4B d   1       0.307   1.654  -2.239  0.00  0.00     0.002 A 
ATOM      6  C6  I4B d   1      -0.310   2.714  -2.920  0.00  0.00     0.003 A 
ENDROOT
BRANCH   1   7
ATOM      7  C1' I4B d   1      -0.227   5.027  -3.890  0.00  0.00     0.060 C 
BRANCH   7   8
ATOM      8  C2' I4B d   1      -0.288   4.750  -5.378  0.00  0.00    -0.013 C 
ATOM      9  C4' I4B d   1      -1.508   5.377  -6.000  0.00  0.00     0.013 C 
ATOM     10  C3' I4B d   1       0.970   5.281  -5.999  0.00  0.00     0.013 C 
ENDBRANCH   7   8
ENDBRANCH   1   7
TORSDOF 2
ENDMDL
