MODEL 1
REMARK minimizedAffinity 3.40798259
REMARK minimizedRMSD -1
REMARK  2 active torsions:
REMARK  status: ('A' for Active; 'I' for Inactive)
REMARK    1  A    between atoms: C2'_3  and  C1'_4 
REMARK    2  A    between atoms: C1'_4  and  C1_5 
ROOT
ATOM      1  C1  I4B d   1      -4.557   4.192  -3.001  0.00  0.00    -0.075 A 
ATOM      2  C2  I4B d   1      -3.331   4.224  -3.616  0.00  0.00     0.003 A 
ATOM      3  C3  I4B d   1      -3.076   5.158  -4.650  0.00  0.00     0.002 A 
ATOM      4  C4  I4B d   1      -4.086   6.000  -5.069  0.00  0.00    -0.004 A 
ATOM      5  C5  I4B d   1      -5.322   5.981  -4.429  0.00  0.00     0.002 A 
ATOM      6  C6  I4B d   1      -5.556   5.080  -3.380  0.00  0.00     0.003 A 
ENDROOT
BRANCH   1   7
ATOM      7  C1' I4B d   1      -4.803   3.171  -1.935  0.00  0.00     0.060 C 
BRANCH   7   8
ATOM      8  C2' I4B d   1      -5.996   2.337  -2.353  0.00  0.00    -0.013 C 
ATOM      9  C4' I4B d   1      -5.983   2.071  -3.836  0.00  0.00     0.013 C 
ATOM     10  C3' I4B d   1      -5.962   1.056  -1.573  0.00  0.00     0.013 C 
ENDBRANCH   7   8
ENDBRANCH   1   7
TORSDOF 2
ENDMDL
