MODEL 1
REMARK minimizedAffinity 15.7165604
REMARK minimizedRMSD -1
REMARK  2 active torsions:
REMARK  status: ('A' for Active; 'I' for Inactive)
REMARK    1  A    between atoms: C2'_3  and  C1'_4 
REMARK    2  A    between atoms: C1'_4  and  C1_5 
ROOT
ATOM      1  C1  I4B d   1      -0.249   4.390  -1.250  0.00  0.00    -0.075 A 
ATOM      2  C2  I4B d   1      -1.621   4.411  -1.271  0.00  0.00     0.003 A 
ATOM      3  C3  I4B d   1      -2.309   4.974  -2.373  0.00  0.00     0.002 A 
ATOM      4  C4  I4B d   1      -1.589   5.546  -3.402  0.00  0.00    -0.004 A 
ATOM      5  C5  I4B d   1      -0.198   5.503  -3.390  0.00  0.00     0.002 A 
ATOM      6  C6  I4B d   1       0.477   4.911  -2.313  0.00  0.00     0.003 A 
ENDROOT
BRANCH   1   7
ATOM      7  C1' I4B d   1       0.445   3.818  -0.055  0.00  0.00     0.060 C 
BRANCH   7   8
ATOM      8  C2' I4B d   1      -0.460   2.764   0.550  0.00  0.00    -0.013 C 
ATOM      9  C4' I4B d   1      -0.301   1.441  -0.151  0.00  0.00     0.013 C 
ATOM     10  C3' I4B d   1      -0.125   2.647   2.008  0.00  0.00     0.013 C 
ENDBRANCH   7   8
ENDBRANCH   1   7
TORSDOF 2
ENDMDL
