MODEL 1
REMARK minimizedAffinity 5.8295188
REMARK minimizedRMSD -1
REMARK  2 active torsions:
REMARK  status: ('A' for Active; 'I' for Inactive)
REMARK    1  A    between atoms: C2'_3  and  C1'_4 
REMARK    2  A    between atoms: C1'_4  and  C1_5 
ROOT
ATOM      1  C1  I4B d   1      -0.126   3.024  -0.537  0.00  0.00    -0.075 A 
ATOM      2  C2  I4B d   1       0.763   3.978  -0.109  0.00  0.00     0.003 A 
ATOM      3  C3  I4B d   1       1.012   5.126  -0.900  0.00  0.00     0.002 A 
ATOM      4  C4  I4B d   1       0.393   5.254  -2.127  0.00  0.00    -0.004 A 
ATOM      5  C5  I4B d   1      -0.526   4.297  -2.548  0.00  0.00     0.002 A 
ATOM      6  C6  I4B d   1      -0.797   3.181  -1.743  0.00  0.00     0.003 A 
ENDROOT
BRANCH   1   7
ATOM      7  C1' I4B d   1      -0.340   1.808   0.308  0.00  0.00     0.060 C 
BRANCH   7   8
ATOM      8  C2' I4B d   1      -0.670   0.652  -0.614  0.00  0.00    -0.013 C 
ATOM      9  C4' I4B d   1       0.463  -0.339  -0.673  0.00  0.00     0.013 C 
ATOM     10  C3' I4B d   1      -1.928   0.006  -0.114  0.00  0.00     0.013 C 
ENDBRANCH   7   8
ENDBRANCH   1   7
TORSDOF 2
ENDMDL
