MODEL 1
REMARK minimizedAffinity 3.28270888
REMARK minimizedRMSD -1
REMARK  2 active torsions:
REMARK  status: ('A' for Active; 'I' for Inactive)
REMARK    1  A    between atoms: C2'_3  and  C1'_4 
REMARK    2  A    between atoms: C1'_4  and  C1_5 
ROOT
ATOM      1  C1  I4B d   1       1.179   3.348   1.604  0.00  0.00    -0.075 A 
ATOM      2  C2  I4B d   1       0.049   2.611   1.852  0.00  0.00     0.003 A 
ATOM      3  C3  I4B d   1      -0.041   1.813   3.018  0.00  0.00     0.002 A 
ATOM      4  C4  I4B d   1       1.037   1.743   3.878  0.00  0.00    -0.004 A 
ATOM      5  C5  I4B d   1       2.173   2.509   3.637  0.00  0.00     0.002 A 
ATOM      6  C6  I4B d   1       2.241   3.327   2.499  0.00  0.00     0.003 A 
ENDROOT
BRANCH   1   7
ATOM      7  C1' I4B d   1       1.253   4.154   0.346  0.00  0.00     0.060 C 
BRANCH   7   8
ATOM      8  C2' I4B d   1      -0.164   4.438  -0.110  0.00  0.00    -0.013 C 
ATOM      9  C4' I4B d   1      -0.503   5.898   0.038  0.00  0.00     0.013 C 
ATOM     10  C3' I4B d   1      -0.288   3.995  -1.537  0.00  0.00     0.013 C 
ENDBRANCH   7   8
ENDBRANCH   1   7
TORSDOF 2
ENDMDL
