MODEL 1
REMARK minimizedAffinity 6.95373726
REMARK minimizedRMSD -1
REMARK  2 active torsions:
REMARK  status: ('A' for Active; 'I' for Inactive)
REMARK    1  A    between atoms: C2'_3  and  C1'_4 
REMARK    2  A    between atoms: C1'_4  and  C1_5 
ROOT
ATOM      1  C1  I4B d   1      -0.027   4.278  -0.921  0.00  0.00    -0.075 A 
ATOM      2  C2  I4B d   1      -0.845   5.161  -0.261  0.00  0.00     0.003 A 
ATOM      3  C3  I4B d   1      -1.729   5.994  -0.989  0.00  0.00     0.002 A 
ATOM      4  C4  I4B d   1      -1.727   5.947  -2.368  0.00  0.00    -0.004 A 
ATOM      5  C5  I4B d   1      -0.913   5.035  -3.034  0.00  0.00     0.002 A 
ATOM      6  C6  I4B d   1      -0.067   4.186  -2.306  0.00  0.00     0.003 A 
ENDROOT
BRANCH   1   7
ATOM      7  C1' I4B d   1       0.918   3.437  -0.123  0.00  0.00     0.060 C 
BRANCH   7   8
ATOM      8  C2' I4B d   1       0.106   2.388   0.608  0.00  0.00    -0.013 C 
ATOM      9  C4' I4B d   1       0.402   2.400   2.085  0.00  0.00     0.013 C 
ATOM     10  C3' I4B d   1      -1.345   2.659   0.345  0.00  0.00     0.013 C 
ENDBRANCH   7   8
ENDBRANCH   1   7
TORSDOF 2
ENDMDL
