MODEL 1
REMARK minimizedAffinity 12.9923601
REMARK minimizedRMSD -1
REMARK  2 active torsions:
REMARK  status: ('A' for Active; 'I' for Inactive)
REMARK    1  A    between atoms: C2'_3  and  C1'_4 
REMARK    2  A    between atoms: C1'_4  and  C1_5 
ROOT
ATOM      1  C1  I4B d   1      -0.387   3.671  -0.175  0.00  0.00    -0.075 A 
ATOM      2  C2  I4B d   1      -0.786   4.865   0.372  0.00  0.00     0.003 A 
ATOM      3  C3  I4B d   1      -0.983   5.998  -0.455  0.00  0.00     0.002 A 
ATOM      4  C4  I4B d   1      -0.721   5.906  -1.807  0.00  0.00    -0.004 A 
ATOM      5  C5  I4B d   1      -0.339   4.689  -2.363  0.00  0.00     0.002 A 
ATOM      6  C6  I4B d   1      -0.182   3.561  -1.544  0.00  0.00     0.003 A 
ENDROOT
BRANCH   1   7
ATOM      7  C1' I4B d   1      -0.157   2.504   0.732  0.00  0.00     0.060 C 
BRANCH   7   8
ATOM      8  C2' I4B d   1      -0.281   2.992   2.161  0.00  0.00    -0.013 C 
ATOM      9  C4' I4B d   1      -1.370   2.254   2.896  0.00  0.00     0.013 C 
ATOM     10  C3' I4B d   1       1.047   2.805   2.831  0.00  0.00     0.013 C 
ENDBRANCH   7   8
ENDBRANCH   1   7
TORSDOF 2
ENDMDL
