MODEL 1
REMARK minimizedAffinity 13.6048346
REMARK minimizedRMSD -1
REMARK  2 active torsions:
REMARK  status: ('A' for Active; 'I' for Inactive)
REMARK    1  A    between atoms: C2'_3  and  C1'_4 
REMARK    2  A    between atoms: C1'_4  and  C1_5 
ROOT
ATOM      1  C1  I4B d   1      -2.193   3.736  -2.283  0.00  0.00    -0.075 A 
ATOM      2  C2  I4B d   1      -0.943   3.273  -1.954  0.00  0.00     0.003 A 
ATOM      3  C3  I4B d   1       0.073   4.180  -1.563  0.00  0.00     0.002 A 
ATOM      4  C4  I4B d   1      -0.189   5.535  -1.564  0.00  0.00    -0.004 A 
ATOM      5  C5  I4B d   1      -1.464   6.000  -1.875  0.00  0.00     0.002 A 
ATOM      6  C6  I4B d   1      -2.476   5.094  -2.225  0.00  0.00     0.003 A 
ENDROOT
BRANCH   1   7
ATOM      7  C1' I4B d   1      -3.232   2.753  -2.722  0.00  0.00     0.060 C 
BRANCH   7   8
ATOM      8  C2' I4B d   1      -4.467   3.531  -3.127  0.00  0.00    -0.013 C 
ATOM      9  C4' I4B d   1      -4.784   3.330  -4.586  0.00  0.00     0.013 C 
ATOM     10  C3' I4B d   1      -5.604   3.079  -2.259  0.00  0.00     0.013 C 
ENDBRANCH   7   8
ENDBRANCH   1   7
TORSDOF 2
ENDMDL
