MODEL 1
REMARK minimizedAffinity 13.3401136
REMARK minimizedRMSD -1
REMARK  2 active torsions:
REMARK  status: ('A' for Active; 'I' for Inactive)
REMARK    1  A    between atoms: C2'_3  and  C1'_4 
REMARK    2  A    between atoms: C1'_4  and  C1_5 
ROOT
ATOM      1  C1  I4B d   1       2.444  -4.335  -0.833  0.00  0.00    -0.075 A 
ATOM      2  C2  I4B d   1       2.706  -3.108  -0.276  0.00  0.00     0.003 A 
ATOM      3  C3  I4B d   1       1.653  -2.187  -0.055  0.00  0.00     0.002 A 
ATOM      4  C4  I4B d   1       0.371  -2.512  -0.450  0.00  0.00    -0.004 A 
ATOM      5  C5  I4B d   1       0.105  -3.765  -0.993  0.00  0.00     0.002 A 
ATOM      6  C6  I4B d   1       1.145  -4.688  -1.175  0.00  0.00     0.003 A 
ENDROOT
BRANCH   1   7
ATOM      7  C1' I4B d   1       3.584  -5.271  -1.083  0.00  0.00     0.060 C 
BRANCH   7   8
ATOM      8  C2' I4B d   1       4.753  -4.820  -0.230  0.00  0.00    -0.013 C 
ATOM      9  C4' I4B d   1       5.516  -5.999   0.315  0.00  0.00     0.013 C 
ATOM     10  C3' I4B d   1       5.634  -3.949  -1.075  0.00  0.00     0.013 C 
ENDBRANCH   7   8
ENDBRANCH   1   7
TORSDOF 2
ENDMDL
