MODEL 1
REMARK minimizedAffinity 11.3059893
REMARK minimizedRMSD -1
REMARK  1 active torsions:
REMARK  status: ('A' for Active; 'I' for Inactive)
REMARK    1  A    between atoms: C1_2  and  C2_3 
ROOT
ATOM      1  C2  UNL d   1      -3.215  -0.601   1.833  0.00  0.00    -0.081 A 
ATOM      2  C3  UNL d   1      -4.561  -0.618   1.448  0.00  0.00     0.006 A 
ATOM      3  C4  UNL d   1      -5.276   0.575   1.321  0.00  0.00     0.002 A 
ATOM      4  C5  UNL d   1      -4.656   1.804   1.568  0.00  0.00    -0.080 A 
ATOM      5  C6  UNL d   1      -5.404   3.094   1.406  0.00  0.00     0.076 C 
ATOM      6  C7  UNL d   1      -3.316   1.820   1.970  0.00  0.00     0.002 A 
ATOM      7  C8  UNL d   1      -2.600   0.628   2.098  0.00  0.00     0.006 A 
ENDROOT
BRANCH   1   8
ATOM      8  C1  UNL d   1      -2.423  -1.882   1.908  0.00  0.00     0.054 C 
ATOM      9  C   UNL d   1      -3.134  -3.015   1.183  0.00  0.00     0.018 C 
ENDBRANCH   1   8
TORSDOF 1
ENDMDL
