MODEL 1
REMARK minimizedAffinity 8.13144207
REMARK minimizedRMSD -1
REMARK  1 active torsions:
REMARK  status: ('A' for Active; 'I' for Inactive)
REMARK    1  A    between atoms: C1_2  and  C2_3 
ROOT
ATOM      1  C2  UNL d   1       4.143   0.814  -1.802  0.00  0.00    -0.081 A 
ATOM      2  C3  UNL d   1       4.897  -0.184  -2.431  0.00  0.00     0.006 A 
ATOM      3  C4  UNL d   1       4.552  -1.530  -2.283  0.00  0.00     0.002 A 
ATOM      4  C5  UNL d   1       3.446  -1.899  -1.511  0.00  0.00    -0.080 A 
ATOM      5  C6  UNL d   1       3.047  -3.338  -1.368  0.00  0.00     0.076 C 
ATOM      6  C7  UNL d   1       2.703  -0.902  -0.868  0.00  0.00     0.002 A 
ATOM      7  C8  UNL d   1       3.047   0.443  -1.016  0.00  0.00     0.006 A 
ENDROOT
BRANCH   1   8
ATOM      8  C1  UNL d   1       4.473   2.270  -2.013  0.00  0.00     0.054 C 
ATOM      9  C   UNL d   1       4.178   3.090  -0.765  0.00  0.00     0.018 C 
ENDBRANCH   1   8
TORSDOF 1
ENDMDL
