MODEL 1
REMARK minimizedAffinity 8.48436832
REMARK minimizedRMSD -1
REMARK  1 active torsions:
REMARK  status: ('A' for Active; 'I' for Inactive)
REMARK    1  A    between atoms: C1_2  and  C2_3 
ROOT
ATOM      1  C2  UNL d   1      -3.081   3.482  -2.538  0.00  0.00    -0.081 A 
ATOM      2  C3  UNL d   1      -2.393   2.627  -3.407  0.00  0.00     0.006 A 
ATOM      3  C4  UNL d   1      -1.093   2.932  -3.818  0.00  0.00     0.002 A 
ATOM      4  C5  UNL d   1      -0.457   4.091  -3.361  0.00  0.00    -0.080 A 
ATOM      5  C6  UNL d   1       0.949   4.414  -3.770  0.00  0.00     0.076 C 
ATOM      6  C7  UNL d   1      -1.151   4.954  -2.506  0.00  0.00     0.002 A 
ATOM      7  C8  UNL d   1      -2.451   4.650  -2.095  0.00  0.00     0.006 A 
ENDROOT
BRANCH   1   8
ATOM      8  C1  UNL d   1      -4.459   3.123  -2.042  0.00  0.00     0.054 C 
ATOM      9  C   UNL d   1      -4.456   2.861  -0.542  0.00  0.00     0.018 C 
ENDBRANCH   1   8
TORSDOF 1
ENDMDL
