MODEL 1
REMARK minimizedAffinity 9.68087292
REMARK minimizedRMSD -1
REMARK  1 active torsions:
REMARK  status: ('A' for Active; 'I' for Inactive)
REMARK    1  A    between atoms: C1_2  and  C2_3 
ROOT
ATOM      1  C2  UNL d   1      -5.016   2.894   1.030  0.00  0.00    -0.081 A 
ATOM      2  C3  UNL d   1      -3.631   2.704   0.948  0.00  0.00     0.006 A 
ATOM      3  C4  UNL d   1      -2.968   1.910   1.887  0.00  0.00     0.002 A 
ATOM      4  C5  UNL d   1      -3.679   1.286   2.918  0.00  0.00    -0.080 A 
ATOM      5  C6  UNL d   1      -2.984   0.407   3.914  0.00  0.00     0.076 C 
ATOM      6  C7  UNL d   1      -5.060   1.490   3.010  0.00  0.00     0.002 A 
ATOM      7  C8  UNL d   1      -5.723   2.285   2.072  0.00  0.00     0.006 A 
ENDROOT
BRANCH   1   8
ATOM      8  C1  UNL d   1      -5.743   3.697  -0.018  0.00  0.00     0.054 C 
ATOM      9  C   UNL d   1      -5.995   2.871  -1.271  0.00  0.00     0.018 C 
ENDBRANCH   1   8
TORSDOF 1
ENDMDL
