MODEL 1
REMARK minimizedAffinity 8.3427124
REMARK minimizedRMSD -1
REMARK  1 active torsions:
REMARK  status: ('A' for Active; 'I' for Inactive)
REMARK    1  A    between atoms: C1_2  and  C2_3 
ROOT
ATOM      1  C2  UNL d   1      -1.328   5.041  -1.352  0.00  0.00    -0.081 A 
ATOM      2  C3  UNL d   1      -2.424   4.290  -1.795  0.00  0.00     0.006 A 
ATOM      3  C4  UNL d   1      -2.275   3.358  -2.824  0.00  0.00     0.002 A 
ATOM      4  C5  UNL d   1      -1.027   3.155  -3.422  0.00  0.00    -0.080 A 
ATOM      5  C6  UNL d   1      -0.846   2.136  -4.508  0.00  0.00     0.076 C 
ATOM      6  C7  UNL d   1       0.065   3.917  -2.992  0.00  0.00     0.002 A 
ATOM      7  C8  UNL d   1      -0.084   4.850  -1.963  0.00  0.00     0.006 A 
ENDROOT
BRANCH   1   8
ATOM      8  C1  UNL d   1      -1.472   6.000  -0.198  0.00  0.00     0.054 C 
ATOM      9  C   UNL d   1      -1.051   5.354   1.114  0.00  0.00     0.018 C 
ENDBRANCH   1   8
TORSDOF 1
ENDMDL
