MODEL 1
REMARK minimizedAffinity 6.54365873
REMARK minimizedRMSD -1
REMARK  1 active torsions:
REMARK  status: ('A' for Active; 'I' for Inactive)
REMARK    1  A    between atoms: C1_2  and  C2_3 
ROOT
ATOM      1  C2  UNL d   1      -0.911   5.310  -1.629  0.00  0.00    -0.081 A 
ATOM      2  C3  UNL d   1      -1.937   4.373  -1.454  0.00  0.00     0.006 A 
ATOM      3  C4  UNL d   1      -2.474   4.139  -0.186  0.00  0.00     0.002 A 
ATOM      4  C5  UNL d   1      -1.999   4.842   0.926  0.00  0.00    -0.080 A 
ATOM      5  C6  UNL d   1      -2.587   4.622   2.288  0.00  0.00     0.076 C 
ATOM      6  C7  UNL d   1      -0.962   5.765   0.755  0.00  0.00     0.002 A 
ATOM      7  C8  UNL d   1      -0.425   6.000  -0.513  0.00  0.00     0.006 A 
ENDROOT
BRANCH   1   8
ATOM      8  C1  UNL d   1      -0.375   5.612  -3.005  0.00  0.00     0.054 C 
ATOM      9  C   UNL d   1      -0.743   4.516  -3.995  0.00  0.00     0.018 C 
ENDBRANCH   1   8
TORSDOF 1
ENDMDL
