MODEL 1
REMARK minimizedAffinity -0.530669749
REMARK minimizedRMSD -1
REMARK  1 active torsions:
REMARK  status: ('A' for Active; 'I' for Inactive)
REMARK    1  A    between atoms: C1_2  and  C2_3 
ROOT
ATOM      1  C2  UNL d   1      -2.972   4.314   0.015  0.00  0.00    -0.081 A 
ATOM      2  C3  UNL d   1      -1.747   3.753  -0.366  0.00  0.00     0.006 A 
ATOM      3  C4  UNL d   1      -0.545   4.304   0.087  0.00  0.00     0.002 A 
ATOM      4  C5  UNL d   1      -0.548   5.418   0.933  0.00  0.00    -0.080 A 
ATOM      5  C6  UNL d   1       0.734   5.999   1.450  0.00  0.00     0.076 C 
ATOM      6  C7  UNL d   1      -1.772   5.989   1.299  0.00  0.00     0.002 A 
ATOM      7  C8  UNL d   1      -2.974   5.440   0.846  0.00  0.00     0.006 A 
ENDROOT
BRANCH   1   8
ATOM      8  C1  UNL d   1      -4.271   3.685  -0.419  0.00  0.00     0.054 C 
ATOM      9  C   UNL d   1      -4.421   2.280   0.148  0.00  0.00     0.018 C 
ENDBRANCH   1   8
TORSDOF 1
ENDMDL
