MODEL 1
REMARK minimizedAffinity 3.80887461
REMARK minimizedRMSD -1
REMARK  1 active torsions:
REMARK  status: ('A' for Active; 'I' for Inactive)
REMARK    1  A    between atoms: C1_2  and  C2_3 
ROOT
ATOM      1  C2  UNL d   1      -1.365   5.498  -1.512  0.00  0.00    -0.081 A 
ATOM      2  C3  UNL d   1      -0.328   5.355  -0.582  0.00  0.00     0.006 A 
ATOM      3  C4  UNL d   1      -0.571   5.529   0.782  0.00  0.00     0.002 A 
ATOM      4  C5  UNL d   1      -1.856   5.840   1.240  0.00  0.00    -0.080 A 
ATOM      5  C6  UNL d   1      -2.136   5.999   2.705  0.00  0.00     0.076 C 
ATOM      6  C7  UNL d   1      -2.888   6.000   0.310  0.00  0.00     0.002 A 
ATOM      7  C8  UNL d   1      -2.646   5.827  -1.054  0.00  0.00     0.006 A 
ENDROOT
BRANCH   1   8
ATOM      8  C1  UNL d   1      -1.120   5.248  -2.978  0.00  0.00     0.054 C 
ATOM      9  C   UNL d   1      -1.458   3.813  -3.359  0.00  0.00     0.018 C 
ENDBRANCH   1   8
TORSDOF 1
ENDMDL
