MODEL 1
REMARK minimizedAffinity 7.69159269
REMARK minimizedRMSD -1
REMARK  1 active torsions:
REMARK  status: ('A' for Active; 'I' for Inactive)
REMARK    1  A    between atoms: C1_2  and  C2_3 
ROOT
ATOM      1  C2  UNL d   1      -3.935   1.799   1.650  0.00  0.00    -0.081 A 
ATOM      2  C3  UNL d   1      -3.209   2.990   1.519  0.00  0.00     0.006 A 
ATOM      3  C4  UNL d   1      -3.873   4.211   1.377  0.00  0.00     0.002 A 
ATOM      4  C5  UNL d   1      -5.271   4.263   1.371  0.00  0.00    -0.080 A 
ATOM      5  C6  UNL d   1      -5.995   5.570   1.249  0.00  0.00     0.076 C 
ATOM      6  C7  UNL d   1      -5.995   3.071   1.484  0.00  0.00     0.002 A 
ATOM      7  C8  UNL d   1      -5.333   1.850   1.626  0.00  0.00     0.006 A 
ENDROOT
BRANCH   1   8
ATOM      8  C1  UNL d   1      -3.223   0.488   1.869  0.00  0.00     0.054 C 
ATOM      9  C   UNL d   1      -4.099  -0.691   1.469  0.00  0.00     0.018 C 
ENDBRANCH   1   8
TORSDOF 1
ENDMDL
