MODEL 1
REMARK minimizedAffinity 10.5573444
REMARK minimizedRMSD -1
REMARK  1 active torsions:
REMARK  status: ('A' for Active; 'I' for Inactive)
REMARK    1  A    between atoms: C1_2  and  C2_3 
ROOT
ATOM      1  C2  UNL d   1       3.683  -2.329  -2.485  0.00  0.00    -0.081 A 
ATOM      2  C3  UNL d   1       2.801  -1.779  -1.546  0.00  0.00     0.006 A 
ATOM      3  C4  UNL d   1       3.004  -0.487  -1.056  0.00  0.00     0.002 A 
ATOM      4  C5  UNL d   1       4.086   0.279  -1.501  0.00  0.00    -0.080 A 
ATOM      5  C6  UNL d   1       4.298   1.679  -1.005  0.00  0.00     0.076 C 
ATOM      6  C7  UNL d   1       4.977  -0.276  -2.425  0.00  0.00     0.002 A 
ATOM      7  C8  UNL d   1       4.776  -1.568  -2.915  0.00  0.00     0.006 A 
ENDROOT
BRANCH   1   8
ATOM      8  C1  UNL d   1       3.431  -3.697  -3.064  0.00  0.00     0.054 C 
ATOM      9  C   UNL d   1       2.896  -3.606  -4.486  0.00  0.00     0.018 C 
ENDBRANCH   1   8
TORSDOF 1
ENDMDL
