MODEL 1
REMARK minimizedAffinity 7.04626036
REMARK minimizedRMSD -1
REMARK  1 active torsions:
REMARK  status: ('A' for Active; 'I' for Inactive)
REMARK    1  A    between atoms: C1_2  and  C2_3 
ROOT
ATOM      1  C2  UNL d   1       4.480  -0.997  -2.242  0.00  0.00    -0.081 A 
ATOM      2  C3  UNL d   1       4.063  -0.514  -0.995  0.00  0.00     0.006 A 
ATOM      3  C4  UNL d   1       3.018  -1.135  -0.308  0.00  0.00     0.002 A 
ATOM      4  C5  UNL d   1       2.377  -2.254  -0.852  0.00  0.00    -0.080 A 
ATOM      5  C6  UNL d   1       1.274  -2.949  -0.111  0.00  0.00     0.076 C 
ATOM      6  C7  UNL d   1       2.782  -2.726  -2.105  0.00  0.00     0.002 A 
ATOM      7  C8  UNL d   1       3.826  -2.104  -2.793  0.00  0.00     0.006 A 
ENDROOT
BRANCH   1   8
ATOM      8  C1  UNL d   1       5.649  -0.368  -2.955  0.00  0.00     0.054 C 
ATOM      9  C   UNL d   1       6.000  -1.133  -4.223  0.00  0.00     0.018 C 
ENDBRANCH   1   8
TORSDOF 1
ENDMDL
