MODEL 1
REMARK minimizedAffinity 11.0519848
REMARK minimizedRMSD -1
REMARK  1 active torsions:
REMARK  status: ('A' for Active; 'I' for Inactive)
REMARK    1  A    between atoms: C1_2  and  C2_3 
ROOT
ATOM      1  C2  UNL d   1      -4.466  -4.556   0.501  0.00  0.00    -0.081 A 
ATOM      2  C3  UNL d   1      -4.135  -3.497  -0.353  0.00  0.00     0.006 A 
ATOM      3  C4  UNL d   1      -3.861  -2.229   0.165  0.00  0.00     0.002 A 
ATOM      4  C5  UNL d   1      -3.906  -2.000   1.544  0.00  0.00    -0.080 A 
ATOM      5  C6  UNL d   1      -3.585  -0.651   2.115  0.00  0.00     0.076 C 
ATOM      6  C7  UNL d   1      -4.254  -3.054   2.396  0.00  0.00     0.002 A 
ATOM      7  C8  UNL d   1      -4.529  -4.322   1.879  0.00  0.00     0.006 A 
ENDROOT
BRANCH   1   8
ATOM      8  C1  UNL d   1      -4.698  -5.940  -0.048  0.00  0.00     0.054 C 
ATOM      9  C   UNL d   1      -5.974  -6.000  -0.876  0.00  0.00     0.018 C 
ENDBRANCH   1   8
TORSDOF 1
ENDMDL
