MODEL 1
REMARK minimizedAffinity 6.33688164
REMARK minimizedRMSD -1
REMARK  1 active torsions:
REMARK  status: ('A' for Active; 'I' for Inactive)
REMARK    1  A    between atoms: C1_2  and  C2_3 
ROOT
ATOM      1  C2  UNL d   1       4.049  -0.112  -1.875  0.00  0.00    -0.081 A 
ATOM      2  C3  UNL d   1       4.165  -1.494  -1.679  0.00  0.00     0.006 A 
ATOM      3  C4  UNL d   1       3.320  -2.155  -0.785  0.00  0.00     0.002 A 
ATOM      4  C5  UNL d   1       2.341  -1.449  -0.079  0.00  0.00    -0.080 A 
ATOM      5  C6  UNL d   1       1.407  -2.152   0.861  0.00  0.00     0.076 C 
ATOM      6  C7  UNL d   1       2.237  -0.066  -0.261  0.00  0.00     0.002 A 
ATOM      7  C8  UNL d   1       3.082   0.596  -1.155  0.00  0.00     0.006 A 
ENDROOT
BRANCH   1   8
ATOM      8  C1  UNL d   1       4.916   0.594  -2.887  0.00  0.00     0.054 C 
ATOM      9  C   UNL d   1       6.000  -0.329  -3.426  0.00  0.00     0.018 C 
ENDBRANCH   1   8
TORSDOF 1
ENDMDL
