MODEL 1
REMARK minimizedAffinity 13.1503754
REMARK minimizedRMSD -1
REMARK  1 active torsions:
REMARK  status: ('A' for Active; 'I' for Inactive)
REMARK    1  A    between atoms: C1_2  and  C2_3 
ROOT
ATOM      1  C2  UNL d   1       1.311   3.048  -3.791  0.00  0.00    -0.081 A 
ATOM      2  C3  UNL d   1       0.489   3.797  -2.941  0.00  0.00     0.006 A 
ATOM      3  C4  UNL d   1      -0.863   3.476  -2.799  0.00  0.00     0.002 A 
ATOM      4  C5  UNL d   1      -1.413   2.396  -3.498  0.00  0.00    -0.080 A 
ATOM      5  C6  UNL d   1      -2.856   2.022  -3.331  0.00  0.00     0.076 C 
ATOM      6  C7  UNL d   1      -0.596   1.658  -4.360  0.00  0.00     0.002 A 
ATOM      7  C8  UNL d   1       0.756   1.979  -4.503  0.00  0.00     0.006 A 
ENDROOT
BRANCH   1   8
ATOM      8  C1  UNL d   1       2.784   3.351  -3.896  0.00  0.00     0.054 C 
ATOM      9  C   UNL d   1       3.104   4.099  -5.183  0.00  0.00     0.018 C 
ENDBRANCH   1   8
TORSDOF 1
ENDMDL
