MODEL 1
REMARK minimizedAffinity 14.7140398
REMARK minimizedRMSD -1
REMARK  1 active torsions:
REMARK  status: ('A' for Active; 'I' for Inactive)
REMARK    1  A    between atoms: C1_2  and  C2_3 
ROOT
ATOM      1  C2  UNL d   1      -0.087   1.294  -3.849  0.00  0.00    -0.081 A 
ATOM      2  C3  UNL d   1       0.811   2.364  -3.753  0.00  0.00     0.006 A 
ATOM      3  C4  UNL d   1       0.405   3.582  -3.203  0.00  0.00     0.002 A 
ATOM      4  C5  UNL d   1      -0.902   3.748  -2.733  0.00  0.00    -0.080 A 
ATOM      5  C6  UNL d   1      -1.342   5.041  -2.112  0.00  0.00     0.076 C 
ATOM      6  C7  UNL d   1      -1.804   2.685  -2.845  0.00  0.00     0.002 A 
ATOM      7  C8  UNL d   1      -1.399   1.467  -3.395  0.00  0.00     0.006 A 
ENDROOT
BRANCH   1   8
ATOM      8  C1  UNL d   1       0.365  -0.041  -4.382  0.00  0.00     0.054 C 
ATOM      9  C   UNL d   1      -0.137  -1.184  -3.512  0.00  0.00     0.018 C 
ENDBRANCH   1   8
TORSDOF 1
ENDMDL
