MODEL 1
REMARK minimizedAffinity -4.30660963
REMARK minimizedRMSD -1
REMARK  2 active torsions:
REMARK  status: ('A' for Active; 'I' for Inactive)
REMARK    1  A    between atoms: C1_2  and  C2_3 
REMARK    2  A    between atoms: C2_3  and  C3_4 
ROOT
ATOM      1  C3  UNL d   1      -3.484  -4.219  -4.993  0.00  0.00    -0.075 A 
ATOM      2  C4  UNL d   1      -3.623  -2.950  -5.574  0.00  0.00     0.002 A 
ATOM      3  C5  UNL d   1      -4.873  -2.334  -5.638  0.00  0.00     0.002 A 
ATOM      4  C6  UNL d   1      -5.999  -2.981  -5.133  0.00  0.00    -0.004 A 
ATOM      5  C7  UNL d   1      -5.875  -4.248  -4.568  0.00  0.00     0.002 A 
ATOM      6  C8  UNL d   1      -4.625  -4.865  -4.499  0.00  0.00     0.002 A 
ENDROOT
BRANCH   1   7
ATOM      7  C2  UNL d   1      -2.129  -4.879  -4.893  0.00  0.00     0.056 C 
BRANCH   7   8
ATOM      8  C1  UNL d   1      -1.515  -4.834  -3.490  0.00  0.00     0.007 C 
ATOM      9  C   UNL d   1      -2.013  -5.950  -2.582  0.00  0.00     0.009 C 
ENDBRANCH   7   8
ENDBRANCH   1   7
TORSDOF 2
ENDMDL
