MODEL 1
REMARK minimizedAffinity -3.23114562
REMARK minimizedRMSD -1
REMARK  2 active torsions:
REMARK  status: ('A' for Active; 'I' for Inactive)
REMARK    1  A    between atoms: C1_2  and  C2_3 
REMARK    2  A    between atoms: C2_3  and  C3_4 
ROOT
ATOM      1  C3  UNL d   1      -3.942  -3.668  -4.218  0.00  0.00    -0.075 A 
ATOM      2  C4  UNL d   1      -3.536  -3.530  -5.554  0.00  0.00     0.002 A 
ATOM      3  C5  UNL d   1      -2.354  -4.122  -5.999  0.00  0.00     0.002 A 
ATOM      4  C6  UNL d   1      -1.559  -4.848  -5.115  0.00  0.00    -0.004 A 
ATOM      5  C7  UNL d   1      -1.944  -4.977  -3.782  0.00  0.00     0.002 A 
ATOM      6  C8  UNL d   1      -3.129  -4.389  -3.335  0.00  0.00     0.002 A 
ENDROOT
BRANCH   1   7
ATOM      7  C2  UNL d   1      -5.236  -3.055  -3.737  0.00  0.00     0.056 C 
BRANCH   7   8
ATOM      8  C1  UNL d   1      -6.000  -2.282  -4.817  0.00  0.00     0.007 C 
ATOM      9  C   UNL d   1      -5.864  -0.771  -4.685  0.00  0.00     0.009 C 
ENDBRANCH   7   8
ENDBRANCH   1   7
TORSDOF 2
ENDMDL
