MODEL 1
REMARK minimizedAffinity -3.16917753
REMARK minimizedRMSD -1
REMARK  2 active torsions:
REMARK  status: ('A' for Active; 'I' for Inactive)
REMARK    1  A    between atoms: C1_2  and  C2_3 
REMARK    2  A    between atoms: C2_3  and  C3_4 
ROOT
ATOM      1  C3  UNL d   1      -3.881  -2.934  -4.351  0.00  0.00    -0.075 A 
ATOM      2  C4  UNL d   1      -3.637  -1.911  -5.279  0.00  0.00     0.002 A 
ATOM      3  C5  UNL d   1      -4.459  -0.785  -5.324  0.00  0.00     0.002 A 
ATOM      4  C6  UNL d   1      -5.539  -0.672  -4.450  0.00  0.00    -0.004 A 
ATOM      5  C7  UNL d   1      -5.800  -1.690  -3.535  0.00  0.00     0.002 A 
ATOM      6  C8  UNL d   1      -4.976  -2.816  -3.486  0.00  0.00     0.002 A 
ENDROOT
BRANCH   1   7
ATOM      7  C2  UNL d   1      -2.977  -4.142  -4.278  0.00  0.00     0.056 C 
BRANCH   7   8
ATOM      8  C1  UNL d   1      -2.628  -4.743  -5.644  0.00  0.00     0.007 C 
ATOM      9  C   UNL d   1      -3.471  -5.962  -5.997  0.00  0.00     0.009 C 
ENDBRANCH   7   8
ENDBRANCH   1   7
TORSDOF 2
ENDMDL
