MODEL 1
REMARK minimizedAffinity -1.22204328
REMARK minimizedRMSD -1
REMARK  2 active torsions:
REMARK  status: ('A' for Active; 'I' for Inactive)
REMARK    1  A    between atoms: C1_2  and  C2_3 
REMARK    2  A    between atoms: C2_3  and  C3_4 
ROOT
ATOM      1  C3  UNL d   1      -3.982  -4.234  -5.070  0.00  0.00    -0.075 A 
ATOM      2  C4  UNL d   1      -2.933  -4.213  -6.000  0.00  0.00     0.002 A 
ATOM      3  C5  UNL d   1      -1.852  -5.085  -5.869  0.00  0.00     0.002 A 
ATOM      4  C6  UNL d   1      -1.801  -5.981  -4.803  0.00  0.00    -0.004 A 
ATOM      5  C7  UNL d   1      -2.830  -5.999  -3.864  0.00  0.00     0.002 A 
ATOM      6  C8  UNL d   1      -3.915  -5.131  -3.995  0.00  0.00     0.002 A 
ENDROOT
BRANCH   1   7
ATOM      7  C2  UNL d   1      -5.169  -3.313  -5.222  0.00  0.00     0.056 C 
BRANCH   7   8
ATOM      8  C1  UNL d   1      -5.381  -2.367  -4.035  0.00  0.00     0.007 C 
ATOM      9  C   UNL d   1      -5.999  -1.033  -4.433  0.00  0.00     0.009 C 
ENDBRANCH   7   8
ENDBRANCH   1   7
TORSDOF 2
ENDMDL
