MODEL 1
REMARK minimizedAffinity -2.28620362
REMARK minimizedRMSD -1
REMARK  2 active torsions:
REMARK  status: ('A' for Active; 'I' for Inactive)
REMARK    1  A    between atoms: C1_2  and  C2_3 
REMARK    2  A    between atoms: C2_3  and  C3_4 
ROOT
ATOM      1  C3  UNL d   1      -4.841  -4.061  -4.692  0.00  0.00    -0.075 A 
ATOM      2  C4  UNL d   1      -5.137  -5.222  -5.420  0.00  0.00     0.002 A 
ATOM      3  C5  UNL d   1      -4.113  -5.999  -5.963  0.00  0.00     0.002 A 
ATOM      4  C6  UNL d   1      -2.783  -5.620  -5.793  0.00  0.00    -0.004 A 
ATOM      5  C7  UNL d   1      -2.478  -4.459  -5.085  0.00  0.00     0.002 A 
ATOM      6  C8  UNL d   1      -3.501  -3.683  -4.537  0.00  0.00     0.002 A 
ENDROOT
BRANCH   1   7
ATOM      7  C2  UNL d   1      -5.944  -3.233  -4.077  0.00  0.00     0.056 C 
BRANCH   7   8
ATOM      8  C1  UNL d   1      -6.000  -1.790  -4.589  0.00  0.00     0.007 C 
ATOM      9  C   UNL d   1      -5.974  -0.755  -3.472  0.00  0.00     0.009 C 
ENDBRANCH   7   8
ENDBRANCH   1   7
TORSDOF 2
ENDMDL
