MODEL 1
REMARK minimizedAffinity -2.89078999
REMARK minimizedRMSD -1
REMARK  2 active torsions:
REMARK  status: ('A' for Active; 'I' for Inactive)
REMARK    1  A    between atoms: C1_2  and  C2_3 
REMARK    2  A    between atoms: C2_3  and  C3_4 
ROOT
ATOM      1  C3  UNL d   1      -4.425  -4.606  -4.418  0.00  0.00    -0.075 A 
ATOM      2  C4  UNL d   1      -3.280  -4.227  -3.702  0.00  0.00     0.002 A 
ATOM      3  C5  UNL d   1      -2.025  -4.720  -4.061  0.00  0.00     0.002 A 
ATOM      4  C6  UNL d   1      -1.900  -5.603  -5.131  0.00  0.00    -0.004 A 
ATOM      5  C7  UNL d   1      -3.033  -5.999  -5.839  0.00  0.00     0.002 A 
ATOM      6  C8  UNL d   1      -4.289  -5.504  -5.485  0.00  0.00     0.002 A 
ENDROOT
BRANCH   1   7
ATOM      7  C2  UNL d   1      -5.782  -4.053  -4.054  0.00  0.00     0.056 C 
BRANCH   7   8
ATOM      8  C1  UNL d   1      -6.000  -2.599  -4.486  0.00  0.00     0.007 C 
ATOM      9  C   UNL d   1      -5.909  -2.402  -5.994  0.00  0.00     0.009 C 
ENDBRANCH   7   8
ENDBRANCH   1   7
TORSDOF 2
ENDMDL
