MODEL 1
REMARK minimizedAffinity -2.68141341
REMARK minimizedRMSD -1
REMARK  2 active torsions:
REMARK  status: ('A' for Active; 'I' for Inactive)
REMARK    1  A    between atoms: C1_2  and  C2_3 
REMARK    2  A    between atoms: C2_3  and  C3_4 
ROOT
ATOM      1  C3  UNL d   1      -4.453  -4.390  -5.118  0.00  0.00    -0.075 A 
ATOM      2  C4  UNL d   1      -3.396  -3.704  -4.502  0.00  0.00     0.002 A 
ATOM      3  C5  UNL d   1      -2.083  -4.154  -4.644  0.00  0.00     0.002 A 
ATOM      4  C6  UNL d   1      -1.811  -5.297  -5.392  0.00  0.00    -0.004 A 
ATOM      5  C7  UNL d   1      -2.855  -5.995  -5.994  0.00  0.00     0.002 A 
ATOM      6  C8  UNL d   1      -4.170  -5.546  -5.858  0.00  0.00     0.002 A 
ENDROOT
BRANCH   1   7
ATOM      7  C2  UNL d   1      -5.873  -3.893  -4.993  0.00  0.00     0.056 C 
BRANCH   7   8
ATOM      8  C1  UNL d   1      -6.000  -2.535  -4.293  0.00  0.00     0.007 C 
ATOM      9  C   UNL d   1      -5.991  -1.358  -5.259  0.00  0.00     0.009 C 
ENDBRANCH   7   8
ENDBRANCH   1   7
TORSDOF 2
ENDMDL
