MODEL 1
REMARK minimizedAffinity -2.94788837
REMARK minimizedRMSD -1
REMARK  2 active torsions:
REMARK  status: ('A' for Active; 'I' for Inactive)
REMARK    1  A    between atoms: C1_2  and  C2_3 
REMARK    2  A    between atoms: C2_3  and  C3_4 
ROOT
ATOM      1  C3  UNL d   1      -4.852  -4.000  -4.891  0.00  0.00    -0.075 A 
ATOM      2  C4  UNL d   1      -3.537  -3.686  -4.517  0.00  0.00     0.002 A 
ATOM      3  C5  UNL d   1      -2.477  -4.511  -4.893  0.00  0.00     0.002 A 
ATOM      4  C6  UNL d   1      -2.718  -5.664  -5.637  0.00  0.00    -0.004 A 
ATOM      5  C7  UNL d   1      -4.022  -5.995  -6.000  0.00  0.00     0.002 A 
ATOM      6  C8  UNL d   1      -5.084  -5.168  -5.628  0.00  0.00     0.002 A 
ENDROOT
BRANCH   1   7
ATOM      7  C2  UNL d   1      -6.000  -3.095  -4.512  0.00  0.00     0.056 C 
BRANCH   7   8
ATOM      8  C1  UNL d   1      -5.575  -1.670  -4.142  0.00  0.00     0.007 C 
ATOM      9  C   UNL d   1      -5.919  -0.644  -5.213  0.00  0.00     0.009 C 
ENDBRANCH   7   8
ENDBRANCH   1   7
TORSDOF 2
ENDMDL
