MODEL 1
REMARK minimizedAffinity -3.30930161
REMARK minimizedRMSD -1
REMARK  2 active torsions:
REMARK  status: ('A' for Active; 'I' for Inactive)
REMARK    1  A    between atoms: C1_2  and  C2_3 
REMARK    2  A    between atoms: C2_3  and  C3_4 
ROOT
ATOM      1  C3  UNL d   1      -4.988  -4.217  -4.411  0.00  0.00    -0.075 A 
ATOM      2  C4  UNL d   1      -5.403  -5.183  -5.339  0.00  0.00     0.002 A 
ATOM      3  C5  UNL d   1      -4.467  -5.979  -6.000  0.00  0.00     0.002 A 
ATOM      4  C6  UNL d   1      -3.107  -5.813  -5.750  0.00  0.00    -0.004 A 
ATOM      5  C7  UNL d   1      -2.682  -4.845  -4.843  0.00  0.00     0.002 A 
ATOM      6  C8  UNL d   1      -3.616  -4.050  -4.176  0.00  0.00     0.002 A 
ENDROOT
BRANCH   1   7
ATOM      7  C2  UNL d   1      -5.997  -3.373  -3.670  0.00  0.00     0.056 C 
BRANCH   7   8
ATOM      8  C1  UNL d   1      -5.997  -1.896  -4.081  0.00  0.00     0.007 C 
ATOM      9  C   UNL d   1      -5.930  -1.692  -5.589  0.00  0.00     0.009 C 
ENDBRANCH   7   8
ENDBRANCH   1   7
TORSDOF 2
ENDMDL
