MODEL 1
REMARK minimizedAffinity -3.58377409
REMARK minimizedRMSD -1
REMARK  2 active torsions:
REMARK  status: ('A' for Active; 'I' for Inactive)
REMARK    1  A    between atoms: C1_2  and  C2_3 
REMARK    2  A    between atoms: C2_3  and  C3_4 
ROOT
ATOM      1  C3  UNL d   1      -4.889  -3.487  -4.472  0.00  0.00    -0.075 A 
ATOM      2  C4  UNL d   1      -4.832  -4.110  -5.728  0.00  0.00     0.002 A 
ATOM      3  C5  UNL d   1      -3.858  -5.072  -5.997  0.00  0.00     0.002 A 
ATOM      4  C6  UNL d   1      -2.925  -5.416  -5.021  0.00  0.00    -0.004 A 
ATOM      5  C7  UNL d   1      -2.963  -4.792  -3.776  0.00  0.00     0.002 A 
ATOM      6  C8  UNL d   1      -3.939  -3.832  -3.502  0.00  0.00     0.002 A 
ENDROOT
BRANCH   1   7
ATOM      7  C2  UNL d   1      -5.958  -2.466  -4.165  0.00  0.00     0.056 C 
BRANCH   7   8
ATOM      8  C1  UNL d   1      -5.998  -1.289  -5.145  0.00  0.00     0.007 C 
ATOM      9  C   UNL d   1      -4.671  -0.550  -5.250  0.00  0.00     0.009 C 
ENDBRANCH   7   8
ENDBRANCH   1   7
TORSDOF 2
ENDMDL
