MODEL 1
REMARK minimizedAffinity -2.98274326
REMARK minimizedRMSD -1
REMARK  2 active torsions:
REMARK  status: ('A' for Active; 'I' for Inactive)
REMARK    1  A    between atoms: C1_2  and  C2_3 
REMARK    2  A    between atoms: C2_3  and  C3_4 
ROOT
ATOM      1  C3  UNL d   1      -5.638  -2.628  -4.936  0.00  0.00    -0.075 A 
ATOM      2  C4  UNL d   1      -5.814  -1.284  -5.295  0.00  0.00     0.002 A 
ATOM      3  C5  UNL d   1      -5.989  -0.306  -4.316  0.00  0.00     0.002 A 
ATOM      4  C6  UNL d   1      -6.000  -0.660  -2.968  0.00  0.00    -0.004 A 
ATOM      5  C7  UNL d   1      -5.843  -1.994  -2.600  0.00  0.00     0.002 A 
ATOM      6  C8  UNL d   1      -5.663  -2.974  -3.578  0.00  0.00     0.002 A 
ENDROOT
BRANCH   1   7
ATOM      7  C2  UNL d   1      -5.419  -3.688  -5.990  0.00  0.00     0.056 C 
BRANCH   7   8
ATOM      8  C1  UNL d   1      -4.448  -4.796  -5.568  0.00  0.00     0.007 C 
ATOM      9  C   UNL d   1      -3.011  -4.530  -5.995  0.00  0.00     0.009 C 
ENDBRANCH   7   8
ENDBRANCH   1   7
TORSDOF 2
ENDMDL
