MODEL 1
REMARK minimizedAffinity -0.64772445
REMARK minimizedRMSD -1
REMARK  0 active torsions:
REMARK  status: ('A' for Active; 'I' for Inactive)
ROOT
ATOM      1  C2' OXE d   1      -0.925   0.256  -0.070  0.00  0.00     0.078 C 
ATOM      2  C1' OXE d   1       0.587  -0.689  -2.238  0.00  0.00     0.078 C 
ATOM      3  C1  OXE d   1       0.180   0.763  -2.245  0.00  0.00    -0.078 A 
ATOM      4  C2  OXE d   1      -0.600   1.206  -1.204  0.00  0.00    -0.078 A 
ATOM      5  C3  OXE d   1      -0.958   2.549  -1.133  0.00  0.00     0.003 A 
ATOM      6  C4  OXE d   1      -0.661   3.418  -2.190  0.00  0.00    -0.002 A 
ATOM      7  C5  OXE d   1       0.098   2.977  -3.280  0.00  0.00    -0.002 A 
ATOM      8  C6  OXE d   1       0.561   1.667  -3.302  0.00  0.00     0.003 A 
ENDROOT
TORSDOF 0
ENDMDL
