MODEL 1
REMARK minimizedAffinity -5.40134478
REMARK minimizedRMSD -1
REMARK  0 active torsions:
REMARK  status: ('A' for Active; 'I' for Inactive)
ROOT
ATOM      1  C2' OXE d   1      -1.219  -0.364   2.677  0.00  0.00     0.078 C 
ATOM      2  C1' OXE d   1       1.521  -0.891   2.990  0.00  0.00     0.078 C 
ATOM      3  C1  OXE d   1       0.987  -0.751   1.586  0.00  0.00    -0.078 A 
ATOM      4  C2  OXE d   1      -0.363  -0.540   1.441  0.00  0.00    -0.078 A 
ATOM      5  C3  OXE d   1      -0.898  -0.350   0.171  0.00  0.00     0.003 A 
ATOM      6  C4  OXE d   1      -0.102  -0.524  -0.968  0.00  0.00    -0.002 A 
ATOM      7  C5  OXE d   1       1.268  -0.779  -0.843  0.00  0.00    -0.002 A 
ATOM      8  C6  OXE d   1       1.835  -0.853   0.425  0.00  0.00     0.003 A 
ENDROOT
TORSDOF 0
ENDMDL
