MODEL 1
REMARK minimizedAffinity -4.05616617
REMARK minimizedRMSD -1
REMARK  0 active torsions:
REMARK  status: ('A' for Active; 'I' for Inactive)
ROOT
ATOM      1  C2' OXE d   1       1.457  -0.377   2.401  0.00  0.00     0.078 C 
ATOM      2  C1' OXE d   1       2.743  -0.855  -0.048  0.00  0.00     0.078 C 
ATOM      3  C1  OXE d   1       1.280  -0.489  -0.081  0.00  0.00    -0.078 A 
ATOM      4  C2  OXE d   1       0.648  -0.303   1.124  0.00  0.00    -0.078 A 
ATOM      5  C3  OXE d   1      -0.688   0.090   1.149  0.00  0.00     0.003 A 
ATOM      6  C4  OXE d   1      -1.432   0.146  -0.035  0.00  0.00    -0.002 A 
ATOM      7  C5  OXE d   1      -0.817  -0.079  -1.272  0.00  0.00    -0.002 A 
ATOM      8  C6  OXE d   1       0.545  -0.356  -1.315  0.00  0.00     0.003 A 
ENDROOT
TORSDOF 0
ENDMDL
