MODEL 1
REMARK minimizedAffinity -4.43118382
REMARK minimizedRMSD -1
REMARK  0 active torsions:
REMARK  status: ('A' for Active; 'I' for Inactive)
ROOT
ATOM      1  C2' OXE d   1       1.554  -0.761   2.906  0.00  0.00     0.078 C 
ATOM      2  C1' OXE d   1       2.899  -0.995   0.453  0.00  0.00     0.078 C 
ATOM      3  C1  OXE d   1       1.472  -0.508   0.429  0.00  0.00    -0.078 A 
ATOM      4  C2  OXE d   1       0.806  -0.441   1.630  0.00  0.00    -0.078 A 
ATOM      5  C3  OXE d   1      -0.494   0.053   1.670  0.00  0.00     0.003 A 
ATOM      6  C4  OXE d   1      -1.182   0.337   0.484  0.00  0.00    -0.002 A 
ATOM      7  C5  OXE d   1      -0.536   0.238  -0.752  0.00  0.00    -0.002 A 
ATOM      8  C6  OXE d   1       0.801  -0.142  -0.794  0.00  0.00     0.003 A 
ENDROOT
TORSDOF 0
ENDMDL
