MODEL 1
REMARK minimizedAffinity -4.90838718
REMARK minimizedRMSD -1
REMARK  0 active torsions:
REMARK  status: ('A' for Active; 'I' for Inactive)
ROOT
ATOM      1  C2' OXE d   1      -2.023  -0.865   1.065  0.00  0.00     0.078 C 
ATOM      2  C1' OXE d   1      -0.461   0.507  -0.821  0.00  0.00     0.078 C 
ATOM      3  C1  OXE d   1       0.218   0.020   0.434  0.00  0.00    -0.078 A 
ATOM      4  C2  OXE d   1      -0.563  -0.609   1.373  0.00  0.00    -0.078 A 
ATOM      5  C3  OXE d   1       0.024  -1.126   2.524  0.00  0.00     0.003 A 
ATOM      6  C4  OXE d   1       1.372  -0.876   2.806  0.00  0.00    -0.002 A 
ATOM      7  C5  OXE d   1       2.177  -0.202   1.881  0.00  0.00    -0.002 A 
ATOM      8  C6  OXE d   1       1.627   0.214   0.674  0.00  0.00     0.003 A 
ENDROOT
TORSDOF 0
ENDMDL
