MODEL 1
REMARK minimizedAffinity -4.8261919
REMARK minimizedRMSD -1
REMARK  0 active torsions:
REMARK  status: ('A' for Active; 'I' for Inactive)
ROOT
ATOM      1  C2' OXE d   1      -1.895  -0.151   1.286  0.00  0.00     0.078 C 
ATOM      2  C1' OXE d   1      -0.331   0.026  -1.038  0.00  0.00     0.078 C 
ATOM      3  C1  OXE d   1       0.374  -0.263   0.264  0.00  0.00    -0.078 A 
ATOM      4  C2  OXE d   1      -0.394  -0.301   1.403  0.00  0.00    -0.078 A 
ATOM      5  C3  OXE d   1       0.198  -0.618   2.622  0.00  0.00     0.003 A 
ATOM      6  C4  OXE d   1       1.588  -0.746   2.724  0.00  0.00    -0.002 A 
ATOM      7  C5  OXE d   1       2.393  -0.671   1.582  0.00  0.00    -0.002 A 
ATOM      8  C6  OXE d   1       1.798  -0.472   0.341  0.00  0.00     0.003 A 
ENDROOT
TORSDOF 0
ENDMDL
