MODEL 1
REMARK minimizedAffinity -1.72863591
REMARK minimizedRMSD -1
REMARK  0 active torsions:
REMARK  status: ('A' for Active; 'I' for Inactive)
ROOT
ATOM      1  C2' OXE d   1       1.461  -0.699   2.864  0.00  0.00     0.078 C 
ATOM      2  C1' OXE d   1       2.455  -0.977   0.254  0.00  0.00     0.078 C 
ATOM      3  C1  OXE d   1       1.036  -0.493   0.418  0.00  0.00    -0.078 A 
ATOM      4  C2  OXE d   1       0.543  -0.405   1.697  0.00  0.00    -0.078 A 
ATOM      5  C3  OXE d   1      -0.742   0.087   1.908  0.00  0.00     0.003 A 
ATOM      6  C4  OXE d   1      -1.588   0.348   0.823  0.00  0.00    -0.002 A 
ATOM      7  C5  OXE d   1      -1.118   0.226  -0.489  0.00  0.00    -0.002 A 
ATOM      8  C6  OXE d   1       0.202  -0.151  -0.707  0.00  0.00     0.003 A 
ENDROOT
TORSDOF 0
ENDMDL
