MODEL 1
REMARK minimizedAffinity -2.19111252
REMARK minimizedRMSD -1
REMARK  0 active torsions:
REMARK  status: ('A' for Active; 'I' for Inactive)
ROOT
ATOM      1  C2' OXE d   1       2.850  -0.855  -0.136  0.00  0.00     0.078 C 
ATOM      2  C1' OXE d   1       1.726  -0.935   2.435  0.00  0.00     0.078 C 
ATOM      3  C1  OXE d   1       0.804  -0.663   1.272  0.00  0.00    -0.078 A 
ATOM      4  C2  OXE d   1       1.370  -0.579   0.023  0.00  0.00    -0.078 A 
ATOM      5  C3  OXE d   1       0.558  -0.385  -1.090  0.00  0.00     0.003 A 
ATOM      6  C4  OXE d   1      -0.808  -0.121  -0.933  0.00  0.00    -0.002 A 
ATOM      7  C5  OXE d   1      -1.398  -0.162   0.334  0.00  0.00    -0.002 A 
ATOM      8  C6  OXE d   1      -0.615  -0.473   1.440  0.00  0.00     0.003 A 
ENDROOT
TORSDOF 0
ENDMDL
