MODEL 1
REMARK minimizedAffinity -4.94065571
REMARK minimizedRMSD -1
REMARK  0 active torsions:
REMARK  status: ('A' for Active; 'I' for Inactive)
ROOT
ATOM      1  C2' OXE d   1       1.895  -0.936  -1.238  0.00  0.00     0.078 C 
ATOM      2  C1' OXE d   1      -0.396   0.656  -0.920  0.00  0.00     0.078 C 
ATOM      3  C1  OXE d   1       0.229   0.066   0.320  0.00  0.00    -0.078 A 
ATOM      4  C2  OXE d   1       1.322  -0.750   0.151  0.00  0.00    -0.078 A 
ATOM      5  C3  OXE d   1       1.969  -1.275   1.265  0.00  0.00     0.003 A 
ATOM      6  C4  OXE d   1       1.427  -1.106   2.545  0.00  0.00    -0.002 A 
ATOM      7  C5  OXE d   1       0.291  -0.312   2.736  0.00  0.00    -0.002 A 
ATOM      8  C6  OXE d   1      -0.294   0.315   1.641  0.00  0.00     0.003 A 
ENDROOT
TORSDOF 0
ENDMDL
