MODEL 1
REMARK minimizedAffinity -4.66036463
REMARK minimizedRMSD -1
REMARK  0 active torsions:
REMARK  status: ('A' for Active; 'I' for Inactive)
ROOT
ATOM      1  C2' OXE d   1      -0.524   0.006  -1.418  0.00  0.00     0.078 C 
ATOM      2  C1' OXE d   1       1.856  -1.299  -0.702  0.00  0.00     0.078 C 
ATOM      3  C1  OXE d   1       0.912  -0.901   0.404  0.00  0.00    -0.078 A 
ATOM      4  C2  OXE d   1      -0.228  -0.221   0.049  0.00  0.00    -0.078 A 
ATOM      5  C3  OXE d   1      -1.159   0.122   1.025  0.00  0.00     0.003 A 
ATOM      6  C4  OXE d   1      -0.873  -0.083   2.380  0.00  0.00    -0.002 A 
ATOM      7  C5  OXE d   1       0.301  -0.738   2.767  0.00  0.00    -0.002 A 
ATOM      8  C6  OXE d   1       1.182  -1.190   1.791  0.00  0.00     0.003 A 
ENDROOT
TORSDOF 0
ENDMDL
