MODEL 1
REMARK minimizedAffinity -4.24680948
REMARK minimizedRMSD -1
REMARK  0 active torsions:
REMARK  status: ('A' for Active; 'I' for Inactive)
ROOT
ATOM      1  C2' OXE d   1      -1.092   0.032  -1.815  0.00  0.00     0.078 C 
ATOM      2  C1' OXE d   1       1.315  -1.298  -2.379  0.00  0.00     0.078 C 
ATOM      3  C1  OXE d   1       1.163  -0.665  -1.018  0.00  0.00    -0.078 A 
ATOM      4  C2  OXE d   1       0.000   0.024  -0.768  0.00  0.00    -0.078 A 
ATOM      5  C3  OXE d   1      -0.214   0.580   0.490  0.00  0.00     0.003 A 
ATOM      6  C4  OXE d   1       0.805   0.577   1.450  0.00  0.00    -0.002 A 
ATOM      7  C5  OXE d   1       2.013  -0.085   1.201  0.00  0.00    -0.002 A 
ATOM      8  C6  OXE d   1       2.191  -0.746  -0.010  0.00  0.00     0.003 A 
ENDROOT
TORSDOF 0
ENDMDL
