MODEL 1
REMARK minimizedAffinity -0.825505674
REMARK minimizedRMSD -1
REMARK  1 active torsions:
REMARK  status: ('A' for Active; 'I' for Inactive)
REMARK    1  A    between atoms: C1_2  and  C2_3 
ROOT
ATOM      1  C2  UNL d   1       0.860  -0.488  -2.186  0.00  0.00    -0.076 A 
ATOM      2  C3  UNL d   1      -0.466  -0.455  -2.650  0.00  0.00     0.004 A 
ATOM      3  C4  UNL d   1      -0.773   0.060  -3.908  0.00  0.00    -0.003 A 
ATOM      4  C5  UNL d   1       0.242   0.551  -4.723  0.00  0.00     0.000 A 
ATOM      5  C6  UNL d   1       1.565   0.511  -4.285  0.00  0.00     0.000 A 
ATOM      6  C7  UNL d   1       1.893  -0.020  -3.026  0.00  0.00    -0.073 A 
ATOM      7  C8  UNL d   1       3.336  -0.034  -2.602  0.00  0.00     0.078 C 
ENDROOT
BRANCH   1   8
ATOM      8  C1  UNL d   1       1.129  -1.033  -0.801  0.00  0.00     0.053 C 
ATOM      9  C   UNL d   1       0.263  -0.377   0.263  0.00  0.00     0.018 C 
ENDBRANCH   1   8
TORSDOF 1
ENDMDL
