MODEL 1
REMARK minimizedAffinity -2.62175727
REMARK minimizedRMSD -1
REMARK  1 active torsions:
REMARK  status: ('A' for Active; 'I' for Inactive)
REMARK    1  A    between atoms: C1_2  and  C2_3 
ROOT
ATOM      1  C2  UNL d   1      -0.863  -0.143   0.714  0.00  0.00    -0.076 A 
ATOM      2  C3  UNL d   1       0.091   0.855   0.451  0.00  0.00     0.004 A 
ATOM      3  C4  UNL d   1       0.729   0.929  -0.786  0.00  0.00    -0.003 A 
ATOM      4  C5  UNL d   1       0.423   0.007  -1.781  0.00  0.00     0.000 A 
ATOM      5  C6  UNL d   1      -0.534  -0.979  -1.543  0.00  0.00     0.000 A 
ATOM      6  C7  UNL d   1      -1.199  -1.058  -0.307  0.00  0.00    -0.073 A 
ATOM      7  C8  UNL d   1      -2.218  -2.145  -0.104  0.00  0.00     0.078 C 
ENDROOT
BRANCH   1   8
ATOM      8  C1  UNL d   1      -1.503  -0.191   2.083  0.00  0.00     0.053 C 
ATOM      9  C   UNL d   1      -0.951   0.871   3.021  0.00  0.00     0.018 C 
ENDBRANCH   1   8
TORSDOF 1
ENDMDL
