MODEL 1
REMARK minimizedAffinity -3.9309411
REMARK minimizedRMSD -1
REMARK  1 active torsions:
REMARK  status: ('A' for Active; 'I' for Inactive)
REMARK    1  A    between atoms: C1_2  and  C2_3 
ROOT
ATOM      1  C2  UNL d   1      -0.566   0.093  -0.283  0.00  0.00    -0.076 A 
ATOM      2  C3  UNL d   1       0.488   0.128   0.646  0.00  0.00     0.004 A 
ATOM      3  C4  UNL d   1       0.238   0.275   2.010  0.00  0.00    -0.003 A 
ATOM      4  C5  UNL d   1      -1.071   0.389   2.466  0.00  0.00     0.000 A 
ATOM      5  C6  UNL d   1      -2.129   0.339   1.559  0.00  0.00     0.000 A 
ATOM      6  C7  UNL d   1      -1.895   0.175   0.183  0.00  0.00    -0.073 A 
ATOM      7  C8  UNL d   1      -3.074   0.134  -0.750  0.00  0.00     0.078 C 
ENDROOT
BRANCH   1   8
ATOM      8  C1  UNL d   1      -0.232  -0.041  -1.752  0.00  0.00     0.053 C 
ATOM      9  C   UNL d   1       1.196  -0.509  -1.984  0.00  0.00     0.018 C 
ENDBRANCH   1   8
TORSDOF 1
ENDMDL
