MODEL 1
REMARK minimizedAffinity -5.31788206
REMARK minimizedRMSD -1
REMARK  1 active torsions:
REMARK  status: ('A' for Active; 'I' for Inactive)
REMARK    1  A    between atoms: C1_2  and  C2_3 
ROOT
ATOM      1  C2  UNL d   1       0.041  -0.213   0.114  0.00  0.00    -0.076 A 
ATOM      2  C3  UNL d   1      -1.205   0.359   0.425  0.00  0.00     0.004 A 
ATOM      3  C4  UNL d   1      -1.478   0.829   1.708  0.00  0.00    -0.003 A 
ATOM      4  C5  UNL d   1      -0.510   0.735   2.702  0.00  0.00     0.000 A 
ATOM      5  C6  UNL d   1       0.738   0.186   2.407  0.00  0.00     0.000 A 
ATOM      6  C7  UNL d   1       1.035  -0.277   1.114  0.00  0.00    -0.073 A 
ATOM      7  C8  UNL d   1       2.395  -0.866   0.853  0.00  0.00     0.078 C 
ENDROOT
BRANCH   1   8
ATOM      8  C1  UNL d   1       0.271  -0.731  -1.288  0.00  0.00     0.053 C 
ATOM      9  C   UNL d   1       1.113   0.217  -2.128  0.00  0.00     0.018 C 
ENDBRANCH   1   8
TORSDOF 1
ENDMDL
