MODEL 1
REMARK minimizedAffinity -3.02672029
REMARK minimizedRMSD -1
REMARK  1 active torsions:
REMARK  status: ('A' for Active; 'I' for Inactive)
REMARK    1  A    between atoms: C1_2  and  C2_3 
ROOT
ATOM      1  C2  UNL d   1       0.284  -0.217   0.314  0.00  0.00    -0.076 A 
ATOM      2  C3  UNL d   1      -1.049   0.146   0.057  0.00  0.00     0.004 A 
ATOM      3  C4  UNL d   1      -1.867   0.640   1.072  0.00  0.00    -0.003 A 
ATOM      4  C5  UNL d   1      -1.364   0.780   2.361  0.00  0.00     0.000 A 
ATOM      5  C6  UNL d   1      -0.038   0.442   2.630  0.00  0.00     0.000 A 
ATOM      6  C7  UNL d   1       0.804  -0.042   1.615  0.00  0.00    -0.073 A 
ATOM      7  C8  UNL d   1       2.224  -0.396   1.963  0.00  0.00     0.078 C 
ENDROOT
BRANCH   1   8
ATOM      8  C1  UNL d   1       1.115  -0.772  -0.820  0.00  0.00     0.053 C 
ATOM      9  C   UNL d   1       0.720  -0.193  -2.170  0.00  0.00     0.018 C 
ENDBRANCH   1   8
TORSDOF 1
ENDMDL
