MODEL 1
REMARK minimizedAffinity -1.19149053
REMARK minimizedRMSD -1
REMARK  1 active torsions:
REMARK  status: ('A' for Active; 'I' for Inactive)
REMARK    1  A    between atoms: C1_2  and  C2_3 
ROOT
ATOM      1  C2  UNL d   1       0.536   0.205  -2.041  0.00  0.00    -0.076 A 
ATOM      2  C3  UNL d   1       0.447   1.083  -0.947  0.00  0.00     0.004 A 
ATOM      3  C4  UNL d   1      -0.356   0.782   0.152  0.00  0.00    -0.003 A 
ATOM      4  C5  UNL d   1      -1.082  -0.404   0.175  0.00  0.00     0.000 A 
ATOM      5  C6  UNL d   1      -0.992  -1.296  -0.893  0.00  0.00     0.000 A 
ATOM      6  C7  UNL d   1      -0.175  -1.014  -2.002  0.00  0.00    -0.073 A 
ATOM      7  C8  UNL d   1      -0.119  -2.008  -3.129  0.00  0.00     0.078 C 
ENDROOT
BRANCH   1   8
ATOM      8  C1  UNL d   1       1.401   0.598  -3.217  0.00  0.00     0.053 C 
ATOM      9  C   UNL d   1       0.594   1.189  -4.362  0.00  0.00     0.018 C 
ENDBRANCH   1   8
TORSDOF 1
ENDMDL
