MODEL 1
REMARK minimizedAffinity -4.08048582
REMARK minimizedRMSD -1
REMARK  1 active torsions:
REMARK  status: ('A' for Active; 'I' for Inactive)
REMARK    1  A    between atoms: C1_2  and  C2_3 
ROOT
ATOM      1  C2  UNL d   1      -0.496  -0.088  -0.416  0.00  0.00    -0.076 A 
ATOM      2  C3  UNL d   1      -1.763   0.422  -0.748  0.00  0.00     0.004 A 
ATOM      3  C4  UNL d   1      -2.613   0.927   0.234  0.00  0.00    -0.003 A 
ATOM      4  C5  UNL d   1      -2.209   0.931   1.565  0.00  0.00     0.000 A 
ATOM      5  C6  UNL d   1      -0.949   0.446   1.910  0.00  0.00     0.000 A 
ATOM      6  C7  UNL d   1      -0.073  -0.052   0.930  0.00  0.00    -0.073 A 
ATOM      7  C8  UNL d   1       1.272  -0.570   1.359  0.00  0.00     0.078 C 
ENDROOT
BRANCH   1   8
ATOM      8  C1  UNL d   1       0.371  -0.648  -1.521  0.00  0.00     0.053 C 
ATOM      9  C   UNL d   1       0.830   0.421  -2.501  0.00  0.00     0.018 C 
ENDBRANCH   1   8
TORSDOF 1
ENDMDL
