MODEL 1
REMARK minimizedAffinity 4.74455786
REMARK minimizedRMSD -1
REMARK  1 active torsions:
REMARK  status: ('A' for Active; 'I' for Inactive)
REMARK    1  A    between atoms: C1_2  and  C2_3 
ROOT
ATOM      1  C2  UNL d   1       4.816   0.382   3.658  0.00  0.00    -0.076 A 
ATOM      2  C3  UNL d   1       4.288   1.282   2.716  0.00  0.00     0.004 A 
ATOM      3  C4  UNL d   1       4.293   2.655   2.954  0.00  0.00    -0.003 A 
ATOM      4  C5  UNL d   1       4.828   3.151   4.138  0.00  0.00     0.000 A 
ATOM      5  C6  UNL d   1       5.372   2.274   5.076  0.00  0.00     0.000 A 
ATOM      6  C7  UNL d   1       5.389   0.888   4.844  0.00  0.00    -0.073 A 
ATOM      7  C8  UNL d   1       5.983  -0.012   5.892  0.00  0.00     0.078 C 
ENDROOT
BRANCH   1   8
ATOM      8  C1  UNL d   1       4.759  -1.099   3.356  0.00  0.00     0.053 C 
ATOM      9  C   UNL d   1       4.325  -1.386   1.927  0.00  0.00     0.018 C 
ENDBRANCH   1   8
TORSDOF 1
ENDMDL
