MODEL 1
REMARK minimizedAffinity 3.28507257
REMARK minimizedRMSD -1
REMARK  0 active torsions:
REMARK  status: ('A' for Active; 'I' for Inactive)
ROOT
ATOM      1  C   UNL d   1       6.000  -5.014  -5.973  0.00  0.00     0.077 C 
ATOM      2  C1  UNL d   1       4.765  -5.351  -5.190  0.00  0.00    -0.074 A 
ATOM      3  C2  UNL d   1       3.546  -5.581  -5.836  0.00  0.00    -0.005 A 
ATOM      4  C3  UNL d   1       2.409  -5.903  -5.096  0.00  0.00     0.006 A 
ATOM      5  C4  UNL d   1       2.478  -5.998  -3.705  0.00  0.00    -0.005 A 
ATOM      6  C5  UNL d   1       3.689  -5.772  -3.043  0.00  0.00    -0.074 A 
ATOM      7  C6  UNL d   1       3.784  -5.879  -1.550  0.00  0.00     0.077 C 
ATOM      8  C7  UNL d   1       4.829  -5.456  -3.794  0.00  0.00    -0.001 A 
ENDROOT
TORSDOF 0
ENDMDL
