MODEL 1
REMARK minimizedAffinity 5.07522488
REMARK minimizedRMSD -1
REMARK  0 active torsions:
REMARK  status: ('A' for Active; 'I' for Inactive)
ROOT
ATOM      1  C   UNL d   1       1.799  -1.251   2.569  0.00  0.00     0.077 C 
ATOM      2  C1  UNL d   1       2.084  -2.517   3.321  0.00  0.00    -0.074 A 
ATOM      3  C2  UNL d   1       3.383  -2.832   3.732  0.00  0.00    -0.005 A 
ATOM      4  C3  UNL d   1       3.630  -4.009   4.439  0.00  0.00     0.006 A 
ATOM      5  C4  UNL d   1       2.584  -4.882   4.740  0.00  0.00    -0.005 A 
ATOM      6  C5  UNL d   1       1.278  -4.583   4.338  0.00  0.00    -0.074 A 
ATOM      7  C6  UNL d   1       0.140  -5.504   4.662  0.00  0.00     0.077 C 
ATOM      8  C7  UNL d   1       1.036  -3.395   3.634  0.00  0.00    -0.001 A 
ENDROOT
TORSDOF 0
ENDMDL
