MODEL 1
REMARK minimizedAffinity 7.58562803
REMARK minimizedRMSD -1
REMARK  0 active torsions:
REMARK  status: ('A' for Active; 'I' for Inactive)
ROOT
ATOM      1  C   UNL d   1       2.633   2.258   0.479  0.00  0.00     0.077 C 
ATOM      2  C1  UNL d   1       2.382   1.103   1.404  0.00  0.00    -0.074 A 
ATOM      3  C2  UNL d   1       2.745   1.171   2.753  0.00  0.00    -0.005 A 
ATOM      4  C3  UNL d   1       2.497   0.093   3.602  0.00  0.00     0.006 A 
ATOM      5  C4  UNL d   1       1.885  -1.062   3.112  0.00  0.00    -0.005 A 
ATOM      6  C5  UNL d   1       1.515  -1.147   1.767  0.00  0.00    -0.074 A 
ATOM      7  C6  UNL d   1       0.847  -2.376   1.226  0.00  0.00     0.077 C 
ATOM      8  C7  UNL d   1       1.761  -0.057   0.921  0.00  0.00    -0.001 A 
ENDROOT
TORSDOF 0
ENDMDL
