MODEL 1
REMARK minimizedAffinity 2.38495517
REMARK minimizedRMSD -1
REMARK  0 active torsions:
REMARK  status: ('A' for Active; 'I' for Inactive)
ROOT
ATOM      1  C   UNL d   1       0.325  -1.974  -0.198  0.00  0.00     0.077 C 
ATOM      2  C1  UNL d   1      -1.021  -2.109  -0.845  0.00  0.00    -0.074 A 
ATOM      3  C2  UNL d   1      -1.800  -3.255  -0.652  0.00  0.00    -0.005 A 
ATOM      4  C3  UNL d   1      -3.055  -3.362  -1.253  0.00  0.00     0.006 A 
ATOM      5  C4  UNL d   1      -3.542  -2.326  -2.051  0.00  0.00    -0.005 A 
ATOM      6  C5  UNL d   1      -2.778  -1.173  -2.254  0.00  0.00    -0.074 A 
ATOM      7  C6  UNL d   1      -3.292  -0.046  -3.101  0.00  0.00     0.077 C 
ATOM      8  C7  UNL d   1      -1.522  -1.070  -1.642  0.00  0.00    -0.001 A 
ENDROOT
TORSDOF 0
ENDMDL
