MODEL 1
REMARK minimizedAffinity 4.59233141
REMARK minimizedRMSD -1
REMARK  0 active torsions:
REMARK  status: ('A' for Active; 'I' for Inactive)
ROOT
ATOM      1  C   UNL d   1       5.712  -2.399   4.276  0.00  0.00     0.077 C 
ATOM      2  C1  UNL d   1       4.240  -2.140   4.398  0.00  0.00    -0.074 A 
ATOM      3  C2  UNL d   1       3.580  -2.301   5.621  0.00  0.00    -0.005 A 
ATOM      4  C3  UNL d   1       2.212  -2.048   5.721  0.00  0.00     0.006 A 
ATOM      5  C4  UNL d   1       1.491  -1.631   4.601  0.00  0.00    -0.005 A 
ATOM      6  C5  UNL d   1       2.134  -1.464   3.370  0.00  0.00    -0.074 A 
ATOM      7  C6  UNL d   1       1.375  -1.008   2.159  0.00  0.00     0.077 C 
ATOM      8  C7  UNL d   1       3.510  -1.714   3.279  0.00  0.00    -0.001 A 
ENDROOT
TORSDOF 0
ENDMDL
