MODEL 1
REMARK minimizedAffinity 10.1764803
REMARK minimizedRMSD -1
REMARK  0 active torsions:
REMARK  status: ('A' for Active; 'I' for Inactive)
ROOT
ATOM      1  C   UNL d   1       2.517   1.577   1.346  0.00  0.00     0.077 C 
ATOM      2  C1  UNL d   1       1.861   0.251   1.591  0.00  0.00    -0.074 A 
ATOM      3  C2  UNL d   1       2.332  -0.610   2.587  0.00  0.00    -0.005 A 
ATOM      4  C3  UNL d   1       1.706  -1.837   2.810  0.00  0.00     0.006 A 
ATOM      5  C4  UNL d   1       0.605  -2.214   2.039  0.00  0.00    -0.005 A 
ATOM      6  C5  UNL d   1       0.121  -1.366   1.039  0.00  0.00    -0.074 A 
ATOM      7  C6  UNL d   1      -1.067  -1.751   0.208  0.00  0.00     0.077 C 
ATOM      8  C7  UNL d   1       0.751  -0.132   0.826  0.00  0.00    -0.001 A 
ENDROOT
TORSDOF 0
ENDMDL
