MODEL 1
REMARK minimizedAffinity 7.57124424
REMARK minimizedRMSD -1
REMARK  0 active torsions:
REMARK  status: ('A' for Active; 'I' for Inactive)
ROOT
ATOM      1  C   UNL d   1       1.783  -5.991   6.000  0.00  0.00     0.077 C 
ATOM      2  C1  UNL d   1       2.150  -5.053   4.888  0.00  0.00    -0.074 A 
ATOM      3  C2  UNL d   1       2.660  -5.536   3.679  0.00  0.00    -0.005 A 
ATOM      4  C3  UNL d   1       2.987  -4.653   2.651  0.00  0.00     0.006 A 
ATOM      5  C4  UNL d   1       2.808  -3.279   2.821  0.00  0.00    -0.005 A 
ATOM      6  C5  UNL d   1       2.299  -2.778   4.023  0.00  0.00    -0.074 A 
ATOM      7  C6  UNL d   1       2.091  -1.306   4.219  0.00  0.00     0.077 C 
ATOM      8  C7  UNL d   1       1.965  -3.673   5.049  0.00  0.00    -0.001 A 
ENDROOT
TORSDOF 0
ENDMDL
