MODEL 1
REMARK minimizedAffinity 8.20185947
REMARK minimizedRMSD -1
REMARK  0 active torsions:
REMARK  status: ('A' for Active; 'I' for Inactive)
ROOT
ATOM      1  O1  BZF d   1       1.152   3.811  -1.191  0.00  0.00    -0.204 OA
ATOM      2  C2  BZF d   1       0.116   3.767  -2.104  0.00  0.00     0.174 A 
ATOM      3  C3  BZF d   1      -0.940   3.099  -1.596  0.00  0.00    -0.012 A 
ATOM      4  C3A BZF d   1      -0.573   2.781  -0.250  0.00  0.00    -0.107 A 
ATOM      5  C4  BZF d   1      -1.213   2.137   0.770  0.00  0.00     0.055 A 
ATOM      6  C5  BZF d   1      -0.549   1.927   1.937  0.00  0.00    -0.016 A 
ATOM      7  C6  BZF d   1       0.753   2.344   2.117  0.00  0.00     0.022 A 
ATOM      8  C7  BZF d   1       1.427   2.992   1.136  0.00  0.00     0.029 A 
ATOM      9  C7A BZF d   1       0.749   3.234  -0.034  0.00  0.00     0.058 A 
ENDROOT
TORSDOF 0
ENDMDL
