MODEL 1
REMARK minimizedAffinity 11.0624075
REMARK minimizedRMSD -1
REMARK  0 active torsions:
REMARK  status: ('A' for Active; 'I' for Inactive)
ROOT
ATOM      1  O1  BZF d   1       1.782   4.946  -1.030  0.00  0.00    -0.204 OA
ATOM      2  C2  BZF d   1       1.505   6.000  -1.879  0.00  0.00     0.174 A 
ATOM      3  C3  BZF d   1       0.212   5.979  -2.262  0.00  0.00    -0.012 A 
ATOM      4  C3A BZF d   1      -0.377   4.894  -1.539  0.00  0.00    -0.107 A 
ATOM      5  C4  BZF d   1      -1.641   4.380  -1.482  0.00  0.00     0.055 A 
ATOM      6  C5  BZF d   1      -1.870   3.270  -0.732  0.00  0.00    -0.016 A 
ATOM      7  C6  BZF d   1      -0.858   2.646  -0.031  0.00  0.00     0.022 A 
ATOM      8  C7  BZF d   1       0.411   3.122  -0.053  0.00  0.00     0.029 A 
ATOM      9  C7A BZF d   1       0.638   4.263  -0.784  0.00  0.00     0.058 A 
ENDROOT
TORSDOF 0
ENDMDL
