MODEL 1
REMARK minimizedAffinity 16.9945927
REMARK minimizedRMSD -1
REMARK  0 active torsions:
REMARK  status: ('A' for Active; 'I' for Inactive)
ROOT
ATOM      1  O1  BZF d   1      -2.376   5.509  -0.016  0.00  0.00    -0.204 OA
ATOM      2  C2  BZF d   1      -2.671   5.554   1.333  0.00  0.00     0.174 A 
ATOM      3  C3  BZF d   1      -2.050   4.555   1.992  0.00  0.00    -0.012 A 
ATOM      4  C3A BZF d   1      -1.248   3.896   1.008  0.00  0.00    -0.107 A 
ATOM      5  C4  BZF d   1      -0.389   2.835   1.054  0.00  0.00     0.055 A 
ATOM      6  C5  BZF d   1       0.180   2.396  -0.100  0.00  0.00    -0.016 A 
ATOM      7  C6  BZF d   1      -0.092   2.989  -1.315  0.00  0.00     0.022 A 
ATOM      8  C7  BZF d   1      -0.934   4.047  -1.410  0.00  0.00     0.029 A 
ATOM      9  C7A BZF d   1      -1.484   4.514  -0.241  0.00  0.00     0.058 A 
ENDROOT
TORSDOF 0
ENDMDL
