MODEL 1
REMARK minimizedAffinity 14.048563
REMARK minimizedRMSD -1
REMARK  0 active torsions:
REMARK  status: ('A' for Active; 'I' for Inactive)
ROOT
ATOM      1  O1  BZF d   1      -2.734   4.121   2.728  0.00  0.00    -0.204 OA
ATOM      2  C2  BZF d   1      -3.030   5.353   2.178  0.00  0.00     0.174 A 
ATOM      3  C3  BZF d   1      -2.410   5.508   0.991  0.00  0.00    -0.012 A 
ATOM      4  C3A BZF d   1      -1.755   4.260   0.742  0.00  0.00    -0.107 A 
ATOM      5  C4  BZF d   1      -0.989   3.790  -0.286  0.00  0.00     0.055 A 
ATOM      6  C5  BZF d   1      -0.441   2.551  -0.188  0.00  0.00    -0.016 A 
ATOM      7  C6  BZF d   1      -0.632   1.758   0.924  0.00  0.00     0.022 A 
ATOM      8  C7  BZF d   1      -1.389   2.179   1.967  0.00  0.00     0.029 A 
ATOM      9  C7A BZF d   1      -1.972   3.417   1.857  0.00  0.00     0.058 A 
ENDROOT
TORSDOF 0
ENDMDL
