MODEL 1
REMARK minimizedAffinity 6.58013296
REMARK minimizedRMSD -1
REMARK  0 active torsions:
REMARK  status: ('A' for Active; 'I' for Inactive)
ROOT
ATOM      1  O1  BZF d   1       1.371   1.850  -0.885  0.00  0.00    -0.204 OA
ATOM      2  C2  BZF d   1       0.444   2.274  -1.817  0.00  0.00     0.174 A 
ATOM      3  C3  BZF d   1      -0.737   2.547  -1.227  0.00  0.00    -0.012 A 
ATOM      4  C3A BZF d   1      -0.509   2.365   0.174  0.00  0.00    -0.107 A 
ATOM      5  C4  BZF d   1      -1.299   2.502   1.280  0.00  0.00     0.055 A 
ATOM      6  C5  BZF d   1      -0.793   2.176   2.498  0.00  0.00    -0.016 A 
ATOM      7  C6  BZF d   1       0.496   1.706   2.646  0.00  0.00     0.022 A 
ATOM      8  C7  BZF d   1       1.318   1.558   1.580  0.00  0.00     0.029 A 
ATOM      9  C7A BZF d   1       0.820   1.918   0.351  0.00  0.00     0.058 A 
ENDROOT
TORSDOF 0
ENDMDL
