MODEL 1
REMARK minimizedAffinity 12.2856083
REMARK minimizedRMSD -1
REMARK  0 active torsions:
REMARK  status: ('A' for Active; 'I' for Inactive)
ROOT
ATOM      1  O1  BZF d   1       2.870   3.080   1.186  0.00  0.00    -0.204 OA
ATOM      2  C2  BZF d   1       2.633   2.391   2.360  0.00  0.00     0.174 A 
ATOM      3  C3  BZF d   1       1.336   2.033   2.451  0.00  0.00    -0.012 A 
ATOM      4  C3A BZF d   1       0.744   2.448   1.216  0.00  0.00    -0.107 A 
ATOM      5  C4  BZF d   1      -0.518   2.355   0.702  0.00  0.00     0.055 A 
ATOM      6  C5  BZF d   1      -0.784   2.925  -0.502  0.00  0.00    -0.016 A 
ATOM      7  C6  BZF d   1       0.185   3.599  -1.217  0.00  0.00     0.022 A 
ATOM      8  C7  BZF d   1       1.452   3.713  -0.750  0.00  0.00     0.029 A 
ATOM      9  C7A BZF d   1       1.732   3.109   0.451  0.00  0.00     0.058 A 
ENDROOT
TORSDOF 0
ENDMDL
