MODEL 1
REMARK minimizedAffinity 11.5871344
REMARK minimizedRMSD -1
REMARK  0 active torsions:
REMARK  status: ('A' for Active; 'I' for Inactive)
ROOT
ATOM      1  O1  BZF d   1       0.438  -3.886  -2.893  0.00  0.00    -0.204 OA
ATOM      2  C2  BZF d   1       0.094  -3.965  -1.557  0.00  0.00     0.174 A 
ATOM      3  C3  BZF d   1       1.020  -4.661  -0.866  0.00  0.00    -0.012 A 
ATOM      4  C3A BZF d   1       2.049  -4.962  -1.813  0.00  0.00    -0.107 A 
ATOM      5  C4  BZF d   1       3.242  -5.621  -1.725  0.00  0.00     0.055 A 
ATOM      6  C5  BZF d   1       3.979  -5.806  -2.852  0.00  0.00    -0.016 A 
ATOM      7  C6  BZF d   1       3.551  -5.350  -4.082  0.00  0.00     0.022 A 
ATOM      8  C7  BZF d   1       2.377  -4.687  -4.218  0.00  0.00     0.029 A 
ATOM      9  C7A BZF d   1       1.646  -4.470  -3.076  0.00  0.00     0.058 A 
ENDROOT
TORSDOF 0
ENDMDL
