MODEL 1
REMARK minimizedAffinity 11.5868759
REMARK minimizedRMSD -1
REMARK  0 active torsions:
REMARK  status: ('A' for Active; 'I' for Inactive)
ROOT
ATOM      1  O1  BZF d   1       1.630  -4.356  -0.657  0.00  0.00    -0.204 OA
ATOM      2  C2  BZF d   1       1.853  -5.660  -1.055  0.00  0.00     0.174 A 
ATOM      3  C3  BZF d   1       1.115  -5.961  -2.142  0.00  0.00    -0.012 A 
ATOM      4  C3A BZF d   1       0.455  -4.743  -2.498  0.00  0.00    -0.107 A 
ATOM      5  C4  BZF d   1      -0.405  -4.399  -3.502  0.00  0.00     0.055 A 
ATOM      6  C5  BZF d   1      -0.926  -3.144  -3.525  0.00  0.00    -0.016 A 
ATOM      7  C6  BZF d   1      -0.613  -2.210  -2.559  0.00  0.00     0.022 A 
ATOM      8  C7  BZF d   1       0.239  -2.503  -1.547  0.00  0.00     0.029 A 
ATOM      9  C7A BZF d   1       0.793  -3.760  -1.539  0.00  0.00     0.058 A 
ENDROOT
TORSDOF 0
ENDMDL
