MODEL 1
REMARK minimizedAffinity 6.06350374
REMARK minimizedRMSD -1
REMARK  1 active torsions:
REMARK  status: ('A' for Active; 'I' for Inactive)
REMARK    1  A    between atoms: C1_2  and  C2_3 
ROOT
ATOM      1  C2  UNL d   1       1.268  -2.818  -2.292  0.00  0.00    -0.077 A 
ATOM      2  C3  UNL d   1       0.400  -2.028  -3.059  0.00  0.00     0.002 A 
ATOM      3  C4  UNL d   1       0.070  -0.736  -2.646  0.00  0.00     0.002 A 
ATOM      4  C5  UNL d   1       0.608  -0.220  -1.469  0.00  0.00    -0.004 A 
ATOM      5  C6  UNL d   1       1.471  -0.998  -0.698  0.00  0.00     0.002 A 
ATOM      6  C7  UNL d   1       1.801  -2.291  -1.109  0.00  0.00     0.002 A 
ENDROOT
BRANCH   1   7
ATOM      7  C1  UNL d   1       1.664  -4.194  -2.761  0.00  0.00     0.055 C 
ATOM      8  C   UNL d   1       3.045  -4.577  -2.250  0.00  0.00     0.019 C 
ENDBRANCH   1   7
TORSDOF 1
ENDMDL
