MODEL 1
REMARK minimizedAffinity 1.43205869
REMARK minimizedRMSD -1
REMARK  1 active torsions:
REMARK  status: ('A' for Active; 'I' for Inactive)
REMARK    1  A    between atoms: C1_2  and  C2_3 
ROOT
ATOM      1  C2  UNL d   1       1.382  -0.882  -1.212  0.00  0.00    -0.077 A 
ATOM      2  C3  UNL d   1       0.872  -0.766  -2.512  0.00  0.00     0.002 A 
ATOM      3  C4  UNL d   1       0.856   0.473  -3.156  0.00  0.00     0.002 A 
ATOM      4  C5  UNL d   1       1.352   1.603  -2.510  0.00  0.00    -0.004 A 
ATOM      5  C6  UNL d   1       1.859   1.498  -1.215  0.00  0.00     0.002 A 
ATOM      6  C7  UNL d   1       1.876   0.261  -0.570  0.00  0.00     0.002 A 
ENDROOT
BRANCH   1   7
ATOM      7  C1  UNL d   1       1.446  -2.226  -0.534  0.00  0.00     0.055 C 
ATOM      8  C   UNL d   1       2.359  -3.183  -1.287  0.00  0.00     0.019 C 
ENDBRANCH   1   7
TORSDOF 1
ENDMDL
