MODEL 1
REMARK minimizedAffinity 4.17893362
REMARK minimizedRMSD -1
REMARK  1 active torsions:
REMARK  status: ('A' for Active; 'I' for Inactive)
REMARK    1  A    between atoms: C1_2  and  C2_3 
ROOT
ATOM      1  C2  UNL d   1      -1.919   3.109   2.018  0.00  0.00    -0.077 A 
ATOM      2  C3  UNL d   1      -2.279   2.589   3.270  0.00  0.00     0.002 A 
ATOM      3  C4  UNL d   1      -3.592   2.181   3.514  0.00  0.00     0.002 A 
ATOM      4  C5  UNL d   1      -4.553   2.286   2.511  0.00  0.00    -0.004 A 
ATOM      5  C6  UNL d   1      -4.206   2.803   1.264  0.00  0.00     0.002 A 
ATOM      6  C7  UNL d   1      -2.895   3.212   1.018  0.00  0.00     0.002 A 
ENDROOT
BRANCH   1   7
ATOM      7  C1  UNL d   1      -0.493   3.503   1.737  0.00  0.00     0.055 C 
ATOM      8  C   UNL d   1       0.231   2.430   0.937  0.00  0.00     0.019 C 
ENDBRANCH   1   7
TORSDOF 1
ENDMDL
