MODEL 1
REMARK minimizedAffinity 5.2698102
REMARK minimizedRMSD -1
REMARK  1 active torsions:
REMARK  status: ('A' for Active; 'I' for Inactive)
REMARK    1  A    between atoms: C1_2  and  C2_3 
ROOT
ATOM      1  C2  UNL d   1      -1.574  -3.701   1.374  0.00  0.00    -0.077 A 
ATOM      2  C3  UNL d   1      -0.328  -3.080   1.211  0.00  0.00     0.002 A 
ATOM      3  C4  UNL d   1       0.168  -2.814  -0.066  0.00  0.00     0.002 A 
ATOM      4  C5  UNL d   1      -0.577  -3.162  -1.191  0.00  0.00    -0.004 A 
ATOM      5  C6  UNL d   1      -1.817  -3.782  -1.040  0.00  0.00     0.002 A 
ATOM      6  C7  UNL d   1      -2.313  -4.050   0.236  0.00  0.00     0.002 A 
ENDROOT
BRANCH   1   7
ATOM      7  C1  UNL d   1      -2.132  -3.944   2.751  0.00  0.00     0.055 C 
ATOM      8  C   UNL d   1      -3.217  -2.934   3.095  0.00  0.00     0.019 C 
ENDBRANCH   1   7
TORSDOF 1
ENDMDL
