MODEL 1
REMARK minimizedAffinity 8.89234638
REMARK minimizedRMSD -1
REMARK  1 active torsions:
REMARK  status: ('A' for Active; 'I' for Inactive)
REMARK    1  A    between atoms: C1_2  and  C2_3 
ROOT
ATOM      1  C2  UNL d   1       2.459  -0.635  -0.386  0.00  0.00    -0.077 A 
ATOM      2  C3  UNL d   1       2.888  -1.863  -0.908  0.00  0.00     0.002 A 
ATOM      3  C4  UNL d   1       1.958  -2.820  -1.319  0.00  0.00     0.002 A 
ATOM      4  C5  UNL d   1       0.594  -2.558  -1.215  0.00  0.00    -0.004 A 
ATOM      5  C6  UNL d   1       0.157  -1.340  -0.695  0.00  0.00     0.002 A 
ATOM      6  C7  UNL d   1       1.085  -0.383  -0.283  0.00  0.00     0.002 A 
ENDROOT
BRANCH   1   7
ATOM      7  C1  UNL d   1       3.460   0.417   0.012  0.00  0.00     0.055 C 
ATOM      8  C   UNL d   1       4.483   0.653  -1.090  0.00  0.00     0.019 C 
ENDBRANCH   1   7
TORSDOF 1
ENDMDL
