MODEL 1
REMARK minimizedAffinity 6.00571108
REMARK minimizedRMSD -1
REMARK  1 active torsions:
REMARK  status: ('A' for Active; 'I' for Inactive)
REMARK    1  A    between atoms: C1_2  and  C2_3 
ROOT
ATOM      1  C2  UNL d   1       1.193   0.189  -1.089  0.00  0.00    -0.077 A 
ATOM      2  C3  UNL d   1       1.359  -1.172  -0.796  0.00  0.00     0.002 A 
ATOM      3  C4  UNL d   1       0.848  -2.146  -1.656  0.00  0.00     0.002 A 
ATOM      4  C5  UNL d   1       0.173  -1.770  -2.815  0.00  0.00    -0.004 A 
ATOM      5  C6  UNL d   1       0.001  -0.419  -3.114  0.00  0.00     0.002 A 
ATOM      6  C7  UNL d   1       0.510   0.556  -2.255  0.00  0.00     0.002 A 
ENDROOT
BRANCH   1   7
ATOM      7  C1  UNL d   1       1.786   1.241  -0.188  0.00  0.00     0.055 C 
ATOM      8  C   UNL d   1       3.172   1.656  -0.659  0.00  0.00     0.019 C 
ENDBRANCH   1   7
TORSDOF 1
ENDMDL
