MODEL 1
REMARK minimizedAffinity -1.99218071
REMARK minimizedRMSD -1
REMARK  1 active torsions:
REMARK  status: ('A' for Active; 'I' for Inactive)
REMARK    1  A    between atoms: C1_2  and  C2_3 
ROOT
ATOM      1  C2  UNL d   1       0.554   0.509  -0.682  0.00  0.00    -0.077 A 
ATOM      2  C3  UNL d   1       1.331   0.135  -1.788  0.00  0.00     0.002 A 
ATOM      3  C4  UNL d   1       0.792  -0.682  -2.784  0.00  0.00     0.002 A 
ATOM      4  C5  UNL d   1      -0.524  -1.127  -2.687  0.00  0.00    -0.004 A 
ATOM      5  C6  UNL d   1      -1.303  -0.762  -1.590  0.00  0.00     0.002 A 
ATOM      6  C7  UNL d   1      -0.767   0.053  -0.592  0.00  0.00     0.002 A 
ENDROOT
BRANCH   1   7
ATOM      7  C1  UNL d   1       1.117   1.430   0.369  0.00  0.00     0.055 C 
ATOM      8  C   UNL d   1       0.192   1.527   1.573  0.00  0.00     0.019 C 
ENDBRANCH   1   7
TORSDOF 1
ENDMDL
