MODEL 1
REMARK minimizedAffinity 7.82704878
REMARK minimizedRMSD -1
REMARK  1 active torsions:
REMARK  status: ('A' for Active; 'I' for Inactive)
REMARK    1  A    between atoms: C1_2  and  C2_3 
ROOT
ATOM      1  C2  UNL d   1       0.661  -4.338  -2.776  0.00  0.00    -0.077 A 
ATOM      2  C3  UNL d   1       0.570  -3.281  -1.861  0.00  0.00     0.002 A 
ATOM      3  C4  UNL d   1       1.555  -3.104  -0.886  0.00  0.00     0.002 A 
ATOM      4  C5  UNL d   1       2.637  -3.979  -0.820  0.00  0.00    -0.004 A 
ATOM      5  C6  UNL d   1       2.735  -5.035  -1.726  0.00  0.00     0.002 A 
ATOM      6  C7  UNL d   1       1.752  -5.213  -2.700  0.00  0.00     0.002 A 
ENDROOT
BRANCH   1   7
ATOM      7  C1  UNL d   1      -0.374  -4.501  -3.859  0.00  0.00     0.055 C 
ATOM      8  C   UNL d   1      -0.348  -5.906  -4.443  0.00  0.00     0.019 C 
ENDBRANCH   1   7
TORSDOF 1
ENDMDL
