MODEL 1
REMARK minimizedAffinity 14.8892059
REMARK minimizedRMSD -1
REMARK  1 active torsions:
REMARK  status: ('A' for Active; 'I' for Inactive)
REMARK    1  A    between atoms: C1_2  and  C2_3 
ROOT
ATOM      1  C2  UNL d   1      -3.007   0.618  -5.326  0.00  0.00    -0.077 A 
ATOM      2  C3  UNL d   1      -3.701  -0.414  -5.973  0.00  0.00     0.002 A 
ATOM      3  C4  UNL d   1      -3.883  -1.646  -5.342  0.00  0.00     0.002 A 
ATOM      4  C5  UNL d   1      -3.377  -1.856  -4.061  0.00  0.00    -0.004 A 
ATOM      5  C6  UNL d   1      -2.684  -0.837  -3.410  0.00  0.00     0.002 A 
ATOM      6  C7  UNL d   1      -2.500   0.395  -4.040  0.00  0.00     0.002 A 
ENDROOT
BRANCH   1   7
ATOM      7  C1  UNL d   1      -2.852   1.964  -5.986  0.00  0.00     0.055 C 
ATOM      8  C   UNL d   1      -4.165   2.734  -5.985  0.00  0.00     0.019 C 
ENDBRANCH   1   7
TORSDOF 1
ENDMDL
