MODEL 1
REMARK minimizedAffinity 2.46919966
REMARK minimizedRMSD -1
REMARK  1 active torsions:
REMARK  status: ('A' for Active; 'I' for Inactive)
REMARK    1  A    between atoms: C1_2  and  C2_3 
ROOT
ATOM      1  C2  UNL d   1       1.250   3.152  -0.562  0.00  0.00    -0.077 A 
ATOM      2  C3  UNL d   1       1.451   4.274  -1.377  0.00  0.00     0.002 A 
ATOM      3  C4  UNL d   1       1.405   5.560  -0.834  0.00  0.00     0.002 A 
ATOM      4  C5  UNL d   1       1.162   5.734   0.527  0.00  0.00    -0.004 A 
ATOM      5  C6  UNL d   1       0.958   4.624   1.346  0.00  0.00     0.002 A 
ATOM      6  C7  UNL d   1       1.003   3.339   0.804  0.00  0.00     0.002 A 
ENDROOT
BRANCH   1   7
ATOM      7  C1  UNL d   1       1.348   1.763  -1.137  0.00  0.00     0.055 C 
ATOM      8  C   UNL d   1       0.282   1.526  -2.197  0.00  0.00     0.019 C 
ENDBRANCH   1   7
TORSDOF 1
ENDMDL
