MODEL 1
REMARK minimizedAffinity -0.0315265395
REMARK minimizedRMSD -1
REMARK  1 active torsions:
REMARK  status: ('A' for Active; 'I' for Inactive)
REMARK    1  A    between atoms: C1_2  and  C2_3 
ROOT
ATOM      1  C2  UNL d   1       0.812  -1.608  -1.470  0.00  0.00    -0.077 A 
ATOM      2  C3  UNL d   1       0.508  -0.687  -2.483  0.00  0.00     0.002 A 
ATOM      3  C4  UNL d   1       0.831   0.663  -2.330  0.00  0.00     0.002 A 
ATOM      4  C5  UNL d   1       1.462   1.103  -1.168  0.00  0.00    -0.004 A 
ATOM      5  C6  UNL d   1       1.767   0.195  -0.155  0.00  0.00     0.002 A 
ATOM      6  C7  UNL d   1       1.444  -1.155  -0.306  0.00  0.00     0.002 A 
ENDROOT
BRANCH   1   7
ATOM      7  C1  UNL d   1       0.509  -3.072  -1.654  0.00  0.00     0.055 C 
ATOM      8  C   UNL d   1       1.725  -3.932  -1.343  0.00  0.00     0.019 C 
ENDBRANCH   1   7
TORSDOF 1
ENDMDL
