MODEL 1
REMARK minimizedAffinity -1.07046211
REMARK minimizedRMSD -1
REMARK  1 active torsions:
REMARK  status: ('A' for Active; 'I' for Inactive)
REMARK    1  A    between atoms: C1_2  and  C2_3 
ROOT
ATOM      1  C2  UNL d   1       1.261   1.001  -0.036  0.00  0.00    -0.077 A 
ATOM      2  C3  UNL d   1       1.533  -0.103  -0.856  0.00  0.00     0.002 A 
ATOM      3  C4  UNL d   1       0.929  -1.336  -0.603  0.00  0.00     0.002 A 
ATOM      4  C5  UNL d   1       0.048  -1.476   0.467  0.00  0.00    -0.004 A 
ATOM      5  C6  UNL d   1      -0.228  -0.384   1.289  0.00  0.00     0.002 A 
ATOM      6  C7  UNL d   1       0.376   0.849   1.038  0.00  0.00     0.002 A 
ENDROOT
BRANCH   1   7
ATOM      7  C1  UNL d   1       1.873   2.344  -0.337  0.00  0.00     0.055 C 
ATOM      8  C   UNL d   1       3.104   2.206  -1.221  0.00  0.00     0.019 C 
ENDBRANCH   1   7
TORSDOF 1
ENDMDL
