MODEL 1
REMARK minimizedAffinity 0.216247469
REMARK minimizedRMSD -1
REMARK  1 active torsions:
REMARK  status: ('A' for Active; 'I' for Inactive)
REMARK    1  A    between atoms: C1_2  and  C2_3 
ROOT
ATOM      1  C2  UNL d   1      -4.837  -3.658  -5.355  0.00  0.00    -0.077 A 
ATOM      2  C3  UNL d   1      -5.731  -2.775  -5.977  0.00  0.00     0.002 A 
ATOM      3  C4  UNL d   1      -5.993  -1.524  -5.416  0.00  0.00     0.002 A 
ATOM      4  C5  UNL d   1      -5.363  -1.143  -4.233  0.00  0.00    -0.004 A 
ATOM      5  C6  UNL d   1      -4.474  -2.015  -3.605  0.00  0.00     0.002 A 
ATOM      6  C7  UNL d   1      -4.212  -3.266  -4.164  0.00  0.00     0.002 A 
ENDROOT
BRANCH   1   7
ATOM      7  C1  UNL d   1      -4.515  -4.987  -5.985  0.00  0.00     0.055 C 
ATOM      8  C   UNL d   1      -3.015  -5.246  -5.995  0.00  0.00     0.019 C 
ENDBRANCH   1   7
TORSDOF 1
ENDMDL
