MODEL 1
REMARK minimizedAffinity 1.33827984
REMARK minimizedRMSD -1
REMARK  0 active torsions:
REMARK  status: ('A' for Active; 'I' for Inactive)
ROOT
ATOM      1  C   UNL d   1      -1.483   0.068   0.132  0.00  0.00    -0.002 A 
ATOM      2  C1  UNL d   1      -1.608  -0.533  -1.113  0.00  0.00     0.010 A 
ATOM      3  C2  UNL d   1      -0.494  -1.079  -1.753  0.00  0.00     0.041 A 
ATOM      4  C3  UNL d   1       0.760  -1.011  -1.115  0.00  0.00    -0.075 A 
ATOM      5  S   UNL d   1       2.263  -1.613  -1.709  0.00  0.00     0.015 SA
ATOM      6  C4  UNL d   1       3.106  -1.087  -0.324  0.00  0.00     0.022 A 
ATOM      7  C5  UNL d   1       2.277  -0.466   0.580  0.00  0.00     0.026 A 
ATOM      8  C6  UNL d   1       0.911  -0.412   0.139  0.00  0.00    -0.082 A 
ATOM      9  C7  UNL d   1      -0.238   0.133   0.762  0.00  0.00     0.045 A 
ENDROOT
TORSDOF 0
ENDMDL
