MODEL 1
REMARK minimizedAffinity -1.27334213
REMARK minimizedRMSD -1
REMARK  0 active torsions:
REMARK  status: ('A' for Active; 'I' for Inactive)
ROOT
ATOM      1  C   UNL d   1       3.616  -1.081  -0.560  0.00  0.00    -0.002 A 
ATOM      2  C1  UNL d   1       3.975   0.254  -0.436  0.00  0.00     0.010 A 
ATOM      3  C2  UNL d   1       2.997   1.249  -0.382  0.00  0.00     0.041 A 
ATOM      4  C3  UNL d   1       1.640   0.877  -0.451  0.00  0.00    -0.075 A 
ATOM      5  S   UNL d   1       0.271   1.924  -0.402  0.00  0.00     0.015 SA
ATOM      6  C4  UNL d   1      -0.822   0.624  -0.543  0.00  0.00     0.022 A 
ATOM      7  C5  UNL d   1      -0.175  -0.587  -0.626  0.00  0.00     0.026 A 
ATOM      8  C6  UNL d   1       1.254  -0.461  -0.574  0.00  0.00    -0.082 A 
ATOM      9  C7  UNL d   1       2.269  -1.447  -0.628  0.00  0.00     0.045 A 
ENDROOT
TORSDOF 0
ENDMDL
