MODEL 1
REMARK minimizedAffinity -0.752317786
REMARK minimizedRMSD -1
REMARK  0 active torsions:
REMARK  status: ('A' for Active; 'I' for Inactive)
ROOT
ATOM      1  C   UNL d   1      -0.503   2.024  -0.670  0.00  0.00    -0.002 A 
ATOM      2  C1  UNL d   1       0.769   2.456  -0.322  0.00  0.00     0.010 A 
ATOM      3  C2  UNL d   1       1.749   1.540   0.063  0.00  0.00     0.041 A 
ATOM      4  C3  UNL d   1       1.427   0.169   0.092  0.00  0.00    -0.075 A 
ATOM      5  S   UNL d   1       2.467  -1.135   0.530  0.00  0.00     0.015 SA
ATOM      6  C4  UNL d   1       1.248  -2.295   0.265  0.00  0.00     0.022 A 
ATOM      7  C5  UNL d   1       0.069  -1.720  -0.148  0.00  0.00     0.026 A 
ATOM      8  C6  UNL d   1       0.153  -0.291  -0.255  0.00  0.00    -0.082 A 
ATOM      9  C7  UNL d   1      -0.819   0.664  -0.641  0.00  0.00     0.045 A 
ENDROOT
TORSDOF 0
ENDMDL
