MODEL 1
REMARK minimizedAffinity -3.17489791
REMARK minimizedRMSD -1
REMARK  3 active torsions:
REMARK  status: ('A' for Active; 'I' for Inactive)
REMARK    1  A    between atoms: C3'_2  and  C2'_3 
REMARK    2  A    between atoms: C2'_3  and  C1'_4 
REMARK    3  A    between atoms: C1'_4  and  C1_5 
ROOT
ATOM      1  C1  N4B d   1      -0.266   0.149   0.520  0.00  0.00    -0.075 A 
ATOM      2  C2  N4B d   1      -1.136   0.655   1.511  0.00  0.00     0.002 A 
ATOM      3  C3  N4B d   1      -0.683   0.839   2.794  0.00  0.00     0.002 A 
ATOM      4  C4  N4B d   1       0.625   0.508   3.114  0.00  0.00    -0.004 A 
ATOM      5  C5  N4B d   1       1.467   0.044   2.145  0.00  0.00     0.002 A 
ATOM      6  C6  N4B d   1       1.026  -0.142   0.851  0.00  0.00     0.002 A 
ENDROOT
BRANCH   1   7
ATOM      7  C1' N4B d   1      -0.739  -0.149  -0.876  0.00  0.00     0.057 C 
BRANCH   7   8
ATOM      8  C2' N4B d   1       0.438  -0.034  -1.839  0.00  0.00     0.009 C 
BRANCH   8   9
ATOM      9  C3' N4B d   1       0.031  -0.332  -3.272  0.00  0.00     0.004 C 
ATOM     10  C4' N4B d   1       0.721   0.552  -4.268  0.00  0.00     0.003 C 
ENDBRANCH   8   9
ENDBRANCH   7   8
ENDBRANCH   1   7
TORSDOF 3
ENDMDL
