MODEL 1
REMARK minimizedAffinity -4.44083881
REMARK minimizedRMSD -1
REMARK  3 active torsions:
REMARK  status: ('A' for Active; 'I' for Inactive)
REMARK    1  A    between atoms: C3'_2  and  C2'_3 
REMARK    2  A    between atoms: C2'_3  and  C1'_4 
REMARK    3  A    between atoms: C1'_4  and  C1_5 
ROOT
ATOM      1  C1  N4B d   1       0.213  -0.233  -0.344  0.00  0.00    -0.075 A 
ATOM      2  C2  N4B d   1       0.876   0.298   0.784  0.00  0.00     0.002 A 
ATOM      3  C3  N4B d   1       0.152   0.684   1.886  0.00  0.00     0.002 A 
ATOM      4  C4  N4B d   1      -1.229   0.566   1.876  0.00  0.00    -0.004 A 
ATOM      5  C5  N4B d   1      -1.859   0.029   0.792  0.00  0.00     0.002 A 
ATOM      6  C6  N4B d   1      -1.145  -0.367  -0.321  0.00  0.00     0.002 A 
ENDROOT
BRANCH   1   7
ATOM      7  C1' N4B d   1       0.953  -0.589  -1.605  0.00  0.00     0.057 C 
BRANCH   7   8
ATOM      8  C2' N4B d   1       0.022  -0.405  -2.800  0.00  0.00     0.009 C 
BRANCH   8   9
ATOM      9  C3' N4B d   1       0.780   0.005  -4.052  0.00  0.00     0.004 C 
ATOM     10  C4' N4B d   1       2.156   0.520  -3.755  0.00  0.00     0.003 C 
ENDBRANCH   8   9
ENDBRANCH   7   8
ENDBRANCH   1   7
TORSDOF 3
ENDMDL
