MODEL 1
REMARK minimizedAffinity -5.36999321
REMARK minimizedRMSD -1
REMARK  3 active torsions:
REMARK  status: ('A' for Active; 'I' for Inactive)
REMARK    1  A    between atoms: C3'_2  and  C2'_3 
REMARK    2  A    between atoms: C2'_3  and  C1'_4 
REMARK    3  A    between atoms: C1'_4  and  C1_5 
ROOT
ATOM      1  C1  N4B d   1       0.480   0.395  -3.009  0.00  0.00    -0.075 A 
ATOM      2  C2  N4B d   1      -0.314  -0.258  -3.977  0.00  0.00     0.002 A 
ATOM      3  C3  N4B d   1      -0.105  -0.017  -5.313  0.00  0.00     0.002 A 
ATOM      4  C4  N4B d   1       0.876   0.883  -5.702  0.00  0.00    -0.004 A 
ATOM      5  C5  N4B d   1       1.656   1.490  -4.762  0.00  0.00     0.002 A 
ATOM      6  C6  N4B d   1       1.459   1.254  -3.416  0.00  0.00     0.002 A 
ENDROOT
BRANCH   1   7
ATOM      7  C1' N4B d   1       0.232   0.228  -1.535  0.00  0.00     0.057 C 
BRANCH   7   8
ATOM      8  C2' N4B d   1       0.136  -1.259  -1.208  0.00  0.00     0.009 C 
BRANCH   8   9
ATOM      9  C3' N4B d   1       1.451  -1.812  -0.686  0.00  0.00     0.004 C 
ATOM     10  C4' N4B d   1       1.801  -1.291   0.676  0.00  0.00     0.003 C 
ENDBRANCH   8   9
ENDBRANCH   7   8
ENDBRANCH   1   7
TORSDOF 3
ENDMDL
