MODEL 1
REMARK minimizedAffinity -3.91314626
REMARK minimizedRMSD -1
REMARK  3 active torsions:
REMARK  status: ('A' for Active; 'I' for Inactive)
REMARK    1  A    between atoms: C3'_2  and  C2'_3 
REMARK    2  A    between atoms: C2'_3  and  C1'_4 
REMARK    3  A    between atoms: C1'_4  and  C1_5 
ROOT
ATOM      1  C1  N4B d   1      -0.150  -0.049   0.018  0.00  0.00    -0.075 A 
ATOM      2  C2  N4B d   1      -1.267  -0.409   0.804  0.00  0.00     0.002 A 
ATOM      3  C3  N4B d   1      -1.565   0.304   1.939  0.00  0.00     0.002 A 
ATOM      4  C4  N4B d   1      -0.753   1.363   2.317  0.00  0.00    -0.004 A 
ATOM      5  C5  N4B d   1       0.309   1.720   1.538  0.00  0.00     0.002 A 
ATOM      6  C6  N4B d   1       0.618   1.015   0.393  0.00  0.00     0.002 A 
ENDROOT
BRANCH   1   7
ATOM      7  C1' N4B d   1       0.266  -0.852  -1.185  0.00  0.00     0.057 C 
BRANCH   7   8
ATOM      8  C2' N4B d   1       0.769   0.096  -2.270  0.00  0.00     0.009 C 
BRANCH   8   9
ATOM      9  C3' N4B d   1       0.287  -0.314  -3.651  0.00  0.00     0.004 C 
ATOM     10  C4' N4B d   1       1.086   0.312  -4.754  0.00  0.00     0.003 C 
ENDBRANCH   8   9
ENDBRANCH   7   8
ENDBRANCH   1   7
TORSDOF 3
ENDMDL
