MODEL 1
REMARK minimizedAffinity -1.85067403
REMARK minimizedRMSD -1
REMARK  3 active torsions:
REMARK  status: ('A' for Active; 'I' for Inactive)
REMARK    1  A    between atoms: C3'_2  and  C2'_3 
REMARK    2  A    between atoms: C2'_3  and  C1'_4 
REMARK    3  A    between atoms: C1'_4  and  C1_5 
ROOT
ATOM      1  C1  N4B d   1       0.672  -0.096   0.063  0.00  0.00    -0.075 A 
ATOM      2  C2  N4B d   1       0.755   0.802   1.150  0.00  0.00     0.002 A 
ATOM      3  C3  N4B d   1      -0.182   0.754   2.153  0.00  0.00     0.002 A 
ATOM      4  C4  N4B d   1      -1.217  -0.165   2.081  0.00  0.00    -0.004 A 
ATOM      5  C5  N4B d   1      -1.276  -1.046   1.041  0.00  0.00     0.002 A 
ATOM      6  C6  N4B d   1      -0.339  -1.012   0.028  0.00  0.00     0.002 A 
ENDROOT
BRANCH   1   7
ATOM      7  C1' N4B d   1       1.623  -0.025  -1.100  0.00  0.00     0.057 C 
BRANCH   7   8
ATOM      8  C2' N4B d   1       0.849   0.356  -2.359  0.00  0.00     0.009 C 
BRANCH   8   9
ATOM      9  C3' N4B d   1       1.774   0.685  -3.517  0.00  0.00     0.004 C 
ATOM     10  C4' N4B d   1       1.032   0.994  -4.783  0.00  0.00     0.003 C 
ENDBRANCH   8   9
ENDBRANCH   7   8
ENDBRANCH   1   7
TORSDOF 3
ENDMDL
