MODEL 1
REMARK minimizedAffinity -1.44037926
REMARK minimizedRMSD -1
REMARK  3 active torsions:
REMARK  status: ('A' for Active; 'I' for Inactive)
REMARK    1  A    between atoms: C3'_2  and  C2'_3 
REMARK    2  A    between atoms: C2'_3  and  C1'_4 
REMARK    3  A    between atoms: C1'_4  and  C1_5 
ROOT
ATOM      1  C1  N4B d   1      -0.333  -0.314  -4.539  0.00  0.00    -0.075 A 
ATOM      2  C2  N4B d   1      -1.200  -0.317  -5.654  0.00  0.00     0.002 A 
ATOM      3  C3  N4B d   1      -1.870  -1.465  -6.000  0.00  0.00     0.002 A 
ATOM      4  C4  N4B d   1      -1.675  -2.622  -5.261  0.00  0.00    -0.004 A 
ATOM      5  C5  N4B d   1      -0.856  -2.604  -4.170  0.00  0.00     0.002 A 
ATOM      6  C6  N4B d   1      -0.179  -1.457  -3.809  0.00  0.00     0.002 A 
ENDROOT
BRANCH   1   7
ATOM      7  C1' N4B d   1       0.487   0.893  -4.174  0.00  0.00     0.057 C 
BRANCH   7   8
ATOM      8  C2' N4B d   1       1.762   0.437  -3.470  0.00  0.00     0.009 C 
BRANCH   8   9
ATOM      9  C3' N4B d   1       2.983   1.201  -3.955  0.00  0.00     0.004 C 
ATOM     10  C4' N4B d   1       4.144   0.303  -4.262  0.00  0.00     0.003 C 
ENDBRANCH   8   9
ENDBRANCH   7   8
ENDBRANCH   1   7
TORSDOF 3
ENDMDL
