MODEL 1
REMARK minimizedAffinity -6.21674585
REMARK minimizedRMSD -1
REMARK  0 active torsions:
REMARK  status: ('A' for Active; 'I' for Inactive)
ROOT
ATOM      1  O1  BZF d   1      -0.703   1.189  -1.104  0.00  0.00    -0.204 OA
ATOM      2  C2  BZF d   1      -1.101   0.091  -0.366  0.00  0.00     0.174 A 
ATOM      3  C3  BZF d   1      -0.155  -0.871  -0.392  0.00  0.00    -0.012 A 
ATOM      4  C3A BZF d   1       0.938  -0.304  -1.120  0.00  0.00    -0.107 A 
ATOM      5  C4  BZF d   1       2.175  -0.766  -1.467  0.00  0.00     0.055 A 
ATOM      6  C5  BZF d   1       2.977   0.010  -2.243  0.00  0.00    -0.016 A 
ATOM      7  C6  BZF d   1       2.571   1.249  -2.694  0.00  0.00     0.022 A 
ATOM      8  C7  BZF d   1       1.355   1.752  -2.371  0.00  0.00     0.029 A 
ATOM      9  C7A BZF d   1       0.556   0.985  -1.560  0.00  0.00     0.058 A 
ENDROOT
TORSDOF 0
ENDMDL
