MODEL 1
REMARK minimizedAffinity -4.74583244
REMARK minimizedRMSD -1
REMARK  0 active torsions:
REMARK  status: ('A' for Active; 'I' for Inactive)
ROOT
ATOM      1  O1  BZF d   1      -0.381   1.638  -1.344  0.00  0.00    -0.204 OA
ATOM      2  C2  BZF d   1      -1.168   1.373  -0.239  0.00  0.00     0.174 A 
ATOM      3  C3  BZF d   1      -0.540   0.528   0.604  0.00  0.00    -0.012 A 
ATOM      4  C3A BZF d   1       0.755   0.320   0.032  0.00  0.00    -0.107 A 
ATOM      5  C4  BZF d   1       1.844  -0.410   0.415  0.00  0.00     0.055 A 
ATOM      6  C5  BZF d   1       2.927  -0.459  -0.405  0.00  0.00    -0.016 A 
ATOM      7  C6  BZF d   1       2.954   0.203  -1.614  0.00  0.00     0.022 A 
ATOM      8  C7  BZF d   1       1.899   0.944  -2.034  0.00  0.00     0.029 A 
ATOM      9  C7A BZF d   1       0.816   1.023  -1.193  0.00  0.00     0.058 A 
ENDROOT
TORSDOF 0
ENDMDL
