MODEL 1
REMARK minimizedAffinity -1.11171496
REMARK minimizedRMSD -1
REMARK  0 active torsions:
REMARK  status: ('A' for Active; 'I' for Inactive)
ROOT
ATOM      1  O1  BZF d   1       0.332   1.467  -1.833  0.00  0.00    -0.204 OA
ATOM      2  C2  BZF d   1      -0.610   1.909  -0.924  0.00  0.00     0.174 A 
ATOM      3  C3  BZF d   1      -0.956   0.920  -0.075  0.00  0.00    -0.012 A 
ATOM      4  C3A BZF d   1      -0.115  -0.185  -0.422  0.00  0.00    -0.107 A 
ATOM      5  C4  BZF d   1       0.023  -1.450   0.073  0.00  0.00     0.055 A 
ATOM      6  C5  BZF d   1       0.884  -2.307  -0.537  0.00  0.00    -0.016 A 
ATOM      7  C6  BZF d   1       1.617  -1.934  -1.645  0.00  0.00     0.022 A 
ATOM      8  C7  BZF d   1       1.517  -0.688  -2.168  0.00  0.00     0.029 A 
ATOM      9  C7A BZF d   1       0.672   0.191  -1.534  0.00  0.00     0.058 A 
ENDROOT
TORSDOF 0
ENDMDL
