MODEL 1
REMARK minimizedAffinity -1.26887655
REMARK minimizedRMSD -1
REMARK  0 active torsions:
REMARK  status: ('A' for Active; 'I' for Inactive)
ROOT
ATOM      1  O1  BZF d   1      -2.198   1.233   0.783  0.00  0.00    -0.204 OA
ATOM      2  C2  BZF d   1      -2.164   1.462   2.144  0.00  0.00     0.174 A 
ATOM      3  C3  BZF d   1      -1.285   0.636   2.747  0.00  0.00    -0.012 A 
ATOM      4  C3A BZF d   1      -0.668  -0.097   1.685  0.00  0.00    -0.107 A 
ATOM      5  C4  BZF d   1       0.301  -1.059   1.647  0.00  0.00     0.055 A 
ATOM      6  C5  BZF d   1       0.625  -1.622   0.453  0.00  0.00    -0.016 A 
ATOM      7  C6  BZF d   1      -0.001  -1.252  -0.719  0.00  0.00     0.022 A 
ATOM      8  C7  BZF d   1      -0.964  -0.299  -0.732  0.00  0.00     0.029 A 
ATOM      9  C7A BZF d   1      -1.271   0.296   0.468  0.00  0.00     0.058 A 
ENDROOT
TORSDOF 0
ENDMDL
