MODEL 1
REMARK minimizedAffinity -3.82995296
REMARK minimizedRMSD -1
REMARK  0 active torsions:
REMARK  status: ('A' for Active; 'I' for Inactive)
ROOT
ATOM      1  O1  BZF d   1      -1.593   0.620   0.478  0.00  0.00    -0.204 OA
ATOM      2  C2  BZF d   1      -1.628   1.049   1.791  0.00  0.00     0.174 A 
ATOM      3  C3  BZF d   1      -0.587   0.546   2.487  0.00  0.00    -0.012 A 
ATOM      4  C3A BZF d   1       0.195  -0.172   1.528  0.00  0.00    -0.107 A 
ATOM      5  C4  BZF d   1       1.361  -0.878   1.607  0.00  0.00     0.055 A 
ATOM      6  C5  BZF d   1       1.820  -1.521   0.501  0.00  0.00    -0.016 A 
ATOM      7  C6  BZF d   1       1.137  -1.483  -0.697  0.00  0.00     0.022 A 
ATOM      8  C7  BZF d   1      -0.021  -0.791  -0.826  0.00  0.00     0.029 A 
ATOM      9  C7A BZF d   1      -0.471  -0.113   0.281  0.00  0.00     0.058 A 
ENDROOT
TORSDOF 0
ENDMDL
