MODEL 1
REMARK minimizedAffinity -3.33439422
REMARK minimizedRMSD -1
REMARK  0 active torsions:
REMARK  status: ('A' for Active; 'I' for Inactive)
ROOT
ATOM      1  O1  BZF d   1      -1.650   1.268   1.086  0.00  0.00    -0.204 OA
ATOM      2  C2  BZF d   1      -1.328   1.802   2.319  0.00  0.00     0.174 A 
ATOM      3  C3  BZF d   1      -0.314   1.118   2.887  0.00  0.00    -0.012 A 
ATOM      4  C3A BZF d   1       0.079   0.149   1.910  0.00  0.00    -0.107 A 
ATOM      5  C4  BZF d   1       1.046  -0.815   1.881  0.00  0.00     0.055 A 
ATOM      6  C5  BZF d   1       1.120  -1.644   0.806  0.00  0.00    -0.016 A 
ATOM      7  C6  BZF d   1       0.242  -1.539  -0.253  0.00  0.00     0.022 A 
ATOM      8  C7  BZF d   1      -0.730  -0.595  -0.272  0.00  0.00     0.029 A 
ATOM      9  C7A BZF d   1      -0.786   0.265   0.798  0.00  0.00     0.058 A 
ENDROOT
TORSDOF 0
ENDMDL
