MODEL 1
REMARK minimizedAffinity 2.09683418
REMARK minimizedRMSD -1
REMARK  0 active torsions:
REMARK  status: ('A' for Active; 'I' for Inactive)
ROOT
ATOM      1  O1  BZF d   1      -1.016   0.157   1.101  0.00  0.00    -0.204 OA
ATOM      2  C2  BZF d   1       0.211  -0.374   0.754  0.00  0.00     0.174 A 
ATOM      3  C3  BZF d   1       1.129  -0.123   1.709  0.00  0.00    -0.012 A 
ATOM      4  C3A BZF d   1       0.410   0.532   2.759  0.00  0.00    -0.107 A 
ATOM      5  C4  BZF d   1       0.771   1.016   3.984  0.00  0.00     0.055 A 
ATOM      6  C5  BZF d   1      -0.156   1.665   4.737  0.00  0.00    -0.016 A 
ATOM      7  C6  BZF d   1      -1.449   1.851   4.294  0.00  0.00     0.022 A 
ATOM      8  C7  BZF d   1      -1.856   1.385   3.088  0.00  0.00     0.029 A 
ATOM      9  C7A BZF d   1      -0.930   0.700   2.339  0.00  0.00     0.058 A 
ENDROOT
TORSDOF 0
ENDMDL
