MODEL 1
REMARK minimizedAffinity -4.05595827
REMARK minimizedRMSD -1
REMARK  0 active torsions:
REMARK  status: ('A' for Active; 'I' for Inactive)
ROOT
ATOM      1  O1  BZF d   1       2.440  -1.804  -1.045  0.00  0.00    -0.204 OA
ATOM      2  C2  BZF d   1       3.290  -0.864  -1.594  0.00  0.00     0.174 A 
ATOM      3  C3  BZF d   1       2.753   0.371  -1.512  0.00  0.00    -0.012 A 
ATOM      4  C3A BZF d   1       1.530   0.203  -0.789  0.00  0.00    -0.107 A 
ATOM      5  C4  BZF d   1       0.557   1.067  -0.376  0.00  0.00     0.055 A 
ATOM      6  C5  BZF d   1      -0.546   0.573   0.245  0.00  0.00    -0.016 A 
ATOM      7  C6  BZF d   1      -0.710  -0.779   0.464  0.00  0.00     0.022 A 
ATOM      8  C7  BZF d   1       0.230  -1.675   0.077  0.00  0.00     0.029 A 
ATOM      9  C7A BZF d   1       1.361  -1.175  -0.521  0.00  0.00     0.058 A 
ENDROOT
TORSDOF 0
ENDMDL
