MODEL 1
REMARK minimizedAffinity -0.534792066
REMARK minimizedRMSD -1
REMARK  0 active torsions:
REMARK  status: ('A' for Active; 'I' for Inactive)
ROOT
ATOM      1  O1  BZF d   1       0.123  -0.170  -0.979  0.00  0.00    -0.204 OA
ATOM      2  C2  BZF d   1       0.965  -1.176  -0.546  0.00  0.00     0.174 A 
ATOM      3  C3  BZF d   1       0.718  -1.484   0.744  0.00  0.00    -0.012 A 
ATOM      4  C3A BZF d   1      -0.407  -0.681   1.114  0.00  0.00    -0.107 A 
ATOM      5  C4  BZF d   1      -1.130  -0.551   2.265  0.00  0.00     0.055 A 
ATOM      6  C5  BZF d   1      -2.122   0.376   2.321  0.00  0.00    -0.016 A 
ATOM      7  C6  BZF d   1      -2.415   1.192   1.247  0.00  0.00     0.022 A 
ATOM      8  C7  BZF d   1      -1.728   1.096   0.083  0.00  0.00     0.029 A 
ATOM      9  C7A BZF d   1      -0.747   0.138   0.012  0.00  0.00     0.058 A 
ENDROOT
TORSDOF 0
ENDMDL
