MODEL 1
REMARK minimizedAffinity -4.67216015
REMARK minimizedRMSD -1
REMARK  0 active torsions:
REMARK  status: ('A' for Active; 'I' for Inactive)
ROOT
ATOM      1  O1  BZF d   1       1.798   0.113  -1.156  0.00  0.00    -0.204 OA
ATOM      2  C2  BZF d   1       1.860  -1.164  -0.633  0.00  0.00     0.174 A 
ATOM      3  C3  BZF d   1       0.713  -1.477   0.004  0.00  0.00    -0.012 A 
ATOM      4  C3A BZF d   1      -0.152  -0.358  -0.209  0.00  0.00    -0.107 A 
ATOM      5  C4  BZF d   1      -1.436  -0.079   0.165  0.00  0.00     0.055 A 
ATOM      6  C5  BZF d   1      -1.964   1.135  -0.141  0.00  0.00    -0.016 A 
ATOM      7  C6  BZF d   1      -1.236   2.095  -0.813  0.00  0.00     0.022 A 
ATOM      8  C7  BZF d   1       0.039   1.863  -1.209  0.00  0.00     0.029 A 
ATOM      9  C7A BZF d   1       0.564   0.625  -0.931  0.00  0.00     0.058 A 
ENDROOT
TORSDOF 0
ENDMDL
