MODEL 1
REMARK minimizedAffinity -3.28167462
REMARK minimizedRMSD -1
REMARK  0 active torsions:
REMARK  status: ('A' for Active; 'I' for Inactive)
ROOT
ATOM      1  O1  BZF d   1       0.425   1.836  -2.190  0.00  0.00    -0.204 OA
ATOM      2  C2  BZF d   1       1.324   1.708  -3.231  0.00  0.00     0.174 A 
ATOM      3  C3  BZF d   1       1.992   0.540  -3.145  0.00  0.00    -0.012 A 
ATOM      4  C3A BZF d   1       1.413  -0.144  -2.030  0.00  0.00    -0.107 A 
ATOM      5  C4  BZF d   1       1.641  -1.360  -1.453  0.00  0.00     0.055 A 
ATOM      6  C5  BZF d   1       0.953  -1.698  -0.331  0.00  0.00    -0.016 A 
ATOM      7  C6  BZF d   1       0.035  -0.843   0.243  0.00  0.00     0.022 A 
ATOM      8  C7  BZF d   1      -0.229   0.371  -0.296  0.00  0.00     0.029 A 
ATOM      9  C7A BZF d   1       0.440   0.702  -1.449  0.00  0.00     0.058 A 
ENDROOT
TORSDOF 0
ENDMDL
