MODEL 1
REMARK minimizedAffinity -5.88340902
REMARK minimizedRMSD -1
REMARK  0 active torsions:
REMARK  status: ('A' for Active; 'I' for Inactive)
ROOT
ATOM      1  O1  BZF d   1       2.158  -1.618  -0.318  0.00  0.00    -0.204 OA
ATOM      2  C2  BZF d   1       1.265  -1.525   0.732  0.00  0.00     0.174 A 
ATOM      3  C3  BZF d   1       0.583  -0.362   0.679  0.00  0.00    -0.012 A 
ATOM      4  C3A BZF d   1       1.015   0.273  -0.528  0.00  0.00    -0.107 A 
ATOM      5  C4  BZF d   1       0.687   1.448  -1.141  0.00  0.00     0.055 A 
ATOM      6  C5  BZF d   1       1.346   1.810  -2.273  0.00  0.00    -0.016 A 
ATOM      7  C6  BZF d   1       2.340   1.023  -2.817  0.00  0.00     0.022 A 
ATOM      8  C7  BZF d   1       2.697  -0.154  -2.248  0.00  0.00     0.029 A 
ATOM      9  C7A BZF d   1       2.010  -0.538  -1.122  0.00  0.00     0.058 A 
ENDROOT
TORSDOF 0
ENDMDL
