MODEL 1
REMARK minimizedAffinity -2.55916667
REMARK minimizedRMSD -1
REMARK  0 active torsions:
REMARK  status: ('A' for Active; 'I' for Inactive)
ROOT
ATOM      1  O1  BZF d   1       0.949  -0.567  -2.036  0.00  0.00    -0.204 OA
ATOM      2  C2  BZF d   1       1.780  -1.666  -1.936  0.00  0.00     0.174 A 
ATOM      3  C3  BZF d   1       1.775  -2.158  -0.680  0.00  0.00    -0.012 A 
ATOM      4  C3A BZF d   1       0.814  -1.369   0.029  0.00  0.00    -0.107 A 
ATOM      5  C4  BZF d   1       0.350  -1.385   1.313  0.00  0.00     0.055 A 
ATOM      6  C5  BZF d   1      -0.535  -0.432   1.707  0.00  0.00    -0.016 A 
ATOM      7  C6  BZF d   1      -0.974   0.552   0.846  0.00  0.00     0.022 A 
ATOM      8  C7  BZF d   1      -0.546   0.606  -0.439  0.00  0.00     0.029 A 
ATOM      9  C7A BZF d   1       0.323  -0.375  -0.849  0.00  0.00     0.058 A 
ENDROOT
TORSDOF 0
ENDMDL
