MODEL 1
REMARK minimizedAffinity -0.274051309
REMARK minimizedRMSD -1
REMARK  0 active torsions:
REMARK  status: ('A' for Active; 'I' for Inactive)
ROOT
ATOM      1  O1  BZF d   1       0.695   1.262  -2.561  0.00  0.00    -0.204 OA
ATOM      2  C2  BZF d   1       1.647   0.838  -3.468  0.00  0.00     0.174 A 
ATOM      3  C3  BZF d   1       2.197  -0.329  -3.074  0.00  0.00    -0.012 A 
ATOM      4  C3A BZF d   1       1.482  -0.701  -1.891  0.00  0.00    -0.107 A 
ATOM      5  C4  BZF d   1       1.558  -1.772  -1.047  0.00  0.00     0.055 A 
ATOM      6  C5  BZF d   1       0.767  -1.798   0.058  0.00  0.00    -0.016 A 
ATOM      7  C6  BZF d   1      -0.105  -0.770   0.352  0.00  0.00     0.022 A 
ATOM      8  C7  BZF d   1      -0.218   0.310  -0.459  0.00  0.00     0.029 A 
ATOM      9  C7A BZF d   1       0.555   0.324  -1.593  0.00  0.00     0.058 A 
ENDROOT
TORSDOF 0
ENDMDL
