MODEL 1
REMARK minimizedAffinity -5.342309
REMARK minimizedRMSD -1
REMARK  0 active torsions:
REMARK  status: ('A' for Active; 'I' for Inactive)
ROOT
ATOM      1  O1  BZF d   1      -0.965   0.779  -0.517  0.00  0.00    -0.204 OA
ATOM      2  C2  BZF d   1      -0.984  -0.336   0.299  0.00  0.00     0.174 A 
ATOM      3  C3  BZF d   1      -0.001  -1.194  -0.041  0.00  0.00    -0.012 A 
ATOM      4  C3A BZF d   1       0.732  -0.535  -1.079  0.00  0.00    -0.107 A 
ATOM      5  C4  BZF d   1       1.832  -0.875  -1.813  0.00  0.00     0.055 A 
ATOM      6  C5  BZF d   1       2.252  -0.040  -2.799  0.00  0.00    -0.016 A 
ATOM      7  C6  BZF d   1       1.594   1.139  -3.081  0.00  0.00     0.022 A 
ATOM      8  C7  BZF d   1       0.501   1.522  -2.377  0.00  0.00     0.029 A 
ATOM      9  C7A BZF d   1       0.093   0.696  -1.358  0.00  0.00     0.058 A 
ENDROOT
TORSDOF 0
ENDMDL
