MODEL 1
REMARK minimizedAffinity 4.62849808
REMARK minimizedRMSD -1
REMARK  0 active torsions:
REMARK  status: ('A' for Active; 'I' for Inactive)
ROOT
ATOM      1  O1  BZF d   1      -2.195   0.311   3.464  0.00  0.00    -0.204 OA
ATOM      2  C2  BZF d   1      -2.318   1.503   4.151  0.00  0.00     0.174 A 
ATOM      3  C3  BZF d   1      -3.582   1.970   4.077  0.00  0.00    -0.012 A 
ATOM      4  C3A BZF d   1      -4.314   0.962   3.373  0.00  0.00    -0.107 A 
ATOM      5  C4  BZF d   1      -5.622   0.840   3.000  0.00  0.00     0.055 A 
ATOM      6  C5  BZF d   1      -6.000  -0.233   2.257  0.00  0.00    -0.016 A 
ATOM      7  C6  BZF d   1      -5.096  -1.200   1.866  0.00  0.00     0.022 A 
ATOM      8  C7  BZF d   1      -3.789  -1.124   2.216  0.00  0.00     0.029 A 
ATOM      9  C7A BZF d   1      -3.411  -0.058   2.994  0.00  0.00     0.058 A 
ENDROOT
TORSDOF 0
ENDMDL
