MODEL 1
REMARK minimizedAffinity -3.59329915
REMARK minimizedRMSD -1
REMARK  0 active torsions:
REMARK  status: ('A' for Active; 'I' for Inactive)
ROOT
ATOM      1  O1  BZF d   1      -1.829   1.766   1.221  0.00  0.00    -0.204 OA
ATOM      2  C2  BZF d   1      -1.572   1.768   2.579  0.00  0.00     0.174 A 
ATOM      3  C3  BZF d   1      -0.596   0.887   2.881  0.00  0.00    -0.012 A 
ATOM      4  C3A BZF d   1      -0.157   0.365   1.624  0.00  0.00    -0.107 A 
ATOM      5  C4  BZF d   1       0.802  -0.539   1.266  0.00  0.00     0.055 A 
ATOM      6  C5  BZF d   1       0.930  -0.884  -0.043  0.00  0.00    -0.016 A 
ATOM      7  C6  BZF d   1       0.113  -0.348  -1.017  0.00  0.00     0.022 A 
ATOM      8  C7  BZF d   1      -0.849   0.556  -0.711  0.00  0.00     0.029 A 
ATOM      9  C7A BZF d   1      -0.958   0.931   0.606  0.00  0.00     0.058 A 
ENDROOT
TORSDOF 0
ENDMDL
