MODEL 1
REMARK minimizedAffinity -2.15867257
REMARK minimizedRMSD -1
REMARK  0 active torsions:
REMARK  status: ('A' for Active; 'I' for Inactive)
ROOT
ATOM      1  O1  BZF d   1      -0.397  -0.178   3.427  0.00  0.00    -0.204 OA
ATOM      2  C2  BZF d   1      -1.397   0.731   3.714  0.00  0.00     0.174 A 
ATOM      3  C3  BZF d   1      -1.779   1.389   2.600  0.00  0.00    -0.012 A 
ATOM      4  C3A BZF d   1      -1.031   0.793   1.536  0.00  0.00    -0.107 A 
ATOM      5  C4  BZF d   1      -0.984   1.006   0.188  0.00  0.00     0.055 A 
ATOM      6  C5  BZF d   1      -0.093   0.305  -0.561  0.00  0.00    -0.016 A 
ATOM      7  C6  BZF d   1       0.768  -0.613   0.005  0.00  0.00     0.022 A 
ATOM      8  C7  BZF d   1       0.754  -0.862   1.337  0.00  0.00     0.029 A 
ATOM      9  C7A BZF d   1      -0.168  -0.179   2.092  0.00  0.00     0.058 A 
ENDROOT
TORSDOF 0
ENDMDL
