MODEL 1
REMARK minimizedAffinity -3.55339551
REMARK minimizedRMSD -1
REMARK  1 active torsions:
REMARK  status: ('A' for Active; 'I' for Inactive)
REMARK    1  A    between atoms: C1_2  and  C2_3 
ROOT
ATOM      1  C2  UNL d   1      -0.483  -0.887  -0.635  0.00  0.00    -0.073 A 
ATOM      2  C3  UNL d   1       0.750  -1.042  -1.279  0.00  0.00    -0.002 A 
ATOM      3  C4  UNL d   1       1.809  -0.179  -0.993  0.00  0.00     0.004 A 
ATOM      4  C5  UNL d   1       1.649   0.842  -0.057  0.00  0.00    -0.004 A 
ATOM      5  C6  UNL d   1       0.428   1.007   0.605  0.00  0.00    -0.075 A 
ATOM      6  C7  UNL d   1       0.238   2.103   1.613  0.00  0.00     0.076 C 
ATOM      7  C8  UNL d   1      -0.631   0.138   0.311  0.00  0.00     0.001 A 
ENDROOT
BRANCH   1   8
ATOM      8  C1  UNL d   1      -1.627  -1.820  -0.936  0.00  0.00     0.053 C 
ATOM      9  C   UNL d   1      -2.307  -1.482  -2.252  0.00  0.00     0.018 C 
ENDBRANCH   1   8
TORSDOF 1
ENDMDL
