MODEL 1
REMARK minimizedAffinity -4.58652544
REMARK minimizedRMSD -1
REMARK  1 active torsions:
REMARK  status: ('A' for Active; 'I' for Inactive)
REMARK    1  A    between atoms: C1_2  and  C2_3 
ROOT
ATOM      1  C2  UNL d   1      -0.480  -0.592  -0.464  0.00  0.00    -0.073 A 
ATOM      2  C3  UNL d   1       0.753  -1.232  -0.632  0.00  0.00    -0.002 A 
ATOM      3  C4  UNL d   1       1.936  -0.588  -0.267  0.00  0.00     0.004 A 
ATOM      4  C5  UNL d   1       1.899   0.696   0.274  0.00  0.00    -0.004 A 
ATOM      5  C6  UNL d   1       0.675   1.348   0.460  0.00  0.00    -0.075 A 
ATOM      6  C7  UNL d   1       0.617   2.731   1.039  0.00  0.00     0.076 C 
ATOM      7  C8  UNL d   1      -0.509   0.696   0.089  0.00  0.00     0.001 A 
ENDROOT
BRANCH   1   8
ATOM      8  C1  UNL d   1      -1.761  -1.285  -0.851  0.00  0.00     0.053 C 
ATOM      9  C   UNL d   1      -2.017  -1.217  -2.348  0.00  0.00     0.018 C 
ENDBRANCH   1   8
TORSDOF 1
ENDMDL
