MODEL 1
REMARK minimizedAffinity -3.73526406
REMARK minimizedRMSD -1
REMARK  1 active torsions:
REMARK  status: ('A' for Active; 'I' for Inactive)
REMARK    1  A    between atoms: C1_2  and  C2_3 
ROOT
ATOM      1  C2  UNL d   1      -0.320  -0.895  -0.483  0.00  0.00    -0.073 A 
ATOM      2  C3  UNL d   1       0.931  -1.485  -0.694  0.00  0.00    -0.002 A 
ATOM      3  C4  UNL d   1       2.100  -0.749  -0.499  0.00  0.00     0.004 A 
ATOM      4  C5  UNL d   1       2.031   0.581  -0.085  0.00  0.00    -0.004 A 
ATOM      5  C6  UNL d   1       0.790   1.186   0.143  0.00  0.00    -0.075 A 
ATOM      6  C7  UNL d   1       0.699   2.616   0.586  0.00  0.00     0.076 C 
ATOM      7  C8  UNL d   1      -0.379   0.440  -0.058  0.00  0.00     0.001 A 
ENDROOT
BRANCH   1   8
ATOM      8  C1  UNL d   1      -1.585  -1.688  -0.686  0.00  0.00     0.053 C 
ATOM      9  C   UNL d   1      -1.774  -2.098  -2.138  0.00  0.00     0.018 C 
ENDBRANCH   1   8
TORSDOF 1
ENDMDL
