MODEL 1
REMARK minimizedAffinity -5.24251795
REMARK minimizedRMSD -1
REMARK  1 active torsions:
REMARK  status: ('A' for Active; 'I' for Inactive)
REMARK    1  A    between atoms: C1_2  and  C2_3 
ROOT
ATOM      1  C2  UNL d   1       0.065   1.150  -0.246  0.00  0.00    -0.073 A 
ATOM      2  C3  UNL d   1       1.135   0.361   0.190  0.00  0.00    -0.002 A 
ATOM      3  C4  UNL d   1       1.265  -0.957  -0.251  0.00  0.00     0.004 A 
ATOM      4  C5  UNL d   1       0.332  -1.496  -1.136  0.00  0.00    -0.004 A 
ATOM      5  C6  UNL d   1      -0.738  -0.719  -1.592  0.00  0.00    -0.075 A 
ATOM      6  C7  UNL d   1      -1.752  -1.285  -2.543  0.00  0.00     0.076 C 
ATOM      7  C8  UNL d   1      -0.863   0.603  -1.143  0.00  0.00     0.001 A 
ENDROOT
BRANCH   1   8
ATOM      8  C1  UNL d   1      -0.075   2.576   0.223  0.00  0.00     0.053 C 
ATOM      9  C   UNL d   1       0.724   2.841   1.488  0.00  0.00     0.018 C 
ENDBRANCH   1   8
TORSDOF 1
ENDMDL
