MODEL 1
REMARK minimizedAffinity -0.920324922
REMARK minimizedRMSD -1
REMARK  1 active torsions:
REMARK  status: ('A' for Active; 'I' for Inactive)
REMARK    1  A    between atoms: C1_2  and  C2_3 
ROOT
ATOM      1  C2  UNL d   1      -0.318  -0.567  -0.161  0.00  0.00    -0.073 A 
ATOM      2  C3  UNL d   1      -1.185  -0.680   0.932  0.00  0.00    -0.002 A 
ATOM      3  C4  UNL d   1      -1.188   0.292   1.933  0.00  0.00     0.004 A 
ATOM      4  C5  UNL d   1      -0.330   1.388   1.850  0.00  0.00    -0.004 A 
ATOM      5  C6  UNL d   1       0.536   1.525   0.760  0.00  0.00    -0.075 A 
ATOM      6  C7  UNL d   1       1.467   2.697   0.656  0.00  0.00     0.076 C 
ATOM      7  C8  UNL d   1       0.535   0.543  -0.240  0.00  0.00     0.001 A 
ENDROOT
BRANCH   1   8
ATOM      8  C1  UNL d   1      -0.316  -1.611  -1.248  0.00  0.00     0.053 C 
ATOM      9  C   UNL d   1      -1.725  -1.986  -1.680  0.00  0.00     0.018 C 
ENDBRANCH   1   8
TORSDOF 1
ENDMDL
