MODEL 1
REMARK minimizedAffinity -4.61777496
REMARK minimizedRMSD -1
REMARK  1 active torsions:
REMARK  status: ('A' for Active; 'I' for Inactive)
REMARK    1  A    between atoms: C1_2  and  C2_3 
ROOT
ATOM      1  C2  UNL d   1      -0.418  -0.166  -0.794  0.00  0.00    -0.073 A 
ATOM      2  C3  UNL d   1      -1.211  -0.591   0.279  0.00  0.00    -0.002 A 
ATOM      3  C4  UNL d   1      -1.130   0.054   1.514  0.00  0.00     0.004 A 
ATOM      4  C5  UNL d   1      -0.264   1.133   1.687  0.00  0.00    -0.004 A 
ATOM      5  C6  UNL d   1       0.528   1.580   0.624  0.00  0.00    -0.075 A 
ATOM      6  C7  UNL d   1       1.466   2.738   0.795  0.00  0.00     0.076 C 
ATOM      7  C8  UNL d   1       0.443   0.926  -0.612  0.00  0.00     0.001 A 
ENDROOT
BRANCH   1   8
ATOM      8  C1  UNL d   1      -0.506  -0.855  -2.131  0.00  0.00     0.053 C 
ATOM      9  C   UNL d   1      -1.900  -1.398  -2.402  0.00  0.00     0.018 C 
ENDBRANCH   1   8
TORSDOF 1
ENDMDL
