MODEL 1
REMARK minimizedAffinity -2.91710687
REMARK minimizedRMSD -1
REMARK  1 active torsions:
REMARK  status: ('A' for Active; 'I' for Inactive)
REMARK    1  A    between atoms: C1_2  and  C2_3 
ROOT
ATOM      1  C2  UNL d   1      -0.978  -1.182  -1.000  0.00  0.00    -0.073 A 
ATOM      2  C3  UNL d   1      -1.506  -0.721   0.212  0.00  0.00    -0.002 A 
ATOM      3  C4  UNL d   1      -0.750   0.113   1.037  0.00  0.00     0.004 A 
ATOM      4  C5  UNL d   1       0.535   0.499   0.657  0.00  0.00    -0.004 A 
ATOM      5  C6  UNL d   1       1.075   0.059  -0.555  0.00  0.00    -0.075 A 
ATOM      6  C7  UNL d   1       2.457   0.463  -0.977  0.00  0.00     0.076 C 
ATOM      7  C8  UNL d   1       0.311  -0.781  -1.377  0.00  0.00     0.001 A 
ENDROOT
BRANCH   1   8
ATOM      8  C1  UNL d   1      -1.793  -2.078  -1.898  0.00  0.00     0.053 C 
ATOM      9  C   UNL d   1      -2.949  -1.334  -2.547  0.00  0.00     0.018 C 
ENDBRANCH   1   8
TORSDOF 1
ENDMDL
