MODEL 1
REMARK minimizedAffinity -2.89457512
REMARK minimizedRMSD -1
REMARK  1 active torsions:
REMARK  status: ('A' for Active; 'I' for Inactive)
REMARK    1  A    between atoms: C1_2  and  C2_3 
ROOT
ATOM      1  C2  UNL d   1       0.074  -0.655  -0.079  0.00  0.00    -0.073 A 
ATOM      2  C3  UNL d   1       1.227  -0.959  -0.812  0.00  0.00    -0.002 A 
ATOM      3  C4  UNL d   1       2.281  -0.047  -0.876  0.00  0.00     0.004 A 
ATOM      4  C5  UNL d   1       2.198   1.172  -0.204  0.00  0.00    -0.004 A 
ATOM      5  C6  UNL d   1       1.059   1.489   0.543  0.00  0.00    -0.075 A 
ATOM      6  C7  UNL d   1       0.952   2.797   1.270  0.00  0.00     0.076 C 
ATOM      7  C8  UNL d   1       0.003   0.569   0.601  0.00  0.00     0.001 A 
ENDROOT
BRANCH   1   8
ATOM      8  C1  UNL d   1      -1.064  -1.639  -0.001  0.00  0.00     0.053 C 
ATOM      9  C   UNL d   1      -1.983  -1.545  -1.209  0.00  0.00     0.018 C 
ENDBRANCH   1   8
TORSDOF 1
ENDMDL
