MODEL 1
REMARK minimizedAffinity 0.264401495
REMARK minimizedRMSD -1
REMARK  0 active torsions:
REMARK  status: ('A' for Active; 'I' for Inactive)
ROOT
ATOM      1  C4' PXY d   1       1.120  -5.217   5.375  0.00  0.00     0.077 C 
ATOM      2  C1' PXY d   1       2.749  -0.817   1.999  0.00  0.00     0.077 C 
ATOM      3  C1  PXY d   1       2.328  -1.979   2.876  0.00  0.00    -0.082 A 
ATOM      4  C2  PXY d   1       1.281  -1.850   3.676  0.00  0.00     0.003 A 
ATOM      5  C3  PXY d   1       0.906  -2.880   4.499  0.00  0.00     0.003 A 
ATOM      6  C4  PXY d   1       1.576  -4.074   4.465  0.00  0.00    -0.082 A 
ATOM      7  C5  PXY d   1       2.638  -4.217   3.644  0.00  0.00     0.003 A 
ATOM      8  C6  PXY d   1       3.028  -3.146   2.846  0.00  0.00     0.003 A 
ENDROOT
TORSDOF 0
ENDMDL
