MODEL 1
REMARK minimizedAffinity 3.79002547
REMARK minimizedRMSD -1
REMARK  0 active torsions:
REMARK  status: ('A' for Active; 'I' for Inactive)
ROOT
ATOM      1  C4' PXY d   1       6.000  -2.981   3.764  0.00  0.00     0.077 C 
ATOM      2  C1' PXY d   1       0.284  -3.802   3.495  0.00  0.00     0.077 C 
ATOM      3  C1  PXY d   1       1.783  -3.590   3.578  0.00  0.00    -0.082 A 
ATOM      4  C2  PXY d   1       2.375  -2.768   2.728  0.00  0.00     0.003 A 
ATOM      5  C3  PXY d   1       3.734  -2.589   2.768  0.00  0.00     0.003 A 
ATOM      6  C4  PXY d   1       4.488  -3.218   3.723  0.00  0.00    -0.082 A 
ATOM      7  C5  PXY d   1       3.889  -4.050   4.601  0.00  0.00     0.003 A 
ATOM      8  C6  PXY d   1       2.514  -4.250   4.517  0.00  0.00     0.003 A 
ENDROOT
TORSDOF 0
ENDMDL
