MODEL 1
REMARK minimizedAffinity 6.67126942
REMARK minimizedRMSD -1
REMARK  0 active torsions:
REMARK  status: ('A' for Active; 'I' for Inactive)
ROOT
ATOM      1  C4' PXY d   1       3.165  -5.412   5.824  0.00  0.00     0.077 C 
ATOM      2  C1' PXY d   1       2.410  -1.287   1.845  0.00  0.00     0.077 C 
ATOM      3  C1  PXY d   1       2.621  -2.368   2.887  0.00  0.00    -0.082 A 
ATOM      4  C2  PXY d   1       1.643  -3.219   3.154  0.00  0.00     0.003 A 
ATOM      5  C3  PXY d   1       1.806  -4.183   4.115  0.00  0.00     0.003 A 
ATOM      6  C4  PXY d   1       3.000  -4.310   4.773  0.00  0.00    -0.082 A 
ATOM      7  C5  PXY d   1       4.006  -3.453   4.499  0.00  0.00     0.003 A 
ATOM      8  C6  PXY d   1       3.806  -2.456   3.549  0.00  0.00     0.003 A 
ENDROOT
TORSDOF 0
ENDMDL
