MODEL 1
REMARK minimizedAffinity 3.58378601
REMARK minimizedRMSD -1
REMARK  0 active torsions:
REMARK  status: ('A' for Active; 'I' for Inactive)
ROOT
ATOM      1  C4' PXY d   1       2.279  -6.000  -5.997  0.00  0.00     0.077 C 
ATOM      2  C1' PXY d   1       5.029  -5.648  -0.924  0.00  0.00     0.077 C 
ATOM      3  C1  PXY d   1       4.318  -5.736  -2.260  0.00  0.00    -0.082 A 
ATOM      4  C2  PXY d   1       2.996  -5.700  -2.302  0.00  0.00     0.003 A 
ATOM      5  C3  PXY d   1       2.337  -5.810  -3.499  0.00  0.00     0.003 A 
ATOM      6  C4  PXY d   1       3.039  -5.905  -4.671  0.00  0.00    -0.082 A 
ATOM      7  C5  PXY d   1       4.388  -5.931  -4.638  0.00  0.00     0.003 A 
ATOM      8  C6  PXY d   1       5.038  -5.859  -3.409  0.00  0.00     0.003 A 
ENDROOT
TORSDOF 0
ENDMDL
