MODEL 1
REMARK minimizedAffinity 1.24818051
REMARK minimizedRMSD -1
REMARK  0 active torsions:
REMARK  status: ('A' for Active; 'I' for Inactive)
ROOT
ATOM      1  C4' PXY d   1       0.976  -4.648   5.238  0.00  0.00     0.077 C 
ATOM      2  C1' PXY d   1       2.630  -0.451   1.623  0.00  0.00     0.077 C 
ATOM      3  C1  PXY d   1       2.197  -1.561   2.562  0.00  0.00    -0.082 A 
ATOM      4  C2  PXY d   1       1.483  -1.267   3.636  0.00  0.00     0.003 A 
ATOM      5  C3  PXY d   1       1.111  -2.254   4.512  0.00  0.00     0.003 A 
ATOM      6  C4  PXY d   1       1.427  -3.562   4.258  0.00  0.00    -0.082 A 
ATOM      7  C5  PXY d   1       2.146  -3.870   3.158  0.00  0.00     0.003 A 
ATOM      8  C6  PXY d   1       2.550  -2.849   2.303  0.00  0.00     0.003 A 
ENDROOT
TORSDOF 0
ENDMDL
