MODEL 1
REMARK minimizedAffinity 8.10466957
REMARK minimizedRMSD -1
REMARK  0 active torsions:
REMARK  status: ('A' for Active; 'I' for Inactive)
ROOT
ATOM      1  C4' PXY d   1       2.022  -4.721   2.999  0.00  0.00     0.077 C 
ATOM      2  C1' PXY d   1       1.826   0.933   1.812  0.00  0.00     0.077 C 
ATOM      3  C1  PXY d   1       1.865  -0.551   2.120  0.00  0.00    -0.082 A 
ATOM      4  C2  PXY d   1       2.757  -1.018   2.978  0.00  0.00     0.003 A 
ATOM      5  C3  PXY d   1       2.827  -2.361   3.244  0.00  0.00     0.003 A 
ATOM      6  C4  PXY d   1       1.940  -3.229   2.665  0.00  0.00    -0.082 A 
ATOM      7  C5  PXY d   1       1.021  -2.759   1.796  0.00  0.00     0.003 A 
ATOM      8  C6  PXY d   1       0.993  -1.397   1.509  0.00  0.00     0.003 A 
ENDROOT
TORSDOF 0
ENDMDL
