MODEL 1
REMARK minimizedAffinity 4.95301294
REMARK minimizedRMSD -1
REMARK  0 active torsions:
REMARK  status: ('A' for Active; 'I' for Inactive)
ROOT
ATOM      1  C4' PXY d   1       1.511   1.049   3.405  0.00  0.00     0.077 C 
ATOM      2  C1' PXY d   1       2.125  -4.699   3.377  0.00  0.00     0.077 C 
ATOM      3  C1  PXY d   1       1.958  -3.192   3.395  0.00  0.00    -0.082 A 
ATOM      4  C2  PXY d   1       1.995  -2.515   2.259  0.00  0.00     0.003 A 
ATOM      5  C3  PXY d   1       1.877  -1.149   2.261  0.00  0.00     0.003 A 
ATOM      6  C4  PXY d   1       1.666  -0.474   3.433  0.00  0.00    -0.082 A 
ATOM      7  C5  PXY d   1       1.616  -1.158   4.596  0.00  0.00     0.003 A 
ATOM      8  C6  PXY d   1       1.779  -2.540   4.576  0.00  0.00     0.003 A 
ENDROOT
TORSDOF 0
ENDMDL
