MODEL 1
REMARK minimizedAffinity 2.54354429
REMARK minimizedRMSD -1
REMARK  0 active torsions:
REMARK  status: ('A' for Active; 'I' for Inactive)
ROOT
ATOM      1  C4' PXY d   1       2.398  -5.993   6.000  0.00  0.00     0.077 C 
ATOM      2  C1' PXY d   1       1.998  -1.323   2.618  0.00  0.00     0.077 C 
ATOM      3  C1  PXY d   1       2.090  -2.548   3.506  0.00  0.00    -0.082 A 
ATOM      4  C2  PXY d   1       3.197  -2.775   4.194  0.00  0.00     0.003 A 
ATOM      5  C3  PXY d   1       3.309  -3.895   4.977  0.00  0.00     0.003 A 
ATOM      6  C4  PXY d   1       2.258  -4.764   5.098  0.00  0.00    -0.082 A 
ATOM      7  C5  PXY d   1       1.121  -4.534   4.407  0.00  0.00     0.003 A 
ATOM      8  C6  PXY d   1       1.042  -3.413   3.586  0.00  0.00     0.003 A 
ENDROOT
TORSDOF 0
ENDMDL
