MODEL 1
REMARK minimizedAffinity 12.6214771
REMARK minimizedRMSD -1
REMARK  0 active torsions:
REMARK  status: ('A' for Active; 'I' for Inactive)
ROOT
ATOM      1  C4' PXY d   1       1.517  -5.973  -3.797  0.00  0.00     0.077 C 
ATOM      2  C1' PXY d   1       5.329  -5.999   0.549  0.00  0.00     0.077 C 
ATOM      3  C1  PXY d   1       4.320  -5.998  -0.583  0.00  0.00    -0.082 A 
ATOM      4  C2  PXY d   1       4.744  -6.000  -1.837  0.00  0.00     0.003 A 
ATOM      5  C3  PXY d   1       3.846  -5.966  -2.872  0.00  0.00     0.003 A 
ATOM      6  C4  PXY d   1       2.500  -5.984  -2.623  0.00  0.00    -0.082 A 
ATOM      7  C5  PXY d   1       2.060  -5.993  -1.347  0.00  0.00     0.003 A 
ATOM      8  C6  PXY d   1       2.988  -5.986  -0.309  0.00  0.00     0.003 A 
ENDROOT
TORSDOF 0
ENDMDL
