MODEL 1
REMARK minimizedAffinity 8.73583698
REMARK minimizedRMSD -1
REMARK  0 active torsions:
REMARK  status: ('A' for Active; 'I' for Inactive)
ROOT
ATOM      1  C4' PXY d   1       2.907   1.564   1.538  0.00  0.00     0.077 C 
ATOM      2  C1' PXY d   1       1.017  -3.709   2.966  0.00  0.00     0.077 C 
ATOM      3  C1  PXY d   1       1.512  -2.322   2.604  0.00  0.00    -0.082 A 
ATOM      4  C2  PXY d   1       1.374  -1.881   1.364  0.00  0.00     0.003 A 
ATOM      5  C3  PXY d   1       1.844  -0.643   1.012  0.00  0.00     0.003 A 
ATOM      6  C4  PXY d   1       2.414   0.175   1.951  0.00  0.00    -0.082 A 
ATOM      7  C5  PXY d   1       2.549  -0.263   3.220  0.00  0.00     0.003 A 
ATOM      8  C6  PXY d   1       2.102  -1.540   3.548  0.00  0.00     0.003 A 
ENDROOT
TORSDOF 0
ENDMDL
