MODEL 1
REMARK minimizedAffinity 7.93660116
REMARK minimizedRMSD -1
REMARK  0 active torsions:
REMARK  status: ('A' for Active; 'I' for Inactive)
ROOT
ATOM      1  C4' PXY d   1       1.180  -2.717   2.374  0.00  0.00     0.077 C 
ATOM      2  C1' PXY d   1       2.540   2.799   3.442  0.00  0.00     0.077 C 
ATOM      3  C1  PXY d   1       2.182   1.355   3.149  0.00  0.00    -0.082 A 
ATOM      4  C2  PXY d   1       1.703   0.591   4.117  0.00  0.00     0.003 A 
ATOM      5  C3  PXY d   1       1.404  -0.726   3.878  0.00  0.00     0.003 A 
ATOM      6  C4  PXY d   1       1.546  -1.251   2.621  0.00  0.00    -0.082 A 
ATOM      7  C5  PXY d   1       2.024  -0.475   1.626  0.00  0.00     0.003 A 
ATOM      8  C6  PXY d   1       2.361   0.848   1.899  0.00  0.00     0.003 A 
ENDROOT
TORSDOF 0
ENDMDL
