MODEL 1
REMARK minimizedAffinity 1.27628565
REMARK minimizedRMSD -1
REMARK  1 active torsions:
REMARK  status: ('A' for Active; 'I' for Inactive)
REMARK    1  A    between atoms: C1_2  and  C2_3 
ROOT
ATOM      1  C2  UNL d   1       0.525  -1.371   1.464  0.00  0.00    -0.076 A 
ATOM      2  C3  UNL d   1      -0.496  -1.417   2.429  0.00  0.00     0.004 A 
ATOM      3  C4  UNL d   1      -1.706  -0.755   2.225  0.00  0.00    -0.003 A 
ATOM      4  C5  UNL d   1      -1.915  -0.038   1.052  0.00  0.00     0.000 A 
ATOM      5  C6  UNL d   1      -0.920   0.003   0.076  0.00  0.00     0.000 A 
ATOM      6  C7  UNL d   1       0.300  -0.672   0.259  0.00  0.00    -0.073 A 
ATOM      7  C8  UNL d   1       1.340  -0.588  -0.824  0.00  0.00     0.078 C 
ENDROOT
BRANCH   1   8
ATOM      8  C1  UNL d   1       1.826  -2.086   1.752  0.00  0.00     0.053 C 
ATOM      9  C   UNL d   1       1.740  -3.582   1.492  0.00  0.00     0.018 C 
ENDBRANCH   1   8
TORSDOF 1
ENDMDL
