MODEL 1
REMARK minimizedAffinity -4.44286823
REMARK minimizedRMSD -1
REMARK  1 active torsions:
REMARK  status: ('A' for Active; 'I' for Inactive)
REMARK    1  A    between atoms: C1_2  and  C2_3 
ROOT
ATOM      1  C2  UNL d   1       0.522  -0.233   1.094  0.00  0.00    -0.076 A 
ATOM      2  C3  UNL d   1       1.437   0.175   0.107  0.00  0.00     0.004 A 
ATOM      3  C4  UNL d   1       0.995   0.668  -1.120  0.00  0.00    -0.003 A 
ATOM      4  C5  UNL d   1      -0.368   0.763  -1.379  0.00  0.00     0.000 A 
ATOM      5  C6  UNL d   1      -1.289   0.381  -0.405  0.00  0.00     0.000 A 
ATOM      6  C7  UNL d   1      -0.861  -0.104   0.843  0.00  0.00    -0.073 A 
ATOM      7  C8  UNL d   1      -1.898  -0.508   1.855  0.00  0.00     0.078 C 
ENDROOT
BRANCH   1   8
ATOM      8  C1  UNL d   1       1.060  -0.785   2.395  0.00  0.00     0.053 C 
ATOM      9  C   UNL d   1       2.113  -1.861   2.180  0.00  0.00     0.018 C 
ENDBRANCH   1   8
TORSDOF 1
ENDMDL
