MODEL 1
REMARK minimizedAffinity 0.915932596
REMARK minimizedRMSD -1
REMARK  1 active torsions:
REMARK  status: ('A' for Active; 'I' for Inactive)
REMARK    1  A    between atoms: C1_2  and  C2_3 
ROOT
ATOM      1  C2  UNL d   1       2.927   5.972   3.399  0.00  0.00    -0.076 A 
ATOM      2  C3  UNL d   1       4.316   5.981   3.611  0.00  0.00     0.004 A 
ATOM      3  C4  UNL d   1       4.845   5.982   4.901  0.00  0.00    -0.003 A 
ATOM      4  C5  UNL d   1       3.992   5.973   6.000  0.00  0.00     0.000 A 
ATOM      5  C6  UNL d   1       2.611   5.946   5.807  0.00  0.00     0.000 A 
ATOM      6  C7  UNL d   1       2.062   5.928   4.514  0.00  0.00    -0.073 A 
ATOM      7  C8  UNL d   1       0.566   5.906   4.365  0.00  0.00     0.078 C 
ENDROOT
BRANCH   1   8
ATOM      8  C1  UNL d   1       2.411   5.999   1.978  0.00  0.00     0.053 C 
ATOM      9  C   UNL d   1       3.533   5.996   0.951  0.00  0.00     0.018 C 
ENDBRANCH   1   8
TORSDOF 1
ENDMDL
