MODEL 1
REMARK minimizedAffinity 8.61983109
REMARK minimizedRMSD -1
REMARK  1 active torsions:
REMARK  status: ('A' for Active; 'I' for Inactive)
REMARK    1  A    between atoms: C1_2  and  C2_3 
ROOT
ATOM      1  C2  UNL d   1      -0.062  -1.386   2.214  0.00  0.00    -0.076 A 
ATOM      2  C3  UNL d   1       1.240  -1.830   1.927  0.00  0.00     0.004 A 
ATOM      3  C4  UNL d   1       1.859  -1.506   0.721  0.00  0.00    -0.003 A 
ATOM      4  C5  UNL d   1       1.186  -0.732  -0.218  0.00  0.00     0.000 A 
ATOM      5  C6  UNL d   1      -0.100  -0.267   0.058  0.00  0.00     0.000 A 
ATOM      6  C7  UNL d   1      -0.732  -0.571   1.276  0.00  0.00    -0.073 A 
ATOM      7  C8  UNL d   1      -2.122  -0.049   1.518  0.00  0.00     0.078 C 
ENDROOT
BRANCH   1   8
ATOM      8  C1  UNL d   1      -0.693  -1.791   3.527  0.00  0.00     0.053 C 
ATOM      9  C   UNL d   1      -1.582  -3.017   3.392  0.00  0.00     0.018 C 
ENDBRANCH   1   8
TORSDOF 1
ENDMDL
