MODEL 1
REMARK minimizedAffinity 4.66005659
REMARK minimizedRMSD -1
REMARK  1 active torsions:
REMARK  status: ('A' for Active; 'I' for Inactive)
REMARK    1  A    between atoms: C1_2  and  C2_3 
ROOT
ATOM      1  C2  UNL d   1      -1.409  -0.273   0.754  0.00  0.00    -0.076 A 
ATOM      2  C3  UNL d   1      -1.388  -0.387  -0.647  0.00  0.00     0.004 A 
ATOM      3  C4  UNL d   1      -0.213  -0.711  -1.323  0.00  0.00    -0.003 A 
ATOM      4  C5  UNL d   1       0.960  -0.927  -0.609  0.00  0.00     0.000 A 
ATOM      5  C6  UNL d   1       0.954  -0.836   0.783  0.00  0.00     0.000 A 
ATOM      6  C7  UNL d   1      -0.226  -0.526   1.481  0.00  0.00    -0.073 A 
ATOM      7  C8  UNL d   1      -0.174  -0.434   2.981  0.00  0.00     0.078 C 
ENDROOT
BRANCH   1   8
ATOM      8  C1  UNL d   1      -2.707   0.108   1.430  0.00  0.00     0.053 C 
ATOM      9  C   UNL d   1      -3.871  -0.766   0.991  0.00  0.00     0.018 C 
ENDBRANCH   1   8
TORSDOF 1
ENDMDL
