MODEL 1
REMARK minimizedAffinity 2.28424025
REMARK minimizedRMSD -1
REMARK  1 active torsions:
REMARK  status: ('A' for Active; 'I' for Inactive)
REMARK    1  A    between atoms: C1_2  and  C2_3 
ROOT
ATOM      1  C2  UNL d   1       3.442   5.983   4.291  0.00  0.00    -0.076 A 
ATOM      2  C3  UNL d   1       4.841   5.999   4.424  0.00  0.00     0.004 A 
ATOM      3  C4  UNL d   1       5.668   5.997   3.302  0.00  0.00    -0.003 A 
ATOM      4  C5  UNL d   1       5.110   5.980   2.029  0.00  0.00     0.000 A 
ATOM      5  C6  UNL d   1       3.723   5.982   1.878  0.00  0.00     0.000 A 
ATOM      6  C7  UNL d   1       2.875   6.000   2.999  0.00  0.00    -0.073 A 
ATOM      7  C8  UNL d   1       1.387   5.995   2.778  0.00  0.00     0.078 C 
ENDROOT
BRANCH   1   8
ATOM      8  C1  UNL d   1       2.596   5.958   5.544  0.00  0.00     0.053 C 
ATOM      9  C   UNL d   1       2.078   4.566   5.870  0.00  0.00     0.018 C 
ENDBRANCH   1   8
TORSDOF 1
ENDMDL
