MODEL 1
REMARK minimizedAffinity 1.43797624
REMARK minimizedRMSD -1
REMARK  0 active torsions:
REMARK  status: ('A' for Active; 'I' for Inactive)
ROOT
ATOM      1  C   UNL d   1       2.679  -5.963   5.940  0.00  0.00     0.078 C 
ATOM      2  C1  UNL d   1       1.952  -5.983   4.629  0.00  0.00    -0.077 A 
ATOM      3  C2  UNL d   1       2.652  -5.985   3.416  0.00  0.00    -0.001 A 
ATOM      4  C3  UNL d   1       1.962  -5.994   2.203  0.00  0.00     0.003 A 
ATOM      5  C4  UNL d   1       0.568  -6.000   2.190  0.00  0.00    -0.005 A 
ATOM      6  C5  UNL d   1      -0.137  -5.995   3.392  0.00  0.00     0.003 A 
ATOM      7  C6  UNL d   1       0.552  -5.987   4.606  0.00  0.00    -0.001 A 
ENDROOT
TORSDOF 0
ENDMDL
