MODEL 1
REMARK minimizedAffinity 4.07072496
REMARK minimizedRMSD -1
REMARK  0 active torsions:
REMARK  status: ('A' for Active; 'I' for Inactive)
ROOT
ATOM      1  C   UNL d   1       0.380  -5.999   5.034  0.00  0.00     0.078 C 
ATOM      2  C1  UNL d   1       0.045  -5.987   3.572  0.00  0.00    -0.077 A 
ATOM      3  C2  UNL d   1      -1.286  -5.983   3.137  0.00  0.00    -0.001 A 
ATOM      4  C3  UNL d   1      -1.582  -5.982   1.774  0.00  0.00     0.003 A 
ATOM      5  C4  UNL d   1      -0.554  -5.985   0.834  0.00  0.00    -0.005 A 
ATOM      6  C5  UNL d   1       0.774  -5.991   1.257  0.00  0.00     0.003 A 
ATOM      7  C6  UNL d   1       1.073  -5.993   2.620  0.00  0.00    -0.001 A 
ENDROOT
TORSDOF 0
ENDMDL
