MODEL 1
REMARK minimizedAffinity 7.06450415
REMARK minimizedRMSD -1
REMARK  0 active torsions:
REMARK  status: ('A' for Active; 'I' for Inactive)
ROOT
ATOM      1  C   UNL d   1       2.774  -0.363  -3.459  0.00  0.00     0.078 C 
ATOM      2  C1  UNL d   1       3.812   0.490  -4.125  0.00  0.00    -0.077 A 
ATOM      3  C2  UNL d   1       5.047   0.734  -3.511  0.00  0.00    -0.001 A 
ATOM      4  C3  UNL d   1       6.000   1.538  -4.139  0.00  0.00     0.003 A 
ATOM      5  C4  UNL d   1       5.728   2.105  -5.382  0.00  0.00    -0.005 A 
ATOM      6  C5  UNL d   1       4.502   1.869  -6.000  0.00  0.00     0.003 A 
ATOM      7  C6  UNL d   1       3.547   1.066  -5.374  0.00  0.00    -0.001 A 
ENDROOT
TORSDOF 0
ENDMDL
