MODEL 1
REMARK minimizedAffinity 0.293891877
REMARK minimizedRMSD -1
REMARK  0 active torsions:
REMARK  status: ('A' for Active; 'I' for Inactive)
ROOT
ATOM      1  C   UNL d   1      -1.437  -1.161   2.311  0.00  0.00     0.078 C 
ATOM      2  C1  UNL d   1      -0.182  -0.441   1.920  0.00  0.00    -0.077 A 
ATOM      3  C2  UNL d   1       1.052  -1.104   1.895  0.00  0.00    -0.001 A 
ATOM      4  C3  UNL d   1       2.214  -0.418   1.538  0.00  0.00     0.003 A 
ATOM      5  C4  UNL d   1       2.155   0.933   1.205  0.00  0.00    -0.005 A 
ATOM      6  C5  UNL d   1       0.933   1.602   1.228  0.00  0.00     0.003 A 
ATOM      7  C6  UNL d   1      -0.231   0.918   1.585  0.00  0.00    -0.001 A 
ENDROOT
TORSDOF 0
ENDMDL
