MODEL 1
REMARK minimizedAffinity -2.61583924
REMARK minimizedRMSD -1
REMARK  0 active torsions:
REMARK  status: ('A' for Active; 'I' for Inactive)
ROOT
ATOM      1  C   UNL d   1       1.871  -5.988   5.618  0.00  0.00     0.078 C 
ATOM      2  C1  UNL d   1       1.151  -5.983   4.302  0.00  0.00    -0.077 A 
ATOM      3  C2  UNL d   1      -0.248  -5.995   4.245  0.00  0.00    -0.001 A 
ATOM      4  C3  UNL d   1      -0.904  -6.000   3.014  0.00  0.00     0.003 A 
ATOM      5  C4  UNL d   1      -0.170  -5.994   1.830  0.00  0.00    -0.005 A 
ATOM      6  C5  UNL d   1       1.222  -5.985   1.876  0.00  0.00     0.003 A 
ATOM      7  C6  UNL d   1       1.881  -5.979   3.107  0.00  0.00    -0.001 A 
ENDROOT
TORSDOF 0
ENDMDL
