MODEL 1
REMARK minimizedAffinity 5.05679083
REMARK minimizedRMSD -1
REMARK  0 active torsions:
REMARK  status: ('A' for Active; 'I' for Inactive)
ROOT
ATOM      1  C   UNL d   1       1.784  -0.785  -0.796  0.00  0.00     0.078 C 
ATOM      2  C1  UNL d   1       2.221  -0.652  -2.224  0.00  0.00    -0.077 A 
ATOM      3  C2  UNL d   1       3.299   0.170  -2.575  0.00  0.00    -0.001 A 
ATOM      4  C3  UNL d   1       3.688   0.292  -3.910  0.00  0.00     0.003 A 
ATOM      5  C4  UNL d   1       3.005  -0.405  -4.904  0.00  0.00    -0.005 A 
ATOM      6  C5  UNL d   1       1.930  -1.223  -4.565  0.00  0.00     0.003 A 
ATOM      7  C6  UNL d   1       1.538  -1.346  -3.231  0.00  0.00    -0.001 A 
ENDROOT
TORSDOF 0
ENDMDL
