MODEL 1
REMARK minimizedAffinity 1.75624812
REMARK minimizedRMSD -1
REMARK  0 active torsions:
REMARK  status: ('A' for Active; 'I' for Inactive)
ROOT
ATOM      1  C   UNL d   1       2.688  -5.991   2.303  0.00  0.00     0.078 C 
ATOM      2  C1  UNL d   1       1.206  -6.000   2.532  0.00  0.00    -0.077 A 
ATOM      3  C2  UNL d   1       0.310  -5.997   1.455  0.00  0.00    -0.001 A 
ATOM      4  C3  UNL d   1      -1.067  -5.996   1.683  0.00  0.00     0.003 A 
ATOM      5  C4  UNL d   1      -1.560  -5.996   2.986  0.00  0.00    -0.005 A 
ATOM      6  C5  UNL d   1      -0.677  -5.996   4.063  0.00  0.00     0.003 A 
ATOM      7  C6  UNL d   1       0.700  -5.998   3.838  0.00  0.00    -0.001 A 
ENDROOT
TORSDOF 0
ENDMDL
