MODEL 1
REMARK minimizedAffinity 5.77274132
REMARK minimizedRMSD -1
REMARK  0 active torsions:
REMARK  status: ('A' for Active; 'I' for Inactive)
ROOT
ATOM      1  C   UNL d   1      -3.929  -1.327  -2.347  0.00  0.00     0.078 C 
ATOM      2  C1  UNL d   1      -2.834  -1.850  -3.228  0.00  0.00    -0.077 A 
ATOM      3  C2  UNL d   1      -2.850  -3.172  -3.690  0.00  0.00    -0.001 A 
ATOM      4  C3  UNL d   1      -1.820  -3.649  -4.501  0.00  0.00     0.003 A 
ATOM      5  C4  UNL d   1      -0.765  -2.811  -4.857  0.00  0.00    -0.005 A 
ATOM      6  C5  UNL d   1      -0.739  -1.495  -4.401  0.00  0.00     0.003 A 
ATOM      7  C6  UNL d   1      -1.769  -1.016  -3.589  0.00  0.00    -0.001 A 
ENDROOT
TORSDOF 0
ENDMDL
