MODEL 1
REMARK minimizedAffinity 4.14328623
REMARK minimizedRMSD -1
REMARK  0 active torsions:
REMARK  status: ('A' for Active; 'I' for Inactive)
ROOT
ATOM      1  C   UNL d   1      -0.697  -5.994   1.673  0.00  0.00     0.078 C 
ATOM      2  C1  UNL d   1       0.297  -5.989   2.795  0.00  0.00    -0.077 A 
ATOM      3  C2  UNL d   1       1.674  -5.994   2.540  0.00  0.00    -0.001 A 
ATOM      4  C3  UNL d   1       2.588  -5.998   3.595  0.00  0.00     0.003 A 
ATOM      5  C4  UNL d   1       2.135  -5.999   4.912  0.00  0.00    -0.005 A 
ATOM      6  C5  UNL d   1       0.767  -5.996   5.177  0.00  0.00     0.003 A 
ATOM      7  C6  UNL d   1      -0.148  -5.992   4.123  0.00  0.00    -0.001 A 
ENDROOT
TORSDOF 0
ENDMDL
