MODEL 1
REMARK minimizedAffinity 4.76959515
REMARK minimizedRMSD -1
REMARK  0 active torsions:
REMARK  status: ('A' for Active; 'I' for Inactive)
ROOT
ATOM      1  C   UNL d   1       1.359  -1.894  -3.796  0.00  0.00     0.078 C 
ATOM      2  C1  UNL d   1      -0.081  -2.111  -3.439  0.00  0.00    -0.077 A 
ATOM      3  C2  UNL d   1      -0.767  -1.202  -2.625  0.00  0.00    -0.001 A 
ATOM      4  C3  UNL d   1      -2.104  -1.421  -2.292  0.00  0.00     0.003 A 
ATOM      5  C4  UNL d   1      -2.767  -2.551  -2.768  0.00  0.00    -0.005 A 
ATOM      6  C5  UNL d   1      -2.092  -3.463  -3.577  0.00  0.00     0.003 A 
ATOM      7  C6  UNL d   1      -0.755  -3.245  -3.911  0.00  0.00    -0.001 A 
ENDROOT
TORSDOF 0
ENDMDL
