MODEL 1
REMARK minimizedAffinity -0.0129493987
REMARK minimizedRMSD -1
REMARK  0 active torsions:
REMARK  status: ('A' for Active; 'I' for Inactive)
ROOT
ATOM      1  C   UNL d   1       1.108  -1.871  -4.353  0.00  0.00     0.078 C 
ATOM      2  C1  UNL d   1      -0.356  -1.874  -4.026  0.00  0.00    -0.077 A 
ATOM      3  C2  UNL d   1      -1.036  -0.680  -3.754  0.00  0.00    -0.001 A 
ATOM      4  C3  UNL d   1      -2.396  -0.699  -3.441  0.00  0.00     0.003 A 
ATOM      5  C4  UNL d   1      -3.088  -1.907  -3.397  0.00  0.00    -0.005 A 
ATOM      6  C5  UNL d   1      -2.419  -3.100  -3.664  0.00  0.00     0.003 A 
ATOM      7  C6  UNL d   1      -1.059  -3.084  -3.977  0.00  0.00    -0.001 A 
ENDROOT
TORSDOF 0
ENDMDL
