MODEL 1
REMARK minimizedAffinity 6.29186678
REMARK minimizedRMSD -1
REMARK  0 active torsions:
REMARK  status: ('A' for Active; 'I' for Inactive)
ROOT
ATOM      1  C   UNL d   1      -1.568  -0.720   3.705  0.00  0.00     0.078 C 
ATOM      2  C1  UNL d   1      -0.824  -0.300   2.473  0.00  0.00    -0.077 A 
ATOM      3  C2  UNL d   1      -0.633  -1.189   1.408  0.00  0.00    -0.001 A 
ATOM      4  C3  UNL d   1       0.070  -0.788   0.271  0.00  0.00     0.003 A 
ATOM      5  C4  UNL d   1       0.589   0.503   0.188  0.00  0.00    -0.005 A 
ATOM      6  C5  UNL d   1       0.406   1.394   1.244  0.00  0.00     0.003 A 
ATOM      7  C6  UNL d   1      -0.297   0.994   2.382  0.00  0.00    -0.001 A 
ENDROOT
TORSDOF 0
ENDMDL
