MODEL 1
REMARK minimizedAffinity 0.703095198
REMARK minimizedRMSD -1
REMARK  0 active torsions:
REMARK  status: ('A' for Active; 'I' for Inactive)
ROOT
ATOM      1  C   UNL d   1       0.853  -5.977   5.551  0.00  0.00     0.078 C 
ATOM      2  C1  UNL d   1       0.150  -5.992   4.226  0.00  0.00    -0.077 A 
ATOM      3  C2  UNL d   1       0.872  -5.993   3.027  0.00  0.00    -0.001 A 
ATOM      4  C3  UNL d   1       0.204  -5.997   1.801  0.00  0.00     0.003 A 
ATOM      5  C4  UNL d   1      -1.189  -6.000   1.763  0.00  0.00    -0.005 A 
ATOM      6  C5  UNL d   1      -1.916  -5.997   2.952  0.00  0.00     0.003 A 
ATOM      7  C6  UNL d   1      -1.250  -5.993   4.178  0.00  0.00    -0.001 A 
ENDROOT
TORSDOF 0
ENDMDL
