MODEL 1
REMARK minimizedAffinity 1.89392948
REMARK minimizedRMSD -1
REMARK  0 active torsions:
REMARK  status: ('A' for Active; 'I' for Inactive)
ROOT
ATOM      1  C   UNL d   1      -1.488  -5.987   0.856  0.00  0.00     0.078 C 
ATOM      2  C1  UNL d   1      -0.482  -5.998   1.968  0.00  0.00    -0.077 A 
ATOM      3  C2  UNL d   1      -0.888  -5.996   3.308  0.00  0.00    -0.001 A 
ATOM      4  C3  UNL d   1       0.059  -5.997   4.333  0.00  0.00     0.003 A 
ATOM      5  C4  UNL d   1       1.419  -5.998   4.028  0.00  0.00    -0.005 A 
ATOM      6  C5  UNL d   1       1.833  -5.997   2.698  0.00  0.00     0.003 A 
ATOM      7  C6  UNL d   1       0.887  -5.997   1.672  0.00  0.00    -0.001 A 
ENDROOT
TORSDOF 0
ENDMDL
