MODEL 1
REMARK minimizedAffinity -3.51686001
REMARK minimizedRMSD -1
REMARK  0 active torsions:
REMARK  status: ('A' for Active; 'I' for Inactive)
ROOT
ATOM      1  C   UNL d   1       0.736  -0.215  -0.679  0.00  0.00     0.172 C 
ATOM      2  N   UNL d   1       0.011   0.761   0.101  0.00  0.00    -0.070 N 
ATOM      3  C1  UNL d   1      -0.238   0.683   1.445  0.00  0.00    -0.004 A 
ATOM      4  C2  UNL d   1      -0.954   1.804   1.807  0.00  0.00    -0.047 A 
ATOM      5  C3  UNL d   1      -1.143   2.581   0.640  0.00  0.00    -0.047 A 
ATOM      6  C4  UNL d   1      -0.536   1.912  -0.402  0.00  0.00    -0.004 A 
ENDROOT
TORSDOF 0
ENDMDL
