MODEL 1
REMARK minimizedAffinity -2.32962823
REMARK minimizedRMSD -1
REMARK  0 active torsions:
REMARK  status: ('A' for Active; 'I' for Inactive)
ROOT
ATOM      1  C   UNL d   1      -0.698   3.410   0.019  0.00  0.00     0.172 C 
ATOM      2  N   UNL d   1      -0.379   2.109   0.558  0.00  0.00    -0.070 N 
ATOM      3  C1  UNL d   1      -0.004   1.012  -0.171  0.00  0.00    -0.004 A 
ATOM      4  C2  UNL d   1       0.210  -0.026   0.709  0.00  0.00    -0.047 A 
ATOM      5  C3  UNL d   1      -0.046   0.463   2.012  0.00  0.00    -0.047 A 
ATOM      6  C4  UNL d   1      -0.409   1.787   1.890  0.00  0.00    -0.004 A 
ENDROOT
TORSDOF 0
ENDMDL
