MODEL 1
REMARK minimizedAffinity -1.90130603
REMARK minimizedRMSD -1
REMARK  0 active torsions:
REMARK  status: ('A' for Active; 'I' for Inactive)
ROOT
ATOM      1  C   UNL d   1       0.508  -1.112  -0.638  0.00  0.00     0.172 C 
ATOM      2  N   UNL d   1       0.396  -0.262   0.524  0.00  0.00    -0.070 N 
ATOM      3  C1  UNL d   1      -0.030   1.040   0.522  0.00  0.00    -0.004 A 
ATOM      4  C2  UNL d   1       0.006   1.497   1.822  0.00  0.00    -0.047 A 
ATOM      5  C3  UNL d   1       0.469   0.434   2.632  0.00  0.00    -0.047 A 
ATOM      6  C4  UNL d   1       0.703  -0.643   1.803  0.00  0.00    -0.004 A 
ENDROOT
TORSDOF 0
ENDMDL
