MODEL 1
REMARK minimizedAffinity -3.50927472
REMARK minimizedRMSD -1
REMARK  0 active torsions:
REMARK  status: ('A' for Active; 'I' for Inactive)
ROOT
ATOM      1  C   UNL d   1      -0.253  -0.581  -0.560  0.00  0.00     0.172 C 
ATOM      2  N   UNL d   1      -0.585   0.627   0.159  0.00  0.00    -0.070 N 
ATOM      3  C1  UNL d   1      -0.168   0.942   1.425  0.00  0.00    -0.004 A 
ATOM      4  C2  UNL d   1      -0.696   2.173   1.749  0.00  0.00    -0.047 A 
ATOM      5  C3  UNL d   1      -1.457   2.612   0.640  0.00  0.00    -0.047 A 
ATOM      6  C4  UNL d   1      -1.371   1.636  -0.330  0.00  0.00    -0.004 A 
ENDROOT
TORSDOF 0
ENDMDL
