MODEL 1
REMARK minimizedAffinity -3.92083335
REMARK minimizedRMSD -1
REMARK  0 active torsions:
REMARK  status: ('A' for Active; 'I' for Inactive)
ROOT
ATOM      1  C   UNL d   1       0.224  -0.934  -0.628  0.00  0.00     0.172 C 
ATOM      2  N   UNL d   1      -0.096   0.193   0.217  0.00  0.00    -0.070 N 
ATOM      3  C1  UNL d   1      -0.797   1.305  -0.167  0.00  0.00    -0.004 A 
ATOM      4  C2  UNL d   1      -0.889   2.143   0.923  0.00  0.00    -0.047 A 
ATOM      5  C3  UNL d   1      -0.219   1.513   1.999  0.00  0.00    -0.047 A 
ATOM      6  C4  UNL d   1       0.262   0.308   1.534  0.00  0.00    -0.004 A 
ENDROOT
TORSDOF 0
ENDMDL
