MODEL 1
REMARK minimizedAffinity -2.57789707
REMARK minimizedRMSD -1
REMARK  0 active torsions:
REMARK  status: ('A' for Active; 'I' for Inactive)
ROOT
ATOM      1  C   UNL d   1      -0.235   2.219   2.114  0.00  0.00     0.172 C 
ATOM      2  N   UNL d   1       0.029   1.154   1.175  0.00  0.00    -0.070 N 
ATOM      3  C1  UNL d   1       0.049   1.279  -0.188  0.00  0.00    -0.004 A 
ATOM      4  C2  UNL d   1       0.338   0.041  -0.721  0.00  0.00    -0.047 A 
ATOM      5  C3  UNL d   1       0.496  -0.859   0.359  0.00  0.00    -0.047 A 
ATOM      6  C4  UNL d   1       0.300  -0.143   1.522  0.00  0.00    -0.004 A 
ENDROOT
TORSDOF 0
ENDMDL
