MODEL 1
REMARK minimizedAffinity -1.21501815
REMARK minimizedRMSD -1
REMARK  0 active torsions:
REMARK  status: ('A' for Active; 'I' for Inactive)
ROOT
ATOM      1  C   UNL d   1      -1.258  -3.138  -0.783  0.00  0.00     0.172 C 
ATOM      2  N   UNL d   1      -0.789  -1.866  -0.284  0.00  0.00    -0.070 N 
ATOM      3  C1  UNL d   1      -1.367  -1.143   0.725  0.00  0.00    -0.004 A 
ATOM      4  C2  UNL d   1      -0.624   0.004   0.901  0.00  0.00    -0.047 A 
ATOM      5  C3  UNL d   1       0.437  -0.030  -0.035  0.00  0.00    -0.047 A 
ATOM      6  C4  UNL d   1       0.310  -1.199  -0.756  0.00  0.00    -0.004 A 
ENDROOT
TORSDOF 0
ENDMDL
