MODEL 1
REMARK minimizedAffinity -3.00997615
REMARK minimizedRMSD -1
REMARK  0 active torsions:
REMARK  status: ('A' for Active; 'I' for Inactive)
ROOT
ATOM      1  C   UNL d   1      -0.113   2.950  -1.132  0.00  0.00     0.172 C 
ATOM      2  N   UNL d   1       0.129   1.825  -0.260  0.00  0.00    -0.070 N 
ATOM      3  C1  UNL d   1       0.379   0.541  -0.665  0.00  0.00    -0.004 A 
ATOM      4  C2  UNL d   1       0.555  -0.231   0.463  0.00  0.00    -0.047 A 
ATOM      5  C3  UNL d   1       0.404   0.619   1.585  0.00  0.00    -0.047 A 
ATOM      6  C4  UNL d   1       0.141   1.886   1.108  0.00  0.00    -0.004 A 
ENDROOT
TORSDOF 0
ENDMDL
