MODEL 1
REMARK minimizedAffinity -3.55833864
REMARK minimizedRMSD -1
REMARK  0 active torsions:
REMARK  status: ('A' for Active; 'I' for Inactive)
ROOT
ATOM      1  C   UNL d   1       0.216  -0.091   0.172  0.00  0.00     0.172 C 
ATOM      2  N   UNL d   1      -0.525   1.133   0.374  0.00  0.00    -0.070 N 
ATOM      3  C1  UNL d   1      -0.897   1.650   1.585  0.00  0.00    -0.004 A 
ATOM      4  C2  UNL d   1      -1.584   2.822   1.351  0.00  0.00    -0.047 A 
ATOM      5  C3  UNL d   1      -1.627   3.014  -0.050  0.00  0.00    -0.047 A 
ATOM      6  C4  UNL d   1      -0.963   1.954  -0.631  0.00  0.00    -0.004 A 
ENDROOT
TORSDOF 0
ENDMDL
