MODEL 1
REMARK minimizedAffinity -0.766264498
REMARK minimizedRMSD -1
REMARK  0 active torsions:
REMARK  status: ('A' for Active; 'I' for Inactive)
ROOT
ATOM      1  C   UNL d   1      -0.254  -2.928  -0.892  0.00  0.00     0.172 C 
ATOM      2  N   UNL d   1       0.041  -1.697  -0.197  0.00  0.00    -0.070 N 
ATOM      3  C1  UNL d   1       0.246  -0.477  -0.786  0.00  0.00    -0.004 A 
ATOM      4  C2  UNL d   1       0.498   0.437   0.214  0.00  0.00    -0.047 A 
ATOM      5  C3  UNL d   1       0.444  -0.257   1.446  0.00  0.00    -0.047 A 
ATOM      6  C4  UNL d   1       0.159  -1.576   1.162  0.00  0.00    -0.004 A 
ENDROOT
TORSDOF 0
ENDMDL
