MODEL 1
REMARK minimizedAffinity 11.8869267
REMARK minimizedRMSD -1
REMARK  0 active torsions:
REMARK  status: ('A' for Active; 'I' for Inactive)
ROOT
ATOM      1  O1  BZF d   1      -2.790   0.591   1.254  0.00  0.00    -0.204 OA
ATOM      2  C2  BZF d   1      -1.652   1.353   1.071  0.00  0.00     0.174 A 
ATOM      3  C3  BZF d   1      -0.707   1.027   1.976  0.00  0.00    -0.012 A 
ATOM      4  C3A BZF d   1      -1.257  -0.067   2.717  0.00  0.00    -0.107 A 
ATOM      5  C4  BZF d   1      -0.788  -0.836   3.743  0.00  0.00     0.055 A 
ATOM      6  C5  BZF d   1      -1.602  -1.775   4.290  0.00  0.00    -0.016 A 
ATOM      7  C6  BZF d   1      -2.892  -1.969   3.840  0.00  0.00     0.022 A 
ATOM      8  C7  BZF d   1      -3.400  -1.234   2.821  0.00  0.00     0.029 A 
ATOM      9  C7A BZF d   1      -2.568  -0.306   2.244  0.00  0.00     0.058 A 
ENDROOT
TORSDOF 0
ENDMDL
