MODEL 1
REMARK minimizedAffinity 6.05713129
REMARK minimizedRMSD -1
REMARK  0 active torsions:
REMARK  status: ('A' for Active; 'I' for Inactive)
ROOT
ATOM      1  O1  BZF d   1      -3.108   0.326   1.122  0.00  0.00    -0.204 OA
ATOM      2  C2  BZF d   1      -1.950   0.930   0.669  0.00  0.00     0.174 A 
ATOM      3  C3  BZF d   1      -0.930   0.708   1.523  0.00  0.00    -0.012 A 
ATOM      4  C3A BZF d   1      -1.461  -0.161   2.527  0.00  0.00    -0.107 A 
ATOM      5  C4  BZF d   1      -0.928  -0.748   3.639  0.00  0.00     0.055 A 
ATOM      6  C5  BZF d   1      -1.735  -1.483   4.449  0.00  0.00    -0.016 A 
ATOM      7  C6  BZF d   1      -3.078  -1.646   4.182  0.00  0.00     0.022 A 
ATOM      8  C7  BZF d   1      -3.651  -1.087   3.088  0.00  0.00     0.029 A 
ATOM      9  C7A BZF d   1      -2.832  -0.372   2.250  0.00  0.00     0.058 A 
ENDROOT
TORSDOF 0
ENDMDL
