MODEL 1
REMARK minimizedAffinity 10.6614027
REMARK minimizedRMSD -1
REMARK  0 active torsions:
REMARK  status: ('A' for Active; 'I' for Inactive)
ROOT
ATOM      1  O1  BZF d   1      -3.225   0.687   1.052  0.00  0.00    -0.204 OA
ATOM      2  C2  BZF d   1      -2.189   1.559   0.779  0.00  0.00     0.174 A 
ATOM      3  C3  BZF d   1      -1.131   1.308   1.576  0.00  0.00    -0.012 A 
ATOM      4  C3A BZF d   1      -1.496   0.152   2.335  0.00  0.00    -0.107 A 
ATOM      5  C4  BZF d   1      -0.855  -0.588   3.287  0.00  0.00     0.055 A 
ATOM      6  C5  BZF d   1      -1.517  -1.614   3.884  0.00  0.00    -0.016 A 
ATOM      7  C6  BZF d   1      -2.822  -1.923   3.558  0.00  0.00     0.022 A 
ATOM      8  C7  BZF d   1      -3.498  -1.221   2.616  0.00  0.00     0.029 A 
ATOM      9  C7A BZF d   1      -2.820  -0.205   1.988  0.00  0.00     0.058 A 
ENDROOT
TORSDOF 0
ENDMDL
