MODEL 1
REMARK minimizedAffinity 10.4029846
REMARK minimizedRMSD -1
REMARK  0 active torsions:
REMARK  status: ('A' for Active; 'I' for Inactive)
ROOT
ATOM      1  O1  BZF d   1      -1.119   0.419   0.927  0.00  0.00    -0.204 OA
ATOM      2  C2  BZF d   1      -2.221   0.923   0.263  0.00  0.00     0.174 A 
ATOM      3  C3  BZF d   1      -3.362   0.547   0.876  0.00  0.00    -0.012 A 
ATOM      4  C3A BZF d   1      -2.944  -0.163   2.046  0.00  0.00    -0.107 A 
ATOM      5  C4  BZF d   1      -3.619  -0.768   3.067  0.00  0.00     0.055 A 
ATOM      6  C5  BZF d   1      -2.915  -1.438   4.018  0.00  0.00    -0.016 A 
ATOM      7  C6  BZF d   1      -1.539  -1.526   3.976  0.00  0.00     0.022 A 
ATOM      8  C7  BZF d   1      -0.826  -0.938   2.985  0.00  0.00     0.029 A 
ATOM      9  C7A BZF d   1      -1.532  -0.233   2.041  0.00  0.00     0.058 A 
ENDROOT
TORSDOF 0
ENDMDL
