MODEL 1
REMARK minimizedAffinity 6.08659363
REMARK minimizedRMSD -1
REMARK  0 active torsions:
REMARK  status: ('A' for Active; 'I' for Inactive)
ROOT
ATOM      1  O1  BZF d   1       0.466  -0.280   0.897  0.00  0.00    -0.204 OA
ATOM      2  C2  BZF d   1      -0.165   0.286  -0.193  0.00  0.00     0.174 A 
ATOM      3  C3  BZF d   1      -1.486   0.431   0.041  0.00  0.00    -0.012 A 
ATOM      4  C3A BZF d   1      -1.676   0.009   1.395  0.00  0.00    -0.107 A 
ATOM      5  C4  BZF d   1      -2.769  -0.064   2.211  0.00  0.00     0.055 A 
ATOM      6  C5  BZF d   1      -2.630  -0.590   3.456  0.00  0.00    -0.016 A 
ATOM      7  C6  BZF d   1      -1.416  -1.057   3.915  0.00  0.00     0.022 A 
ATOM      8  C7  BZF d   1      -0.303  -1.002   3.144  0.00  0.00     0.029 A 
ATOM      9  C7A BZF d   1      -0.433  -0.440   1.898  0.00  0.00     0.058 A 
ENDROOT
TORSDOF 0
ENDMDL
