MODEL 1
REMARK minimizedAffinity 10.3472967
REMARK minimizedRMSD -1
REMARK  0 active torsions:
REMARK  status: ('A' for Active; 'I' for Inactive)
ROOT
ATOM      1  O1  BZF d   1       0.402   0.028   0.904  0.00  0.00    -0.204 OA
ATOM      2  C2  BZF d   1      -0.360   0.384  -0.191  0.00  0.00     0.174 A 
ATOM      3  C3  BZF d   1      -1.675   0.265   0.082  0.00  0.00    -0.012 A 
ATOM      4  C3A BZF d   1      -1.741  -0.106   1.462  0.00  0.00    -0.107 A 
ATOM      5  C4  BZF d   1      -2.774  -0.357   2.319  0.00  0.00     0.055 A 
ATOM      6  C5  BZF d   1      -2.498  -0.768   3.585  0.00  0.00    -0.016 A 
ATOM      7  C6  BZF d   1      -1.202  -0.944   4.024  0.00  0.00     0.022 A 
ATOM      8  C7  BZF d   1      -0.144  -0.704   3.212  0.00  0.00     0.029 A 
ATOM      9  C7A BZF d   1      -0.419  -0.256   1.943  0.00  0.00     0.058 A 
ENDROOT
TORSDOF 0
ENDMDL
