MODEL 1
REMARK minimizedAffinity 8.87934303
REMARK minimizedRMSD -1
REMARK  0 active torsions:
REMARK  status: ('A' for Active; 'I' for Inactive)
ROOT
ATOM      1  O1  BZF d   1       5.532   4.108   3.640  0.00  0.00    -0.204 OA
ATOM      2  C2  BZF d   1       5.635   3.061   4.536  0.00  0.00     0.174 A 
ATOM      3  C3  BZF d   1       4.699   2.123   4.285  0.00  0.00    -0.012 A 
ATOM      4  C3A BZF d   1       4.025   2.570   3.105  0.00  0.00    -0.107 A 
ATOM      5  C4  BZF d   1       3.007   2.057   2.354  0.00  0.00     0.055 A 
ATOM      6  C5  BZF d   1       2.533   2.777   1.304  0.00  0.00    -0.016 A 
ATOM      7  C6  BZF d   1       3.049   4.015   0.980  0.00  0.00     0.022 A 
ATOM      8  C7  BZF d   1       4.063   4.563   1.692  0.00  0.00     0.029 A 
ATOM      9  C7A BZF d   1       4.567   3.823   2.734  0.00  0.00     0.058 A 
ENDROOT
TORSDOF 0
ENDMDL
