MODEL 1
REMARK minimizedAffinity 3.81080914
REMARK minimizedRMSD -1
REMARK  2 active torsions:
REMARK  status: ('A' for Active; 'I' for Inactive)
REMARK    1  A    between atoms: C2'_3  and  C1'_4 
REMARK    2  A    between atoms: C1'_4  and  C1_5 
ROOT
ATOM      1  C1  I4B d   1       0.171  -1.772   3.087  0.00  0.00    -0.075 A 
ATOM      2  C2  I4B d   1      -1.126  -1.521   2.715  0.00  0.00     0.003 A 
ATOM      3  C3  I4B d   1      -1.413  -0.503   1.775  0.00  0.00     0.002 A 
ATOM      4  C4  I4B d   1      -0.385   0.268   1.272  0.00  0.00    -0.004 A 
ATOM      5  C5  I4B d   1       0.932  -0.003   1.633  0.00  0.00     0.002 A 
ATOM      6  C6  I4B d   1       1.213  -1.037   2.537  0.00  0.00     0.003 A 
ENDROOT
BRANCH   1   7
ATOM      7  C1' I4B d   1       0.436  -2.833   4.108  0.00  0.00     0.060 C 
BRANCH   7   8
ATOM      8  C2' I4B d   1       1.723  -2.480   4.825  0.00  0.00    -0.013 C 
ATOM      9  C4' I4B d   1       1.719  -1.043   5.277  0.00  0.00     0.013 C 
ATOM     10  C3' I4B d   1       1.876  -3.413   5.989  0.00  0.00     0.013 C 
ENDBRANCH   7   8
ENDBRANCH   1   7
TORSDOF 2
ENDMDL
