MODEL 1
REMARK minimizedAffinity 3.09523225
REMARK minimizedRMSD -1
REMARK  2 active torsions:
REMARK  status: ('A' for Active; 'I' for Inactive)
REMARK    1  A    between atoms: C2'_3  and  C1'_4 
REMARK    2  A    between atoms: C1'_4  and  C1_5 
ROOT
ATOM      1  C1  I4B d   1      -0.388  -1.330   2.839  0.00  0.00    -0.075 A 
ATOM      2  C2  I4B d   1      -0.948  -2.355   3.559  0.00  0.00     0.003 A 
ATOM      3  C3  I4B d   1      -2.354  -2.529   3.577  0.00  0.00     0.002 A 
ATOM      4  C4  I4B d   1      -3.158  -1.630   2.906  0.00  0.00    -0.004 A 
ATOM      5  C5  I4B d   1      -2.587  -0.605   2.158  0.00  0.00     0.002 A 
ATOM      6  C6  I4B d   1      -1.193  -0.461   2.114  0.00  0.00     0.003 A 
ENDROOT
BRANCH   1   7
ATOM      7  C1' I4B d   1       1.097  -1.156   2.869  0.00  0.00     0.060 C 
BRANCH   7   8
ATOM      8  C2' I4B d   1       1.537  -1.148   4.319  0.00  0.00    -0.013 C 
ATOM      9  C4' I4B d   1       1.667  -2.548   4.857  0.00  0.00     0.013 C 
ATOM     10  C3' I4B d   1       2.841  -0.412   4.403  0.00  0.00     0.013 C 
ENDBRANCH   7   8
ENDBRANCH   1   7
TORSDOF 2
ENDMDL
