MODEL 1
REMARK minimizedAffinity 2.80611777
REMARK minimizedRMSD -1
REMARK  2 active torsions:
REMARK  status: ('A' for Active; 'I' for Inactive)
REMARK    1  A    between atoms: C2'_3  and  C1'_4 
REMARK    2  A    between atoms: C1'_4  and  C1_5 
ROOT
ATOM      1  C1  I4B d   1       0.595  -1.579   3.704  0.00  0.00    -0.075 A 
ATOM      2  C2  I4B d   1      -0.764  -1.383   3.697  0.00  0.00     0.003 A 
ATOM      3  C3  I4B d   1      -1.380  -0.701   2.620  0.00  0.00     0.002 A 
ATOM      4  C4  I4B d   1      -0.599  -0.190   1.603  0.00  0.00    -0.004 A 
ATOM      5  C5  I4B d   1       0.775  -0.410   1.600  0.00  0.00     0.002 A 
ATOM      6  C6  I4B d   1       1.375  -1.119   2.651  0.00  0.00     0.003 A 
ENDROOT
BRANCH   1   7
ATOM      7  C1' I4B d   1       1.217  -2.275   4.873  0.00  0.00     0.060 C 
BRANCH   7   8
ATOM      8  C2' I4B d   1       2.702  -1.975   4.859  0.00  0.00    -0.013 C 
ATOM      9  C4' I4B d   1       2.960  -0.495   4.960  0.00  0.00     0.013 C 
ATOM     10  C3' I4B d   1       3.334  -2.715   6.000  0.00  0.00     0.013 C 
ENDBRANCH   7   8
ENDBRANCH   1   7
TORSDOF 2
ENDMDL
