MODEL 1
REMARK minimizedAffinity 4.86203241
REMARK minimizedRMSD -1
REMARK  2 active torsions:
REMARK  status: ('A' for Active; 'I' for Inactive)
REMARK    1  A    between atoms: C2'_3  and  C1'_4 
REMARK    2  A    between atoms: C1'_4  and  C1_5 
ROOT
ATOM      1  C1  I4B d   1       1.683  -0.925   3.101  0.00  0.00    -0.075 A 
ATOM      2  C2  I4B d   1       1.512  -2.184   3.621  0.00  0.00     0.003 A 
ATOM      3  C3  I4B d   1       2.349  -2.644   4.666  0.00  0.00     0.002 A 
ATOM      4  C4  I4B d   1       3.370  -1.836   5.124  0.00  0.00    -0.004 A 
ATOM      5  C5  I4B d   1       3.527  -0.551   4.612  0.00  0.00     0.002 A 
ATOM      6  C6  I4B d   1       2.670  -0.087   3.603  0.00  0.00     0.003 A 
ENDROOT
BRANCH   1   7
ATOM      7  C1' I4B d   1       0.802  -0.484   1.976  0.00  0.00     0.060 C 
BRANCH   7   8
ATOM      8  C2' I4B d   1      -0.540  -0.091   2.559  0.00  0.00    -0.013 C 
ATOM      9  C4' I4B d   1      -1.034   1.203   1.969  0.00  0.00     0.013 C 
ATOM     10  C3' I4B d   1      -1.504  -1.209   2.296  0.00  0.00     0.013 C 
ENDBRANCH   7   8
ENDBRANCH   1   7
TORSDOF 2
ENDMDL
