MODEL 1
REMARK minimizedAffinity 11.3742228
REMARK minimizedRMSD -1
REMARK  2 active torsions:
REMARK  status: ('A' for Active; 'I' for Inactive)
REMARK    1  A    between atoms: C2'_3  and  C1'_4 
REMARK    2  A    between atoms: C1'_4  and  C1_5 
ROOT
ATOM      1  C1  I4B d   1      -3.851  -1.727  -1.748  0.00  0.00    -0.075 A 
ATOM      2  C2  I4B d   1      -4.961  -2.098  -2.464  0.00  0.00     0.003 A 
ATOM      3  C3  I4B d   1      -5.296  -3.467  -2.601  0.00  0.00     0.002 A 
ATOM      4  C4  I4B d   1      -4.470  -4.427  -2.051  0.00  0.00    -0.004 A 
ATOM      5  C5  I4B d   1      -3.358  -4.047  -1.305  0.00  0.00     0.002 A 
ATOM      6  C6  I4B d   1      -3.052  -2.688  -1.142  0.00  0.00     0.003 A 
ENDROOT
BRANCH   1   7
ATOM      7  C1' I4B d   1      -3.508  -0.274  -1.652  0.00  0.00     0.060 C 
BRANCH   7   8
ATOM      8  C2' I4B d   1      -4.256   0.305  -0.467  0.00  0.00    -0.013 C 
ATOM      9  C4' I4B d   1      -3.308   0.708   0.631  0.00  0.00     0.013 C 
ATOM     10  C3' I4B d   1      -5.054   1.478  -0.951  0.00  0.00     0.013 C 
ENDBRANCH   7   8
ENDBRANCH   1   7
TORSDOF 2
ENDMDL
