MODEL 1
REMARK minimizedAffinity 3.9426744
REMARK minimizedRMSD -1
REMARK  2 active torsions:
REMARK  status: ('A' for Active; 'I' for Inactive)
REMARK    1  A    between atoms: C2'_3  and  C1'_4 
REMARK    2  A    between atoms: C1'_4  and  C1_5 
ROOT
ATOM      1  C1  I4B d   1       0.881  -3.629  -2.703  0.00  0.00    -0.075 A 
ATOM      2  C2  I4B d   1      -0.070  -4.505  -3.165  0.00  0.00     0.003 A 
ATOM      3  C3  I4B d   1       0.319  -5.721  -3.777  0.00  0.00     0.002 A 
ATOM      4  C4  I4B d   1       1.660  -5.996  -3.951  0.00  0.00    -0.004 A 
ATOM      5  C5  I4B d   1       2.623  -5.118  -3.461  0.00  0.00     0.002 A 
ATOM      6  C6  I4B d   1       2.231  -3.933  -2.822  0.00  0.00     0.003 A 
ENDROOT
BRANCH   1   7
ATOM      7  C1' I4B d   1       0.435  -2.339  -2.091  0.00  0.00     0.060 C 
BRANCH   7   8
ATOM      8  C2' I4B d   1      -0.910  -1.980  -2.688  0.00  0.00    -0.013 C 
ATOM      9  C4' I4B d   1      -1.938  -1.745  -1.612  0.00  0.00     0.013 C 
ATOM     10  C3' I4B d   1      -0.728  -0.759  -3.539  0.00  0.00     0.013 C 
ENDBRANCH   7   8
ENDBRANCH   1   7
TORSDOF 2
ENDMDL
