MODEL 1
REMARK minimizedAffinity 13.7749434
REMARK minimizedRMSD -1
REMARK  3 active torsions:
REMARK  status: ('A' for Active; 'I' for Inactive)
REMARK    1  A    between atoms: C3'_2  and  C2'_3 
REMARK    2  A    between atoms: C2'_3  and  C1'_4 
REMARK    3  A    between atoms: C1'_4  and  C1_5 
ROOT
ATOM      1  C1  N4B d   1       1.803  -4.208   3.873  0.00  0.00    -0.075 A 
ATOM      2  C2  N4B d   1       1.880  -4.080   5.277  0.00  0.00     0.002 A 
ATOM      3  C3  N4B d   1       2.693  -4.918   6.000  0.00  0.00     0.002 A 
ATOM      4  C4  N4B d   1       3.422  -5.899   5.345  0.00  0.00    -0.004 A 
ATOM      5  C5  N4B d   1       3.363  -6.000   3.986  0.00  0.00     0.002 A 
ATOM      6  C6  N4B d   1       2.552  -5.162   3.246  0.00  0.00     0.002 A 
ENDROOT
BRANCH   1   7
ATOM      7  C1' N4B d   1       0.862  -3.372   3.049  0.00  0.00     0.057 C 
BRANCH   7   8
ATOM      8  C2' N4B d   1       1.673  -2.491   2.104  0.00  0.00     0.009 C 
BRANCH   8   9
ATOM      9  C3' N4B d   1       1.421  -1.013   2.348  0.00  0.00     0.004 C 
ATOM     10  C4' N4B d   1       0.691  -0.753   3.632  0.00  0.00     0.003 C 
ENDBRANCH   8   9
ENDBRANCH   7   8
ENDBRANCH   1   7
TORSDOF 3
ENDMDL
