MODEL 1
REMARK minimizedAffinity 14.9850512
REMARK minimizedRMSD -1
REMARK  3 active torsions:
REMARK  status: ('A' for Active; 'I' for Inactive)
REMARK    1  A    between atoms: C3'_2  and  C2'_3 
REMARK    2  A    between atoms: C2'_3  and  C1'_4 
REMARK    3  A    between atoms: C1'_4  and  C1_5 
ROOT
ATOM      1  C1  N4B d   1       3.087  -0.941   1.157  0.00  0.00    -0.075 A 
ATOM      2  C2  N4B d   1       1.774  -1.196   1.611  0.00  0.00     0.002 A 
ATOM      3  C3  N4B d   1       1.292  -0.542   2.719  0.00  0.00     0.002 A 
ATOM      4  C4  N4B d   1       2.108   0.351   3.397  0.00  0.00    -0.004 A 
ATOM      5  C5  N4B d   1       3.366   0.611   2.937  0.00  0.00     0.002 A 
ATOM      6  C6  N4B d   1       3.861  -0.036   1.822  0.00  0.00     0.002 A 
ENDROOT
BRANCH   1   7
ATOM      7  C1' N4B d   1       3.687  -1.694   0.002  0.00  0.00     0.057 C 
BRANCH   7   8
ATOM      8  C2' N4B d   1       4.644  -0.776  -0.752  0.00  0.00     0.009 C 
BRANCH   8   9
ATOM      9  C3' N4B d   1       4.640  -1.054  -2.246  0.00  0.00     0.004 C 
ATOM     10  C4' N4B d   1       4.890   0.177  -3.066  0.00  0.00     0.003 C 
ENDBRANCH   8   9
ENDBRANCH   7   8
ENDBRANCH   1   7
TORSDOF 3
ENDMDL
