MODEL 1
REMARK minimizedAffinity 9.62008953
REMARK minimizedRMSD -1
REMARK  3 active torsions:
REMARK  status: ('A' for Active; 'I' for Inactive)
REMARK    1  A    between atoms: C3'_2  and  C2'_3 
REMARK    2  A    between atoms: C2'_3  and  C1'_4 
REMARK    3  A    between atoms: C1'_4  and  C1_5 
ROOT
ATOM      1  C1  N4B d   1      -3.341  -3.778   2.124  0.00  0.00    -0.075 A 
ATOM      2  C2  N4B d   1      -4.527  -3.605   1.376  0.00  0.00     0.002 A 
ATOM      3  C3  N4B d   1      -5.007  -4.633   0.603  0.00  0.00     0.002 A 
ATOM      4  C4  N4B d   1      -4.311  -5.832   0.547  0.00  0.00    -0.004 A 
ATOM      5  C5  N4B d   1      -3.181  -6.000   1.292  0.00  0.00     0.002 A 
ATOM      6  C6  N4B d   1      -2.689  -4.976   2.077  0.00  0.00     0.002 A 
ENDROOT
BRANCH   1   7
ATOM      7  C1' N4B d   1      -2.732  -2.655   2.917  0.00  0.00     0.057 C 
BRANCH   7   8
ATOM      8  C2' N4B d   1      -1.444  -2.201   2.235  0.00  0.00     0.009 C 
BRANCH   8   9
ATOM      9  C3' N4B d   1      -0.829  -0.997   2.926  0.00  0.00     0.004 C 
ATOM     10  C4' N4B d   1       0.463  -0.564   2.298  0.00  0.00     0.003 C 
ENDBRANCH   8   9
ENDBRANCH   7   8
ENDBRANCH   1   7
TORSDOF 3
ENDMDL
