MODEL 1
REMARK minimizedAffinity 4.80116415
REMARK minimizedRMSD -1
REMARK  3 active torsions:
REMARK  status: ('A' for Active; 'I' for Inactive)
REMARK    1  A    between atoms: C3'_2  and  C2'_3 
REMARK    2  A    between atoms: C2'_3  and  C1'_4 
REMARK    3  A    between atoms: C1'_4  and  C1_5 
ROOT
ATOM      1  C1  N4B d   1      -1.480  -1.649   3.854  0.00  0.00    -0.075 A 
ATOM      2  C2  N4B d   1      -1.180  -1.053   5.099  0.00  0.00     0.002 A 
ATOM      3  C3  N4B d   1      -0.028  -0.321   5.249  0.00  0.00     0.002 A 
ATOM      4  C4  N4B d   1       0.844  -0.187   4.180  0.00  0.00    -0.004 A 
ATOM      5  C5  N4B d   1       0.535  -0.745   2.974  0.00  0.00     0.002 A 
ATOM      6  C6  N4B d   1      -0.621  -1.480   2.807  0.00  0.00     0.002 A 
ENDROOT
BRANCH   1   7
ATOM      7  C1' N4B d   1      -2.685  -2.530   3.665  0.00  0.00     0.057 C 
BRANCH   7   8
ATOM      8  C2' N4B d   1      -2.456  -3.439   2.461  0.00  0.00     0.009 C 
BRANCH   8   9
ATOM      9  C3' N4B d   1      -3.684  -3.520   1.570  0.00  0.00     0.004 C 
ATOM     10  C4' N4B d   1      -4.818  -2.674   2.065  0.00  0.00     0.003 C 
ENDBRANCH   8   9
ENDBRANCH   7   8
ENDBRANCH   1   7
TORSDOF 3
ENDMDL
