MODEL 1
REMARK minimizedAffinity 15.9290609
REMARK minimizedRMSD -1
REMARK  3 active torsions:
REMARK  status: ('A' for Active; 'I' for Inactive)
REMARK    1  A    between atoms: C3'_2  and  C2'_3 
REMARK    2  A    between atoms: C2'_3  and  C1'_4 
REMARK    3  A    between atoms: C1'_4  and  C1_5 
ROOT
ATOM      1  C1  N4B d   1      -0.809  -1.098   3.043  0.00  0.00    -0.075 A 
ATOM      2  C2  N4B d   1       0.100  -1.379   2.000  0.00  0.00     0.002 A 
ATOM      3  C3  N4B d   1       1.398  -0.938   2.084  0.00  0.00     0.002 A 
ATOM      4  C4  N4B d   1       1.802  -0.200   3.186  0.00  0.00    -0.004 A 
ATOM      5  C5  N4B d   1       0.924   0.046   4.201  0.00  0.00     0.002 A 
ATOM      6  C6  N4B d   1      -0.382  -0.395   4.132  0.00  0.00     0.002 A 
ENDROOT
BRANCH   1   7
ATOM      7  C1' N4B d   1      -2.260  -1.486   2.957  0.00  0.00     0.057 C 
BRANCH   7   8
ATOM      8  C2' N4B d   1      -2.366  -3.002   2.819  0.00  0.00     0.009 C 
BRANCH   8   9
ATOM      9  C3' N4B d   1      -3.306  -3.405   1.696  0.00  0.00     0.004 C 
ATOM     10  C4' N4B d   1      -4.647  -2.741   1.793  0.00  0.00     0.003 C 
ENDBRANCH   8   9
ENDBRANCH   7   8
ENDBRANCH   1   7
TORSDOF 3
ENDMDL
