MODEL 1
REMARK minimizedAffinity 21.2989349
REMARK minimizedRMSD -1
REMARK  3 active torsions:
REMARK  status: ('A' for Active; 'I' for Inactive)
REMARK    1  A    between atoms: C3'_2  and  C2'_3 
REMARK    2  A    between atoms: C2'_3  and  C1'_4 
REMARK    3  A    between atoms: C1'_4  and  C1_5 
ROOT
ATOM      1  C1  N4B d   1       2.872  -0.930   1.492  0.00  0.00    -0.075 A 
ATOM      2  C2  N4B d   1       1.483  -1.181   1.520  0.00  0.00     0.002 A 
ATOM      3  C3  N4B d   1       0.724  -0.724   2.569  0.00  0.00     0.002 A 
ATOM      4  C4  N4B d   1       1.332  -0.034   3.606  0.00  0.00    -0.004 A 
ATOM      5  C5  N4B d   1       2.671   0.227   3.559  0.00  0.00     0.002 A 
ATOM      6  C6  N4B d   1       3.445  -0.223   2.509  0.00  0.00     0.002 A 
ENDROOT
BRANCH   1   7
ATOM      7  C1' N4B d   1       3.757  -1.483   0.408  0.00  0.00     0.057 C 
BRANCH   7   8
ATOM      8  C2' N4B d   1       4.405  -0.327  -0.348  0.00  0.00     0.009 C 
BRANCH   8   9
ATOM      9  C3' N4B d   1       4.904  -0.753  -1.718  0.00  0.00     0.004 C 
ATOM     10  C4' N4B d   1       4.845   0.354  -2.729  0.00  0.00     0.003 C 
ENDBRANCH   8   9
ENDBRANCH   7   8
ENDBRANCH   1   7
TORSDOF 3
ENDMDL
