MODEL 1
REMARK minimizedAffinity 12.0562992
REMARK minimizedRMSD -1
REMARK  3 active torsions:
REMARK  status: ('A' for Active; 'I' for Inactive)
REMARK    1  A    between atoms: C3'_2  and  C2'_3 
REMARK    2  A    between atoms: C2'_3  and  C1'_4 
REMARK    3  A    between atoms: C1'_4  and  C1_5 
ROOT
ATOM      1  C1  N4B d   1       1.034  -0.833   2.505  0.00  0.00    -0.075 A 
ATOM      2  C2  N4B d   1       2.233  -0.232   2.063  0.00  0.00     0.002 A 
ATOM      3  C3  N4B d   1       3.118  -0.949   1.295  0.00  0.00     0.002 A 
ATOM      4  C4  N4B d   1       2.835  -2.268   0.974  0.00  0.00    -0.004 A 
ATOM      5  C5  N4B d   1       1.663  -2.833   1.383  0.00  0.00     0.002 A 
ATOM      6  C6  N4B d   1       0.762  -2.123   2.152  0.00  0.00     0.002 A 
ENDROOT
BRANCH   1   7
ATOM      7  C1' N4B d   1       0.076  -0.117   3.418  0.00  0.00     0.057 C 
BRANCH   7   8
ATOM      8  C2' N4B d   1       0.703   0.007   4.803  0.00  0.00     0.009 C 
BRANCH   8   9
ATOM      9  C3' N4B d   1       2.179   0.360   4.730  0.00  0.00     0.004 C 
ATOM     10  C4' N4B d   1       2.915   0.049   5.999  0.00  0.00     0.003 C 
ENDBRANCH   8   9
ENDBRANCH   7   8
ENDBRANCH   1   7
TORSDOF 3
ENDMDL
