MODEL 1
REMARK minimizedAffinity 7.95509434
REMARK minimizedRMSD -1
REMARK  3 active torsions:
REMARK  status: ('A' for Active; 'I' for Inactive)
REMARK    1  A    between atoms: C3'_2  and  C2'_3 
REMARK    2  A    between atoms: C2'_3  and  C1'_4 
REMARK    3  A    between atoms: C1'_4  and  C1_5 
ROOT
ATOM      1  C1  N4B d   1      -2.950   3.337  -2.001  0.00  0.00    -0.075 A 
ATOM      2  C2  N4B d   1      -4.087   3.420  -1.168  0.00  0.00     0.002 A 
ATOM      3  C3  N4B d   1      -4.616   4.647  -0.849  0.00  0.00     0.002 A 
ATOM      4  C4  N4B d   1      -4.017   5.800  -1.334  0.00  0.00    -0.004 A 
ATOM      5  C5  N4B d   1      -2.934   5.710  -2.159  0.00  0.00     0.002 A 
ATOM      6  C6  N4B d   1      -2.394   4.483  -2.491  0.00  0.00     0.002 A 
ENDROOT
BRANCH   1   7
ATOM      7  C1' N4B d   1      -2.285   2.023  -2.308  0.00  0.00     0.057 C 
BRANCH   7   8
ATOM      8  C2' N4B d   1      -0.840   2.068  -1.820  0.00  0.00     0.009 C 
BRANCH   8   9
ATOM      9  C3' N4B d   1      -0.754   2.250  -0.314  0.00  0.00     0.004 C 
ATOM     10  C4' N4B d   1       0.406   3.105   0.102  0.00  0.00     0.003 C 
ENDBRANCH   8   9
ENDBRANCH   7   8
ENDBRANCH   1   7
TORSDOF 3
ENDMDL
