MODEL 1
REMARK minimizedAffinity 13.2720203
REMARK minimizedRMSD -1
REMARK  3 active torsions:
REMARK  status: ('A' for Active; 'I' for Inactive)
REMARK    1  A    between atoms: C3'_2  and  C2'_3 
REMARK    2  A    between atoms: C2'_3  and  C1'_4 
REMARK    3  A    between atoms: C1'_4  and  C1_5 
ROOT
ATOM      1  C1  N4B d   1      -2.270   3.911  -3.496  0.00  0.00    -0.075 A 
ATOM      2  C2  N4B d   1      -1.821   5.231  -3.270  0.00  0.00     0.002 A 
ATOM      3  C3  N4B d   1      -1.391   6.000  -4.324  0.00  0.00     0.002 A 
ATOM      4  C4  N4B d   1      -1.382   5.466  -5.604  0.00  0.00    -0.004 A 
ATOM      5  C5  N4B d   1      -1.841   4.199  -5.817  0.00  0.00     0.002 A 
ATOM      6  C6  N4B d   1      -2.280   3.416  -4.768  0.00  0.00     0.002 A 
ENDROOT
BRANCH   1   7
ATOM      7  C1' N4B d   1      -2.669   3.003  -2.365  0.00  0.00     0.057 C 
BRANCH   7   8
ATOM      8  C2' N4B d   1      -1.551   1.996  -2.113  0.00  0.00     0.009 C 
BRANCH   8   9
ATOM      9  C3' N4B d   1      -0.366   2.627  -1.403  0.00  0.00     0.004 C 
ATOM     10  C4' N4B d   1      -0.522   2.639   0.089  0.00  0.00     0.003 C 
ENDBRANCH   8   9
ENDBRANCH   7   8
ENDBRANCH   1   7
TORSDOF 3
ENDMDL
