MODEL 1
REMARK minimizedAffinity 18.7645931
REMARK minimizedRMSD -1
REMARK  3 active torsions:
REMARK  status: ('A' for Active; 'I' for Inactive)
REMARK    1  A    between atoms: C3'_2  and  C2'_3 
REMARK    2  A    between atoms: C2'_3  and  C1'_4 
REMARK    3  A    between atoms: C1'_4  and  C1_5 
ROOT
ATOM      1  C1  N4B d   1      -2.222   3.628  -3.650  0.00  0.00    -0.075 A 
ATOM      2  C2  N4B d   1      -1.872   4.996  -3.636  0.00  0.00     0.002 A 
ATOM      3  C3  N4B d   1      -1.870   5.716  -4.806  0.00  0.00     0.002 A 
ATOM      4  C4  N4B d   1      -2.195   5.088  -5.999  0.00  0.00    -0.004 A 
ATOM      5  C5  N4B d   1      -2.557   3.772  -6.000  0.00  0.00     0.002 A 
ATOM      6  C6  N4B d   1      -2.567   3.037  -4.831  0.00  0.00     0.002 A 
ENDROOT
BRANCH   1   7
ATOM      7  C1' N4B d   1      -2.156   2.779  -2.411  0.00  0.00     0.057 C 
BRANCH   7   8
ATOM      8  C2' N4B d   1      -3.489   2.864  -1.673  0.00  0.00     0.009 C 
BRANCH   8   9
ATOM      9  C3' N4B d   1      -3.993   4.293  -1.574  0.00  0.00     0.004 C 
ATOM     10  C4' N4B d   1      -5.105   4.450  -0.581  0.00  0.00     0.003 C 
ENDBRANCH   8   9
ENDBRANCH   7   8
ENDBRANCH   1   7
TORSDOF 3
ENDMDL
