MODEL 1
REMARK minimizedAffinity -0.183061227
REMARK minimizedRMSD -1
REMARK  0 active torsions:
REMARK  status: ('A' for Active; 'I' for Inactive)
ROOT
ATOM      1  C   UNL d   1      -1.017  -0.633   2.340  0.00  0.00     0.020 A 
ATOM      2  C1  UNL d   1      -1.370   0.702   2.535  0.00  0.00     0.020 A 
ATOM      3  C2  UNL d   1      -0.981   1.670   1.607  0.00  0.00     0.034 A 
ATOM      4  C3  UNL d   1      -0.236   1.305   0.480  0.00  0.00     0.017 A 
ATOM      5  C4  UNL d   1       0.118  -0.034   0.285  0.00  0.00     0.017 A 
ATOM      6  C5  UNL d   1      -0.275  -1.000   1.217  0.00  0.00     0.034 A 
ATOM      7 Cl   UNL d   1       1.036  -0.561  -1.082  0.00  0.00    -0.070 Cl
ATOM      8 Cl1  UNL d   1       0.211   2.555  -0.626  0.00  0.00    -0.070 Cl
ENDROOT
TORSDOF 0
ENDMDL
