MODEL 1
REMARK minimizedAffinity -5.71065235
REMARK minimizedRMSD -1
REMARK  0 active torsions:
REMARK  status: ('A' for Active; 'I' for Inactive)
ROOT
ATOM      1  C   UNL d   1       0.984   0.989  -1.606  0.00  0.00     0.020 A 
ATOM      2  C1  UNL d   1       0.873   2.369  -1.770  0.00  0.00     0.020 A 
ATOM      3  C2  UNL d   1       0.055   3.110  -0.916  0.00  0.00     0.034 A 
ATOM      4  C3  UNL d   1      -0.656   2.472   0.107  0.00  0.00     0.017 A 
ATOM      5  C4  UNL d   1      -0.544   1.087   0.272  0.00  0.00     0.017 A 
ATOM      6  C5  UNL d   1       0.277   0.349  -0.587  0.00  0.00     0.034 A 
ATOM      7 Cl   UNL d   1      -1.389   0.229   1.511  0.00  0.00    -0.070 Cl
ATOM      8 Cl1  UNL d   1      -1.649   3.451   1.128  0.00  0.00    -0.070 Cl
ENDROOT
TORSDOF 0
ENDMDL
