MODEL 1
REMARK minimizedAffinity -6.15810585
REMARK minimizedRMSD -1
REMARK  0 active torsions:
REMARK  status: ('A' for Active; 'I' for Inactive)
ROOT
ATOM      1  C   UNL d   1      -1.890   3.097   0.220  0.00  0.00     0.020 A 
ATOM      2  C1  UNL d   1      -1.159   3.163  -0.966  0.00  0.00     0.020 A 
ATOM      3  C2  UNL d   1      -0.201   2.188  -1.250  0.00  0.00     0.034 A 
ATOM      4  C3  UNL d   1       0.031   1.144  -0.348  0.00  0.00     0.017 A 
ATOM      5  C4  UNL d   1      -0.703   1.079   0.843  0.00  0.00     0.017 A 
ATOM      6  C5  UNL d   1      -1.662   2.057   1.122  0.00  0.00     0.034 A 
ATOM      7 Cl   UNL d   1      -0.474  -0.179   2.005  0.00  0.00    -0.070 Cl
ATOM      8 Cl1  UNL d   1       1.231  -0.027  -0.764  0.00  0.00    -0.070 Cl
ENDROOT
TORSDOF 0
ENDMDL
