MODEL 1
REMARK minimizedAffinity -5.97485304
REMARK minimizedRMSD -1
REMARK  0 active torsions:
REMARK  status: ('A' for Active; 'I' for Inactive)
ROOT
ATOM      1  C   UNL d   1      -1.823   3.258   0.237  0.00  0.00     0.020 A 
ATOM      2  C1  UNL d   1      -2.159   2.614   1.428  0.00  0.00     0.020 A 
ATOM      3  C2  UNL d   1      -1.657   1.339   1.698  0.00  0.00     0.034 A 
ATOM      4  C3  UNL d   1      -0.816   0.704   0.777  0.00  0.00     0.017 A 
ATOM      5  C4  UNL d   1      -0.480   1.351  -0.418  0.00  0.00     0.017 A 
ATOM      6  C5  UNL d   1      -0.986   2.627  -0.684  0.00  0.00     0.034 A 
ATOM      7 Cl   UNL d   1       0.551   0.631  -1.603  0.00  0.00    -0.070 Cl
ATOM      8 Cl1  UNL d   1      -0.232  -0.872   1.176  0.00  0.00    -0.070 Cl
ENDROOT
TORSDOF 0
ENDMDL
