MODEL 1
REMARK minimizedAffinity -4.31291628
REMARK minimizedRMSD -1
REMARK  0 active torsions:
REMARK  status: ('A' for Active; 'I' for Inactive)
ROOT
ATOM      1  C   UNL d   1      -2.195   2.873   1.472  0.00  0.00     0.020 A 
ATOM      2  C1  UNL d   1      -2.434   1.514   1.671  0.00  0.00     0.020 A 
ATOM      3  C2  UNL d   1      -1.797   0.567   0.866  0.00  0.00     0.034 A 
ATOM      4  C3  UNL d   1      -0.918   0.978  -0.143  0.00  0.00     0.017 A 
ATOM      5  C4  UNL d   1      -0.679   2.343  -0.343  0.00  0.00     0.017 A 
ATOM      6  C5  UNL d   1      -1.319   3.286   0.467  0.00  0.00     0.034 A 
ATOM      7 Cl   UNL d   1       0.392   2.926  -1.567  0.00  0.00    -0.070 Cl
ATOM      8 Cl1  UNL d   1      -0.165  -0.247  -1.101  0.00  0.00    -0.070 Cl
ENDROOT
TORSDOF 0
ENDMDL
