MODEL 1
REMARK minimizedAffinity -4.53690529
REMARK minimizedRMSD -1
REMARK  0 active torsions:
REMARK  status: ('A' for Active; 'I' for Inactive)
ROOT
ATOM      1  C   UNL d   1      -1.406   3.411  -0.663  0.00  0.00     0.020 A 
ATOM      2  C1  UNL d   1      -2.082   2.950   0.466  0.00  0.00     0.020 A 
ATOM      3  C2  UNL d   1      -1.654   1.786   1.109  0.00  0.00     0.034 A 
ATOM      4  C3  UNL d   1      -0.548   1.080   0.624  0.00  0.00     0.017 A 
ATOM      5  C4  UNL d   1       0.130   1.544  -0.509  0.00  0.00     0.017 A 
ATOM      6  C5  UNL d   1      -0.303   2.709  -1.149  0.00  0.00     0.034 A 
ATOM      7 Cl   UNL d   1       1.504   0.726  -1.167  0.00  0.00    -0.070 Cl
ATOM      8 Cl1  UNL d   1      -0.074  -0.350   1.470  0.00  0.00    -0.070 Cl
ENDROOT
TORSDOF 0
ENDMDL
