MODEL 1
REMARK minimizedAffinity -1.77911794
REMARK minimizedRMSD -1
REMARK  0 active torsions:
REMARK  status: ('A' for Active; 'I' for Inactive)
ROOT
ATOM      1  C   UNL d   1      -0.862  -0.316   1.934  0.00  0.00     0.020 A 
ATOM      2  C1  UNL d   1      -0.288  -0.875   0.793  0.00  0.00     0.020 A 
ATOM      3  C2  UNL d   1       0.153  -0.049  -0.243  0.00  0.00     0.034 A 
ATOM      4  C3  UNL d   1       0.020   1.341  -0.140  0.00  0.00     0.017 A 
ATOM      5  C4  UNL d   1      -0.557   1.901   1.005  0.00  0.00     0.017 A 
ATOM      6  C5  UNL d   1      -0.996   1.069   2.040  0.00  0.00     0.034 A 
ATOM      7 Cl   UNL d   1      -0.754   3.606   1.204  0.00  0.00    -0.070 Cl
ATOM      8 Cl1  UNL d   1       0.587   2.302  -1.460  0.00  0.00    -0.070 Cl
ENDROOT
TORSDOF 0
ENDMDL
