MODEL 1
REMARK minimizedAffinity -4.956954
REMARK minimizedRMSD -1
REMARK  0 active torsions:
REMARK  status: ('A' for Active; 'I' for Inactive)
ROOT
ATOM      1  C   UNL d   1       0.756  -2.415  -2.310  0.00  0.00     0.020 A 
ATOM      2  C1  UNL d   1       0.597  -1.481  -3.333  0.00  0.00     0.020 A 
ATOM      3  C2  UNL d   1       0.448  -0.127  -3.025  0.00  0.00     0.034 A 
ATOM      4  C3  UNL d   1       0.457   0.296  -1.691  0.00  0.00     0.017 A 
ATOM      5  C4  UNL d   1       0.617  -0.643  -0.665  0.00  0.00     0.017 A 
ATOM      6  C5  UNL d   1       0.766  -1.997  -0.979  0.00  0.00     0.034 A 
ATOM      7 Cl   UNL d   1       0.639  -0.196   1.005  0.00  0.00    -0.070 Cl
ATOM      8 Cl1  UNL d   1       0.268   1.986  -1.382  0.00  0.00    -0.070 Cl
ENDROOT
TORSDOF 0
ENDMDL
