MODEL 1
REMARK minimizedAffinity -1.99944091
REMARK minimizedRMSD -1
REMARK  0 active torsions:
REMARK  status: ('A' for Active; 'I' for Inactive)
ROOT
ATOM      1  C   UNL d   1      -1.793   3.201   1.594  0.00  0.00     0.020 A 
ATOM      2  C1  UNL d   1      -1.915   1.875   2.008  0.00  0.00     0.020 A 
ATOM      3  C2  UNL d   1      -1.221   0.867   1.336  0.00  0.00     0.034 A 
ATOM      4  C3  UNL d   1      -0.402   1.183   0.245  0.00  0.00     0.017 A 
ATOM      5  C4  UNL d   1      -0.280   2.514  -0.170  0.00  0.00     0.017 A 
ATOM      6  C5  UNL d   1      -0.977   3.520   0.507  0.00  0.00     0.034 A 
ATOM      7 Cl   UNL d   1       0.711   2.981  -1.506  0.00  0.00    -0.070 Cl
ATOM      8 Cl1  UNL d   1       0.427  -0.114  -0.539  0.00  0.00    -0.070 Cl
ENDROOT
TORSDOF 0
ENDMDL
