MODEL 1
REMARK minimizedAffinity -3.89003229
REMARK minimizedRMSD -1
REMARK  0 active torsions:
REMARK  status: ('A' for Active; 'I' for Inactive)
ROOT
ATOM      1  C   UNL d   1      -1.843   2.327  -0.317  0.00  0.00     0.020 A 
ATOM      2  C1  UNL d   1      -1.966   2.258   1.070  0.00  0.00     0.020 A 
ATOM      3  C2  UNL d   1      -1.370   1.207   1.772  0.00  0.00     0.034 A 
ATOM      4  C3  UNL d   1      -0.649   0.223   1.088  0.00  0.00     0.017 A 
ATOM      5  C4  UNL d   1      -0.526   0.294  -0.305  0.00  0.00     0.017 A 
ATOM      6  C5  UNL d   1      -1.124   1.347  -1.003  0.00  0.00     0.034 A 
ATOM      7 Cl   UNL d   1       0.349  -0.884  -1.219  0.00  0.00    -0.070 Cl
ATOM      8 Cl1  UNL d   1       0.062  -1.047   2.020  0.00  0.00    -0.070 Cl
ENDROOT
TORSDOF 0
ENDMDL
