MODEL 1
REMARK minimizedAffinity -4.76055908
REMARK minimizedRMSD -1
REMARK  0 active torsions:
REMARK  status: ('A' for Active; 'I' for Inactive)
ROOT
ATOM      1  C   UNL d   1      -2.003   3.179   1.107  0.00  0.00     0.020 A 
ATOM      2  C1  UNL d   1      -1.412   3.872   0.051  0.00  0.00     0.020 A 
ATOM      3  C2  UNL d   1      -0.381   3.281  -0.681  0.00  0.00     0.034 A 
ATOM      4  C3  UNL d   1       0.063   1.993  -0.359  0.00  0.00     0.017 A 
ATOM      5  C4  UNL d   1      -0.531   1.298   0.701  0.00  0.00     0.017 A 
ATOM      6  C5  UNL d   1      -1.563   1.895   1.431  0.00  0.00     0.034 A 
ATOM      7 Cl   UNL d   1      -0.037  -0.294   1.158  0.00  0.00    -0.070 Cl
ATOM      8 Cl1  UNL d   1       1.343   1.323  -1.308  0.00  0.00    -0.070 Cl
ENDROOT
TORSDOF 0
ENDMDL
