MODEL 1
REMARK minimizedAffinity -4.93990946
REMARK minimizedRMSD -1
REMARK  0 active torsions:
REMARK  status: ('A' for Active; 'I' for Inactive)
ROOT
ATOM      1  C   UNL d   1      -1.777   2.298   0.840  0.00  0.00     0.020 A 
ATOM      2  C1  UNL d   1      -1.343   2.376  -0.482  0.00  0.00     0.020 A 
ATOM      3  C2  UNL d   1      -0.482   1.403  -0.993  0.00  0.00     0.034 A 
ATOM      4  C3  UNL d   1      -0.052   0.347  -0.180  0.00  0.00     0.017 A 
ATOM      5  C4  UNL d   1      -0.488   0.270   1.147  0.00  0.00     0.017 A 
ATOM      6  C5  UNL d   1      -1.351   1.247   1.653  0.00  0.00     0.034 A 
ATOM      7 Cl   UNL d   1      -0.001  -1.003   2.210  0.00  0.00    -0.070 Cl
ATOM      8 Cl1  UNL d   1       1.013  -0.821  -0.878  0.00  0.00    -0.070 Cl
ENDROOT
TORSDOF 0
ENDMDL
