MODEL 1
REMARK minimizedAffinity -3.63256693
REMARK minimizedRMSD -1
REMARK  0 active torsions:
REMARK  status: ('A' for Active; 'I' for Inactive)
ROOT
ATOM      1  C   UNL d   1      -2.211   2.553   1.400  0.00  0.00     0.020 A 
ATOM      2  C1  UNL d   1      -1.809   3.635   0.619  0.00  0.00     0.020 A 
ATOM      3  C2  UNL d   1      -0.771   3.484  -0.303  0.00  0.00     0.034 A 
ATOM      4  C3  UNL d   1      -0.131   2.247  -0.446  0.00  0.00     0.017 A 
ATOM      5  C4  UNL d   1      -0.536   1.161   0.339  0.00  0.00     0.017 A 
ATOM      6  C5  UNL d   1      -1.576   1.318   1.260  0.00  0.00     0.034 A 
ATOM      7 Cl   UNL d   1       0.205  -0.396   0.218  0.00  0.00    -0.070 Cl
ATOM      8 Cl1  UNL d   1       1.145   2.132  -1.605  0.00  0.00    -0.070 Cl
ENDROOT
TORSDOF 0
ENDMDL
