MODEL 1
REMARK minimizedAffinity -3.40604997
REMARK minimizedRMSD -1
REMARK  0 active torsions:
REMARK  status: ('A' for Active; 'I' for Inactive)
ROOT
ATOM      1  C   UNL d   1      -0.030  -1.158   0.880  0.00  0.00     0.020 A 
ATOM      2  C1  UNL d   1       0.883  -0.617  -0.025  0.00  0.00     0.020 A 
ATOM      3  C2  UNL d   1       0.746   0.707  -0.446  0.00  0.00     0.034 A 
ATOM      4  C3  UNL d   1      -0.305   1.495   0.037  0.00  0.00     0.017 A 
ATOM      5  C4  UNL d   1      -1.221   0.950   0.944  0.00  0.00     0.017 A 
ATOM      6  C5  UNL d   1      -1.080  -0.376   1.363  0.00  0.00     0.034 A 
ATOM      7 Cl   UNL d   1      -2.544   1.860   1.584  0.00  0.00    -0.070 Cl
ATOM      8 Cl1  UNL d   1      -0.413   3.124  -0.527  0.00  0.00    -0.070 Cl
ENDROOT
TORSDOF 0
ENDMDL
