MODEL 1
REMARK minimizedAffinity -4.16603851
REMARK minimizedRMSD -1
REMARK  0 active torsions:
REMARK  status: ('A' for Active; 'I' for Inactive)
ROOT
ATOM      1  C   UNL d   1      -0.353   3.792   0.366  0.00  0.00     0.020 A 
ATOM      2  C1  UNL d   1       0.401   3.384  -0.734  0.00  0.00     0.020 A 
ATOM      3  C2  UNL d   1       0.676   2.028  -0.927  0.00  0.00     0.034 A 
ATOM      4  C3  UNL d   1       0.198   1.076  -0.019  0.00  0.00     0.017 A 
ATOM      5  C4  UNL d   1      -0.558   1.487   1.084  0.00  0.00     0.017 A 
ATOM      6  C5  UNL d   1      -0.831   2.846   1.273  0.00  0.00     0.034 A 
ATOM      7 Cl   UNL d   1      -1.183   0.371   2.247  0.00  0.00    -0.070 Cl
ATOM      8 Cl1  UNL d   1       0.576  -0.582  -0.321  0.00  0.00    -0.070 Cl
ENDROOT
TORSDOF 0
ENDMDL
