MODEL 1
REMARK minimizedAffinity 2.1160183
REMARK minimizedRMSD -1
REMARK  0 active torsions:
REMARK  status: ('A' for Active; 'I' for Inactive)
ROOT
ATOM      1  C   UNL d   1      -0.348   0.453  -0.527  0.00  0.00     0.020 A 
ATOM      2  C1  UNL d   1      -1.660   0.573  -0.986  0.00  0.00     0.020 A 
ATOM      3  C2  UNL d   1      -2.132   1.807  -1.436  0.00  0.00     0.034 A 
ATOM      4  C3  UNL d   1      -1.293   2.927  -1.429  0.00  0.00     0.017 A 
ATOM      5  C4  UNL d   1       0.023   2.806  -0.969  0.00  0.00     0.017 A 
ATOM      6  C5  UNL d   1       0.491   1.568  -0.519  0.00  0.00     0.034 A 
ATOM      7 Cl   UNL d   1       1.118   4.143  -0.930  0.00  0.00    -0.070 Cl
ATOM      8 Cl1  UNL d   1      -1.943   4.422  -2.001  0.00  0.00    -0.070 Cl
ENDROOT
TORSDOF 0
ENDMDL
