MODEL 1
REMARK minimizedAffinity 14.9371872
REMARK minimizedRMSD -1
REMARK  0 active torsions:
REMARK  status: ('A' for Active; 'I' for Inactive)
ROOT
ATOM      1  C   UNL d   1       0.235   5.800   0.182  0.00  0.00     0.020 A 
ATOM      2  C1  UNL d   1       0.094   5.210  -1.073  0.00  0.00     0.020 A 
ATOM      3  C2  UNL d   1       0.115   3.820  -1.198  0.00  0.00     0.034 A 
ATOM      4  C3  UNL d   1       0.277   3.013  -0.066  0.00  0.00     0.017 A 
ATOM      5  C4  UNL d   1       0.419   3.606   1.194  0.00  0.00     0.017 A 
ATOM      6  C5  UNL d   1       0.397   4.999   1.314  0.00  0.00     0.034 A 
ATOM      7 Cl   UNL d   1       0.623   2.677   2.638  0.00  0.00    -0.070 Cl
ATOM      8 Cl1  UNL d   1       0.293   1.301  -0.294  0.00  0.00    -0.070 Cl
ENDROOT
TORSDOF 0
ENDMDL
