MODEL 1
REMARK minimizedAffinity 2.2717073
REMARK minimizedRMSD -1
REMARK  0 active torsions:
REMARK  status: ('A' for Active; 'I' for Inactive)
ROOT
ATOM      1  C   UNL d   1       4.705  -3.823  -0.725  0.00  0.00     0.020 A 
ATOM      2  C1  UNL d   1       3.704  -3.291   0.088  0.00  0.00     0.020 A 
ATOM      3  C2  UNL d   1       2.364  -3.590  -0.170  0.00  0.00     0.034 A 
ATOM      4  C3  UNL d   1       2.022  -4.422  -1.242  0.00  0.00     0.017 A 
ATOM      5  C4  UNL d   1       3.027  -4.955  -2.056  0.00  0.00     0.017 A 
ATOM      6  C5  UNL d   1       4.367  -4.653  -1.794  0.00  0.00     0.034 A 
ATOM      7 Cl   UNL d   1       2.683  -5.989  -3.397  0.00  0.00    -0.070 Cl
ATOM      8 Cl1  UNL d   1       0.345  -4.749  -1.501  0.00  0.00    -0.070 Cl
ENDROOT
TORSDOF 0
ENDMDL
