MODEL 1
REMARK minimizedAffinity 10.7159472
REMARK minimizedRMSD -1
REMARK  0 active torsions:
REMARK  status: ('A' for Active; 'I' for Inactive)
ROOT
ATOM      1  C   UNL d   1       5.477  -2.705  -0.768  0.00  0.00     0.020 A 
ATOM      2  C1  UNL d   1       5.212  -4.036  -0.447  0.00  0.00     0.020 A 
ATOM      3  C2  UNL d   1       4.717  -4.904  -1.423  0.00  0.00     0.034 A 
ATOM      4  C3  UNL d   1       4.485  -4.442  -2.724  0.00  0.00     0.017 A 
ATOM      5  C4  UNL d   1       4.752  -3.106  -3.045  0.00  0.00     0.017 A 
ATOM      6  C5  UNL d   1       5.247  -2.242  -2.064  0.00  0.00     0.034 A 
ATOM      7 Cl   UNL d   1       4.492  -2.464  -4.628  0.00  0.00    -0.070 Cl
ATOM      8 Cl1  UNL d   1       3.872  -5.571  -3.880  0.00  0.00    -0.070 Cl
ENDROOT
TORSDOF 0
ENDMDL
