MODEL 1
REMARK minimizedAffinity 12.1186419
REMARK minimizedRMSD -1
REMARK  0 active torsions:
REMARK  status: ('A' for Active; 'I' for Inactive)
ROOT
ATOM      1  C   UNL d   1       6.000  -2.270  -1.473  0.00  0.00     0.020 A 
ATOM      2  C1  UNL d   1       5.901  -3.545  -0.918  0.00  0.00     0.020 A 
ATOM      3  C2  UNL d   1       4.841  -3.855  -0.064  0.00  0.00     0.034 A 
ATOM      4  C3  UNL d   1       3.875  -2.889   0.239  0.00  0.00     0.017 A 
ATOM      5  C4  UNL d   1       3.975  -1.609  -0.318  0.00  0.00     0.017 A 
ATOM      6  C5  UNL d   1       5.038  -1.304  -1.173  0.00  0.00     0.034 A 
ATOM      7 Cl   UNL d   1       2.821  -0.364   0.008  0.00  0.00    -0.070 Cl
ATOM      8 Cl1  UNL d   1       2.591  -3.342   1.302  0.00  0.00    -0.070 Cl
ENDROOT
TORSDOF 0
ENDMDL
