MODEL 1
REMARK minimizedAffinity 11.4901066
REMARK minimizedRMSD -1
REMARK  0 active torsions:
REMARK  status: ('A' for Active; 'I' for Inactive)
ROOT
ATOM      1  C   UNL d   1       6.000  -3.638  -0.701  0.00  0.00     0.020 A 
ATOM      2  C1  UNL d   1       5.903  -2.622  -1.651  0.00  0.00     0.020 A 
ATOM      3  C2  UNL d   1       4.900  -1.656  -1.540  0.00  0.00     0.034 A 
ATOM      4  C3  UNL d   1       3.991  -1.704  -0.477  0.00  0.00     0.017 A 
ATOM      5  C4  UNL d   1       4.089  -2.724   0.476  0.00  0.00     0.017 A 
ATOM      6  C5  UNL d   1       5.095  -3.688   0.361  0.00  0.00     0.034 A 
ATOM      7 Cl   UNL d   1       3.004  -2.848   1.816  0.00  0.00    -0.070 Cl
ATOM      8 Cl1  UNL d   1       2.777  -0.476  -0.402  0.00  0.00    -0.070 Cl
ENDROOT
TORSDOF 0
ENDMDL
