MODEL 1
REMARK minimizedAffinity 6.77400064
REMARK minimizedRMSD -1
REMARK  0 active torsions:
REMARK  status: ('A' for Active; 'I' for Inactive)
ROOT
ATOM      1  C   UNL d   1       5.609  -2.742  -1.037  0.00  0.00     0.020 A 
ATOM      2  C1  UNL d   1       5.326  -4.038  -0.608  0.00  0.00     0.020 A 
ATOM      3  C2  UNL d   1       4.460  -4.243   0.469  0.00  0.00     0.034 A 
ATOM      4  C3  UNL d   1       3.874  -3.151   1.119  0.00  0.00     0.017 A 
ATOM      5  C4  UNL d   1       4.158  -1.850   0.687  0.00  0.00     0.017 A 
ATOM      6  C5  UNL d   1       5.026  -1.651  -0.392  0.00  0.00     0.034 A 
ATOM      7 Cl   UNL d   1       3.473  -0.453   1.439  0.00  0.00    -0.070 Cl
ATOM      8 Cl1  UNL d   1       2.813  -3.479   2.442  0.00  0.00    -0.070 Cl
ENDROOT
TORSDOF 0
ENDMDL
