MODEL 1
REMARK minimizedAffinity 4.98167801
REMARK minimizedRMSD -1
REMARK  0 active torsions:
REMARK  status: ('A' for Active; 'I' for Inactive)
ROOT
ATOM      1  C   UNL d   1       0.962   5.999  -0.734  0.00  0.00     0.020 A 
ATOM      2  C1  UNL d   1      -0.069   5.834  -1.659  0.00  0.00     0.020 A 
ATOM      3  C2  UNL d   1      -0.924   4.734  -1.561  0.00  0.00     0.034 A 
ATOM      4  C3  UNL d   1      -0.751   3.796  -0.537  0.00  0.00     0.017 A 
ATOM      5  C4  UNL d   1       0.283   3.964   0.391  0.00  0.00     0.017 A 
ATOM      6  C5  UNL d   1       1.137   5.066   0.288  0.00  0.00     0.034 A 
ATOM      7 Cl   UNL d   1       0.559   2.849   1.682  0.00  0.00    -0.070 Cl
ATOM      8 Cl1  UNL d   1      -1.847   2.462  -0.476  0.00  0.00    -0.070 Cl
ENDROOT
TORSDOF 0
ENDMDL
