MODEL 1
REMARK minimizedAffinity 15.7254333
REMARK minimizedRMSD -1
REMARK  0 active torsions:
REMARK  status: ('A' for Active; 'I' for Inactive)
ROOT
ATOM      1  C   UNL d   1       0.585  -0.854  -1.862  0.00  0.00     0.020 A 
ATOM      2  C1  UNL d   1      -0.594  -1.592  -1.968  0.00  0.00     0.020 A 
ATOM      3  C2  UNL d   1      -1.786  -1.083  -1.449  0.00  0.00     0.034 A 
ATOM      4  C3  UNL d   1      -1.802   0.168  -0.820  0.00  0.00     0.017 A 
ATOM      5  C4  UNL d   1      -0.619   0.908  -0.714  0.00  0.00     0.017 A 
ATOM      6  C5  UNL d   1       0.572   0.393  -1.236  0.00  0.00     0.034 A 
ATOM      7 Cl   UNL d   1      -0.560   2.458   0.047  0.00  0.00    -0.070 Cl
ATOM      8 Cl1  UNL d   1      -3.312   0.736  -0.201  0.00  0.00    -0.070 Cl
ENDROOT
TORSDOF 0
ENDMDL
