MODEL 1
REMARK minimizedAffinity 3.60489416
REMARK minimizedRMSD -1
REMARK  0 active torsions:
REMARK  status: ('A' for Active; 'I' for Inactive)
ROOT
ATOM      1  C1  BNZ d   1      -6.000   1.474  -3.569  0.00  0.00     0.000 A 
ATOM      2  C2  BNZ d   1      -5.893   2.678  -2.926  0.00  0.00     0.000 A 
ATOM      3  C3  BNZ d   1      -4.871   3.538  -3.216  0.00  0.00     0.000 A 
ATOM      4  C4  BNZ d   1      -3.936   3.176  -4.118  0.00  0.00     0.000 A 
ATOM      5  C5  BNZ d   1      -4.025   1.961  -4.768  0.00  0.00     0.000 A 
ATOM      6  C6  BNZ d   1      -5.076   1.115  -4.502  0.00  0.00     0.000 A 
ENDROOT
TORSDOF 0
ENDMDL
