MODEL 1
REMARK minimizedAffinity -2.23892951
REMARK minimizedRMSD -1
REMARK  0 active torsions:
REMARK  status: ('A' for Active; 'I' for Inactive)
ROOT
ATOM      1  C1  BNZ d   1      -1.363  -3.820   6.000  0.00  0.00     0.000 A 
ATOM      2  C2  BNZ d   1      -0.424  -3.441   5.077  0.00  0.00     0.000 A 
ATOM      3  C3  BNZ d   1       0.033  -4.326   4.141  0.00  0.00     0.000 A 
ATOM      4  C4  BNZ d   1      -0.418  -5.597   4.153  0.00  0.00     0.000 A 
ATOM      5  C5  BNZ d   1      -1.356  -5.996   5.084  0.00  0.00     0.000 A 
ATOM      6  C6  BNZ d   1      -1.843  -5.093   6.000  0.00  0.00     0.000 A 
ENDROOT
TORSDOF 0
ENDMDL
