MODEL 1
REMARK minimizedAffinity 3.03559494
REMARK minimizedRMSD -1
REMARK  0 active torsions:
REMARK  status: ('A' for Active; 'I' for Inactive)
ROOT
ATOM      1  C1  BNZ d   1       2.062  -2.927   0.739  0.00  0.00     0.000 A 
ATOM      2  C2  BNZ d   1       0.893  -3.537   0.371  0.00  0.00     0.000 A 
ATOM      3  C3  BNZ d   1       0.397  -3.394  -0.895  0.00  0.00     0.000 A 
ATOM      4  C4  BNZ d   1       1.048  -2.609  -1.777  0.00  0.00     0.000 A 
ATOM      5  C5  BNZ d   1       2.224  -1.980  -1.419  0.00  0.00     0.000 A 
ATOM      6  C6  BNZ d   1       2.740  -2.158  -0.156  0.00  0.00     0.000 A 
ENDROOT
TORSDOF 0
ENDMDL
