MODEL 1
REMARK minimizedAffinity 2.69589853
REMARK minimizedRMSD -1
REMARK  0 active torsions:
REMARK  status: ('A' for Active; 'I' for Inactive)
ROOT
ATOM      1  C1  BNZ d   1       5.517   2.249  -1.457  0.00  0.00     0.000 A 
ATOM      2  C2  BNZ d   1       4.513   1.422  -1.884  0.00  0.00     0.000 A 
ATOM      3  C3  BNZ d   1       3.908   0.551  -1.021  0.00  0.00     0.000 A 
ATOM      4  C4  BNZ d   1       4.336   0.480   0.256  0.00  0.00     0.000 A 
ATOM      5  C5  BNZ d   1       5.354   1.301   0.699  0.00  0.00     0.000 A 
ATOM      6  C6  BNZ d   1       5.933   2.203  -0.162  0.00  0.00     0.000 A 
ENDROOT
TORSDOF 0
ENDMDL
