MODEL 1
REMARK minimizedAffinity 6.11517906
REMARK minimizedRMSD -1
REMARK  0 active torsions:
REMARK  status: ('A' for Active; 'I' for Inactive)
ROOT
ATOM      1  C1  BNZ d   1      -1.009   3.267   1.100  0.00  0.00     0.000 A 
ATOM      2  C2  BNZ d   1      -1.005   1.972   0.655  0.00  0.00     0.000 A 
ATOM      3  C3  BNZ d   1      -0.025   1.101   1.042  0.00  0.00     0.000 A 
ATOM      4  C4  BNZ d   1       0.971   1.536   1.840  0.00  0.00     0.000 A 
ATOM      5  C5  BNZ d   1       0.987   2.842   2.290  0.00  0.00     0.000 A 
ATOM      6  C6  BNZ d   1      -0.023   3.705   1.929  0.00  0.00     0.000 A 
ENDROOT
TORSDOF 0
ENDMDL
