MODEL 1
REMARK minimizedAffinity 5.56922007
REMARK minimizedRMSD -1
REMARK  1 active torsions:
REMARK  status: ('A' for Active; 'I' for Inactive)
REMARK    1  A    between atoms: C3_4  and  O_7 
ROOT
ATOM      1  C   UNL d   1      -2.835  -1.636   4.427  0.00  0.00    -0.033 A 
ATOM      2  C1  UNL d   1      -3.780  -1.304   3.454  0.00  0.00     0.039 A 
ATOM      3  C2  UNL d   1      -3.423  -0.481   2.385  0.00  0.00    -0.080 A 
ATOM      4  C3  UNL d   1      -2.120   0.002   2.299  0.00  0.00     0.150 A 
ATOM      5  C4  UNL d   1      -1.173  -0.328   3.263  0.00  0.00    -0.007 A 
ATOM      6  C5  UNL d   1      -1.531  -1.149   4.330  0.00  0.00     0.039 A 
ENDROOT
BRANCH   4   7
ATOM      7  O   UNL d   1      -1.727   0.813   1.276  0.00  0.00    -0.526 OA
ATOM      8  H5  UNL d   1      -2.494   0.979   0.703  0.00  0.00     0.418 HD
ENDBRANCH   4   7
TORSDOF 1
ENDMDL
