MODEL 1
REMARK minimizedAffinity -3.73413944
REMARK minimizedRMSD -1
REMARK  1 active torsions:
REMARK  status: ('A' for Active; 'I' for Inactive)
REMARK    1  A    between atoms: C3_4  and  O_7 
ROOT
ATOM      1  C   UNL d   1      -1.106   0.539   1.575  0.00  0.00    -0.033 A 
ATOM      2  C1  UNL d   1      -1.831   0.182   2.713  0.00  0.00     0.039 A 
ATOM      3  C2  UNL d   1      -1.242  -0.615   3.696  0.00  0.00    -0.080 A 
ATOM      4  C3  UNL d   1       0.071  -1.047   3.529  0.00  0.00     0.150 A 
ATOM      5  C4  UNL d   1       0.801  -0.692   2.399  0.00  0.00    -0.007 A 
ATOM      6  C5  UNL d   1       0.210   0.103   1.418  0.00  0.00     0.039 A 
ENDROOT
BRANCH   4   7
ATOM      7  O   UNL d   1       0.687  -1.831   4.459  0.00  0.00    -0.526 OA
ATOM      8  H5  UNL d   1       0.053  -2.020   5.171  0.00  0.00     0.418 HD
ENDBRANCH   4   7
TORSDOF 1
ENDMDL
