MODEL 1
REMARK minimizedAffinity -1.55085444
REMARK minimizedRMSD -1
REMARK  1 active torsions:
REMARK  status: ('A' for Active; 'I' for Inactive)
REMARK    1  A    between atoms: C3_4  and  O_7 
ROOT
ATOM      1  C   UNL d   1      -2.555  -0.878   3.706  0.00  0.00    -0.033 A 
ATOM      2  C1  UNL d   1      -2.050  -1.804   4.620  0.00  0.00     0.039 A 
ATOM      3  C2  UNL d   1      -0.673  -2.019   4.711  0.00  0.00    -0.080 A 
ATOM      4  C3  UNL d   1       0.186  -1.301   3.884  0.00  0.00     0.150 A 
ATOM      5  C4  UNL d   1      -0.310  -0.374   2.973  0.00  0.00    -0.007 A 
ATOM      6  C5  UNL d   1      -1.685  -0.162   2.883  0.00  0.00     0.039 A 
ENDROOT
BRANCH   4   7
ATOM      7  O   UNL d   1       1.537  -1.480   3.933  0.00  0.00    -0.526 OA
ATOM      8  H5  UNL d   1       1.732  -2.171   4.587  0.00  0.00     0.418 HD
ENDBRANCH   4   7
TORSDOF 1
ENDMDL
