MODEL 1
REMARK minimizedAffinity 4.59846306
REMARK minimizedRMSD -1
REMARK  1 active torsions:
REMARK  status: ('A' for Active; 'I' for Inactive)
REMARK    1  A    between atoms: C3_4  and  O_7 
ROOT
ATOM      1  C   UNL d   1      -1.974   1.046  -0.096  0.00  0.00    -0.033 A 
ATOM      2  C1  UNL d   1      -1.779   1.548   1.193  0.00  0.00     0.039 A 
ATOM      3  C2  UNL d   1      -2.110   0.770   2.304  0.00  0.00    -0.080 A 
ATOM      4  C3  UNL d   1      -2.633  -0.506   2.113  0.00  0.00     0.150 A 
ATOM      5  C4  UNL d   1      -2.826  -1.014   0.832  0.00  0.00    -0.007 A 
ATOM      6  C5  UNL d   1      -2.496  -0.235  -0.276  0.00  0.00     0.039 A 
ENDROOT
BRANCH   4   7
ATOM      7  O   UNL d   1      -2.976  -1.301   3.167  0.00  0.00    -0.526 OA
ATOM      8  H5  UNL d   1      -2.815  -0.808   3.989  0.00  0.00     0.418 HD
ENDBRANCH   4   7
TORSDOF 1
ENDMDL
