MODEL 1
REMARK minimizedAffinity 4.03419161
REMARK minimizedRMSD -1
REMARK  1 active torsions:
REMARK  status: ('A' for Active; 'I' for Inactive)
REMARK    1  A    between atoms: C3_4  and  O_7 
ROOT
ATOM      1  C   UNL d   1      -2.505   0.266   0.020  0.00  0.00    -0.033 A 
ATOM      2  C1  UNL d   1      -1.749  -0.438  -0.919  0.00  0.00     0.039 A 
ATOM      3  C2  UNL d   1      -0.383  -0.639  -0.709  0.00  0.00    -0.080 A 
ATOM      4  C3  UNL d   1       0.213  -0.133   0.443  0.00  0.00     0.150 A 
ATOM      5  C4  UNL d   1      -0.535   0.566   1.384  0.00  0.00    -0.007 A 
ATOM      6  C5  UNL d   1      -1.899   0.767   1.172  0.00  0.00     0.039 A 
ENDROOT
BRANCH   4   7
ATOM      7  O   UNL d   1       1.543  -0.300   0.689  0.00  0.00    -0.526 OA
ATOM      8  H5  UNL d   1       1.937  -0.776  -0.061  0.00  0.00     0.418 HD
ENDBRANCH   4   7
TORSDOF 1
ENDMDL
