MODEL 1
REMARK minimizedAffinity 4.81222963
REMARK minimizedRMSD -1
REMARK  1 active torsions:
REMARK  status: ('A' for Active; 'I' for Inactive)
REMARK    1  A    between atoms: C3_4  and  O_7 
ROOT
ATOM      1  C   UNL d   1       1.434   0.757  -4.210  0.00  0.00    -0.033 A 
ATOM      2  C1  UNL d   1       0.136   0.682  -3.702  0.00  0.00     0.039 A 
ATOM      3  C2  UNL d   1      -0.796  -0.177  -4.287  0.00  0.00    -0.080 A 
ATOM      4  C3  UNL d   1      -0.419  -0.955  -5.377  0.00  0.00     0.150 A 
ATOM      5  C4  UNL d   1       0.874  -0.888  -5.887  0.00  0.00    -0.007 A 
ATOM      6  C5  UNL d   1       1.803  -0.030  -5.302  0.00  0.00     0.039 A 
ENDROOT
BRANCH   4   7
ATOM      7  O   UNL d   1      -1.296  -1.804  -5.985  0.00  0.00    -0.526 OA
ATOM      8  H5  UNL d   1      -2.158  -1.723  -5.544  0.00  0.00     0.418 HD
ENDBRANCH   4   7
TORSDOF 1
ENDMDL
