MODEL 1
REMARK minimizedAffinity -0.411446244
REMARK minimizedRMSD -1
REMARK  1 active torsions:
REMARK  status: ('A' for Active; 'I' for Inactive)
REMARK    1  A    between atoms: C3_4  and  O_7 
ROOT
ATOM      1  C   UNL d   1      -2.938  -0.636   3.493  0.00  0.00    -0.033 A 
ATOM      2  C1  UNL d   1      -2.419  -1.310   4.601  0.00  0.00     0.039 A 
ATOM      3  C2  UNL d   1      -1.041  -1.494   4.726  0.00  0.00    -0.080 A 
ATOM      4  C3  UNL d   1      -0.193  -0.998   3.739  0.00  0.00     0.150 A 
ATOM      5  C4  UNL d   1      -0.703  -0.322   2.635  0.00  0.00    -0.007 A 
ATOM      6  C5  UNL d   1      -2.080  -0.141   2.511  0.00  0.00     0.039 A 
ENDROOT
BRANCH   4   7
ATOM      7  O   UNL d   1       1.159  -1.157   3.815  0.00  0.00    -0.526 OA
ATOM      8  H5  UNL d   1       1.364  -1.667   4.616  0.00  0.00     0.418 HD
ENDBRANCH   4   7
TORSDOF 1
ENDMDL
