MODEL 1
REMARK minimizedAffinity 2.13064623
REMARK minimizedRMSD -1
REMARK  1 active torsions:
REMARK  status: ('A' for Active; 'I' for Inactive)
REMARK    1  A    between atoms: C3_4  and  O_7 
ROOT
ATOM      1  C   UNL d   1       0.907  -0.740   3.697  0.00  0.00    -0.033 A 
ATOM      2  C1  UNL d   1       1.234  -0.396   2.384  0.00  0.00     0.039 A 
ATOM      3  C2  UNL d   1       0.262   0.141   1.538  0.00  0.00    -0.080 A 
ATOM      4  C3  UNL d   1      -1.031   0.331   2.017  0.00  0.00     0.150 A 
ATOM      5  C4  UNL d   1      -1.363  -0.006   3.325  0.00  0.00    -0.007 A 
ATOM      6  C5  UNL d   1      -0.391  -0.543   4.168  0.00  0.00     0.039 A 
ENDROOT
BRANCH   4   7
ATOM      7  O   UNL d   1      -2.015   0.847   1.228  0.00  0.00    -0.526 OA
ATOM      8  H5  UNL d   1      -1.648   1.005   0.342  0.00  0.00     0.418 HD
ENDBRANCH   4   7
TORSDOF 1
ENDMDL
