MODEL 1
REMARK minimizedAffinity -0.161644414
REMARK minimizedRMSD -1
REMARK  1 active torsions:
REMARK  status: ('A' for Active; 'I' for Inactive)
REMARK    1  A    between atoms: C3_4  and  O_7 
ROOT
ATOM      1  C   UNL d   1      -1.493   0.367  -0.010  0.00  0.00    -0.033 A 
ATOM      2  C1  UNL d   1      -0.195   0.175  -0.488  0.00  0.00     0.039 A 
ATOM      3  C2  UNL d   1       0.804  -0.294   0.367  0.00  0.00    -0.080 A 
ATOM      4  C3  UNL d   1       0.492  -0.569   1.696  0.00  0.00     0.150 A 
ATOM      5  C4  UNL d   1      -0.799  -0.384   2.178  0.00  0.00    -0.007 A 
ATOM      6  C5  UNL d   1      -1.795   0.086   1.322  0.00  0.00     0.039 A 
ENDROOT
BRANCH   4   7
ATOM      7  O   UNL d   1       1.435  -1.024   2.569  0.00  0.00    -0.526 OA
ATOM      8  H5  UNL d   1       2.286  -1.076   2.104  0.00  0.00     0.418 HD
ENDBRANCH   4   7
TORSDOF 1
ENDMDL
