MODEL 1
REMARK minimizedAffinity -6.52684736
REMARK minimizedRMSD -1
REMARK  2 active torsions:
REMARK  status: ('A' for Active; 'I' for Inactive)
REMARK    1  A    between atoms: C2'_3  and  C1'_4 
REMARK    2  A    between atoms: C1'_4  and  C1_5 
ROOT
ATOM      1  C1  I4B d   1       0.128  -0.423  -0.108  0.00  0.00    -0.075 A 
ATOM      2  C2  I4B d   1      -0.663  -1.156   0.741  0.00  0.00     0.003 A 
ATOM      3  C3  I4B d   1      -2.023  -1.393   0.423  0.00  0.00     0.002 A 
ATOM      4  C4  I4B d   1      -2.559  -0.839  -0.721  0.00  0.00    -0.004 A 
ATOM      5  C5  I4B d   1      -1.750  -0.116  -1.592  0.00  0.00     0.002 A 
ATOM      6  C6  I4B d   1      -0.395   0.083  -1.291  0.00  0.00     0.003 A 
ENDROOT
BRANCH   1   7
ATOM      7  C1' I4B d   1       1.550  -0.165   0.275  0.00  0.00     0.060 C 
BRANCH   7   8
ATOM      8  C2' I4B d   1       1.796   1.327   0.177  0.00  0.00    -0.013 C 
ATOM      9  C4' I4B d   1       2.044   1.929   1.535  0.00  0.00     0.013 C 
ATOM     10  C3' I4B d   1       2.967   1.545  -0.734  0.00  0.00     0.013 C 
ENDBRANCH   7   8
ENDBRANCH   1   7
TORSDOF 2
ENDMDL
