MODEL 1
REMARK minimizedAffinity -5.63203669
REMARK minimizedRMSD -1
REMARK  2 active torsions:
REMARK  status: ('A' for Active; 'I' for Inactive)
REMARK    1  A    between atoms: C2'_3  and  C1'_4 
REMARK    2  A    between atoms: C1'_4  and  C1_5 
ROOT
ATOM      1  C1  I4B d   1       0.426   0.277  -0.033  0.00  0.00    -0.075 A 
ATOM      2  C2  I4B d   1       0.227   0.635  -1.343  0.00  0.00     0.003 A 
ATOM      3  C3  I4B d   1      -1.029   0.417  -1.959  0.00  0.00     0.002 A 
ATOM      4  C4  I4B d   1      -2.036  -0.204  -1.248  0.00  0.00    -0.004 A 
ATOM      5  C5  I4B d   1      -1.840  -0.546   0.087  0.00  0.00     0.002 A 
ATOM      6  C6  I4B d   1      -0.605  -0.293   0.702  0.00  0.00     0.003 A 
ENDROOT
BRANCH   1   7
ATOM      7  C1' I4B d   1       1.775   0.492   0.576  0.00  0.00     0.060 C 
BRANCH   7   8
ATOM      8  C2' I4B d   1       1.964   1.981   0.777  0.00  0.00    -0.013 C 
ATOM      9  C4' I4B d   1       1.971   2.338   2.240  0.00  0.00     0.013 C 
ATOM     10  C3' I4B d   1       3.252   2.377   0.118  0.00  0.00     0.013 C 
ENDBRANCH   7   8
ENDBRANCH   1   7
TORSDOF 2
ENDMDL
