MODEL 1
REMARK minimizedAffinity -3.9626987
REMARK minimizedRMSD -1
REMARK  2 active torsions:
REMARK  status: ('A' for Active; 'I' for Inactive)
REMARK    1  A    between atoms: C2'_3  and  C1'_4 
REMARK    2  A    between atoms: C1'_4  and  C1_5 
ROOT
ATOM      1  C1  I4B d   1       0.569   0.144  -0.023  0.00  0.00    -0.075 A 
ATOM      2  C2  I4B d   1      -0.420  -0.299   0.819  0.00  0.00     0.003 A 
ATOM      3  C3  I4B d   1      -1.733  -0.501   0.332  0.00  0.00     0.002 A 
ATOM      4  C4  I4B d   1      -2.024  -0.203  -0.984  0.00  0.00    -0.004 A 
ATOM      5  C5  I4B d   1      -1.014   0.223  -1.842  0.00  0.00     0.002 A 
ATOM      6  C6  I4B d   1       0.293   0.386  -1.363  0.00  0.00     0.003 A 
ENDROOT
BRANCH   1   7
ATOM      7  C1' I4B d   1       1.938   0.378   0.533  0.00  0.00     0.060 C 
BRANCH   7   8
ATOM      8  C2' I4B d   1       2.097   1.867   0.769  0.00  0.00    -0.013 C 
ATOM      9  C4' I4B d   1       2.319   2.166   2.228  0.00  0.00     0.013 C 
ATOM     10  C3' I4B d   1       3.248   2.347  -0.063  0.00  0.00     0.013 C 
ENDBRANCH   7   8
ENDBRANCH   1   7
TORSDOF 2
ENDMDL
