MODEL 1
REMARK minimizedAffinity -4.79365921
REMARK minimizedRMSD -1
REMARK  2 active torsions:
REMARK  status: ('A' for Active; 'I' for Inactive)
REMARK    1  A    between atoms: C2'_3  and  C1'_4 
REMARK    2  A    between atoms: C1'_4  and  C1_5 
ROOT
ATOM      1  C1  I4B d   1       2.188   1.184   0.628  0.00  0.00    -0.075 A 
ATOM      2  C2  I4B d   1       2.703   2.061  -0.294  0.00  0.00     0.003 A 
ATOM      3  C3  I4B d   1       3.404   3.215   0.133  0.00  0.00     0.002 A 
ATOM      4  C4  I4B d   1       3.523   3.477   1.482  0.00  0.00    -0.004 A 
ATOM      5  C5  I4B d   1       3.021   2.575   2.416  0.00  0.00     0.002 A 
ATOM      6  C6  I4B d   1       2.360   1.415   1.987  0.00  0.00     0.003 A 
ENDROOT
BRANCH   1   7
ATOM      7  C1' I4B d   1       1.424  -0.007   0.143  0.00  0.00     0.060 C 
BRANCH   7   8
ATOM      8  C2' I4B d   1       0.433  -0.396   1.220  0.00  0.00    -0.013 C 
ATOM      9  C4' I4B d   1      -0.984  -0.285   0.722  0.00  0.00     0.013 C 
ATOM     10  C3' I4B d   1       0.746  -1.797   1.654  0.00  0.00     0.013 C 
ENDBRANCH   7   8
ENDBRANCH   1   7
TORSDOF 2
ENDMDL
