MODEL 1
REMARK minimizedAffinity -1.06106865
REMARK minimizedRMSD -1
REMARK  2 active torsions:
REMARK  status: ('A' for Active; 'I' for Inactive)
REMARK    1  A    between atoms: C2'_3  and  C1'_4 
REMARK    2  A    between atoms: C1'_4  and  C1_5 
ROOT
ATOM      1  C1  I4B d   1       1.495   1.288   0.253  0.00  0.00    -0.075 A 
ATOM      2  C2  I4B d   1       2.421   1.770  -0.639  0.00  0.00     0.003 A 
ATOM      3  C3  I4B d   1       3.227   2.883  -0.298  0.00  0.00     0.002 A 
ATOM      4  C4  I4B d   1       3.040   3.512   0.916  0.00  0.00    -0.004 A 
ATOM      5  C5  I4B d   1       2.116   3.008   1.828  0.00  0.00     0.002 A 
ATOM      6  C6  I4B d   1       1.348   1.882   1.500  0.00  0.00     0.003 A 
ENDROOT
BRANCH   1   7
ATOM      7  C1' I4B d   1       0.638   0.131  -0.153  0.00  0.00     0.060 C 
BRANCH   7   8
ATOM      8  C2' I4B d   1      -0.045  -0.402   1.090  0.00  0.00    -0.013 C 
ATOM      9  C4' I4B d   1      -1.525  -0.573   0.868  0.00  0.00     0.013 C 
ATOM     10  C3' I4B d   1       0.603  -1.704   1.452  0.00  0.00     0.013 C 
ENDBRANCH   7   8
ENDBRANCH   1   7
TORSDOF 2
ENDMDL
