MODEL 1
REMARK minimizedAffinity -2.67687559
REMARK minimizedRMSD -1
REMARK  2 active torsions:
REMARK  status: ('A' for Active; 'I' for Inactive)
REMARK    1  A    between atoms: C2'_3  and  C1'_4 
REMARK    2  A    between atoms: C1'_4  and  C1_5 
ROOT
ATOM      1  C1  I4B d   1       1.719   0.979   0.422  0.00  0.00    -0.075 A 
ATOM      2  C2  I4B d   1       3.037   1.013   0.041  0.00  0.00     0.003 A 
ATOM      3  C3  I4B d   1       3.842   2.135   0.355  0.00  0.00     0.002 A 
ATOM      4  C4  I4B d   1       3.278   3.215   1.003  0.00  0.00    -0.004 A 
ATOM      5  C5  I4B d   1       1.948   3.170   1.409  0.00  0.00     0.002 A 
ATOM      6  C6  I4B d   1       1.166   2.040   1.128  0.00  0.00     0.003 A 
ENDROOT
BRANCH   1   7
ATOM      7  C1' I4B d   1       0.890  -0.207   0.046  0.00  0.00     0.060 C 
BRANCH   7   8
ATOM      8  C2' I4B d   1      -0.436   0.299  -0.485  0.00  0.00    -0.013 C 
ATOM      9  C4' I4B d   1      -0.279   0.904  -1.856  0.00  0.00     0.013 C 
ATOM     10  C3' I4B d   1      -1.396  -0.852  -0.508  0.00  0.00     0.013 C 
ENDBRANCH   7   8
ENDBRANCH   1   7
TORSDOF 2
ENDMDL
