MODEL 1
REMARK minimizedAffinity -1.43812788
REMARK minimizedRMSD -1
REMARK  2 active torsions:
REMARK  status: ('A' for Active; 'I' for Inactive)
REMARK    1  A    between atoms: C2'_3  and  C1'_4 
REMARK    2  A    between atoms: C1'_4  and  C1_5 
ROOT
ATOM      1  C1  I4B d   1       1.102   0.517  -0.277  0.00  0.00    -0.075 A 
ATOM      2  C2  I4B d   1       0.400  -0.075   0.743  0.00  0.00     0.003 A 
ATOM      3  C3  I4B d   1      -0.877  -0.636   0.498  0.00  0.00     0.002 A 
ATOM      4  C4  I4B d   1      -1.432  -0.538  -0.762  0.00  0.00    -0.004 A 
ATOM      5  C5  I4B d   1      -0.709   0.043  -1.800  0.00  0.00     0.002 A 
ATOM      6  C6  I4B d   1       0.571   0.563  -1.560  0.00  0.00     0.003 A 
ENDROOT
BRANCH   1   7
ATOM      7  C1' I4B d   1       2.433   1.128   0.025  0.00  0.00     0.060 C 
BRANCH   7   8
ATOM      8  C2' I4B d   1       2.199   2.364   0.869  0.00  0.00    -0.013 C 
ATOM      9  C4' I4B d   1       2.683   2.160   2.281  0.00  0.00     0.013 C 
ATOM     10  C3' I4B d   1       2.908   3.513   0.216  0.00  0.00     0.013 C 
ENDBRANCH   7   8
ENDBRANCH   1   7
TORSDOF 2
ENDMDL
