MODEL 1
REMARK minimizedAffinity -2.77674747
REMARK minimizedRMSD -1
REMARK  2 active torsions:
REMARK  status: ('A' for Active; 'I' for Inactive)
REMARK    1  A    between atoms: C2'_3  and  C1'_4 
REMARK    2  A    between atoms: C1'_4  and  C1_5 
ROOT
ATOM      1  C1  I4B d   1       0.478   0.254  -0.258  0.00  0.00    -0.075 A 
ATOM      2  C2  I4B d   1       0.206   0.399  -1.596  0.00  0.00     0.003 A 
ATOM      3  C3  I4B d   1      -1.089   0.119  -2.094  0.00  0.00     0.002 A 
ATOM      4  C4  I4B d   1      -2.062  -0.349  -1.235  0.00  0.00    -0.004 A 
ATOM      5  C5  I4B d   1      -1.791  -0.474   0.125  0.00  0.00     0.002 A 
ATOM      6  C6  I4B d   1      -0.517  -0.158   0.619  0.00  0.00     0.003 A 
ENDROOT
BRANCH   1   7
ATOM      7  C1' I4B d   1       1.866   0.527   0.229  0.00  0.00     0.060 C 
BRANCH   7   8
ATOM      8  C2' I4B d   1       1.892   1.930   0.802  0.00  0.00    -0.013 C 
ATOM      9  C4' I4B d   1       1.838   1.905   2.307  0.00  0.00     0.013 C 
ATOM     10  C3' I4B d   1       3.139   2.605   0.315  0.00  0.00     0.013 C 
ENDBRANCH   7   8
ENDBRANCH   1   7
TORSDOF 2
ENDMDL
