MODEL 1
REMARK minimizedAffinity -5.9016428
REMARK minimizedRMSD -1
REMARK  2 active torsions:
REMARK  status: ('A' for Active; 'I' for Inactive)
REMARK    1  A    between atoms: C2'_3  and  C1'_4 
REMARK    2  A    between atoms: C1'_4  and  C1_5 
ROOT
ATOM      1  C1  I4B d   1       0.267  -0.040   0.204  0.00  0.00    -0.075 A 
ATOM      2  C2  I4B d   1      -0.036   0.347  -1.078  0.00  0.00     0.003 A 
ATOM      3  C3  I4B d   1      -1.335   0.136  -1.598  0.00  0.00     0.002 A 
ATOM      4  C4  I4B d   1      -2.281  -0.507  -0.825  0.00  0.00    -0.004 A 
ATOM      5  C5  I4B d   1      -1.979  -0.878   0.482  0.00  0.00     0.002 A 
ATOM      6  C6  I4B d   1      -0.702  -0.632   1.005  0.00  0.00     0.003 A 
ENDROOT
BRANCH   1   7
ATOM      7  C1' I4B d   1       1.659   0.169   0.711  0.00  0.00     0.060 C 
BRANCH   7   8
ATOM      8  C2' I4B d   1       1.813   1.635   1.060  0.00  0.00    -0.013 C 
ATOM      9  C4' I4B d   1       2.051   1.822   2.535  0.00  0.00     0.013 C 
ATOM     10  C3' I4B d   1       2.952   2.185   0.254  0.00  0.00     0.013 C 
ENDBRANCH   7   8
ENDBRANCH   1   7
TORSDOF 2
ENDMDL
