MODEL 1
REMARK minimizedAffinity -4.47573805
REMARK minimizedRMSD -1
REMARK  2 active torsions:
REMARK  status: ('A' for Active; 'I' for Inactive)
REMARK    1  A    between atoms: C2'_3  and  C1'_4 
REMARK    2  A    between atoms: C1'_4  and  C1_5 
ROOT
ATOM      1  C1  I4B d   1       0.694   0.114   0.139  0.00  0.00    -0.075 A 
ATOM      2  C2  I4B d   1       0.348   0.518  -1.127  0.00  0.00     0.003 A 
ATOM      3  C3  I4B d   1      -0.981   0.357  -1.588  0.00  0.00     0.002 A 
ATOM      4  C4  I4B d   1      -1.913  -0.254  -0.775  0.00  0.00    -0.004 A 
ATOM      5  C5  I4B d   1      -1.566  -0.642   0.516  0.00  0.00     0.002 A 
ATOM      6  C6  I4B d   1      -0.258  -0.446   0.981  0.00  0.00     0.003 A 
ENDROOT
BRANCH   1   7
ATOM      7  C1' I4B d   1       2.114   0.269   0.582  0.00  0.00     0.060 C 
BRANCH   7   8
ATOM      8  C2' I4B d   1       2.332   1.722   0.953  0.00  0.00    -0.013 C 
ATOM      9  C4' I4B d   1       2.319   1.911   2.447  0.00  0.00     0.013 C 
ATOM     10  C3' I4B d   1       3.639   2.160   0.363  0.00  0.00     0.013 C 
ENDBRANCH   7   8
ENDBRANCH   1   7
TORSDOF 2
ENDMDL
