MODEL 1
REMARK minimizedAffinity -4.78599834
REMARK minimizedRMSD -1
REMARK  2 active torsions:
REMARK  status: ('A' for Active; 'I' for Inactive)
REMARK    1  A    between atoms: C2'_3  and  C1'_4 
REMARK    2  A    between atoms: C1'_4  and  C1_5 
ROOT
ATOM      1  C1  I4B d   1       0.371  -0.222  -0.077  0.00  0.00    -0.075 A 
ATOM      2  C2  I4B d   1      -0.606  -0.836   0.667  0.00  0.00     0.003 A 
ATOM      3  C3  I4B d   1      -1.936  -0.900   0.185  0.00  0.00     0.002 A 
ATOM      4  C4  I4B d   1      -2.253  -0.296  -1.015  0.00  0.00    -0.004 A 
ATOM      5  C5  I4B d   1      -1.257   0.306  -1.779  0.00  0.00     0.002 A 
ATOM      6  C6  I4B d   1       0.065   0.333  -1.313  0.00  0.00     0.003 A 
ENDROOT
BRANCH   1   7
ATOM      7  C1' I4B d   1       1.758  -0.144   0.478  0.00  0.00     0.060 C 
BRANCH   7   8
ATOM      8  C2' I4B d   1       1.972   1.260   1.004  0.00  0.00    -0.013 C 
ATOM      9  C4' I4B d   1       2.294   1.248   2.475  0.00  0.00     0.013 C 
ATOM     10  C3' I4B d   1       3.080   1.887   0.212  0.00  0.00     0.013 C 
ENDBRANCH   7   8
ENDBRANCH   1   7
TORSDOF 2
ENDMDL
