MODEL 1
REMARK minimizedAffinity -0.893607974
REMARK minimizedRMSD -1
REMARK  0 active torsions:
REMARK  status: ('A' for Active; 'I' for Inactive)
ROOT
ATOM      1  C2' OXE d   1       1.825  -1.896  -0.650  0.00  0.00     0.078 C 
ATOM      2  C1' OXE d   1       1.918  -0.677   1.877  0.00  0.00     0.078 C 
ATOM      3  C1  OXE d   1       0.836  -0.237   0.924  0.00  0.00    -0.078 A 
ATOM      4  C2  OXE d   1       0.826  -0.805  -0.327  0.00  0.00    -0.078 A 
ATOM      5  C3  OXE d   1      -0.184  -0.475  -1.227  0.00  0.00     0.003 A 
ATOM      6  C4  OXE d   1      -1.098   0.541  -0.925  0.00  0.00    -0.002 A 
ATOM      7  C5  OXE d   1      -1.081   1.161   0.329  0.00  0.00    -0.002 A 
ATOM      8  C6  OXE d   1      -0.149   0.754   1.278  0.00  0.00     0.003 A 
ENDROOT
TORSDOF 0
ENDMDL
