MODEL 1
REMARK minimizedAffinity -5.52350569
REMARK minimizedRMSD -1
REMARK  0 active torsions:
REMARK  status: ('A' for Active; 'I' for Inactive)
ROOT
ATOM      1  C2' OXE d   1       0.168  -2.170  -0.709  0.00  0.00     0.078 C 
ATOM      2  C1' OXE d   1      -0.907   0.371  -0.189  0.00  0.00     0.078 C 
ATOM      3  C1  OXE d   1       0.583   0.193  -0.035  0.00  0.00    -0.078 A 
ATOM      4  C2  OXE d   1       1.094  -1.065  -0.246  0.00  0.00    -0.078 A 
ATOM      5  C3  OXE d   1       2.468  -1.273  -0.170  0.00  0.00     0.003 A 
ATOM      6  C4  OXE d   1       3.317  -0.249   0.268  0.00  0.00    -0.002 A 
ATOM      7  C5  OXE d   1       2.811   1.030   0.527  0.00  0.00    -0.002 A 
ATOM      8  C6  OXE d   1       1.456   1.278   0.339  0.00  0.00     0.003 A 
ENDROOT
TORSDOF 0
ENDMDL
