MODEL 1
REMARK minimizedAffinity -3.24821615
REMARK minimizedRMSD -1
REMARK  0 active torsions:
REMARK  status: ('A' for Active; 'I' for Inactive)
ROOT
ATOM      1  C2' OXE d   1       2.289   1.402   1.617  0.00  0.00     0.078 C 
ATOM      2  C1' OXE d   1       2.727  -1.299   0.987  0.00  0.00     0.078 C 
ATOM      3  C1  OXE d   1       1.450  -0.661   0.499  0.00  0.00    -0.078 A 
ATOM      4  C2  OXE d   1       1.222   0.648   0.852  0.00  0.00    -0.078 A 
ATOM      5  C3  OXE d   1       0.086   1.301   0.382  0.00  0.00     0.003 A 
ATOM      6  C4  OXE d   1      -0.899   0.594  -0.317  0.00  0.00    -0.002 A 
ATOM      7  C5  OXE d   1      -0.706  -0.751  -0.652  0.00  0.00    -0.002 A 
ATOM      8  C6  OXE d   1       0.480  -1.379  -0.290  0.00  0.00     0.003 A 
ENDROOT
TORSDOF 0
ENDMDL
