MODEL 1
REMARK minimizedAffinity -4.97034883
REMARK minimizedRMSD -1
REMARK  0 active torsions:
REMARK  status: ('A' for Active; 'I' for Inactive)
ROOT
ATOM      1  C2' OXE d   1      -0.268  -2.275  -0.713  0.00  0.00     0.078 C 
ATOM      2  C1' OXE d   1      -0.761   0.477  -0.460  0.00  0.00     0.078 C 
ATOM      3  C1  OXE d   1       0.541  -0.057   0.082  0.00  0.00    -0.078 A 
ATOM      4  C2  OXE d   1       0.754  -1.412  -0.005  0.00  0.00    -0.078 A 
ATOM      5  C3  OXE d   1       1.963  -1.949   0.430  0.00  0.00     0.003 A 
ATOM      6  C4  OXE d   1       2.898  -1.145   1.093  0.00  0.00    -0.002 A 
ATOM      7  C5  OXE d   1       2.683   0.231   1.227  0.00  0.00    -0.002 A 
ATOM      8  C6  OXE d   1       1.532   0.796   0.690  0.00  0.00     0.003 A 
ENDROOT
TORSDOF 0
ENDMDL
