MODEL 1
REMARK minimizedAffinity -5.64975977
REMARK minimizedRMSD -1
REMARK  0 active torsions:
REMARK  status: ('A' for Active; 'I' for Inactive)
ROOT
ATOM      1  C2' OXE d   1      -0.451  -2.098  -1.407  0.00  0.00     0.078 C 
ATOM      2  C1' OXE d   1      -0.939   0.621  -0.909  0.00  0.00     0.078 C 
ATOM      3  C1  OXE d   1       0.283  -0.001  -0.281  0.00  0.00    -0.078 A 
ATOM      4  C2  OXE d   1       0.488  -1.343  -0.492  0.00  0.00    -0.078 A 
ATOM      5  C3  OXE d   1       1.630  -1.955   0.019  0.00  0.00     0.003 A 
ATOM      6  C4  OXE d   1       2.489  -1.252   0.873  0.00  0.00    -0.002 A 
ATOM      7  C5  OXE d   1       2.276   0.106   1.133  0.00  0.00    -0.002 A 
ATOM      8  C6  OXE d   1       1.204   0.756   0.531  0.00  0.00     0.003 A 
ENDROOT
TORSDOF 0
ENDMDL
