MODEL 1
REMARK minimizedAffinity -4.03141832
REMARK minimizedRMSD -1
REMARK  0 active torsions:
REMARK  status: ('A' for Active; 'I' for Inactive)
ROOT
ATOM      1  C2' OXE d   1      -0.066  -1.908  -0.424  0.00  0.00     0.078 C 
ATOM      2  C1' OXE d   1       2.325  -1.436   0.969  0.00  0.00     0.078 C 
ATOM      3  C1  OXE d   1       1.572  -0.241   0.439  0.00  0.00    -0.078 A 
ATOM      4  C2  OXE d   1       0.427  -0.484  -0.281  0.00  0.00    -0.078 A 
ATOM      5  C3  OXE d   1      -0.335   0.584  -0.745  0.00  0.00     0.003 A 
ATOM      6  C4  OXE d   1       0.133   1.898  -0.617  0.00  0.00    -0.002 A 
ATOM      7  C5  OXE d   1       1.317   2.164   0.079  0.00  0.00    -0.002 A 
ATOM      8  C6  OXE d   1       2.024   1.112   0.649  0.00  0.00     0.003 A 
ENDROOT
TORSDOF 0
ENDMDL
