MODEL 1
REMARK minimizedAffinity -5.10720253
REMARK minimizedRMSD -1
REMARK  0 active torsions:
REMARK  status: ('A' for Active; 'I' for Inactive)
ROOT
ATOM      1  C2' OXE d   1      -0.926   0.813  -0.019  0.00  0.00     0.078 C 
ATOM      2  C1' OXE d   1       1.578   1.879   0.665  0.00  0.00     0.078 C 
ATOM      3  C1  OXE d   1       1.444   0.378   0.612  0.00  0.00    -0.078 A 
ATOM      4  C2  OXE d   1       0.203  -0.136   0.322  0.00  0.00    -0.078 A 
ATOM      5  C3  OXE d   1       0.037  -1.513   0.206  0.00  0.00     0.003 A 
ATOM      6  C4  OXE d   1       1.084  -2.383   0.533  0.00  0.00    -0.002 A 
ATOM      7  C5  OXE d   1       2.345  -1.881   0.869  0.00  0.00    -0.002 A 
ATOM      8  C6  OXE d   1       2.553  -0.506   0.872  0.00  0.00     0.003 A 
ENDROOT
TORSDOF 0
ENDMDL
