MODEL 1
REMARK minimizedAffinity -2.67237759
REMARK minimizedRMSD -1
REMARK  0 active torsions:
REMARK  status: ('A' for Active; 'I' for Inactive)
ROOT
ATOM      1  C2' OXE d   1       2.223   1.508   1.401  0.00  0.00     0.078 C 
ATOM      2  C1' OXE d   1       3.190  -1.123   1.249  0.00  0.00     0.078 C 
ATOM      3  C1  OXE d   1       1.863  -0.823   0.598  0.00  0.00    -0.078 A 
ATOM      4  C2  OXE d   1       1.376   0.457   0.717  0.00  0.00    -0.078 A 
ATOM      5  C3  OXE d   1       0.183   0.801   0.089  0.00  0.00     0.003 A 
ATOM      6  C4  OXE d   1      -0.600  -0.180  -0.533  0.00  0.00    -0.002 A 
ATOM      7  C5  OXE d   1      -0.140  -1.497  -0.632  0.00  0.00    -0.002 A 
ATOM      8  C6  OXE d   1       1.106  -1.825  -0.110  0.00  0.00     0.003 A 
ENDROOT
TORSDOF 0
ENDMDL
