MODEL 1
REMARK minimizedAffinity -1.47209346
REMARK minimizedRMSD -1
REMARK  0 active torsions:
REMARK  status: ('A' for Active; 'I' for Inactive)
ROOT
ATOM      1  C   UNL d   1       0.594  -1.012  -1.132  0.00  0.00     0.077 C 
ATOM      2  C1  UNL d   1       0.814  -0.384  -2.476  0.00  0.00    -0.074 A 
ATOM      3  C2  UNL d   1       1.956   0.382  -2.733  0.00  0.00    -0.005 A 
ATOM      4  C3  UNL d   1       2.152   0.952  -3.991  0.00  0.00     0.006 A 
ATOM      5  C4  UNL d   1       1.210   0.763  -5.002  0.00  0.00    -0.005 A 
ATOM      6  C5  UNL d   1       0.062   0.000  -4.764  0.00  0.00    -0.074 A 
ATOM      7  C6  UNL d   1      -0.955  -0.221  -5.844  0.00  0.00     0.077 C 
ATOM      8  C7  UNL d   1      -0.124  -0.575  -3.500  0.00  0.00    -0.001 A 
ENDROOT
TORSDOF 0
ENDMDL
