MODEL 1
REMARK minimizedAffinity -4.00212288
REMARK minimizedRMSD -1
REMARK  0 active torsions:
REMARK  status: ('A' for Active; 'I' for Inactive)
ROOT
ATOM      1  C   UNL d   1       0.135   1.041  -3.943  0.00  0.00     0.077 C 
ATOM      2  C1  UNL d   1       0.418   0.267  -2.690  0.00  0.00    -0.074 A 
ATOM      3  C2  UNL d   1       1.143  -0.928  -2.732  0.00  0.00    -0.005 A 
ATOM      4  C3  UNL d   1       1.407  -1.631  -1.557  0.00  0.00     0.006 A 
ATOM      5  C4  UNL d   1       0.949  -1.148  -0.330  0.00  0.00    -0.005 A 
ATOM      6  C5  UNL d   1       0.223   0.045  -0.269  0.00  0.00    -0.074 A 
ATOM      7  C6  UNL d   1      -0.268   0.584   1.042  0.00  0.00     0.077 C 
ATOM      8  C7  UNL d   1      -0.032   0.750  -1.453  0.00  0.00    -0.001 A 
ENDROOT
TORSDOF 0
ENDMDL
