MODEL 1
REMARK minimizedAffinity -3.0144794
REMARK minimizedRMSD -1
REMARK  0 active torsions:
REMARK  status: ('A' for Active; 'I' for Inactive)
ROOT
ATOM      1  C   UNL d   1       2.288  -1.355   0.743  0.00  0.00     0.077 C 
ATOM      2  C1  UNL d   1       1.015  -0.577   0.589  0.00  0.00    -0.074 A 
ATOM      3  C2  UNL d   1       0.181  -0.773  -0.516  0.00  0.00    -0.005 A 
ATOM      4  C3  UNL d   1      -1.005  -0.049  -0.641  0.00  0.00     0.006 A 
ATOM      5  C4  UNL d   1      -1.368   0.877   0.337  0.00  0.00    -0.005 A 
ATOM      6  C5  UNL d   1      -0.548   1.087   1.450  0.00  0.00    -0.074 A 
ATOM      7  C6  UNL d   1      -0.929   2.071   2.515  0.00  0.00     0.077 C 
ATOM      8  C7  UNL d   1       0.638   0.350   1.572  0.00  0.00    -0.001 A 
ENDROOT
TORSDOF 0
ENDMDL
