MODEL 1
REMARK minimizedAffinity -3.06407738
REMARK minimizedRMSD -1
REMARK  0 active torsions:
REMARK  status: ('A' for Active; 'I' for Inactive)
ROOT
ATOM      1  C   UNL d   1      -0.636   0.346   0.408  0.00  0.00     0.077 C 
ATOM      2  C1  UNL d   1       0.162   0.003  -0.815  0.00  0.00    -0.074 A 
ATOM      3  C2  UNL d   1       0.890  -1.189  -0.888  0.00  0.00    -0.005 A 
ATOM      4  C3  UNL d   1       1.620  -1.498  -2.035  0.00  0.00     0.006 A 
ATOM      5  C4  UNL d   1       1.630  -0.621  -3.120  0.00  0.00    -0.005 A 
ATOM      6  C5  UNL d   1       0.907   0.576  -3.066  0.00  0.00    -0.074 A 
ATOM      7  C6  UNL d   1       0.899   1.526  -4.227  0.00  0.00     0.077 C 
ATOM      8  C7  UNL d   1       0.171   0.876  -1.912  0.00  0.00    -0.001 A 
ENDROOT
TORSDOF 0
ENDMDL
