MODEL 1
REMARK minimizedAffinity -3.34551764
REMARK minimizedRMSD -1
REMARK  0 active torsions:
REMARK  status: ('A' for Active; 'I' for Inactive)
ROOT
ATOM      1  C   UNL d   1      -3.050  -0.685   3.190  0.00  0.00     0.077 C 
ATOM      2  C1  UNL d   1      -1.952   0.048   2.479  0.00  0.00    -0.074 A 
ATOM      3  C2  UNL d   1      -1.229   1.058   3.122  0.00  0.00    -0.005 A 
ATOM      4  C3  UNL d   1      -0.204   1.725   2.451  0.00  0.00     0.006 A 
ATOM      5  C4  UNL d   1       0.107   1.389   1.133  0.00  0.00    -0.005 A 
ATOM      6  C5  UNL d   1      -0.604   0.382   0.474  0.00  0.00    -0.074 A 
ATOM      7  C6  UNL d   1      -0.276   0.002  -0.939  0.00  0.00     0.077 C 
ATOM      8  C7  UNL d   1      -1.628  -0.288   1.158  0.00  0.00    -0.001 A 
ENDROOT
TORSDOF 0
ENDMDL
