MODEL 1
REMARK minimizedAffinity -3.39383817
REMARK minimizedRMSD -1
REMARK  0 active torsions:
REMARK  status: ('A' for Active; 'I' for Inactive)
ROOT
ATOM      1  C   UNL d   1       0.357  -0.250  -1.087  0.00  0.00     0.077 C 
ATOM      2  C1  UNL d   1      -0.050   0.024   0.330  0.00  0.00    -0.074 A 
ATOM      3  C2  UNL d   1      -1.282   0.620   0.622  0.00  0.00    -0.005 A 
ATOM      4  C3  UNL d   1      -1.652   0.860   1.945  0.00  0.00     0.006 A 
ATOM      5  C4  UNL d   1      -0.795   0.508   2.989  0.00  0.00    -0.005 A 
ATOM      6  C5  UNL d   1       0.440  -0.089   2.717  0.00  0.00    -0.074 A 
ATOM      7  C6  UNL d   1       1.368  -0.482   3.828  0.00  0.00     0.077 C 
ATOM      8  C7  UNL d   1       0.801  -0.334   1.385  0.00  0.00    -0.001 A 
ENDROOT
TORSDOF 0
ENDMDL
