MODEL 1
REMARK minimizedAffinity -3.31667876
REMARK minimizedRMSD -1
REMARK  0 active torsions:
REMARK  status: ('A' for Active; 'I' for Inactive)
ROOT
ATOM      1  C   UNL d   1       0.337  -0.883  -1.876  0.00  0.00     0.077 C 
ATOM      2  C1  UNL d   1       0.694  -0.512  -0.468  0.00  0.00    -0.074 A 
ATOM      3  C2  UNL d   1       1.937  -0.856   0.074  0.00  0.00    -0.005 A 
ATOM      4  C3  UNL d   1       2.258  -0.496   1.382  0.00  0.00     0.006 A 
ATOM      5  C4  UNL d   1       1.342   0.211   2.162  0.00  0.00    -0.005 A 
ATOM      6  C5  UNL d   1       0.094   0.564   1.637  0.00  0.00    -0.074 A 
ATOM      7  C6  UNL d   1      -0.898   1.333   2.458  0.00  0.00     0.077 C 
ATOM      8  C7  UNL d   1      -0.218   0.205   0.319  0.00  0.00    -0.001 A 
ENDROOT
TORSDOF 0
ENDMDL
