MODEL 1
REMARK minimizedAffinity -4.40791893
REMARK minimizedRMSD -1
REMARK  0 active torsions:
REMARK  status: ('A' for Active; 'I' for Inactive)
ROOT
ATOM      1  C   UNL d   1       2.607   0.381   3.081  0.00  0.00     0.077 C 
ATOM      2  C1  UNL d   1       1.232   0.306   2.485  0.00  0.00    -0.074 A 
ATOM      3  C2  UNL d   1       0.093   0.412   3.290  0.00  0.00    -0.005 A 
ATOM      4  C3  UNL d   1      -1.178   0.350   2.720  0.00  0.00     0.006 A 
ATOM      5  C4  UNL d   1      -1.324   0.179   1.343  0.00  0.00    -0.005 A 
ATOM      6  C5  UNL d   1      -0.196   0.072   0.522  0.00  0.00    -0.074 A 
ATOM      7  C6  UNL d   1      -0.334  -0.102  -0.961  0.00  0.00     0.077 C 
ATOM      8  C7  UNL d   1       1.078   0.143   1.101  0.00  0.00    -0.001 A 
ENDROOT
TORSDOF 0
ENDMDL
