MODEL 1
REMARK minimizedAffinity -5.00516605
REMARK minimizedRMSD -1
REMARK  0 active torsions:
REMARK  status: ('A' for Active; 'I' for Inactive)
ROOT
ATOM      1  C   UNL d   1       0.553  -0.566  -1.438  0.00  0.00     0.077 C 
ATOM      2  C1  UNL d   1       0.677  -0.438   0.051  0.00  0.00    -0.074 A 
ATOM      3  C2  UNL d   1       1.810  -0.912   0.721  0.00  0.00    -0.005 A 
ATOM      4  C3  UNL d   1       1.915  -0.777   2.105  0.00  0.00     0.006 A 
ATOM      5  C4  UNL d   1       0.891  -0.169   2.832  0.00  0.00    -0.005 A 
ATOM      6  C5  UNL d   1      -0.248   0.311   2.179  0.00  0.00    -0.074 A 
ATOM      7  C6  UNL d   1      -1.353   0.976   2.945  0.00  0.00     0.077 C 
ATOM      8  C7  UNL d   1      -0.344   0.179   0.787  0.00  0.00    -0.001 A 
ENDROOT
TORSDOF 0
ENDMDL
