MODEL 1
REMARK minimizedAffinity -3.60934091
REMARK minimizedRMSD -1
REMARK  0 active torsions:
REMARK  status: ('A' for Active; 'I' for Inactive)
ROOT
ATOM      1  C   UNL d   1       0.357  -0.389  -2.147  0.00  0.00     0.077 C 
ATOM      2  C1  UNL d   1      -0.323  -0.013  -0.864  0.00  0.00    -0.074 A 
ATOM      3  C2  UNL d   1      -1.706  -0.159  -0.715  0.00  0.00    -0.005 A 
ATOM      4  C3  UNL d   1      -2.324   0.186   0.488  0.00  0.00     0.006 A 
ATOM      5  C4  UNL d   1      -1.566   0.678   1.551  0.00  0.00    -0.005 A 
ATOM      6  C5  UNL d   1      -0.181   0.830   1.420  0.00  0.00    -0.074 A 
ATOM      7  C6  UNL d   1       0.649   1.348   2.556  0.00  0.00     0.077 C 
ATOM      8  C7  UNL d   1       0.432   0.475   0.211  0.00  0.00    -0.001 A 
ENDROOT
TORSDOF 0
ENDMDL
