MODEL 1
REMARK minimizedAffinity 15.6215477
REMARK minimizedRMSD -1
REMARK  0 active torsions:
REMARK  status: ('A' for Active; 'I' for Inactive)
ROOT
ATOM      1  C   UNL d   1       4.326   1.251   0.468  0.00  0.00     0.124 A 
ATOM      2  C1  UNL d   1       4.600   1.905   1.661  0.00  0.00     0.062 A 
ATOM      3  C2  UNL d   1       3.636   1.967   2.663  0.00  0.00     0.162 A 
ATOM      4  C3  UNL d   1       2.388   1.372   2.476  0.00  0.00    -0.034 A 
ATOM      5  C4  UNL d   1       2.119   0.717   1.273  0.00  0.00     0.162 A 
ATOM      6  C5  UNL d   1       3.086   0.658   0.275  0.00  0.00     0.062 A 
ATOM      7  F   UNL d   1       2.820   0.026  -0.878  0.00  0.00    -0.097 F 
ATOM      8  F1  UNL d   1       0.930   0.134   1.060  0.00  0.00    -0.096 F 
ATOM      9  I   UNL d   1       0.943   1.462   3.971  0.00  0.00    -0.060 I 
ATOM     10  F2  UNL d   1       3.928   2.605   3.806  0.00  0.00    -0.096 F 
ATOM     11  F3  UNL d   1       5.796   2.480   1.849  0.00  0.00    -0.097 F 
ATOM     12  F4  UNL d   1       5.255   1.194  -0.495  0.00  0.00    -0.092 F 
ENDROOT
TORSDOF 0
ENDMDL
