MODEL 1
REMARK minimizedAffinity 27.6369724
REMARK minimizedRMSD -1
REMARK  0 active torsions:
REMARK  status: ('A' for Active; 'I' for Inactive)
ROOT
ATOM      1  C   UNL d   1       2.298   0.965  -0.110  0.00  0.00     0.124 A 
ATOM      2  C1  UNL d   1       3.385   1.437  -0.832  0.00  0.00     0.062 A 
ATOM      3  C2  UNL d   1       4.232   2.392  -0.277  0.00  0.00     0.162 A 
ATOM      4  C3  UNL d   1       3.996   2.880   1.009  0.00  0.00    -0.034 A 
ATOM      5  C4  UNL d   1       2.900   2.401   1.728  0.00  0.00     0.162 A 
ATOM      6  C5  UNL d   1       2.056   1.446   1.169  0.00  0.00     0.062 A 
ATOM      7  F   UNL d   1       1.006   0.991   1.867  0.00  0.00    -0.097 F 
ATOM      8  F1  UNL d   1       2.644   2.848   2.966  0.00  0.00    -0.096 F 
ATOM      9  I   UNL d   1       5.260   4.308   1.842  0.00  0.00    -0.060 I 
ATOM     10  F2  UNL d   1       5.275   2.831  -0.997  0.00  0.00    -0.096 F 
ATOM     11  F3  UNL d   1       3.620   0.974  -2.068  0.00  0.00    -0.097 F 
ATOM     12  F4  UNL d   1       1.484   0.047  -0.647  0.00  0.00    -0.092 F 
ENDROOT
TORSDOF 0
ENDMDL
