MODEL 1
REMARK minimizedAffinity 10.0263815
REMARK minimizedRMSD -1
REMARK  0 active torsions:
REMARK  status: ('A' for Active; 'I' for Inactive)
ROOT
ATOM      1  C   UNL d   1      -5.540   1.443  -1.911  0.00  0.00     0.124 A 
ATOM      2  C1  UNL d   1      -5.168   0.840  -0.718  0.00  0.00     0.062 A 
ATOM      3  C2  UNL d   1      -4.871   1.618   0.397  0.00  0.00     0.162 A 
ATOM      4  C3  UNL d   1      -4.946   3.009   0.325  0.00  0.00    -0.034 A 
ATOM      5  C4  UNL d   1      -5.320   3.609  -0.879  0.00  0.00     0.162 A 
ATOM      6  C5  UNL d   1      -5.616   2.827  -1.990  0.00  0.00     0.062 A 
ATOM      7  F   UNL d   1      -5.975   3.412  -3.142  0.00  0.00    -0.097 F 
ATOM      8  F1  UNL d   1      -5.401   4.944  -0.983  0.00  0.00    -0.096 F 
ATOM      9  I   UNL d   1      -4.502   4.176   1.990  0.00  0.00    -0.060 I 
ATOM     10  F2  UNL d   1      -4.514   1.008   1.537  0.00  0.00    -0.096 F 
ATOM     11  F3  UNL d   1      -5.094  -0.497  -0.639  0.00  0.00    -0.097 F 
ATOM     12  F4  UNL d   1      -5.825   0.692  -2.983  0.00  0.00    -0.092 F 
ENDROOT
TORSDOF 0
ENDMDL
