MODEL 1
REMARK minimizedAffinity 20.139782
REMARK minimizedRMSD -1
REMARK  0 active torsions:
REMARK  status: ('A' for Active; 'I' for Inactive)
ROOT
ATOM      1  C   UNL d   1       3.069  -0.380   0.539  0.00  0.00     0.124 A 
ATOM      2  C1  UNL d   1       2.159   0.538   0.032  0.00  0.00     0.062 A 
ATOM      3  C2  UNL d   1       2.539   1.861  -0.172  0.00  0.00     0.162 A 
ATOM      4  C3  UNL d   1       3.836   2.276   0.131  0.00  0.00    -0.034 A 
ATOM      5  C4  UNL d   1       4.745   1.348   0.642  0.00  0.00     0.162 A 
ATOM      6  C5  UNL d   1       4.360   0.026   0.844  0.00  0.00     0.062 A 
ATOM      7  F   UNL d   1       5.241  -0.859   1.334  0.00  0.00    -0.097 F 
ATOM      8  F1  UNL d   1       6.000   1.712   0.944  0.00  0.00    -0.096 F 
ATOM      9  I   UNL d   1       4.408   4.254  -0.172  0.00  0.00    -0.060 I 
ATOM     10  F2  UNL d   1       1.639   2.726  -0.664  0.00  0.00    -0.096 F 
ATOM     11  F3  UNL d   1       0.910   0.148  -0.263  0.00  0.00    -0.097 F 
ATOM     12  F4  UNL d   1       2.700  -1.652   0.735  0.00  0.00    -0.092 F 
ENDROOT
TORSDOF 0
ENDMDL
