MODEL 1
REMARK minimizedAffinity 10.3423939
REMARK minimizedRMSD -1
REMARK  0 active torsions:
REMARK  status: ('A' for Active; 'I' for Inactive)
ROOT
ATOM      1  C   UNL d   1       4.304   1.809  -1.476  0.00  0.00     0.124 A 
ATOM      2  C1  UNL d   1       3.444   1.155  -0.604  0.00  0.00     0.062 A 
ATOM      3  C2  UNL d   1       3.441   1.480   0.749  0.00  0.00     0.162 A 
ATOM      4  C3  UNL d   1       4.299   2.465   1.239  0.00  0.00    -0.034 A 
ATOM      5  C4  UNL d   1       5.161   3.117   0.356  0.00  0.00     0.162 A 
ATOM      6  C5  UNL d   1       5.161   2.789  -0.996  0.00  0.00     0.062 A 
ATOM      7  F   UNL d   1       5.992   3.421  -1.837  0.00  0.00    -0.097 F 
ATOM      8  F1  UNL d   1       5.999   4.068   0.793  0.00  0.00    -0.096 F 
ATOM      9  I   UNL d   1       4.297   2.953   3.262  0.00  0.00    -0.060 I 
ATOM     10  F2  UNL d   1       2.600   0.832   1.570  0.00  0.00    -0.096 F 
ATOM     11  F3  UNL d   1       2.616   0.208  -1.066  0.00  0.00    -0.097 F 
ATOM     12  F4  UNL d   1       4.306   1.494  -2.778  0.00  0.00    -0.092 F 
ENDROOT
TORSDOF 0
ENDMDL
