MODEL 1
REMARK minimizedAffinity 6.06199503
REMARK minimizedRMSD -1
REMARK  0 active torsions:
REMARK  status: ('A' for Active; 'I' for Inactive)
ROOT
ATOM      1  C   UNL d   1       2.320   0.646  -0.519  0.00  0.00     0.124 A 
ATOM      2  C1  UNL d   1       3.467   1.166  -1.104  0.00  0.00     0.062 A 
ATOM      3  C2  UNL d   1       4.288   2.031  -0.387  0.00  0.00     0.162 A 
ATOM      4  C3  UNL d   1       3.966   2.382   0.924  0.00  0.00    -0.034 A 
ATOM      5  C4  UNL d   1       2.811   1.856   1.506  0.00  0.00     0.162 A 
ATOM      6  C5  UNL d   1       1.994   0.991   0.785  0.00  0.00     0.062 A 
ATOM      7  F   UNL d   1       0.887   0.490   1.352  0.00  0.00    -0.097 F 
ATOM      8  F1  UNL d   1       2.472   2.172   2.764  0.00  0.00    -0.096 F 
ATOM      9  I   UNL d   1       5.191   3.676   2.000  0.00  0.00    -0.060 I 
ATOM     10  F2  UNL d   1       5.389   2.518  -0.978  0.00  0.00    -0.096 F 
ATOM     11  F3  UNL d   1       3.784   0.834  -2.364  0.00  0.00    -0.097 F 
ATOM     12  F4  UNL d   1       1.532  -0.186  -1.212  0.00  0.00    -0.092 F 
ENDROOT
TORSDOF 0
ENDMDL
