MODEL 1
REMARK minimizedAffinity 15.9278698
REMARK minimizedRMSD -1
REMARK  0 active torsions:
REMARK  status: ('A' for Active; 'I' for Inactive)
ROOT
ATOM      1  C   UNL d   1       3.924   1.537  -0.025  0.00  0.00     0.124 A 
ATOM      2  C1  UNL d   1       2.817   0.796   0.367  0.00  0.00     0.062 A 
ATOM      3  C2  UNL d   1       2.282   0.960   1.641  0.00  0.00     0.162 A 
ATOM      4  C3  UNL d   1       2.852   1.869   2.533  0.00  0.00    -0.034 A 
ATOM      5  C4  UNL d   1       3.965   2.609   2.132  0.00  0.00     0.162 A 
ATOM      6  C5  UNL d   1       4.496   2.442   0.857  0.00  0.00     0.062 A 
ATOM      7  F   UNL d   1       5.565   3.159   0.480  0.00  0.00    -0.097 F 
ATOM      8  F1  UNL d   1       4.537   3.492   2.964  0.00  0.00    -0.096 F 
ATOM      9  I   UNL d   1       2.054   2.115   4.439  0.00  0.00    -0.060 I 
ATOM     10  F2  UNL d   1       1.212   0.231   1.994  0.00  0.00    -0.096 F 
ATOM     11  F3  UNL d   1       2.263  -0.080  -0.483  0.00  0.00    -0.097 F 
ATOM     12  F4  UNL d   1       4.438   1.377  -1.251  0.00  0.00    -0.092 F 
ENDROOT
TORSDOF 0
ENDMDL
