MODEL 1
REMARK minimizedAffinity -0.982848346
REMARK minimizedRMSD -1
REMARK  0 active torsions:
REMARK  status: ('A' for Active; 'I' for Inactive)
ROOT
ATOM      1  C   UNL d   1       0.455  -1.340  -0.472  0.00  0.00     0.124 A 
ATOM      2  C1  UNL d   1       0.176   0.016  -0.579  0.00  0.00     0.062 A 
ATOM      3  C2  UNL d   1       1.213   0.940  -0.662  0.00  0.00     0.162 A 
ATOM      4  C3  UNL d   1       2.541   0.512  -0.640  0.00  0.00    -0.034 A 
ATOM      5  C4  UNL d   1       2.814  -0.853  -0.531  0.00  0.00     0.162 A 
ATOM      6  C5  UNL d   1       1.774  -1.773  -0.449  0.00  0.00     0.062 A 
ATOM      7  F   UNL d   1       2.045  -3.082  -0.345  0.00  0.00    -0.097 F 
ATOM      8  F1  UNL d   1       4.079  -1.299  -0.507  0.00  0.00    -0.096 F 
ATOM      9  I   UNL d   1       4.095   1.890  -0.764  0.00  0.00    -0.060 I 
ATOM     10  F2  UNL d   1       0.914   2.243  -0.765  0.00  0.00    -0.096 F 
ATOM     11  F3  UNL d   1      -1.097   0.437  -0.602  0.00  0.00    -0.097 F 
ATOM     12  F4  UNL d   1      -0.545  -2.227  -0.392  0.00  0.00    -0.092 F 
ENDROOT
TORSDOF 0
ENDMDL
