MODEL 1
REMARK minimizedAffinity -3.37958074
REMARK minimizedRMSD -1
REMARK  0 active torsions:
REMARK  status: ('A' for Active; 'I' for Inactive)
ROOT
ATOM      1  C   UNL d   1      -3.050   0.159  -2.197  0.00  0.00     0.023 A 
ATOM      2  C1  UNL d   1      -1.813  -0.070  -2.800  0.00  0.00     0.003 A 
ATOM      3  C2  UNL d   1      -0.636   0.109  -2.071  0.00  0.00     0.048 A 
ATOM      4  C3  UNL d   1      -0.703   0.516  -0.739  0.00  0.00     0.023 A 
ATOM      5  C4  UNL d   1      -1.938   0.745  -0.131  0.00  0.00     0.048 A 
ATOM      6  C5  UNL d   1      -3.112   0.566  -0.864  0.00  0.00     0.003 A 
ATOM      7  I   UNL d   1       1.049   0.782   0.349  0.00  0.00    -0.146 I 
ENDROOT
TORSDOF 0
ENDMDL
