MODEL 1
REMARK minimizedAffinity 2.86890888
REMARK minimizedRMSD -1
REMARK  0 active torsions:
REMARK  status: ('A' for Active; 'I' for Inactive)
ROOT
ATOM      1  C   UNL d   1       0.036  -0.554   0.551  0.00  0.00     0.023 A 
ATOM      2  C1  UNL d   1      -0.525   0.717   0.420  0.00  0.00     0.003 A 
ATOM      3  C2  UNL d   1      -1.245   1.049  -0.729  0.00  0.00     0.048 A 
ATOM      4  C3  UNL d   1      -1.403   0.105  -1.743  0.00  0.00     0.023 A 
ATOM      5  C4  UNL d   1      -0.845  -1.169  -1.616  0.00  0.00     0.048 A 
ATOM      6  C5  UNL d   1      -0.124  -1.495  -0.466  0.00  0.00     0.003 A 
ATOM      7  I   UNL d   1      -2.475   0.596  -3.454  0.00  0.00    -0.146 I 
ENDROOT
TORSDOF 0
ENDMDL
