MODEL 1
REMARK minimizedAffinity -4.68222141
REMARK minimizedRMSD -1
REMARK  0 active torsions:
REMARK  status: ('A' for Active; 'I' for Inactive)
ROOT
ATOM      1  C   UNL d   1       2.997  -0.903   1.792  0.00  0.00     0.023 A 
ATOM      2  C1  UNL d   1       2.827   0.313   1.129  0.00  0.00     0.003 A 
ATOM      3  C2  UNL d   1       1.643   0.572   0.436  0.00  0.00     0.048 A 
ATOM      4  C3  UNL d   1       0.633  -0.389   0.410  0.00  0.00     0.023 A 
ATOM      5  C4  UNL d   1       0.798  -1.607   1.072  0.00  0.00     0.048 A 
ATOM      6  C5  UNL d   1       1.985  -1.862   1.763  0.00  0.00     0.003 A 
ATOM      7  I   UNL d   1      -1.131  -0.006  -0.621  0.00  0.00    -0.146 I 
ENDROOT
TORSDOF 0
ENDMDL
