MODEL 1
REMARK minimizedAffinity 1.12512207
REMARK minimizedRMSD -1
REMARK  0 active torsions:
REMARK  status: ('A' for Active; 'I' for Inactive)
ROOT
ATOM      1  C   UNL d   1       1.993  -0.294   3.245  0.00  0.00     0.023 A 
ATOM      2  C1  UNL d   1       2.202   0.764   2.360  0.00  0.00     0.003 A 
ATOM      3  C2  UNL d   1       1.398   0.897   1.226  0.00  0.00     0.048 A 
ATOM      4  C3  UNL d   1       0.384  -0.030   0.985  0.00  0.00     0.023 A 
ATOM      5  C4  UNL d   1       0.171  -1.090   1.868  0.00  0.00     0.048 A 
ATOM      6  C5  UNL d   1       0.978  -1.219   2.999  0.00  0.00     0.003 A 
ATOM      7  I   UNL d   1      -0.815   0.166  -0.701  0.00  0.00    -0.146 I 
ENDROOT
TORSDOF 0
ENDMDL
