MODEL 1
REMARK minimizedAffinity -2.51674819
REMARK minimizedRMSD -1
REMARK  0 active torsions:
REMARK  status: ('A' for Active; 'I' for Inactive)
ROOT
ATOM      1  C   UNL d   1       2.560   0.852   1.700  0.00  0.00     0.023 A 
ATOM      2  C1  UNL d   1       2.768  -0.524   1.608  0.00  0.00     0.003 A 
ATOM      3  C2  UNL d   1       1.838  -1.330   0.948  0.00  0.00     0.048 A 
ATOM      4  C3  UNL d   1       0.703  -0.752   0.381  0.00  0.00     0.023 A 
ATOM      5  C4  UNL d   1       0.491   0.625   0.470  0.00  0.00     0.048 A 
ATOM      6  C5  UNL d   1       1.423   1.426   1.132  0.00  0.00     0.003 A 
ATOM      7  I   UNL d   1      -0.683  -1.949  -0.603  0.00  0.00    -0.146 I 
ENDROOT
TORSDOF 0
ENDMDL
