MODEL 1
REMARK minimizedAffinity -3.47053981
REMARK minimizedRMSD -1
REMARK  0 active torsions:
REMARK  status: ('A' for Active; 'I' for Inactive)
ROOT
ATOM      1  C   UNL d   1      -3.783  -0.276  -3.549  0.00  0.00     0.023 A 
ATOM      2  C1  UNL d   1      -3.608   0.936  -2.883  0.00  0.00     0.003 A 
ATOM      3  C2  UNL d   1      -2.680   1.036  -1.843  0.00  0.00     0.048 A 
ATOM      4  C3  UNL d   1      -1.931  -0.081  -1.476  0.00  0.00     0.023 A 
ATOM      5  C4  UNL d   1      -2.102  -1.297  -2.141  0.00  0.00     0.048 A 
ATOM      6  C5  UNL d   1      -3.031  -1.392  -3.179  0.00  0.00     0.003 A 
ATOM      7  I   UNL d   1      -0.550   0.065   0.070  0.00  0.00    -0.146 I 
ENDROOT
TORSDOF 0
ENDMDL
