MODEL 1
REMARK minimizedAffinity -4.73303604
REMARK minimizedRMSD -1
REMARK  0 active torsions:
REMARK  status: ('A' for Active; 'I' for Inactive)
ROOT
ATOM      1  C   UNL d   1       2.814   0.179   1.129  0.00  0.00     0.023 A 
ATOM      2  C1  UNL d   1       2.052   1.335   0.964  0.00  0.00     0.003 A 
ATOM      3  C2  UNL d   1       0.719   1.243   0.560  0.00  0.00     0.048 A 
ATOM      4  C3  UNL d   1       0.153  -0.010   0.323  0.00  0.00     0.023 A 
ATOM      5  C4  UNL d   1       0.912  -1.170   0.488  0.00  0.00     0.048 A 
ATOM      6  C5  UNL d   1       2.245  -1.072   0.891  0.00  0.00     0.003 A 
ATOM      7  I   UNL d   1      -1.831  -0.151  -0.278  0.00  0.00    -0.146 I 
ENDROOT
TORSDOF 0
ENDMDL
