MODEL 1
REMARK minimizedAffinity -5.01607084
REMARK minimizedRMSD -1
REMARK  1 active torsions:
REMARK  status: ('A' for Active; 'I' for Inactive)
REMARK    1  A    between atoms: C3_4  and  O_7 
ROOT
ATOM      1  C   UNL d   1      -0.669   0.425   0.336  0.00  0.00    -0.033 A 
ATOM      2  C1  UNL d   1       0.168   1.488   0.682  0.00  0.00     0.039 A 
ATOM      3  C2  UNL d   1       1.549   1.297   0.752  0.00  0.00    -0.080 A 
ATOM      4  C3  UNL d   1       2.081   0.041   0.473  0.00  0.00     0.150 A 
ATOM      5  C4  UNL d   1       1.253  -1.022   0.125  0.00  0.00    -0.007 A 
ATOM      6  C5  UNL d   1      -0.126  -0.830   0.056  0.00  0.00     0.039 A 
ENDROOT
BRANCH   4   7
ATOM      7  O   UNL d   1       3.422  -0.195   0.533  0.00  0.00    -0.526 OA
ATOM      8  H5  UNL d   1       3.866   0.622   0.814  0.00  0.00     0.418 HD
ENDBRANCH   4   7
TORSDOF 1
ENDMDL
