MODEL 1
REMARK minimizedAffinity -3.72222495
REMARK minimizedRMSD -1
REMARK  1 active torsions:
REMARK  status: ('A' for Active; 'I' for Inactive)
REMARK    1  A    between atoms: C3_4  and  O_7 
ROOT
ATOM      1  C   UNL d   1       2.510  -0.015   0.977  0.00  0.00    -0.033 A 
ATOM      2  C1  UNL d   1       1.527   0.894   1.374  0.00  0.00     0.039 A 
ATOM      3  C2  UNL d   1       0.302   0.937   0.707  0.00  0.00    -0.080 A 
ATOM      4  C3  UNL d   1       0.071   0.065  -0.354  0.00  0.00     0.150 A 
ATOM      5  C4  UNL d   1       1.043  -0.846  -0.753  0.00  0.00    -0.007 A 
ATOM      6  C5  UNL d   1       2.267  -0.886  -0.086  0.00  0.00     0.039 A 
ENDROOT
BRANCH   4   7
ATOM      7  O   UNL d   1      -1.108   0.072  -1.039  0.00  0.00    -0.526 OA
ATOM      8  H5  UNL d   1      -1.673   0.773  -0.671  0.00  0.00     0.418 HD
ENDBRANCH   4   7
TORSDOF 1
ENDMDL
