MODEL 1
REMARK minimizedAffinity 1.46816432
REMARK minimizedRMSD -1
REMARK  1 active torsions:
REMARK  status: ('A' for Active; 'I' for Inactive)
REMARK    1  A    between atoms: C3_4  and  O_7 
ROOT
ATOM      1  C   UNL d   1      -0.203   0.558   0.808  0.00  0.00    -0.033 A 
ATOM      2  C1  UNL d   1       0.100  -0.805   0.830  0.00  0.00     0.039 A 
ATOM      3  C2  UNL d   1      -0.231  -1.614  -0.259  0.00  0.00    -0.080 A 
ATOM      4  C3  UNL d   1      -0.864  -1.049  -1.362  0.00  0.00     0.150 A 
ATOM      5  C4  UNL d   1      -1.166   0.309  -1.393  0.00  0.00    -0.007 A 
ATOM      6  C5  UNL d   1      -0.835   1.115  -0.305  0.00  0.00     0.039 A 
ENDROOT
BRANCH   4   7
ATOM      7  O   UNL d   1      -1.212  -1.799  -2.446  0.00  0.00    -0.526 OA
ATOM      8  H5  UNL d   1      -0.967  -2.723  -2.272  0.00  0.00     0.418 HD
ENDBRANCH   4   7
TORSDOF 1
ENDMDL
