MODEL 1
REMARK minimizedAffinity -5.49960279
REMARK minimizedRMSD -1
REMARK  1 active torsions:
REMARK  status: ('A' for Active; 'I' for Inactive)
REMARK    1  A    between atoms: C3_4  and  O_7 
ROOT
ATOM      1  C   UNL d   1       2.995  -1.582   2.191  0.00  0.00    -0.033 A 
ATOM      2  C1  UNL d   1       1.822  -2.307   2.404  0.00  0.00     0.039 A 
ATOM      3  C2  UNL d   1       0.677  -2.021   1.657  0.00  0.00    -0.080 A 
ATOM      4  C3  UNL d   1       0.720  -1.010   0.702  0.00  0.00     0.150 A 
ATOM      5  C4  UNL d   1       1.887  -0.286   0.482  0.00  0.00    -0.007 A 
ATOM      6  C5  UNL d   1       3.028  -0.572   1.229  0.00  0.00     0.039 A 
ENDROOT
BRANCH   4   7
ATOM      7  O   UNL d   1      -0.373  -0.691  -0.048  0.00  0.00    -0.526 OA
ATOM      8  H5  UNL d   1      -1.114  -1.254   0.233  0.00  0.00     0.418 HD
ENDBRANCH   4   7
TORSDOF 1
ENDMDL
