MODEL 1
REMARK minimizedAffinity -5.52897978
REMARK minimizedRMSD -1
REMARK  1 active torsions:
REMARK  status: ('A' for Active; 'I' for Inactive)
REMARK    1  A    between atoms: C3_4  and  O_7 
ROOT
ATOM      1  C   UNL d   1       0.033  -1.327   0.974  0.00  0.00    -0.033 A 
ATOM      2  C1  UNL d   1       0.358  -0.145   0.306  0.00  0.00     0.039 A 
ATOM      3  C2  UNL d   1       1.675   0.319   0.304  0.00  0.00    -0.080 A 
ATOM      4  C3  UNL d   1       2.656  -0.407   0.973  0.00  0.00     0.150 A 
ATOM      5  C4  UNL d   1       2.341  -1.588   1.637  0.00  0.00    -0.007 A 
ATOM      6  C5  UNL d   1       1.025  -2.049   1.639  0.00  0.00     0.039 A 
ENDROOT
BRANCH   4   7
ATOM      7  O   UNL d   1       3.954   0.009   1.003  0.00  0.00    -0.526 OA
ATOM      8  H5  UNL d   1       4.018   0.853   0.526  0.00  0.00     0.418 HD
ENDBRANCH   4   7
TORSDOF 1
ENDMDL
