MODEL 1
REMARK minimizedAffinity -0.213007644
REMARK minimizedRMSD -1
REMARK  1 active torsions:
REMARK  status: ('A' for Active; 'I' for Inactive)
REMARK    1  A    between atoms: C3_4  and  O_7 
ROOT
ATOM      1  C   UNL d   1       1.808   0.233   1.543  0.00  0.00    -0.033 A 
ATOM      2  C1  UNL d   1       0.624   0.200   0.803  0.00  0.00     0.039 A 
ATOM      3  C2  UNL d   1       0.049   1.388   0.349  0.00  0.00    -0.080 A 
ATOM      4  C3  UNL d   1       0.666   2.601   0.642  0.00  0.00     0.150 A 
ATOM      5  C4  UNL d   1       1.847   2.641   1.375  0.00  0.00    -0.007 A 
ATOM      6  C5  UNL d   1       2.420   1.454   1.828  0.00  0.00     0.039 A 
ENDROOT
BRANCH   4   7
ATOM      7  O   UNL d   1       0.140   3.788   0.225  0.00  0.00    -0.526 OA
ATOM      8  H5  UNL d   1      -0.691   3.607  -0.246  0.00  0.00     0.418 HD
ENDBRANCH   4   7
TORSDOF 1
ENDMDL
