MODEL 1
REMARK minimizedAffinity -3.44309115
REMARK minimizedRMSD -1
REMARK  1 active torsions:
REMARK  status: ('A' for Active; 'I' for Inactive)
REMARK    1  A    between atoms: C3_4  and  O_7 
ROOT
ATOM      1  C   UNL d   1      -1.586  -0.589   0.731  0.00  0.00    -0.033 A 
ATOM      2  C1  UNL d   1      -0.863  -1.670   1.240  0.00  0.00     0.039 A 
ATOM      3  C2  UNL d   1       0.520  -1.735   1.056  0.00  0.00    -0.080 A 
ATOM      4  C3  UNL d   1       1.166  -0.715   0.363  0.00  0.00     0.150 A 
ATOM      5  C4  UNL d   1       0.452   0.366  -0.143  0.00  0.00    -0.007 A 
ATOM      6  C5  UNL d   1      -0.929   0.430   0.041  0.00  0.00     0.039 A 
ENDROOT
BRANCH   4   7
ATOM      7  O   UNL d   1       2.513  -0.737   0.154  0.00  0.00    -0.526 OA
ATOM      8  H5  UNL d   1       2.869  -1.558   0.535  0.00  0.00     0.418 HD
ENDBRANCH   4   7
TORSDOF 1
ENDMDL
