MODEL 1
REMARK minimizedAffinity -3.28677535
REMARK minimizedRMSD -1
REMARK  0 active torsions:
REMARK  status: ('A' for Active; 'I' for Inactive)
ROOT
ATOM      1  C   UNL d   1       0.237  -0.421   0.780  0.00  0.00     0.172 C 
ATOM      2  N   UNL d   1      -1.040  -0.903   0.308  0.00  0.00    -0.070 N 
ATOM      3  C1  UNL d   1      -1.676  -2.036   0.742  0.00  0.00    -0.004 A 
ATOM      4  C2  UNL d   1      -2.862  -2.145   0.050  0.00  0.00    -0.047 A 
ATOM      5  C3  UNL d   1      -2.942  -1.041  -0.832  0.00  0.00    -0.047 A 
ATOM      6  C4  UNL d   1      -1.801  -0.288  -0.651  0.00  0.00    -0.004 A 
ENDROOT
TORSDOF 0
ENDMDL
