MODEL 1
REMARK minimizedAffinity -3.51071906
REMARK minimizedRMSD -1
REMARK  0 active torsions:
REMARK  status: ('A' for Active; 'I' for Inactive)
ROOT
ATOM      1  C   UNL d   1      -0.254   0.657   0.240  0.00  0.00     0.172 C 
ATOM      2  N   UNL d   1       0.928   1.398   0.614  0.00  0.00    -0.070 N 
ATOM      3  C1  UNL d   1       2.207   0.909   0.621  0.00  0.00    -0.004 A 
ATOM      4  C2  UNL d   1       3.044   1.923   1.036  0.00  0.00    -0.047 A 
ATOM      5  C3  UNL d   1       2.239   3.059   1.290  0.00  0.00    -0.047 A 
ATOM      6  C4  UNL d   1       0.934   2.706   1.020  0.00  0.00    -0.004 A 
ENDROOT
TORSDOF 0
ENDMDL
