MODEL 1
REMARK minimizedAffinity -4.11963749
REMARK minimizedRMSD -1
REMARK  0 active torsions:
REMARK  status: ('A' for Active; 'I' for Inactive)
ROOT
ATOM      1  C   UNL d   1       1.019   0.047   0.158  0.00  0.00     0.172 C 
ATOM      2  N   UNL d   1      -0.395  -0.207   0.007  0.00  0.00    -0.070 N 
ATOM      3  C1  UNL d   1      -1.180  -0.905   0.885  0.00  0.00    -0.004 A 
ATOM      4  C2  UNL d   1      -2.463  -0.923   0.383  0.00  0.00    -0.047 A 
ATOM      5  C3  UNL d   1      -2.448  -0.212  -0.841  0.00  0.00    -0.047 A 
ATOM      6  C4  UNL d   1      -1.156   0.221  -1.049  0.00  0.00    -0.004 A 
ENDROOT
TORSDOF 0
ENDMDL
