MODEL 1
REMARK minimizedAffinity -2.94548273
REMARK minimizedRMSD -1
REMARK  0 active torsions:
REMARK  status: ('A' for Active; 'I' for Inactive)
ROOT
ATOM      1  C   UNL d   1      -2.565  -1.383  -1.495  0.00  0.00     0.172 C 
ATOM      2  N   UNL d   1      -1.501  -0.662  -0.837  0.00  0.00    -0.070 N 
ATOM      3  C1  UNL d   1      -1.438  -0.377   0.501  0.00  0.00    -0.004 A 
ATOM      4  C2  UNL d   1      -0.272   0.321   0.729  0.00  0.00    -0.047 A 
ATOM      5  C3  UNL d   1       0.388   0.462  -0.514  0.00  0.00    -0.047 A 
ATOM      6  C4  UNL d   1      -0.395  -0.156  -1.467  0.00  0.00    -0.004 A 
ENDROOT
TORSDOF 0
ENDMDL
