MODEL 1
REMARK minimizedAffinity -3.49311161
REMARK minimizedRMSD -1
REMARK  0 active torsions:
REMARK  status: ('A' for Active; 'I' for Inactive)
ROOT
ATOM      1  C   UNL d   1      -3.125  -0.278  -0.026  0.00  0.00     0.172 C 
ATOM      2  N   UNL d   1      -1.683  -0.244  -0.108  0.00  0.00    -0.070 N 
ATOM      3  C1  UNL d   1      -0.818  -0.575   0.901  0.00  0.00    -0.004 A 
ATOM      4  C2  UNL d   1       0.465  -0.412   0.427  0.00  0.00    -0.047 A 
ATOM      5  C3  UNL d   1       0.368   0.032  -0.913  0.00  0.00    -0.047 A 
ATOM      6  C4  UNL d   1      -0.973   0.127  -1.218  0.00  0.00    -0.004 A 
ENDROOT
TORSDOF 0
ENDMDL
