MODEL 1
REMARK minimizedAffinity -3.01679039
REMARK minimizedRMSD -1
REMARK  0 active torsions:
REMARK  status: ('A' for Active; 'I' for Inactive)
ROOT
ATOM      1  C   UNL d   1       0.788   0.259   0.338  0.00  0.00     0.172 C 
ATOM      2  N   UNL d   1      -0.488  -0.107  -0.230  0.00  0.00    -0.070 N 
ATOM      3  C1  UNL d   1      -0.763  -0.224  -1.566  0.00  0.00    -0.004 A 
ATOM      4  C2  UNL d   1      -2.086  -0.589  -1.694  0.00  0.00    -0.047 A 
ATOM      5  C3  UNL d   1      -2.625  -0.694  -0.390  0.00  0.00    -0.047 A 
ATOM      6  C4  UNL d   1      -1.614  -0.390   0.497  0.00  0.00    -0.004 A 
ENDROOT
TORSDOF 0
ENDMDL
