MODEL 1
REMARK minimizedAffinity -0.229722157
REMARK minimizedRMSD -1
REMARK  0 active torsions:
REMARK  status: ('A' for Active; 'I' for Inactive)
ROOT
ATOM      1  C   UNL d   1      -3.323  -3.231   5.501  0.00  0.00     0.172 C 
ATOM      2  N   UNL d   1      -3.205  -1.832   5.163  0.00  0.00    -0.070 N 
ATOM      3  C1  UNL d   1      -2.752  -1.335   3.970  0.00  0.00    -0.004 A 
ATOM      4  C2  UNL d   1      -2.792   0.041   4.044  0.00  0.00    -0.047 A 
ATOM      5  C3  UNL d   1      -3.284   0.382   5.326  0.00  0.00    -0.047 A 
ATOM      6  C4  UNL d   1      -3.532  -0.796   5.998  0.00  0.00    -0.004 A 
ENDROOT
TORSDOF 0
ENDMDL
