MODEL 1
REMARK minimizedAffinity -1.93369651
REMARK minimizedRMSD -1
REMARK  0 active torsions:
REMARK  status: ('A' for Active; 'I' for Inactive)
ROOT
ATOM      1  C   UNL d   1       1.342   0.614  -0.421  0.00  0.00     0.172 C 
ATOM      2  N   UNL d   1       1.966   1.705   0.289  0.00  0.00    -0.070 N 
ATOM      3  C1  UNL d   1       2.880   1.580   1.301  0.00  0.00    -0.004 A 
ATOM      4  C2  UNL d   1       3.231   2.848   1.712  0.00  0.00    -0.047 A 
ATOM      5  C3  UNL d   1       2.502   3.767   0.919  0.00  0.00    -0.047 A 
ATOM      6  C4  UNL d   1       1.727   3.032   0.047  0.00  0.00    -0.004 A 
ENDROOT
TORSDOF 0
ENDMDL
