MODEL 1
REMARK minimizedAffinity -3.41810226
REMARK minimizedRMSD -1
REMARK  0 active torsions:
REMARK  status: ('A' for Active; 'I' for Inactive)
ROOT
ATOM      1  C   UNL d   1      -0.810  -2.616   1.445  0.00  0.00     0.172 C 
ATOM      2  N   UNL d   1      -1.051  -1.627   0.421  0.00  0.00    -0.070 N 
ATOM      3  C1  UNL d   1      -2.182  -1.530  -0.346  0.00  0.00    -0.004 A 
ATOM      4  C2  UNL d   1      -2.023  -0.461  -1.200  0.00  0.00    -0.047 A 
ATOM      5  C3  UNL d   1      -0.752   0.105  -0.938  0.00  0.00    -0.047 A 
ATOM      6  C4  UNL d   1      -0.172  -0.636   0.069  0.00  0.00    -0.004 A 
ENDROOT
TORSDOF 0
ENDMDL
