MODEL 1
REMARK minimizedAffinity -3.27167678
REMARK minimizedRMSD -1
REMARK  0 active torsions:
REMARK  status: ('A' for Active; 'I' for Inactive)
ROOT
ATOM      1  C   UNL d   1       0.957   0.282  -0.008  0.00  0.00     0.172 C 
ATOM      2  N   UNL d   1      -0.435  -0.004  -0.263  0.00  0.00    -0.070 N 
ATOM      3  C1  UNL d   1      -1.175   0.493  -1.303  0.00  0.00    -0.004 A 
ATOM      4  C2  UNL d   1      -2.451  -0.015  -1.194  0.00  0.00    -0.047 A 
ATOM      5  C3  UNL d   1      -2.480  -0.845  -0.048  0.00  0.00    -0.047 A 
ATOM      6  C4  UNL d   1      -1.219  -0.820   0.510  0.00  0.00    -0.004 A 
ENDROOT
TORSDOF 0
ENDMDL
