MODEL 1
REMARK minimizedAffinity -4.13316584
REMARK minimizedRMSD -1
REMARK  0 active torsions:
REMARK  status: ('A' for Active; 'I' for Inactive)
ROOT
ATOM      1  C   UNL d   1       0.357   0.019   0.367  0.00  0.00     0.172 C 
ATOM      2  N   UNL d   1      -0.916  -0.656   0.268  0.00  0.00    -0.070 N 
ATOM      3  C1  UNL d   1      -1.307  -1.736   1.013  0.00  0.00    -0.004 A 
ATOM      4  C2  UNL d   1      -2.582  -2.080   0.620  0.00  0.00    -0.047 A 
ATOM      5  C3  UNL d   1      -2.971  -1.176  -0.397  0.00  0.00    -0.047 A 
ATOM      6  C4  UNL d   1      -1.920  -0.305  -0.596  0.00  0.00    -0.004 A 
ENDROOT
TORSDOF 0
ENDMDL
