MODEL 1
REMARK minimizedAffinity -3.54385018
REMARK minimizedRMSD -1
REMARK  0 active torsions:
REMARK  status: ('A' for Active; 'I' for Inactive)
ROOT
ATOM      1  C   UNL d   1      -0.461   0.014   0.258  0.00  0.00     0.172 C 
ATOM      2  N   UNL d   1      -1.206  -1.152   0.672  0.00  0.00    -0.070 N 
ATOM      3  C1  UNL d   1      -2.385  -1.582   0.126  0.00  0.00    -0.004 A 
ATOM      4  C2  UNL d   1      -2.769  -2.723   0.796  0.00  0.00    -0.047 A 
ATOM      5  C3  UNL d   1      -1.787  -2.987   1.780  0.00  0.00    -0.047 A 
ATOM      6  C4  UNL d   1      -0.831  -1.999   1.681  0.00  0.00    -0.004 A 
ENDROOT
TORSDOF 0
ENDMDL
