MODEL 1
REMARK minimizedAffinity -0.455268174
REMARK minimizedRMSD -1
REMARK  0 active torsions:
REMARK  status: ('A' for Active; 'I' for Inactive)
ROOT
ATOM      1  C   UNL d   1       1.376   0.377   0.316  0.00  0.00     0.172 C 
ATOM      2  N   UNL d   1       2.115   1.578   0.624  0.00  0.00    -0.070 N 
ATOM      3  C1  UNL d   1       2.201   2.169   1.856  0.00  0.00    -0.004 A 
ATOM      4  C2  UNL d   1       2.995   3.289   1.734  0.00  0.00    -0.047 A 
ATOM      5  C3  UNL d   1       3.400   3.374   0.380  0.00  0.00    -0.047 A 
ATOM      6  C4  UNL d   1       2.841   2.303  -0.284  0.00  0.00    -0.004 A 
ENDROOT
TORSDOF 0
ENDMDL
