MODEL 1
REMARK minimizedAffinity -2.64036679
REMARK minimizedRMSD -1
REMARK  0 active torsions:
REMARK  status: ('A' for Active; 'I' for Inactive)
ROOT
ATOM      1  C   UNL d   1      -2.587  -0.735  -0.376  0.00  0.00     0.172 C 
ATOM      2  N   UNL d   1      -1.174  -0.435  -0.395  0.00  0.00    -0.070 N 
ATOM      3  C1  UNL d   1      -0.281  -0.735   0.598  0.00  0.00    -0.004 A 
ATOM      4  C2  UNL d   1       0.960  -0.286   0.200  0.00  0.00    -0.047 A 
ATOM      5  C3  UNL d   1       0.806   0.306  -1.076  0.00  0.00    -0.047 A 
ATOM      6  C4  UNL d   1      -0.525   0.200  -1.421  0.00  0.00    -0.004 A 
ENDROOT
TORSDOF 0
ENDMDL
