MODEL 1
REMARK minimizedAffinity -4.07767773
REMARK minimizedRMSD -1
REMARK  0 active torsions:
REMARK  status: ('A' for Active; 'I' for Inactive)
ROOT
ATOM      1  C   UNL d   1       0.915   0.266   0.478  0.00  0.00     0.172 C 
ATOM      2  N   UNL d   1      -0.460  -0.090   0.218  0.00  0.00    -0.070 N 
ATOM      3  C1  UNL d   1      -1.290  -0.753   1.081  0.00  0.00    -0.004 A 
ATOM      4  C2  UNL d   1      -2.514  -0.899   0.463  0.00  0.00    -0.047 A 
ATOM      5  C3  UNL d   1      -2.415  -0.303  -0.817  0.00  0.00    -0.047 A 
ATOM      6  C4  UNL d   1      -1.133   0.190  -0.943  0.00  0.00    -0.004 A 
ENDROOT
TORSDOF 0
ENDMDL
