MODEL 1
REMARK minimizedAffinity -4.01468801
REMARK minimizedRMSD -1
REMARK  0 active torsions:
REMARK  status: ('A' for Active; 'I' for Inactive)
ROOT
ATOM      1  C   UNL d   1       1.126   0.096   0.381  0.00  0.00     0.172 C 
ATOM      2  N   UNL d   1      -0.210  -0.063  -0.143  0.00  0.00    -0.070 N 
ATOM      3  C1  UNL d   1      -1.310  -0.443   0.577  0.00  0.00    -0.004 A 
ATOM      4  C2  UNL d   1      -2.387  -0.477  -0.282  0.00  0.00    -0.047 A 
ATOM      5  C3  UNL d   1      -1.917  -0.105  -1.564  0.00  0.00    -0.047 A 
ATOM      6  C4  UNL d   1      -0.566   0.145  -1.450  0.00  0.00    -0.004 A 
ENDROOT
TORSDOF 0
ENDMDL
