MODEL 1
REMARK minimizedAffinity 4.70207787
REMARK minimizedRMSD -1
REMARK  1 active torsions:
REMARK  status: ('A' for Active; 'I' for Inactive)
REMARK    1  A    between atoms: C1_2  and  C2_3 
ROOT
ATOM      1  C2  UNL d   1       0.934  -1.715  -1.494  0.00  0.00    -0.073 A 
ATOM      2  C3  UNL d   1       2.101  -1.133  -0.986  0.00  0.00    -0.002 A 
ATOM      3  C4  UNL d   1       3.030  -1.909  -0.290  0.00  0.00     0.004 A 
ATOM      4  C5  UNL d   1       2.805  -3.272  -0.101  0.00  0.00    -0.004 A 
ATOM      5  C6  UNL d   1       1.650  -3.874  -0.612  0.00  0.00    -0.075 A 
ATOM      6  C7  UNL d   1       1.392  -5.339  -0.415  0.00  0.00     0.076 C 
ATOM      7  C8  UNL d   1       0.721  -3.088  -1.307  0.00  0.00     0.001 A 
ENDROOT
BRANCH   1   8
ATOM      8  C1  UNL d   1      -0.068  -0.883  -2.252  0.00  0.00     0.053 C 
ATOM      9  C   UNL d   1      -1.485  -1.411  -2.090  0.00  0.00     0.018 C 
ENDBRANCH   1   8
TORSDOF 1
ENDMDL
