MODEL 1
REMARK minimizedAffinity 6.9812355
REMARK minimizedRMSD -1
REMARK  1 active torsions:
REMARK  status: ('A' for Active; 'I' for Inactive)
REMARK    1  A    between atoms: C1_2  and  C2_3 
ROOT
ATOM      1  C2  UNL d   1       0.205   3.747   1.409  0.00  0.00    -0.073 A 
ATOM      2  C3  UNL d   1      -0.596   2.623   1.641  0.00  0.00    -0.002 A 
ATOM      3  C4  UNL d   1      -0.400   1.841   2.781  0.00  0.00     0.004 A 
ATOM      4  C5  UNL d   1       0.590   2.179   3.702  0.00  0.00    -0.004 A 
ATOM      5  C6  UNL d   1       1.392   3.306   3.494  0.00  0.00    -0.075 A 
ATOM      6  C7  UNL d   1       2.464   3.682   4.475  0.00  0.00     0.076 C 
ATOM      7  C8  UNL d   1       1.192   4.084   2.346  0.00  0.00     0.001 A 
ENDROOT
BRANCH   1   8
ATOM      8  C1  UNL d   1      -0.007   4.597   0.183  0.00  0.00     0.053 C 
ATOM      9  C   UNL d   1      -0.421   3.768  -1.021  0.00  0.00     0.018 C 
ENDBRANCH   1   8
TORSDOF 1
ENDMDL
