MODEL 1
REMARK minimizedAffinity 9.11608791
REMARK minimizedRMSD -1
REMARK  1 active torsions:
REMARK  status: ('A' for Active; 'I' for Inactive)
REMARK    1  A    between atoms: C1_2  and  C2_3 
ROOT
ATOM      1  C2  UNL d   1       2.295  -3.904  -5.006  0.00  0.00    -0.073 A 
ATOM      2  C3  UNL d   1       3.602  -3.984  -5.500  0.00  0.00    -0.002 A 
ATOM      3  C4  UNL d   1       4.575  -4.704  -4.806  0.00  0.00     0.004 A 
ATOM      4  C5  UNL d   1       4.251  -5.356  -3.616  0.00  0.00    -0.004 A 
ATOM      5  C6  UNL d   1       2.947  -5.298  -3.113  0.00  0.00    -0.075 A 
ATOM      6  C7  UNL d   1       2.583  -5.993  -1.833  0.00  0.00     0.076 C 
ATOM      7  C8  UNL d   1       1.976  -4.571  -3.814  0.00  0.00     0.001 A 
ENDROOT
BRANCH   1   8
ATOM      8  C1  UNL d   1       1.239  -3.134  -5.755  0.00  0.00     0.053 C 
ATOM      9  C   UNL d   1       0.211  -2.518  -4.819  0.00  0.00     0.018 C 
ENDBRANCH   1   8
TORSDOF 1
ENDMDL
