MODEL 1
REMARK minimizedAffinity 3.20003724
REMARK minimizedRMSD -1
REMARK  0 active torsions:
REMARK  status: ('A' for Active; 'I' for Inactive)
ROOT
ATOM      1  C   UNL d   1       6.000  -3.480  -3.083  0.00  0.00     0.020 A 
ATOM      2  C1  UNL d   1       5.804  -2.294  -2.375  0.00  0.00     0.020 A 
ATOM      3  C2  UNL d   1       4.738  -1.454  -2.703  0.00  0.00     0.034 A 
ATOM      4  C3  UNL d   1       3.865  -1.797  -3.741  0.00  0.00     0.017 A 
ATOM      5  C4  UNL d   1       4.062  -2.987  -4.451  0.00  0.00     0.017 A 
ATOM      6  C5  UNL d   1       5.131  -3.825  -4.119  0.00  0.00     0.034 A 
ATOM      7 Cl   UNL d   1       3.026  -3.477  -5.744  0.00  0.00    -0.070 Cl
ATOM      8 Cl1  UNL d   1       2.568  -0.710  -4.092  0.00  0.00    -0.070 Cl
ENDROOT
TORSDOF 0
ENDMDL
