MODEL 1
REMARK minimizedAffinity 7.66850138
REMARK minimizedRMSD -1
REMARK  0 active torsions:
REMARK  status: ('A' for Active; 'I' for Inactive)
ROOT
ATOM      1  C   UNL d   1       1.117   2.602  -0.788  0.00  0.00     0.020 A 
ATOM      2  C1  UNL d   1       1.316   3.902  -1.252  0.00  0.00     0.020 A 
ATOM      3  C2  UNL d   1       0.299   4.558  -1.947  0.00  0.00     0.034 A 
ATOM      4  C3  UNL d   1      -0.922   3.915  -2.181  0.00  0.00     0.017 A 
ATOM      5  C4  UNL d   1      -1.121   2.611  -1.715  0.00  0.00     0.017 A 
ATOM      6  C5  UNL d   1      -0.099   1.958  -1.019  0.00  0.00     0.034 A 
ATOM      7 Cl   UNL d   1      -2.600   1.753  -1.965  0.00  0.00    -0.070 Cl
ATOM      8 Cl1  UNL d   1      -2.136   4.787  -3.048  0.00  0.00    -0.070 Cl
ENDROOT
TORSDOF 0
ENDMDL
