MODEL 1
REMARK minimizedAffinity 7.315485
REMARK minimizedRMSD -1
REMARK  0 active torsions:
REMARK  status: ('A' for Active; 'I' for Inactive)
ROOT
ATOM      1  C   UNL d   1       0.690   4.232  -1.548  0.00  0.00     0.020 A 
ATOM      2  C1  UNL d   1       0.767   2.957  -0.989  0.00  0.00     0.020 A 
ATOM      3  C2  UNL d   1      -0.365   2.140  -0.956  0.00  0.00     0.034 A 
ATOM      4  C3  UNL d   1      -1.578   2.596  -1.483  0.00  0.00     0.017 A 
ATOM      5  C4  UNL d   1      -1.655   3.876  -2.043  0.00  0.00     0.017 A 
ATOM      6  C5  UNL d   1      -0.518   4.690  -2.074  0.00  0.00     0.034 A 
ATOM      7 Cl   UNL d   1      -3.117   4.509  -2.712  0.00  0.00    -0.070 Cl
ATOM      8 Cl1  UNL d   1      -2.938   1.532  -1.408  0.00  0.00    -0.070 Cl
ENDROOT
TORSDOF 0
ENDMDL
