MODEL 1
REMARK minimizedAffinity 0.956429541
REMARK minimizedRMSD -1
REMARK  0 active torsions:
REMARK  status: ('A' for Active; 'I' for Inactive)
ROOT
ATOM      1  C   UNL d   1       1.108   6.000  -0.950  0.00  0.00     0.020 A 
ATOM      2  C1  UNL d   1       0.235   5.328  -1.804  0.00  0.00     0.020 A 
ATOM      3  C2  UNL d   1      -0.133   4.009  -1.530  0.00  0.00     0.034 A 
ATOM      4  C3  UNL d   1       0.373   3.358  -0.399  0.00  0.00     0.017 A 
ATOM      5  C4  UNL d   1       1.249   4.033   0.458  0.00  0.00     0.017 A 
ATOM      6  C5  UNL d   1       1.614   5.354   0.179  0.00  0.00     0.034 A 
ATOM      7 Cl   UNL d   1       1.915   3.295   1.872  0.00  0.00    -0.070 Cl
ATOM      8 Cl1  UNL d   1      -0.125   1.726  -0.122  0.00  0.00    -0.070 Cl
ENDROOT
TORSDOF 0
ENDMDL
