MODEL 1
REMARK minimizedAffinity -1.30322659
REMARK minimizedRMSD -1
REMARK  0 active torsions:
REMARK  status: ('A' for Active; 'I' for Inactive)
ROOT
ATOM      1  C   UNL d   1       5.857  -4.007  -2.710  0.00  0.00     0.020 A 
ATOM      2  C1  UNL d   1       5.998  -2.660  -3.044  0.00  0.00     0.020 A 
ATOM      3  C2  UNL d   1       5.024  -1.738  -2.656  0.00  0.00     0.034 A 
ATOM      4  C3  UNL d   1       3.904  -2.161  -1.931  0.00  0.00     0.017 A 
ATOM      5  C4  UNL d   1       3.763  -3.512  -1.596  0.00  0.00     0.017 A 
ATOM      6  C5  UNL d   1       4.741  -4.431  -1.987  0.00  0.00     0.034 A 
ATOM      7 Cl   UNL d   1       2.408  -4.109  -0.704  0.00  0.00    -0.070 Cl
ATOM      8 Cl1  UNL d   1       2.739  -0.966  -1.484  0.00  0.00    -0.070 Cl
ENDROOT
TORSDOF 0
ENDMDL
