MODEL 1
REMARK minimizedAffinity 1.35010922
REMARK minimizedRMSD -1
REMARK  0 active torsions:
REMARK  status: ('A' for Active; 'I' for Inactive)
ROOT
ATOM      1  C   UNL d   1       3.941  -3.140   0.047  0.00  0.00     0.020 A 
ATOM      2  C1  UNL d   1       5.250  -3.163  -0.430  0.00  0.00     0.020 A 
ATOM      3  C2  UNL d   1       5.608  -4.054  -1.445  0.00  0.00     0.034 A 
ATOM      4  C3  UNL d   1       4.655  -4.925  -1.985  0.00  0.00     0.017 A 
ATOM      5  C4  UNL d   1       3.340  -4.901  -1.504  0.00  0.00     0.017 A 
ATOM      6  C5  UNL d   1       2.988  -4.007  -0.489  0.00  0.00     0.034 A 
ATOM      7 Cl   UNL d   1       2.109  -5.945  -2.121  0.00  0.00    -0.070 Cl
ATOM      8 Cl1  UNL d   1       5.166  -6.000  -3.237  0.00  0.00    -0.070 Cl
ENDROOT
TORSDOF 0
ENDMDL
