MODEL 1
REMARK minimizedAffinity -0.982243836
REMARK minimizedRMSD -1
REMARK  0 active torsions:
REMARK  status: ('A' for Active; 'I' for Inactive)
ROOT
ATOM      1  C   UNL d   1       4.534  -5.273  -1.305  0.00  0.00     0.020 A 
ATOM      2  C1  UNL d   1       4.199  -5.170  -2.655  0.00  0.00     0.020 A 
ATOM      3  C2  UNL d   1       3.906  -3.922  -3.208  0.00  0.00     0.034 A 
ATOM      4  C3  UNL d   1       3.946  -2.772  -2.412  0.00  0.00     0.017 A 
ATOM      5  C4  UNL d   1       4.282  -2.876  -1.057  0.00  0.00     0.017 A 
ATOM      6  C5  UNL d   1       4.575  -4.129  -0.508  0.00  0.00     0.034 A 
ATOM      7 Cl   UNL d   1       4.353  -1.502  -0.011  0.00  0.00    -0.070 Cl
ATOM      8 Cl1  UNL d   1       3.572  -1.261  -3.162  0.00  0.00    -0.070 Cl
ENDROOT
TORSDOF 0
ENDMDL
