MODEL 1
REMARK minimizedAffinity 9.20014572
REMARK minimizedRMSD -1
REMARK  0 active torsions:
REMARK  status: ('A' for Active; 'I' for Inactive)
ROOT
ATOM      1  C   UNL d   1       3.477  -3.753   6.000  0.00  0.00     0.020 A 
ATOM      2  C1  UNL d   1       4.425  -3.506   5.007  0.00  0.00     0.020 A 
ATOM      3  C2  UNL d   1       4.127  -2.631   3.960  0.00  0.00     0.034 A 
ATOM      4  C3  UNL d   1       2.879  -1.999   3.904  0.00  0.00     0.017 A 
ATOM      5  C4  UNL d   1       1.929  -2.247   4.901  0.00  0.00     0.017 A 
ATOM      6  C5  UNL d   1       2.232  -3.125   5.947  0.00  0.00     0.034 A 
ATOM      7 Cl   UNL d   1       0.368  -1.505   4.900  0.00  0.00    -0.070 Cl
ATOM      8 Cl1  UNL d   1       2.580  -0.929   2.581  0.00  0.00    -0.070 Cl
ENDROOT
TORSDOF 0
ENDMDL
