MODEL 1
REMARK minimizedAffinity 3.96677947
REMARK minimizedRMSD -1
REMARK  0 active torsions:
REMARK  status: ('A' for Active; 'I' for Inactive)
ROOT
ATOM      1  C   UNL d   1       4.627  -4.121  -2.263  0.00  0.00     0.020 A 
ATOM      2  C1  UNL d   1       3.975  -5.058  -3.065  0.00  0.00     0.020 A 
ATOM      3  C2  UNL d   1       2.765  -5.614  -2.646  0.00  0.00     0.034 A 
ATOM      4  C3  UNL d   1       2.202  -5.234  -1.422  0.00  0.00     0.017 A 
ATOM      5  C4  UNL d   1       2.856  -4.293  -0.618  0.00  0.00     0.017 A 
ATOM      6  C5  UNL d   1       4.068  -3.740  -1.042  0.00  0.00     0.034 A 
ATOM      7 Cl   UNL d   1       2.223  -3.775   0.904  0.00  0.00    -0.070 Cl
ATOM      8 Cl1  UNL d   1       0.702  -5.961  -0.967  0.00  0.00    -0.070 Cl
ENDROOT
TORSDOF 0
ENDMDL
