MODEL 1
REMARK minimizedAffinity 3.14486766
REMARK minimizedRMSD -1
REMARK  0 active torsions:
REMARK  status: ('A' for Active; 'I' for Inactive)
ROOT
ATOM      1  C   UNL d   1       0.556   4.503  -0.304  0.00  0.00     0.020 A 
ATOM      2  C1  UNL d   1      -0.034   3.379  -0.883  0.00  0.00     0.020 A 
ATOM      3  C2  UNL d   1      -0.057   2.168  -0.189  0.00  0.00     0.034 A 
ATOM      4  C3  UNL d   1       0.510   2.076   1.087  0.00  0.00     0.017 A 
ATOM      5  C4  UNL d   1       1.101   3.205   1.667  0.00  0.00     0.017 A 
ATOM      6  C5  UNL d   1       1.122   4.415   0.968  0.00  0.00     0.034 A 
ATOM      7 Cl   UNL d   1       1.821   3.170   3.238  0.00  0.00    -0.070 Cl
ATOM      8 Cl1  UNL d   1       0.445   0.546   1.888  0.00  0.00    -0.070 Cl
ENDROOT
TORSDOF 0
ENDMDL
