MODEL 1
REMARK minimizedAffinity 2.73747373
REMARK minimizedRMSD -1
REMARK  1 active torsions:
REMARK  status: ('A' for Active; 'I' for Inactive)
REMARK    1  A    between atoms: C1_2  and  C2_3 
ROOT
ATOM      1  C2  UNL d   1      -0.054  -0.420   0.213  0.00  0.00    -0.076 A 
ATOM      2  C3  UNL d   1       0.402  -1.727   0.458  0.00  0.00     0.004 A 
ATOM      3  C4  UNL d   1       1.428  -2.284  -0.304  0.00  0.00    -0.003 A 
ATOM      4  C5  UNL d   1       2.016  -1.541  -1.322  0.00  0.00     0.000 A 
ATOM      5  C6  UNL d   1       1.589  -0.237  -1.567  0.00  0.00     0.000 A 
ATOM      6  C7  UNL d   1       0.566   0.345  -0.798  0.00  0.00    -0.073 A 
ATOM      7  C8  UNL d   1       0.140   1.753  -1.110  0.00  0.00     0.078 C 
ENDROOT
BRANCH   1   8
ATOM      8  C1  UNL d   1      -1.189   0.120   1.053  0.00  0.00     0.053 C 
ATOM      9  C   UNL d   1      -0.699   0.904   2.260  0.00  0.00     0.018 C 
ENDBRANCH   1   8
TORSDOF 1
ENDMDL
