MODEL 1
REMARK minimizedAffinity -0.0082427673
REMARK minimizedRMSD -1
REMARK  1 active torsions:
REMARK  status: ('A' for Active; 'I' for Inactive)
REMARK    1  A    between atoms: C1_2  and  C2_3 
ROOT
ATOM      1  C2  UNL d   1       1.062   0.297  -0.638  0.00  0.00    -0.076 A 
ATOM      2  C3  UNL d   1       2.290   0.159  -1.307  0.00  0.00     0.004 A 
ATOM      3  C4  UNL d   1       2.801  -1.100  -1.618  0.00  0.00    -0.003 A 
ATOM      4  C5  UNL d   1       2.092  -2.242  -1.265  0.00  0.00     0.000 A 
ATOM      5  C6  UNL d   1       0.863  -2.124  -0.616  0.00  0.00     0.000 A 
ATOM      6  C7  UNL d   1       0.326  -0.862  -0.310  0.00  0.00    -0.073 A 
ATOM      7  C8  UNL d   1      -1.001  -0.794   0.395  0.00  0.00     0.078 C 
ENDROOT
BRANCH   1   8
ATOM      8  C1  UNL d   1       0.571   1.687  -0.304  0.00  0.00     0.053 C 
ATOM      9  C   UNL d   1       0.265   2.511  -1.545  0.00  0.00     0.018 C 
ENDBRANCH   1   8
TORSDOF 1
ENDMDL
