MODEL 1
REMARK minimizedAffinity -5.29846573
REMARK minimizedRMSD -1
REMARK  1 active torsions:
REMARK  status: ('A' for Active; 'I' for Inactive)
REMARK    1  A    between atoms: C1_2  and  C2_3 
ROOT
ATOM      1  C2  UNL d   1       0.330   0.189   0.117  0.00  0.00    -0.076 A 
ATOM      2  C3  UNL d   1       0.738   1.277  -0.673  0.00  0.00     0.004 A 
ATOM      3  C4  UNL d   1       1.896   1.209  -1.445  0.00  0.00    -0.003 A 
ATOM      4  C5  UNL d   1       2.665   0.050  -1.440  0.00  0.00     0.000 A 
ATOM      5  C6  UNL d   1       2.266  -1.045  -0.675  0.00  0.00     0.000 A 
ATOM      6  C7  UNL d   1       1.092  -0.999   0.096  0.00  0.00    -0.073 A 
ATOM      7  C8  UNL d   1       0.712  -2.208   0.906  0.00  0.00     0.078 C 
ENDROOT
BRANCH   1   8
ATOM      8  C1  UNL d   1      -0.921   0.331   0.955  0.00  0.00     0.053 C 
ATOM      9  C   UNL d   1      -0.653   0.999   2.294  0.00  0.00     0.018 C 
ENDBRANCH   1   8
TORSDOF 1
ENDMDL
