MODEL 1
REMARK minimizedAffinity -3.44326043
REMARK minimizedRMSD -1
REMARK  1 active torsions:
REMARK  status: ('A' for Active; 'I' for Inactive)
REMARK    1  A    between atoms: C1_2  and  C2_3 
ROOT
ATOM      1  C2  UNL d   1      -0.003   0.078  -0.244  0.00  0.00    -0.076 A 
ATOM      2  C3  UNL d   1       1.099   0.951  -0.223  0.00  0.00     0.004 A 
ATOM      3  C4  UNL d   1       2.392   0.479  -0.443  0.00  0.00    -0.003 A 
ATOM      4  C5  UNL d   1       2.604  -0.873  -0.688  0.00  0.00     0.000 A 
ATOM      5  C6  UNL d   1       1.521  -1.750  -0.730  0.00  0.00     0.000 A 
ATOM      6  C7  UNL d   1       0.209  -1.288  -0.527  0.00  0.00    -0.073 A 
ATOM      7  C8  UNL d   1      -0.921  -2.279  -0.577  0.00  0.00     0.078 C 
ENDROOT
BRANCH   1   8
ATOM      8  C1  UNL d   1      -1.379   0.642   0.028  0.00  0.00     0.053 C 
ATOM      9  C   UNL d   1      -1.779   0.522   1.490  0.00  0.00     0.018 C 
ENDBRANCH   1   8
TORSDOF 1
ENDMDL
