MODEL 1
REMARK minimizedAffinity -5.49510527
REMARK minimizedRMSD -1
REMARK  1 active torsions:
REMARK  status: ('A' for Active; 'I' for Inactive)
REMARK    1  A    between atoms: C1_2  and  C2_3 
ROOT
ATOM      1  C2  UNL d   1       0.421   0.046  -0.337  0.00  0.00    -0.076 A 
ATOM      2  C3  UNL d   1       1.429   1.012  -0.501  0.00  0.00     0.004 A 
ATOM      3  C4  UNL d   1       2.717   0.646  -0.890  0.00  0.00    -0.003 A 
ATOM      4  C5  UNL d   1       3.017  -0.692  -1.123  0.00  0.00     0.000 A 
ATOM      5  C6  UNL d   1       2.024  -1.661  -0.982  0.00  0.00     0.000 A 
ATOM      6  C7  UNL d   1       0.717  -1.307  -0.606  0.00  0.00    -0.073 A 
ATOM      7  C8  UNL d   1      -0.313  -2.395  -0.464  0.00  0.00     0.078 C 
ENDROOT
BRANCH   1   8
ATOM      8  C1  UNL d   1      -0.949   0.499   0.113  0.00  0.00     0.053 C 
ATOM      9  C   UNL d   1      -1.083   0.535   1.628  0.00  0.00     0.018 C 
ENDBRANCH   1   8
TORSDOF 1
ENDMDL
