MODEL 1
REMARK minimizedAffinity -5.93577528
REMARK minimizedRMSD -1
REMARK  1 active torsions:
REMARK  status: ('A' for Active; 'I' for Inactive)
REMARK    1  A    between atoms: C1_2  and  C2_3 
ROOT
ATOM      1  C2  UNL d   1       1.523   0.051  -0.932  0.00  0.00    -0.076 A 
ATOM      2  C3  UNL d   1       2.831  -0.409  -1.160  0.00  0.00     0.004 A 
ATOM      3  C4  UNL d   1       3.600   0.103  -2.204  0.00  0.00    -0.003 A 
ATOM      4  C5  UNL d   1       3.074   1.084  -3.036  0.00  0.00     0.000 A 
ATOM      5  C6  UNL d   1       1.784   1.566  -2.813  0.00  0.00     0.000 A 
ATOM      6  C7  UNL d   1       1.001   1.072  -1.756  0.00  0.00    -0.073 A 
ATOM      7  C8  UNL d   1      -0.385   1.623  -1.566  0.00  0.00     0.078 C 
ENDROOT
BRANCH   1   8
ATOM      8  C1  UNL d   1       0.726  -0.560   0.198  0.00  0.00     0.053 C 
ATOM      9  C   UNL d   1      -0.002  -1.828  -0.222  0.00  0.00     0.018 C 
ENDBRANCH   1   8
TORSDOF 1
ENDMDL
