MODEL 1
REMARK minimizedAffinity -5.53450108
REMARK minimizedRMSD -1
REMARK  1 active torsions:
REMARK  status: ('A' for Active; 'I' for Inactive)
REMARK    1  A    between atoms: C1_2  and  C2_3 
ROOT
ATOM      1  C2  UNL d   1       0.030   0.118  -0.414  0.00  0.00    -0.076 A 
ATOM      2  C3  UNL d   1       0.451   1.173  -1.241  0.00  0.00     0.004 A 
ATOM      3  C4  UNL d   1       1.654   1.101  -1.941  0.00  0.00    -0.003 A 
ATOM      4  C5  UNL d   1       2.457  -0.029  -1.824  0.00  0.00     0.000 A 
ATOM      5  C6  UNL d   1       2.047  -1.093  -1.022  0.00  0.00     0.000 A 
ATOM      6  C7  UNL d   1       0.828  -1.043  -0.323  0.00  0.00    -0.073 A 
ATOM      7  C8  UNL d   1       0.439  -2.217   0.533  0.00  0.00     0.078 C 
ENDROOT
BRANCH   1   8
ATOM      8  C1  UNL d   1      -1.272   0.264   0.341  0.00  0.00     0.053 C 
ATOM      9  C   UNL d   1      -1.063   0.703   1.782  0.00  0.00     0.018 C 
ENDBRANCH   1   8
TORSDOF 1
ENDMDL
