MODEL 1
REMARK minimizedAffinity -5.06551838
REMARK minimizedRMSD -1
REMARK  1 active torsions:
REMARK  status: ('A' for Active; 'I' for Inactive)
REMARK    1  A    between atoms: C1_2  and  C2_3 
ROOT
ATOM      1  C2  UNL d   1       0.089   0.207  -0.362  0.00  0.00    -0.076 A 
ATOM      2  C3  UNL d   1       0.953   1.275  -0.658  0.00  0.00     0.004 A 
ATOM      3  C4  UNL d   1       2.223   1.047  -1.185  0.00  0.00    -0.003 A 
ATOM      4  C5  UNL d   1       2.649  -0.255  -1.425  0.00  0.00     0.000 A 
ATOM      5  C6  UNL d   1       1.799  -1.326  -1.154  0.00  0.00     0.000 A 
ATOM      6  C7  UNL d   1       0.510  -1.112  -0.637  0.00  0.00    -0.073 A 
ATOM      7  C8  UNL d   1      -0.363  -2.305  -0.357  0.00  0.00     0.078 C 
ENDROOT
BRANCH   1   8
ATOM      8  C1  UNL d   1      -1.266   0.514   0.234  0.00  0.00     0.053 C 
ATOM      9  C   UNL d   1      -1.234   0.576   1.753  0.00  0.00     0.018 C 
ENDBRANCH   1   8
TORSDOF 1
ENDMDL
