MODEL 1
REMARK minimizedAffinity -1.63049245
REMARK minimizedRMSD -1
REMARK  1 active torsions:
REMARK  status: ('A' for Active; 'I' for Inactive)
REMARK    1  A    between atoms: C1_2  and  C2_3 
ROOT
ATOM      1  C2  UNL d   1      -0.689   0.737   2.128  0.00  0.00    -0.076 A 
ATOM      2  C3  UNL d   1      -1.861   0.129   1.646  0.00  0.00     0.004 A 
ATOM      3  C4  UNL d   1      -3.033   0.129   2.402  0.00  0.00    -0.003 A 
ATOM      4  C5  UNL d   1      -3.051   0.740   3.652  0.00  0.00     0.000 A 
ATOM      5  C6  UNL d   1      -1.902   1.363   4.137  0.00  0.00     0.000 A 
ATOM      6  C7  UNL d   1      -0.718   1.386   3.381  0.00  0.00    -0.073 A 
ATOM      7  C8  UNL d   1       0.493   2.068   3.956  0.00  0.00     0.078 C 
ENDROOT
BRANCH   1   8
ATOM      8  C1  UNL d   1       0.558   0.681   1.276  0.00  0.00     0.053 C 
ATOM      9  C   UNL d   1       0.273   0.224  -0.146  0.00  0.00     0.018 C 
ENDBRANCH   1   8
TORSDOF 1
ENDMDL
