MODEL 1
REMARK minimizedAffinity -3.12458229
REMARK minimizedRMSD -1
REMARK  1 active torsions:
REMARK  status: ('A' for Active; 'I' for Inactive)
REMARK    1  A    between atoms: C1_2  and  C2_3 
ROOT
ATOM      1  C2  UNL d   1       0.148   0.126  -0.393  0.00  0.00    -0.076 A 
ATOM      2  C3  UNL d   1       0.045  -1.269  -0.530  0.00  0.00     0.004 A 
ATOM      3  C4  UNL d   1       1.088  -2.015  -1.078  0.00  0.00    -0.003 A 
ATOM      4  C5  UNL d   1       2.250  -1.377  -1.498  0.00  0.00     0.000 A 
ATOM      5  C6  UNL d   1       2.375   0.004  -1.354  0.00  0.00     0.000 A 
ATOM      6  C7  UNL d   1       1.340   0.768  -0.788  0.00  0.00    -0.073 A 
ATOM      7  C8  UNL d   1       1.527   2.256  -0.662  0.00  0.00     0.078 C 
ENDROOT
BRANCH   1   8
ATOM      8  C1  UNL d   1      -1.026   0.885   0.184  0.00  0.00     0.053 C 
ATOM      9  C   UNL d   1      -1.348   0.465   1.609  0.00  0.00     0.018 C 
ENDBRANCH   1   8
TORSDOF 1
ENDMDL
