MODEL 1
REMARK minimizedAffinity -2.28733516
REMARK minimizedRMSD -1
REMARK  1 active torsions:
REMARK  status: ('A' for Active; 'I' for Inactive)
REMARK    1  A    between atoms: C1_2  and  C2_3 
ROOT
ATOM      1  C2  UNL d   1       1.229  -0.279  -0.808  0.00  0.00    -0.076 A 
ATOM      2  C3  UNL d   1       1.002   1.014  -1.312  0.00  0.00     0.004 A 
ATOM      3  C4  UNL d   1      -0.124   1.744  -0.933  0.00  0.00    -0.003 A 
ATOM      4  C5  UNL d   1      -1.040   1.193  -0.043  0.00  0.00     0.000 A 
ATOM      5  C6  UNL d   1      -0.821  -0.080   0.480  0.00  0.00     0.000 A 
ATOM      6  C7  UNL d   1       0.317  -0.823   0.122  0.00  0.00    -0.073 A 
ATOM      7  C8  UNL d   1       0.500  -2.194   0.712  0.00  0.00     0.078 C 
ENDROOT
BRANCH   1   8
ATOM      8  C1  UNL d   1       2.453  -1.033  -1.275  0.00  0.00     0.053 C 
ATOM      9  C   UNL d   1       2.141  -2.012  -2.397  0.00  0.00     0.018 C 
ENDBRANCH   1   8
TORSDOF 1
ENDMDL
