MODEL 1
REMARK minimizedAffinity 3.59221053
REMARK minimizedRMSD -1
REMARK  0 active torsions:
REMARK  status: ('A' for Active; 'I' for Inactive)
ROOT
ATOM      1  C1  DEN d   1      -3.754  -2.642   3.828  0.00  0.00     0.130 A 
ATOM      2  C2  DEN d   1      -3.880  -1.697   4.935  0.00  0.00    -0.031 A 
ATOM      3  C3  DEN d   1      -4.708  -2.329   5.982  0.00  0.00     0.027 A 
ATOM      4  C4  DEN d   1      -5.796  -4.668   5.998  0.00  0.00     0.027 A 
ATOM      5  C5  DEN d   1      -5.979  -5.826   5.275  0.00  0.00    -0.003 A 
ATOM      6  C6  DEN d   1      -5.465  -5.990   4.016  0.00  0.00     0.001 A 
ATOM      7  C7  DEN d   1      -4.705  -4.996   3.459  0.00  0.00     0.017 A 
ATOM      8  C8  DEN d   1      -4.523  -3.822   4.178  0.00  0.00    -0.094 A 
ATOM      9  C9  DEN d   1      -5.040  -3.680   5.455  0.00  0.00    -0.072 A 
ENDROOT
TORSDOF 0
ENDMDL
