MODEL 1
REMARK minimizedAffinity 12.9525547
REMARK minimizedRMSD -1
REMARK  0 active torsions:
REMARK  status: ('A' for Active; 'I' for Inactive)
ROOT
ATOM      1  C1  DEN d   1       3.374   1.261  -0.383  0.00  0.00     0.130 A 
ATOM      2  C2  DEN d   1       2.617   0.460   0.575  0.00  0.00    -0.031 A 
ATOM      3  C3  DEN d   1       3.076   0.815   1.932  0.00  0.00     0.027 A 
ATOM      4  C4  DEN d   1       4.874   2.523   2.642  0.00  0.00     0.027 A 
ATOM      5  C5  DEN d   1       5.797   3.437   2.183  0.00  0.00    -0.003 A 
ATOM      6  C6  DEN d   1       6.000   3.663   0.848  0.00  0.00     0.001 A 
ATOM      7  C7  DEN d   1       5.237   2.999  -0.076  0.00  0.00     0.017 A 
ATOM      8  C8  DEN d   1       4.309   2.071   0.378  0.00  0.00    -0.094 A 
ATOM      9  C9  DEN d   1       4.111   1.865   1.732  0.00  0.00    -0.072 A 
ENDROOT
TORSDOF 0
ENDMDL
