MODEL 1
REMARK minimizedAffinity 15.3692102
REMARK minimizedRMSD -1
REMARK  0 active torsions:
REMARK  status: ('A' for Active; 'I' for Inactive)
ROOT
ATOM      1  C1  DEN d   1      -0.477   0.421   5.071  0.00  0.00     0.130 A 
ATOM      2  C2  DEN d   1      -1.542   1.116   4.353  0.00  0.00    -0.031 A 
ATOM      3  C3  DEN d   1      -1.636   0.533   2.999  0.00  0.00     0.027 A 
ATOM      4  C4  DEN d   1      -0.247  -1.372   1.953  0.00  0.00     0.027 A 
ATOM      5  C5  DEN d   1       0.780  -2.263   2.172  0.00  0.00    -0.003 A 
ATOM      6  C6  DEN d   1       1.477  -2.298   3.350  0.00  0.00     0.001 A 
ATOM      7  C7  DEN d   1       1.126  -1.457   4.372  0.00  0.00     0.017 A 
ATOM      8  C8  DEN d   1       0.096  -0.550   4.157  0.00  0.00    -0.094 A 
ATOM      9  C9  DEN d   1      -0.605  -0.539   2.963  0.00  0.00    -0.072 A 
ENDROOT
TORSDOF 0
ENDMDL
