MODEL 1
REMARK minimizedAffinity 14.4611597
REMARK minimizedRMSD -1
REMARK  0 active torsions:
REMARK  status: ('A' for Active; 'I' for Inactive)
ROOT
ATOM      1  C1  DEN d   1       5.569   4.046  -4.636  0.00  0.00     0.130 A 
ATOM      2  C2  DEN d   1       5.927   5.413  -4.267  0.00  0.00    -0.031 A 
ATOM      3  C3  DEN d   1       4.881   5.931  -3.363  0.00  0.00     0.027 A 
ATOM      4  C4  DEN d   1       2.755   4.753  -2.499  0.00  0.00     0.027 A 
ATOM      5  C5  DEN d   1       2.017   3.591  -2.547  0.00  0.00    -0.003 A 
ATOM      6  C6  DEN d   1       2.391   2.520  -3.315  0.00  0.00     0.001 A 
ATOM      7  C7  DEN d   1       3.557   2.573  -4.032  0.00  0.00     0.017 A 
ATOM      8  C8  DEN d   1       4.302   3.744  -3.994  0.00  0.00    -0.094 A 
ATOM      9  C9  DEN d   1       3.914   4.811  -3.202  0.00  0.00    -0.072 A 
ENDROOT
TORSDOF 0
ENDMDL
