MODEL 1
REMARK minimizedAffinity 2.13629842
REMARK minimizedRMSD -1
REMARK  0 active torsions:
REMARK  status: ('A' for Active; 'I' for Inactive)
ROOT
ATOM      1  C1  DEN d   1       4.241  -5.999  -0.429  0.00  0.00     0.130 A 
ATOM      2  C2  DEN d   1       5.611  -5.986  -0.933  0.00  0.00    -0.031 A 
ATOM      3  C3  DEN d   1       6.000  -4.580  -1.163  0.00  0.00     0.027 A 
ATOM      4  C4  DEN d   1       4.621  -2.433  -0.785  0.00  0.00     0.027 A 
ATOM      5  C5  DEN d   1       3.401  -1.940  -0.380  0.00  0.00    -0.003 A 
ATOM      6  C6  DEN d   1       2.372  -2.759   0.002  0.00  0.00     0.001 A 
ATOM      7  C7  DEN d   1       2.559  -4.116   0.029  0.00  0.00     0.017 A 
ATOM      8  C8  DEN d   1       3.785  -4.621  -0.385  0.00  0.00    -0.094 A 
ATOM      9  C9  DEN d   1       4.816  -3.776  -0.756  0.00  0.00    -0.072 A 
ENDROOT
TORSDOF 0
ENDMDL
