MODEL 1
REMARK minimizedAffinity 8.5931282
REMARK minimizedRMSD -1
REMARK  0 active torsions:
REMARK  status: ('A' for Active; 'I' for Inactive)
ROOT
ATOM      1  C1  DEN d   1      -2.653   0.385   3.055  0.00  0.00     0.130 A 
ATOM      2  C2  DEN d   1      -1.523   0.381   3.980  0.00  0.00    -0.031 A 
ATOM      3  C3  DEN d   1      -1.990   0.916   5.274  0.00  0.00     0.027 A 
ATOM      4  C4  DEN d   1      -4.343   1.741   5.935  0.00  0.00     0.027 A 
ATOM      5  C5  DEN d   1      -5.627   1.948   5.484  0.00  0.00    -0.003 A 
ATOM      6  C6  DEN d   1      -5.999   1.683   4.193  0.00  0.00     0.001 A 
ATOM      7  C7  DEN d   1      -5.087   1.152   3.319  0.00  0.00     0.017 A 
ATOM      8  C8  DEN d   1      -3.788   0.948   3.765  0.00  0.00    -0.094 A 
ATOM      9  C9  DEN d   1      -3.435   1.211   5.077  0.00  0.00    -0.072 A 
ENDROOT
TORSDOF 0
ENDMDL
