MODEL 1
REMARK minimizedAffinity 8.00316143
REMARK minimizedRMSD -1
REMARK  0 active torsions:
REMARK  status: ('A' for Active; 'I' for Inactive)
ROOT
ATOM      1  C1  DEN d   1      -5.877  -1.891  -2.520  0.00  0.00     0.130 A 
ATOM      2  C2  DEN d   1      -6.000  -1.135  -3.764  0.00  0.00    -0.031 A 
ATOM      3  C3  DEN d   1      -6.000   0.303  -3.426  0.00  0.00     0.027 A 
ATOM      4  C4  DEN d   1      -5.817   1.425  -1.111  0.00  0.00     0.027 A 
ATOM      5  C5  DEN d   1      -5.707   1.195   0.243  0.00  0.00    -0.003 A 
ATOM      6  C6  DEN d   1      -5.679  -0.069   0.769  0.00  0.00     0.001 A 
ATOM      7  C7  DEN d   1      -5.718  -1.153  -0.068  0.00  0.00     0.017 A 
ATOM      8  C8  DEN d   1      -5.838  -0.929  -1.433  0.00  0.00    -0.094 A 
ATOM      9  C9  DEN d   1      -5.851   0.356  -1.946  0.00  0.00    -0.072 A 
ENDROOT
TORSDOF 0
ENDMDL
