MODEL 1
REMARK minimizedAffinity 12.5579424
REMARK minimizedRMSD -1
REMARK  0 active torsions:
REMARK  status: ('A' for Active; 'I' for Inactive)
ROOT
ATOM      1  C1  DEN d   1       0.713   1.907  -2.827  0.00  0.00     0.130 A 
ATOM      2  C2  DEN d   1       1.863   1.988  -1.930  0.00  0.00    -0.031 A 
ATOM      3  C3  DEN d   1       2.104   3.412  -1.624  0.00  0.00     0.027 A 
ATOM      4  C4  DEN d   1       0.814   5.489  -2.444  0.00  0.00     0.027 A 
ATOM      5  C5  DEN d   1      -0.230   5.924  -3.230  0.00  0.00    -0.003 A 
ATOM      6  C6  DEN d   1      -1.005   5.061  -3.958  0.00  0.00     0.001 A 
ATOM      7  C7  DEN d   1      -0.777   3.712  -3.879  0.00  0.00     0.017 A 
ATOM      8  C8  DEN d   1       0.279   3.267  -3.094  0.00  0.00    -0.094 A 
ATOM      9  C9  DEN d   1       1.044   4.155  -2.357  0.00  0.00    -0.072 A 
ENDROOT
TORSDOF 0
ENDMDL
