MODEL 1
REMARK minimizedAffinity 17.5622616
REMARK minimizedRMSD -1
REMARK  0 active torsions:
REMARK  status: ('A' for Active; 'I' for Inactive)
ROOT
ATOM      1  C1  DEN d   1       1.064   2.225  -3.301  0.00  0.00     0.130 A 
ATOM      2  C2  DEN d   1       1.535   2.133  -1.922  0.00  0.00    -0.031 A 
ATOM      3  C3  DEN d   1       0.806   3.138  -1.122  0.00  0.00     0.027 A 
ATOM      4  C4  DEN d   1      -1.000   4.815  -1.881  0.00  0.00     0.027 A 
ATOM      5  C5  DEN d   1      -1.721   5.277  -2.960  0.00  0.00    -0.003 A 
ATOM      6  C6  DEN d   1      -1.542   4.781  -4.224  0.00  0.00     0.001 A 
ATOM      7  C7  DEN d   1      -0.651   3.761  -4.433  0.00  0.00     0.017 A 
ATOM      8  C8  DEN d   1       0.086   3.296  -3.352  0.00  0.00    -0.094 A 
ATOM      9  C9  DEN d   1      -0.119   3.802  -2.079  0.00  0.00    -0.072 A 
ENDROOT
TORSDOF 0
ENDMDL
