MODEL 1
REMARK minimizedAffinity 17.8541794
REMARK minimizedRMSD -1
REMARK  0 active torsions:
REMARK  status: ('A' for Active; 'I' for Inactive)
ROOT
ATOM      1  C1  DEN d   1      -0.642  -0.431   2.634  0.00  0.00     0.130 A 
ATOM      2  C2  DEN d   1      -2.062  -0.136   2.464  0.00  0.00    -0.031 A 
ATOM      3  C3  DEN d   1      -2.663  -1.228   1.673  0.00  0.00     0.027 A 
ATOM      4  C4  DEN d   1      -1.541  -3.339   0.704  0.00  0.00     0.027 A 
ATOM      5  C5  DEN d   1      -0.350  -4.020   0.578  0.00  0.00    -0.003 A 
ATOM      6  C6  DEN d   1       0.824  -3.539   1.095  0.00  0.00     0.001 A 
ATOM      7  C7  DEN d   1       0.824  -2.365   1.801  0.00  0.00     0.017 A 
ATOM      8  C8  DEN d   1      -0.371  -1.670   1.926  0.00  0.00    -0.094 A 
ATOM      9  C9  DEN d   1      -1.550  -2.178   1.407  0.00  0.00    -0.072 A 
ENDROOT
TORSDOF 0
ENDMDL
