MODEL 1
REMARK minimizedAffinity 15.9408512
REMARK minimizedRMSD -1
REMARK  0 active torsions:
REMARK  status: ('A' for Active; 'I' for Inactive)
ROOT
ATOM      1  C1  DEN d   1       0.792   4.669  -2.760  0.00  0.00     0.130 A 
ATOM      2  C2  DEN d   1       0.137   4.140  -1.567  0.00  0.00    -0.031 A 
ATOM      3  C3  DEN d   1      -1.316   4.094  -1.826  0.00  0.00     0.027 A 
ATOM      4  C4  DEN d   1      -2.608   4.782  -3.950  0.00  0.00     0.027 A 
ATOM      5  C5  DEN d   1      -2.484   5.299  -5.220  0.00  0.00    -0.003 A 
ATOM      6  C6  DEN d   1      -1.274   5.671  -5.743  0.00  0.00     0.001 A 
ATOM      7  C7  DEN d   1      -0.133   5.489  -5.009  0.00  0.00     0.017 A 
ATOM      8  C8  DEN d   1      -0.250   4.975  -3.724  0.00  0.00    -0.094 A 
ATOM      9  C9  DEN d   1      -1.481   4.594  -3.218  0.00  0.00    -0.072 A 
ENDROOT
TORSDOF 0
ENDMDL
