MODEL 1
REMARK minimizedAffinity 12.1176424
REMARK minimizedRMSD -1
REMARK  0 active torsions:
REMARK  status: ('A' for Active; 'I' for Inactive)
ROOT
ATOM      1  C1  DEN d   1       6.000   5.394  -1.972  0.00  0.00     0.130 A 
ATOM      2  C2  DEN d   1       5.044   5.267  -0.876  0.00  0.00    -0.031 A 
ATOM      3  C3  DEN d   1       3.928   4.418  -1.339  0.00  0.00     0.027 A 
ATOM      4  C4  DEN d   1       3.593   3.288  -3.633  0.00  0.00     0.027 A 
ATOM      5  C5  DEN d   1       4.132   3.116  -4.889  0.00  0.00    -0.003 A 
ATOM      6  C6  DEN d   1       5.304   3.713  -5.269  0.00  0.00     0.001 A 
ATOM      7  C7  DEN d   1       6.000   4.476  -4.368  0.00  0.00     0.017 A 
ATOM      8  C8  DEN d   1       5.459   4.660  -3.102  0.00  0.00    -0.094 A 
ATOM      9  C9  DEN d   1       4.279   4.038  -2.733  0.00  0.00    -0.072 A 
ENDROOT
TORSDOF 0
ENDMDL
