MODEL 1
REMARK minimizedAffinity 5.55618954
REMARK minimizedRMSD -1
REMARK  0 active torsions:
REMARK  status: ('A' for Active; 'I' for Inactive)
ROOT
ATOM      1  C1  DEN d   1      -0.152  -1.846   3.694  0.00  0.00     0.130 A 
ATOM      2  C2  DEN d   1      -0.634  -2.015   2.326  0.00  0.00    -0.031 A 
ATOM      3  C3  DEN d   1      -1.768  -1.090   2.125  0.00  0.00     0.027 A 
ATOM      4  C4  DEN d   1      -2.814   0.581   3.788  0.00  0.00     0.027 A 
ATOM      5  C5  DEN d   1      -2.752   1.074   5.073  0.00  0.00    -0.003 A 
ATOM      6  C6  DEN d   1      -1.849   0.608   5.991  0.00  0.00     0.001 A 
ATOM      7  C7  DEN d   1      -0.940  -0.349   5.624  0.00  0.00     0.017 A 
ATOM      8  C8  DEN d   1      -1.001  -0.856   4.332  0.00  0.00    -0.094 A 
ATOM      9  C9  DEN d   1      -1.914  -0.364   3.415  0.00  0.00    -0.072 A 
ENDROOT
TORSDOF 0
ENDMDL
