MODEL 1
REMARK minimizedAffinity 11.5518055
REMARK minimizedRMSD -1
REMARK  0 active torsions:
REMARK  status: ('A' for Active; 'I' for Inactive)
ROOT
ATOM      1  C1  DEN d   1       3.608   5.043  -2.369  0.00  0.00     0.130 A 
ATOM      2  C2  DEN d   1       4.279   3.828  -2.824  0.00  0.00    -0.031 A 
ATOM      3  C3  DEN d   1       3.241   2.846  -3.196  0.00  0.00     0.027 A 
ATOM      4  C4  DEN d   1       0.675   3.087  -3.116  0.00  0.00     0.027 A 
ATOM      5  C5  DEN d   1      -0.364   3.931  -2.789  0.00  0.00    -0.003 A 
ATOM      6  C6  DEN d   1      -0.153   5.182  -2.271  0.00  0.00     0.001 A 
ATOM      7  C7  DEN d   1       1.127   5.642  -2.108  0.00  0.00     0.017 A 
ATOM      8  C8  DEN d   1       2.179   4.794  -2.428  0.00  0.00    -0.094 A 
ATOM      9  C9  DEN d   1       1.946   3.538  -2.961  0.00  0.00    -0.072 A 
ENDROOT
TORSDOF 0
ENDMDL
