MODEL 1
REMARK minimizedAffinity 14.8391523
REMARK minimizedRMSD -1
REMARK  0 active torsions:
REMARK  status: ('A' for Active; 'I' for Inactive)
ROOT
ATOM      1  C1  DEN d   1      -5.217   1.568   0.700  0.00  0.00     0.130 A 
ATOM      2  C2  DEN d   1      -5.196   2.853   0.007  0.00  0.00    -0.031 A 
ATOM      3  C3  DEN d   1      -5.457   2.604  -1.425  0.00  0.00     0.027 A 
ATOM      4  C4  DEN d   1      -5.894   0.365  -2.629  0.00  0.00     0.027 A 
ATOM      5  C5  DEN d   1      -5.998  -0.998  -2.460  0.00  0.00    -0.003 A 
ATOM      6  C6  DEN d   1      -5.817  -1.600  -1.243  0.00  0.00     0.001 A 
ATOM      7  C7  DEN d   1      -5.566  -0.832  -0.137  0.00  0.00     0.017 A 
ATOM      8  C8  DEN d   1      -5.452   0.542  -0.300  0.00  0.00    -0.094 A 
ATOM      9  C9  DEN d   1      -5.651   1.133  -1.536  0.00  0.00    -0.072 A 
ENDROOT
TORSDOF 0
ENDMDL
