MODEL 1
REMARK minimizedAffinity -2.99572277
REMARK minimizedRMSD -1
REMARK  2 active torsions:
REMARK  status: ('A' for Active; 'I' for Inactive)
REMARK    1  A    between atoms: C2'_3  and  C1'_4 
REMARK    2  A    between atoms: C1'_4  and  C1_5 
ROOT
ATOM      1  C1  I4B d   1       0.437  -0.393  -0.444  0.00  0.00    -0.075 A 
ATOM      2  C2  I4B d   1       0.467   0.721  -1.245  0.00  0.00     0.003 A 
ATOM      3  C3  I4B d   1      -0.249   1.885  -0.874  0.00  0.00     0.002 A 
ATOM      4  C4  I4B d   1      -1.017   1.874   0.272  0.00  0.00    -0.004 A 
ATOM      5  C5  I4B d   1      -1.028   0.751   1.095  0.00  0.00     0.002 A 
ATOM      6  C6  I4B d   1      -0.287  -0.386   0.741  0.00  0.00     0.003 A 
ENDROOT
BRANCH   1   7
ATOM      7  C1' I4B d   1       1.177  -1.616  -0.883  0.00  0.00     0.060 C 
BRANCH   7   8
ATOM      8  C2' I4B d   1       0.181  -2.559  -1.528  0.00  0.00    -0.013 C 
ATOM      9  C4' I4B d   1       0.077  -2.313  -3.010  0.00  0.00     0.013 C 
ATOM     10  C3' I4B d   1       0.622  -3.964  -1.242  0.00  0.00     0.013 C 
ENDBRANCH   7   8
ENDBRANCH   1   7
TORSDOF 2
ENDMDL
