MODEL 1
REMARK minimizedAffinity -3.36666608
REMARK minimizedRMSD -1
REMARK  2 active torsions:
REMARK  status: ('A' for Active; 'I' for Inactive)
REMARK    1  A    between atoms: C2'_3  and  C1'_4 
REMARK    2  A    between atoms: C1'_4  and  C1_5 
ROOT
ATOM      1  C1  I4B d   1       0.256  -0.308  -0.498  0.00  0.00    -0.075 A 
ATOM      2  C2  I4B d   1      -0.064   0.853  -1.157  0.00  0.00     0.003 A 
ATOM      3  C3  I4B d   1      -0.916   1.807  -0.549  0.00  0.00     0.002 A 
ATOM      4  C4  I4B d   1      -1.463   1.538   0.689  0.00  0.00    -0.004 A 
ATOM      5  C5  I4B d   1      -1.119   0.371   1.365  0.00  0.00     0.002 A 
ATOM      6  C6  I4B d   1      -0.245  -0.552   0.774  0.00  0.00     0.003 A 
ENDROOT
BRANCH   1   7
ATOM      7  C1' I4B d   1       1.132  -1.308  -1.184  0.00  0.00     0.060 C 
BRANCH   7   8
ATOM      8  C2' I4B d   1       0.248  -2.419  -1.711  0.00  0.00    -0.013 C 
ATOM      9  C4' I4B d   1      -0.000  -2.265  -3.188  0.00  0.00     0.013 C 
ATOM     10  C3' I4B d   1       0.917  -3.727  -1.408  0.00  0.00     0.013 C 
ENDBRANCH   7   8
ENDBRANCH   1   7
TORSDOF 2
ENDMDL
