MODEL 1
REMARK minimizedAffinity -4.02691126
REMARK minimizedRMSD -1
REMARK  2 active torsions:
REMARK  status: ('A' for Active; 'I' for Inactive)
REMARK    1  A    between atoms: C2'_3  and  C1'_4 
REMARK    2  A    between atoms: C1'_4  and  C1_5 
ROOT
ATOM      1  C1  I4B d   1       0.269  -0.016  -0.101  0.00  0.00    -0.075 A 
ATOM      2  C2  I4B d   1       0.155  -0.489   1.183  0.00  0.00     0.003 A 
ATOM      3  C3  I4B d   1      -0.698   0.161   2.108  0.00  0.00     0.002 A 
ATOM      4  C4  I4B d   1      -1.375   1.300   1.725  0.00  0.00    -0.004 A 
ATOM      5  C5  I4B d   1      -1.276   1.764   0.416  0.00  0.00     0.002 A 
ATOM      6  C6  I4B d   1      -0.458   1.095  -0.506  0.00  0.00     0.003 A 
ENDROOT
BRANCH   1   7
ATOM      7  C1' I4B d   1       1.204  -0.707  -1.042  0.00  0.00     0.060 C 
BRANCH   7   8
ATOM      8  C2' I4B d   1       0.665  -2.100  -1.297  0.00  0.00    -0.013 C 
ATOM      9  C4' I4B d   1       0.228  -2.262  -2.729  0.00  0.00     0.013 C 
ATOM     10  C3' I4B d   1       1.741  -3.084  -0.945  0.00  0.00     0.013 C 
ENDBRANCH   7   8
ENDBRANCH   1   7
TORSDOF 2
ENDMDL
