MODEL 1
REMARK minimizedAffinity -0.451197952
REMARK minimizedRMSD -1
REMARK  2 active torsions:
REMARK  status: ('A' for Active; 'I' for Inactive)
REMARK    1  A    between atoms: C2'_3  and  C1'_4 
REMARK    2  A    between atoms: C1'_4  and  C1_5 
ROOT
ATOM      1  C1  I4B d   1       0.503  -0.627  -0.262  0.00  0.00    -0.075 A 
ATOM      2  C2  I4B d   1       0.553   0.653  -0.753  0.00  0.00     0.003 A 
ATOM      3  C3  I4B d   1      -0.060   1.714  -0.042  0.00  0.00     0.002 A 
ATOM      4  C4  I4B d   1      -0.751   1.442   1.121  0.00  0.00    -0.004 A 
ATOM      5  C5  I4B d   1      -0.781   0.147   1.629  0.00  0.00     0.002 A 
ATOM      6  C6  I4B d   1      -0.139  -0.893   0.940  0.00  0.00     0.003 A 
ENDROOT
BRANCH   1   7
ATOM      7  C1' I4B d   1       1.133  -1.728  -1.054  0.00  0.00     0.060 C 
BRANCH   7   8
ATOM      8  C2' I4B d   1       0.024  -2.529  -1.705  0.00  0.00    -0.013 C 
ATOM      9  C4' I4B d   1       0.207  -2.601  -3.198  0.00  0.00     0.013 C 
ATOM     10  C3' I4B d   1       0.021  -3.898  -1.094  0.00  0.00     0.013 C 
ENDBRANCH   7   8
ENDBRANCH   1   7
TORSDOF 2
ENDMDL
