MODEL 1
REMARK minimizedAffinity -4.37432146
REMARK minimizedRMSD -1
REMARK  2 active torsions:
REMARK  status: ('A' for Active; 'I' for Inactive)
REMARK    1  A    between atoms: C2'_3  and  C1'_4 
REMARK    2  A    between atoms: C1'_4  and  C1_5 
ROOT
ATOM      1  C1  I4B d   1      -0.099  -0.111  -0.137  0.00  0.00    -0.075 A 
ATOM      2  C2  I4B d   1      -0.600   0.938  -0.866  0.00  0.00     0.003 A 
ATOM      3  C3  I4B d   1      -1.494   1.859  -0.268  0.00  0.00     0.002 A 
ATOM      4  C4  I4B d   1      -1.897   1.665   1.037  0.00  0.00    -0.004 A 
ATOM      5  C5  I4B d   1      -1.370   0.614   1.782  0.00  0.00     0.002 A 
ATOM      6  C6  I4B d   1      -0.456  -0.273   1.195  0.00  0.00     0.003 A 
ENDROOT
BRANCH   1   7
ATOM      7  C1' I4B d   1       0.817  -1.084  -0.810  0.00  0.00     0.060 C 
BRANCH   7   8
ATOM      8  C2' I4B d   1      -0.023  -1.983  -1.693  0.00  0.00    -0.013 C 
ATOM      9  C4' I4B d   1      -0.082  -1.461  -3.104  0.00  0.00     0.013 C 
ATOM     10  C3' I4B d   1       0.570  -3.360  -1.649  0.00  0.00     0.013 C 
ENDBRANCH   7   8
ENDBRANCH   1   7
TORSDOF 2
ENDMDL
