MODEL 1
REMARK minimizedAffinity -3.20361257
REMARK minimizedRMSD -1
REMARK  2 active torsions:
REMARK  status: ('A' for Active; 'I' for Inactive)
REMARK    1  A    between atoms: C2'_3  and  C1'_4 
REMARK    2  A    between atoms: C1'_4  and  C1_5 
ROOT
ATOM      1  C1  I4B d   1      -0.170   0.173  -0.453  0.00  0.00    -0.075 A 
ATOM      2  C2  I4B d   1      -0.718  -0.119   0.771  0.00  0.00     0.003 A 
ATOM      3  C3  I4B d   1      -1.633   0.778   1.375  0.00  0.00     0.002 A 
ATOM      4  C4  I4B d   1      -1.930   1.971   0.747  0.00  0.00    -0.004 A 
ATOM      5  C5  I4B d   1      -1.391   2.254  -0.505  0.00  0.00     0.002 A 
ATOM      6  C6  I4B d   1      -0.515   1.345  -1.114  0.00  0.00     0.003 A 
ENDROOT
BRANCH   1   7
ATOM      7  C1' I4B d   1       0.818  -0.781  -1.046  0.00  0.00     0.060 C 
BRANCH   7   8
ATOM      8  C2' I4B d   1       0.044  -1.898  -1.716  0.00  0.00    -0.013 C 
ATOM      9  C4' I4B d   1      -0.136  -1.629  -3.187  0.00  0.00     0.013 C 
ATOM     10  C3' I4B d   1       0.787  -3.179  -1.487  0.00  0.00     0.013 C 
ENDBRANCH   7   8
ENDBRANCH   1   7
TORSDOF 2
ENDMDL
