MODEL 1
REMARK minimizedAffinity -5.38331223
REMARK minimizedRMSD -1
REMARK  2 active torsions:
REMARK  status: ('A' for Active; 'I' for Inactive)
REMARK    1  A    between atoms: C2'_3  and  C1'_4 
REMARK    2  A    between atoms: C1'_4  and  C1_5 
ROOT
ATOM      1  C1  I4B d   1       0.116   0.075   0.011  0.00  0.00    -0.075 A 
ATOM      2  C2  I4B d   1      -0.035  -0.646   1.169  0.00  0.00     0.003 A 
ATOM      3  C3  I4B d   1      -0.925  -0.200   2.176  0.00  0.00     0.002 A 
ATOM      4  C4  I4B d   1      -1.602   0.991   2.005  0.00  0.00    -0.004 A 
ATOM      5  C5  I4B d   1      -1.465   1.709   0.821  0.00  0.00     0.002 A 
ATOM      6  C6  I4B d   1      -0.610   1.242  -0.188  0.00  0.00     0.003 A 
ENDROOT
BRANCH   1   7
ATOM      7  C1' I4B d   1       1.090  -0.408  -1.017  0.00  0.00     0.060 C 
BRANCH   7   8
ATOM      8  C2' I4B d   1       0.772  -1.858  -1.316  0.00  0.00    -0.013 C 
ATOM      9  C4' I4B d   1       0.136  -2.008  -2.673  0.00  0.00     0.013 C 
ATOM     10  C3' I4B d   1       2.048  -2.640  -1.227  0.00  0.00     0.013 C 
ENDBRANCH   7   8
ENDBRANCH   1   7
TORSDOF 2
ENDMDL
