MODEL 1
REMARK minimizedAffinity -3.6248436
REMARK minimizedRMSD -1
REMARK  2 active torsions:
REMARK  status: ('A' for Active; 'I' for Inactive)
REMARK    1  A    between atoms: C2'_3  and  C1'_4 
REMARK    2  A    between atoms: C1'_4  and  C1_5 
ROOT
ATOM      1  C1  I4B d   1       0.422  -0.083  -0.220  0.00  0.00    -0.075 A 
ATOM      2  C2  I4B d   1      -0.311  -0.545   0.844  0.00  0.00     0.003 A 
ATOM      3  C3  I4B d   1      -1.265   0.294   1.470  0.00  0.00     0.002 A 
ATOM      4  C4  I4B d   1      -1.417   1.594   1.034  0.00  0.00    -0.004 A 
ATOM      5  C5  I4B d   1      -0.689   2.053  -0.060  0.00  0.00     0.002 A 
ATOM      6  C6  I4B d   1       0.228   1.206  -0.699  0.00  0.00     0.003 A 
ENDROOT
BRANCH   1   7
ATOM      7  C1' I4B d   1       1.445  -0.984  -0.836  0.00  0.00     0.060 C 
BRANCH   7   8
ATOM      8  C2' I4B d   1       0.712  -2.095  -1.562  0.00  0.00    -0.013 C 
ATOM      9  C4' I4B d   1       0.485  -1.744  -3.009  0.00  0.00     0.013 C 
ATOM     10  C3' I4B d   1       1.523  -3.349  -1.429  0.00  0.00     0.013 C 
ENDBRANCH   7   8
ENDBRANCH   1   7
TORSDOF 2
ENDMDL
