MODEL 1
REMARK minimizedAffinity 4.53811979
REMARK minimizedRMSD -1
REMARK  0 active torsions:
REMARK  status: ('A' for Active; 'I' for Inactive)
ROOT
ATOM      1  N1  IND d   1       5.998   3.002   3.886  0.00  0.00    -0.196 N 
ATOM      2  C2  IND d   1       5.446   1.783   3.604  0.00  0.00     0.054 A 
ATOM      3  C3  IND d   1       4.495   1.907   2.651  0.00  0.00    -0.031 A 
ATOM      4  C4  IND d   1       3.751   3.996   1.345  0.00  0.00     0.051 A 
ATOM      5  C5  IND d   1       3.939   5.348   1.277  0.00  0.00    -0.031 A 
ATOM      6  C6  IND d   1       4.844   6.000   2.090  0.00  0.00     0.015 A 
ATOM      7  C7  IND d   1       5.605   5.319   2.998  0.00  0.00    -0.016 A 
ATOM      8  C8  IND d   1       5.411   3.947   3.074  0.00  0.00    -0.047 A 
ATOM      9  C9  IND d   1       4.464   3.286   2.281  0.00  0.00    -0.096 A 
ATOM     10  HN1 IND d   1       6.608   3.152   4.473  0.00  0.00     0.298 HD
ENDROOT
TORSDOF 0
ENDMDL
