MODEL 1
REMARK minimizedAffinity 5.36326075
REMARK minimizedRMSD -1
REMARK  0 active torsions:
REMARK  status: ('A' for Active; 'I' for Inactive)
ROOT
ATOM      1  N1  IND d   1       4.083   4.944   1.790  0.00  0.00    -0.196 N 
ATOM      2  C2  IND d   1       4.302   5.983   2.652  0.00  0.00     0.054 A 
ATOM      3  C3  IND d   1       4.463   5.523   3.913  0.00  0.00    -0.031 A 
ATOM      4  C4  IND d   1       4.507   3.098   4.776  0.00  0.00     0.051 A 
ATOM      5  C5  IND d   1       4.317   1.807   4.370  0.00  0.00    -0.031 A 
ATOM      6  C6  IND d   1       4.037   1.489   3.057  0.00  0.00     0.015 A 
ATOM      7  C7  IND d   1       3.946   2.454   2.094  0.00  0.00    -0.016 A 
ATOM      8  C8  IND d   1       4.132   3.766   2.503  0.00  0.00    -0.047 A 
ATOM      9  C9  IND d   1       4.375   4.099   3.842  0.00  0.00    -0.096 A 
ATOM     10  HN1 IND d   1       3.940   5.015   0.946  0.00  0.00     0.298 HD
ENDROOT
TORSDOF 0
ENDMDL
