MODEL 1
REMARK minimizedAffinity 22.079195
REMARK minimizedRMSD -1
REMARK  0 active torsions:
REMARK  status: ('A' for Active; 'I' for Inactive)
ROOT
ATOM      1  N1  IND d   1      -0.335  -0.129  -4.465  0.00  0.00    -0.196 N 
ATOM      2  C2  IND d   1       0.041  -0.688  -5.654  0.00  0.00     0.054 A 
ATOM      3  C3  IND d   1      -0.183  -2.021  -5.639  0.00  0.00    -0.031 A 
ATOM      4  C4  IND d   1      -1.252  -3.480  -3.808  0.00  0.00     0.051 A 
ATOM      5  C5  IND d   1      -1.723  -3.426  -2.526  0.00  0.00    -0.031 A 
ATOM      6  C6  IND d   1      -1.759  -2.246  -1.811  0.00  0.00     0.015 A 
ATOM      7  C7  IND d   1      -1.333  -1.069  -2.358  0.00  0.00    -0.016 A 
ATOM      8  C8  IND d   1      -0.848  -1.121  -3.657  0.00  0.00    -0.047 A 
ATOM      9  C9  IND d   1      -0.770  -2.323  -4.373  0.00  0.00    -0.096 A 
ATOM     10  HN1 IND d   1      -0.264   0.702  -4.256  0.00  0.00     0.298 HD
ENDROOT
TORSDOF 0
ENDMDL
