MODEL 1
REMARK minimizedAffinity 9.12744236
REMARK minimizedRMSD -1
REMARK  0 active torsions:
REMARK  status: ('A' for Active; 'I' for Inactive)
ROOT
ATOM      1  N1  IND d   1       0.791  -1.767   3.375  0.00  0.00    -0.196 N 
ATOM      2  C2  IND d   1       1.724  -1.130   4.146  0.00  0.00     0.054 A 
ATOM      3  C3  IND d   1       1.540   0.209   4.096  0.00  0.00    -0.031 A 
ATOM      4  C4  IND d   1      -0.291   1.565   2.897  0.00  0.00     0.051 A 
ATOM      5  C5  IND d   1      -1.345   1.428   2.039  0.00  0.00    -0.031 A 
ATOM      6  C6  IND d   1      -1.752   0.193   1.575  0.00  0.00     0.015 A 
ATOM      7  C7  IND d   1      -1.123  -0.956   1.963  0.00  0.00    -0.016 A 
ATOM      8  C8  IND d   1      -0.047  -0.820   2.829  0.00  0.00    -0.047 A 
ATOM      9  C9  IND d   1       0.397   0.434   3.269  0.00  0.00    -0.096 A 
ATOM     10  HN1 IND d   1       0.737  -2.616   3.253  0.00  0.00     0.298 HD
ENDROOT
TORSDOF 0
ENDMDL
