MODEL 1
REMARK minimizedAffinity 15.5177259
REMARK minimizedRMSD -1
REMARK  0 active torsions:
REMARK  status: ('A' for Active; 'I' for Inactive)
ROOT
ATOM      1  N1  IND d   1      -0.733   2.993   4.411  0.00  0.00    -0.196 N 
ATOM      2  C2  IND d   1      -0.316   3.012   5.713  0.00  0.00     0.054 A 
ATOM      3  C3  IND d   1       0.395   1.898   5.995  0.00  0.00    -0.031 A 
ATOM      4  C4  IND d   1       1.083  -0.040   4.446  0.00  0.00     0.051 A 
ATOM      5  C5  IND d   1       0.907  -0.520   3.179  0.00  0.00    -0.031 A 
ATOM      6  C6  IND d   1       0.162   0.161   2.237  0.00  0.00     0.015 A 
ATOM      7  C7  IND d   1      -0.427   1.359   2.527  0.00  0.00    -0.016 A 
ATOM      8  C8  IND d   1      -0.256   1.846   3.815  0.00  0.00    -0.047 A 
ATOM      9  C9  IND d   1       0.463   1.139   4.787  0.00  0.00    -0.096 A 
ATOM     10  HN1 IND d   1      -1.213   3.596   4.029  0.00  0.00     0.298 HD
ENDROOT
TORSDOF 0
ENDMDL
