MODEL 1
REMARK minimizedAffinity 15.6066198
REMARK minimizedRMSD -1
REMARK  0 active torsions:
REMARK  status: ('A' for Active; 'I' for Inactive)
ROOT
ATOM      1  N1  IND d   1       3.716   3.482  -5.752  0.00  0.00    -0.196 N 
ATOM      2  C2  IND d   1       4.902   4.116  -5.999  0.00  0.00     0.054 A 
ATOM      3  C3  IND d   1       5.920   3.228  -5.996  0.00  0.00    -0.031 A 
ATOM      4  C4  IND d   1       5.859   0.670  -5.709  0.00  0.00     0.051 A 
ATOM      5  C5  IND d   1       5.010  -0.361  -5.422  0.00  0.00    -0.031 A 
ATOM      6  C6  IND d   1       3.658  -0.161  -5.229  0.00  0.00     0.015 A 
ATOM      7  C7  IND d   1       3.101   1.082  -5.328  0.00  0.00    -0.016 A 
ATOM      8  C8  IND d   1       3.962   2.133  -5.612  0.00  0.00    -0.047 A 
ATOM      9  C9  IND d   1       5.341   1.942  -5.766  0.00  0.00    -0.096 A 
ATOM     10  HN1 IND d   1       2.947   3.861  -5.693  0.00  0.00     0.298 HD
ENDROOT
TORSDOF 0
ENDMDL
