MODEL 1
REMARK minimizedAffinity 17.1089725
REMARK minimizedRMSD -1
REMARK  0 active torsions:
REMARK  status: ('A' for Active; 'I' for Inactive)
ROOT
ATOM      1  N1  IND d   1       0.381  -1.151   1.657  0.00  0.00    -0.196 N 
ATOM      2  C2  IND d   1       0.884  -0.131   2.416  0.00  0.00     0.054 A 
ATOM      3  C3  IND d   1      -0.025   0.864   2.527  0.00  0.00    -0.031 A 
ATOM      4  C4  IND d   1      -2.435   0.986   1.632  0.00  0.00     0.051 A 
ATOM      5  C5  IND d   1      -3.329   0.310   0.850  0.00  0.00    -0.031 A 
ATOM      6  C6  IND d   1      -3.028  -0.913   0.288  0.00  0.00     0.015 A 
ATOM      7  C7  IND d   1      -1.819  -1.514   0.498  0.00  0.00    -0.016 A 
ATOM      8  C8  IND d   1      -0.906  -0.828   1.285  0.00  0.00    -0.047 A 
ATOM      9  C9  IND d   1      -1.191   0.434   1.823  0.00  0.00    -0.096 A 
ATOM     10  HN1 IND d   1       0.798  -1.873   1.447  0.00  0.00     0.298 HD
ENDROOT
TORSDOF 0
ENDMDL
