MODEL 1
REMARK minimizedAffinity 15.1861992
REMARK minimizedRMSD -1
REMARK  0 active torsions:
REMARK  status: ('A' for Active; 'I' for Inactive)
ROOT
ATOM      1  N1  IND d   1      -0.327   1.263   2.513  0.00  0.00    -0.196 N 
ATOM      2  C2  IND d   1      -1.098   0.463   1.717  0.00  0.00     0.054 A 
ATOM      3  C3  IND d   1      -0.793  -0.838   1.920  0.00  0.00    -0.031 A 
ATOM      4  C4  IND d   1       0.868  -1.888   3.583  0.00  0.00     0.051 A 
ATOM      5  C5  IND d   1       1.828  -1.560   4.498  0.00  0.00    -0.031 A 
ATOM      6  C6  IND d   1       2.124  -0.248   4.806  0.00  0.00     0.015 A 
ATOM      7  C7  IND d   1       1.459   0.790   4.217  0.00  0.00    -0.016 A 
ATOM      8  C8  IND d   1       0.488   0.461   3.282  0.00  0.00    -0.047 A 
ATOM      9  C9  IND d   1       0.213  -0.868   2.934  0.00  0.00    -0.096 A 
ATOM     10  HN1 IND d   1      -0.347   2.122   2.531  0.00  0.00     0.298 HD
ENDROOT
TORSDOF 0
ENDMDL
