MODEL 1
REMARK minimizedAffinity 7.74631405
REMARK minimizedRMSD -1
REMARK  0 active torsions:
REMARK  status: ('A' for Active; 'I' for Inactive)
ROOT
ATOM      1  C   UNL d   1      -4.245   5.955   2.380  0.00  0.00     0.124 A 
ATOM      2  C1  UNL d   1      -4.630   5.951   3.713  0.00  0.00     0.062 A 
ATOM      3  C2  UNL d   1      -3.668   5.961   4.719  0.00  0.00     0.162 A 
ATOM      4  C3  UNL d   1      -2.311   5.975   4.396  0.00  0.00    -0.034 A 
ATOM      5  C4  UNL d   1      -1.932   5.978   3.052  0.00  0.00     0.162 A 
ATOM      6  C5  UNL d   1      -2.897   5.969   2.050  0.00  0.00     0.062 A 
ATOM      7  F   UNL d   1      -2.523   5.973   0.763  0.00  0.00    -0.097 F 
ATOM      8  F1  UNL d   1      -0.636   5.993   2.706  0.00  0.00    -0.096 F 
ATOM      9  I   UNL d   1      -0.870   5.990   5.897  0.00  0.00    -0.060 I 
ATOM     10  F2  UNL d   1      -4.069   5.956   5.999  0.00  0.00    -0.096 F 
ATOM     11  F3  UNL d   1      -5.932   5.937   4.034  0.00  0.00    -0.097 F 
ATOM     12  F4  UNL d   1      -5.172   5.945   1.414  0.00  0.00    -0.092 F 
ENDROOT
TORSDOF 0
ENDMDL
