MODEL 1
REMARK minimizedAffinity 29.6772194
REMARK minimizedRMSD -1
REMARK  0 active torsions:
REMARK  status: ('A' for Active; 'I' for Inactive)
ROOT
ATOM      1  C   UNL d   1      -2.552   2.535   3.191  0.00  0.00     0.124 A 
ATOM      2  C1  UNL d   1      -3.759   2.257   2.564  0.00  0.00     0.062 A 
ATOM      3  C2  UNL d   1      -4.743   3.237   2.475  0.00  0.00     0.162 A 
ATOM      4  C3  UNL d   1      -4.526   4.504   3.014  0.00  0.00    -0.034 A 
ATOM      5  C4  UNL d   1      -3.310   4.776   3.645  0.00  0.00     0.162 A 
ATOM      6  C5  UNL d   1      -2.329   3.794   3.731  0.00  0.00     0.062 A 
ATOM      7  F   UNL d   1      -1.164   4.064   4.338  0.00  0.00    -0.097 F 
ATOM      8  F1  UNL d   1      -3.068   5.984   4.174  0.00  0.00    -0.096 F 
ATOM      9  I   UNL d   1      -5.996   5.972   2.883  0.00  0.00    -0.060 I 
ATOM     10  F2  UNL d   1      -5.899   2.940   1.863  0.00  0.00    -0.096 F 
ATOM     11  F3  UNL d   1      -3.977   1.041   2.042  0.00  0.00    -0.097 F 
ATOM     12  F4  UNL d   1      -1.607   1.590   3.276  0.00  0.00    -0.092 F 
ENDROOT
TORSDOF 0
ENDMDL
