MODEL 1
REMARK minimizedAffinity 5.79133654
REMARK minimizedRMSD -1
REMARK  0 active torsions:
REMARK  status: ('A' for Active; 'I' for Inactive)
ROOT
ATOM      1  C   UNL d   1       1.446   1.343  -1.643  0.00  0.00     0.124 A 
ATOM      2  C1  UNL d   1       1.231   1.137  -2.999  0.00  0.00     0.062 A 
ATOM      3  C2  UNL d   1       1.166  -0.157  -3.508  0.00  0.00     0.162 A 
ATOM      4  C3  UNL d   1       1.314  -1.255  -2.661  0.00  0.00    -0.034 A 
ATOM      5  C4  UNL d   1       1.530  -1.040  -1.299  0.00  0.00     0.162 A 
ATOM      6  C5  UNL d   1       1.595   0.255  -0.795  0.00  0.00     0.062 A 
ATOM      7  F   UNL d   1       1.803   0.453   0.515  0.00  0.00    -0.097 F 
ATOM      8  F1  UNL d   1       1.677  -2.073  -0.456  0.00  0.00    -0.096 F 
ATOM      9  I   UNL d   1       1.216  -3.191  -3.419  0.00  0.00    -0.060 I 
ATOM     10  F2  UNL d   1       0.957  -0.327  -4.822  0.00  0.00    -0.096 F 
ATOM     11  F3  UNL d   1       1.088   2.186  -3.821  0.00  0.00    -0.097 F 
ATOM     12  F4  UNL d   1       1.510   2.589  -1.156  0.00  0.00    -0.092 F 
ENDROOT
TORSDOF 0
ENDMDL
