MODEL 1
REMARK minimizedAffinity 3.81878662
REMARK minimizedRMSD -1
REMARK  0 active torsions:
REMARK  status: ('A' for Active; 'I' for Inactive)
ROOT
ATOM      1  C   UNL d   1       1.254  -2.524  -3.313  0.00  0.00     0.124 A 
ATOM      2  C1  UNL d   1       1.461  -1.658  -4.377  0.00  0.00     0.062 A 
ATOM      3  C2  UNL d   1       1.492  -0.283  -4.165  0.00  0.00     0.162 A 
ATOM      4  C3  UNL d   1       1.316   0.235  -2.881  0.00  0.00    -0.034 A 
ATOM      5  C4  UNL d   1       1.107  -0.642  -1.816  0.00  0.00     0.162 A 
ATOM      6  C5  UNL d   1       1.077  -2.016  -2.033  0.00  0.00     0.062 A 
ATOM      7  F   UNL d   1       0.876  -2.851  -1.004  0.00  0.00    -0.097 F 
ATOM      8  F1  UNL d   1       0.934  -0.178  -0.569  0.00  0.00    -0.096 F 
ATOM      9  I   UNL d   1       1.362   2.291  -2.560  0.00  0.00    -0.060 I 
ATOM     10  F2  UNL d   1       1.694   0.530  -5.212  0.00  0.00    -0.096 F 
ATOM     11  F3  UNL d   1       1.631  -2.147  -5.614  0.00  0.00    -0.097 F 
ATOM     12  F4  UNL d   1       1.223  -3.847  -3.520  0.00  0.00    -0.092 F 
ENDROOT
TORSDOF 0
ENDMDL
