MODEL 1
REMARK minimizedAffinity 24.2948303
REMARK minimizedRMSD -1
REMARK  0 active torsions:
REMARK  status: ('A' for Active; 'I' for Inactive)
ROOT
ATOM      1  C   UNL d   1       1.388   2.076  -2.680  0.00  0.00     0.124 A 
ATOM      2  C1  UNL d   1       2.224   2.866  -3.457  0.00  0.00     0.062 A 
ATOM      3  C2  UNL d   1       3.535   2.468  -3.702  0.00  0.00     0.162 A 
ATOM      4  C3  UNL d   1       4.019   1.273  -3.170  0.00  0.00    -0.034 A 
ATOM      5  C4  UNL d   1       3.172   0.484  -2.389  0.00  0.00     0.162 A 
ATOM      6  C5  UNL d   1       1.863   0.886  -2.147  0.00  0.00     0.062 A 
ATOM      7  F   UNL d   1       1.056   0.121  -1.397  0.00  0.00    -0.097 F 
ATOM      8  F1  UNL d   1       3.605  -0.671  -1.862  0.00  0.00    -0.096 F 
ATOM      9  I   UNL d   1       5.979   0.675  -3.533  0.00  0.00    -0.060 I 
ATOM     10  F2  UNL d   1       4.320   3.252  -4.456  0.00  0.00    -0.096 F 
ATOM     11  F3  UNL d   1       1.768   4.017  -3.973  0.00  0.00    -0.097 F 
ATOM     12  F4  UNL d   1       0.127   2.462  -2.446  0.00  0.00    -0.092 F 
ENDROOT
TORSDOF 0
ENDMDL
