MODEL 1
REMARK minimizedAffinity 14.4011574
REMARK minimizedRMSD -1
REMARK  0 active torsions:
REMARK  status: ('A' for Active; 'I' for Inactive)
ROOT
ATOM      1  C   UNL d   1       1.548   3.046  -3.286  0.00  0.00     0.124 A 
ATOM      2  C1  UNL d   1       1.992   3.893  -2.279  0.00  0.00     0.062 A 
ATOM      3  C2  UNL d   1       2.356   3.376  -1.039  0.00  0.00     0.162 A 
ATOM      4  C3  UNL d   1       2.280   2.004  -0.799  0.00  0.00    -0.034 A 
ATOM      5  C4  UNL d   1       1.832   1.159  -1.816  0.00  0.00     0.162 A 
ATOM      6  C5  UNL d   1       1.469   1.681  -3.053  0.00  0.00     0.062 A 
ATOM      7  F   UNL d   1       1.040   0.861  -4.024  0.00  0.00    -0.097 F 
ATOM      8  F1  UNL d   1       1.746  -0.165  -1.618  0.00  0.00    -0.096 F 
ATOM      9  I   UNL d   1       2.824   1.227   1.054  0.00  0.00    -0.060 I 
ATOM     10  F2  UNL d   1       2.782   4.218  -0.085  0.00  0.00    -0.096 F 
ATOM     11  F3  UNL d   1       2.069   5.213  -2.501  0.00  0.00    -0.097 F 
ATOM     12  F4  UNL d   1       1.197   3.547  -4.477  0.00  0.00    -0.092 F 
ENDROOT
TORSDOF 0
ENDMDL
