MODEL 1
REMARK minimizedAffinity 10.9720335
REMARK minimizedRMSD -1
REMARK  0 active torsions:
REMARK  status: ('A' for Active; 'I' for Inactive)
ROOT
ATOM      1  C   UNL d   1       2.769   3.562  -4.656  0.00  0.00     0.124 A 
ATOM      2  C1  UNL d   1       3.615   2.488  -4.420  0.00  0.00     0.062 A 
ATOM      3  C2  UNL d   1       3.219   1.459  -3.570  0.00  0.00     0.162 A 
ATOM      4  C3  UNL d   1       1.971   1.499  -2.949  0.00  0.00    -0.034 A 
ATOM      5  C4  UNL d   1       1.126   2.584  -3.190  0.00  0.00     0.162 A 
ATOM      6  C5  UNL d   1       1.526   3.610  -4.041  0.00  0.00     0.062 A 
ATOM      7  F   UNL d   1       0.707   4.647  -4.267  0.00  0.00    -0.097 F 
ATOM      8  F1  UNL d   1      -0.081   2.655  -2.610  0.00  0.00    -0.096 F 
ATOM      9  I   UNL d   1       1.376  -0.037  -1.677  0.00  0.00    -0.060 I 
ATOM     10  F2  UNL d   1       4.057   0.433  -3.360  0.00  0.00    -0.096 F 
ATOM     11  F3  UNL d   1       4.817   2.440  -5.012  0.00  0.00    -0.097 F 
ATOM     12  F4  UNL d   1       3.152   4.551  -5.473  0.00  0.00    -0.092 F 
ENDROOT
TORSDOF 0
ENDMDL
