MODEL 1
REMARK minimizedAffinity 28.4175739
REMARK minimizedRMSD -1
REMARK  0 active torsions:
REMARK  status: ('A' for Active; 'I' for Inactive)
ROOT
ATOM      1  C   UNL d   1      -1.128   5.945   3.285  0.00  0.00     0.124 A 
ATOM      2  C1  UNL d   1      -1.781   5.914   2.061  0.00  0.00     0.062 A 
ATOM      3  C2  UNL d   1      -3.172   5.892   2.009  0.00  0.00     0.162 A 
ATOM      4  C3  UNL d   1      -3.920   5.901   3.186  0.00  0.00    -0.034 A 
ATOM      5  C4  UNL d   1      -3.256   5.931   4.414  0.00  0.00     0.162 A 
ATOM      6  C5  UNL d   1      -1.866   5.953   4.460  0.00  0.00     0.062 A 
ATOM      7  F   UNL d   1      -1.237   5.983   5.644  0.00  0.00    -0.097 F 
ATOM      8  F1  UNL d   1      -3.945   5.941   5.565  0.00  0.00    -0.096 F 
ATOM      9  I   UNL d   1      -6.000   5.868   3.114  0.00  0.00    -0.060 I 
ATOM     10  F2  UNL d   1      -3.776   5.862   0.812  0.00  0.00    -0.096 F 
ATOM     11  F3  UNL d   1      -1.071   5.905   0.924  0.00  0.00    -0.097 F 
ATOM     12  F4  UNL d   1       0.210   5.965   3.332  0.00  0.00    -0.092 F 
ENDROOT
TORSDOF 0
ENDMDL
