MODEL 1
REMARK minimizedAffinity 18.4364491
REMARK minimizedRMSD -1
REMARK  0 active torsions:
REMARK  status: ('A' for Active; 'I' for Inactive)
ROOT
ATOM      1  C   UNL d   1       2.487   0.245  -2.258  0.00  0.00     0.124 A 
ATOM      2  C1  UNL d   1       3.336   0.886  -3.149  0.00  0.00     0.062 A 
ATOM      3  C2  UNL d   1       2.936   2.064  -3.774  0.00  0.00     0.162 A 
ATOM      4  C3  UNL d   1       1.679   2.609  -3.510  0.00  0.00    -0.034 A 
ATOM      5  C4  UNL d   1       0.830   1.958  -2.613  0.00  0.00     0.162 A 
ATOM      6  C5  UNL d   1       1.235   0.781  -1.991  0.00  0.00     0.062 A 
ATOM      7  F   UNL d   1       0.413   0.164  -1.130  0.00  0.00    -0.097 F 
ATOM      8  F1  UNL d   1      -0.384   2.455  -2.336  0.00  0.00    -0.096 F 
ATOM      9  I   UNL d   1       1.077   4.369  -4.443  0.00  0.00    -0.060 I 
ATOM     10  F2  UNL d   1       3.777   2.662  -4.631  0.00  0.00    -0.096 F 
ATOM     11  F3  UNL d   1       4.546   0.370  -3.410  0.00  0.00    -0.097 F 
ATOM     12  F4  UNL d   1       2.875  -0.888  -1.659  0.00  0.00    -0.092 F 
ENDROOT
TORSDOF 0
ENDMDL
