MODEL 1
REMARK minimizedAffinity 7.97799683
REMARK minimizedRMSD -1
REMARK  0 active torsions:
REMARK  status: ('A' for Active; 'I' for Inactive)
ROOT
ATOM      1  C   UNL d   1       1.622   1.562  -2.793  0.00  0.00     0.124 A 
ATOM      2  C1  UNL d   1       1.660   0.386  -3.529  0.00  0.00     0.062 A 
ATOM      3  C2  UNL d   1       1.707  -0.845  -2.880  0.00  0.00     0.162 A 
ATOM      4  C3  UNL d   1       1.714  -0.906  -1.487  0.00  0.00    -0.034 A 
ATOM      5  C4  UNL d   1       1.676   0.282  -0.753  0.00  0.00     0.162 A 
ATOM      6  C5  UNL d   1       1.630   1.509  -1.406  0.00  0.00     0.062 A 
ATOM      7  F   UNL d   1       1.593   2.644  -0.694  0.00  0.00    -0.097 F 
ATOM      8  F1  UNL d   1       1.682   0.259   0.588  0.00  0.00    -0.096 F 
ATOM      9  I   UNL d   1       1.783  -2.744  -0.513  0.00  0.00    -0.060 I 
ATOM     10  F2  UNL d   1       1.743  -1.965  -3.617  0.00  0.00    -0.096 F 
ATOM     11  F3  UNL d   1       1.654   0.434  -4.869  0.00  0.00    -0.097 F 
ATOM     12  F4  UNL d   1       1.579   2.745  -3.420  0.00  0.00    -0.092 F 
ENDROOT
TORSDOF 0
ENDMDL
