MODEL 1
REMARK minimizedAffinity 21.0343208
REMARK minimizedRMSD -1
REMARK  0 active torsions:
REMARK  status: ('A' for Active; 'I' for Inactive)
ROOT
ATOM      1  C   UNL d   1       1.829   3.724  -1.916  0.00  0.00     0.124 A 
ATOM      2  C1  UNL d   1       2.052   3.143  -0.676  0.00  0.00     0.062 A 
ATOM      3  C2  UNL d   1       1.969   1.761  -0.525  0.00  0.00     0.162 A 
ATOM      4  C3  UNL d   1       1.661   0.952  -1.618  0.00  0.00    -0.034 A 
ATOM      5  C4  UNL d   1       1.437   1.544  -2.862  0.00  0.00     0.162 A 
ATOM      6  C5  UNL d   1       1.521   2.925  -3.008  0.00  0.00     0.062 A 
ATOM      7  F   UNL d   1       1.305   3.485  -4.207  0.00  0.00    -0.097 F 
ATOM      8  F1  UNL d   1       1.139   0.795  -3.934  0.00  0.00    -0.096 F 
ATOM      9  I   UNL d   1       1.535  -1.114  -1.397  0.00  0.00    -0.060 I 
ATOM     10  F2  UNL d   1       2.189   1.227   0.685  0.00  0.00    -0.096 F 
ATOM     11  F3  UNL d   1       2.348   3.913   0.381  0.00  0.00    -0.097 F 
ATOM     12  F4  UNL d   1       1.909   5.054  -2.058  0.00  0.00    -0.092 F 
ENDROOT
TORSDOF 0
ENDMDL
