MODEL 1
REMARK minimizedAffinity 10.2944775
REMARK minimizedRMSD -1
REMARK  0 active torsions:
REMARK  status: ('A' for Active; 'I' for Inactive)
ROOT
ATOM      1  C   UNL d   1       1.724   1.141  -1.977  0.00  0.00     0.124 A 
ATOM      2  C1  UNL d   1       1.952   2.506  -1.877  0.00  0.00     0.062 A 
ATOM      3  C2  UNL d   1       2.007   3.293  -3.024  0.00  0.00     0.162 A 
ATOM      4  C3  UNL d   1       1.832   2.716  -4.282  0.00  0.00    -0.034 A 
ATOM      5  C4  UNL d   1       1.603   1.342  -4.374  0.00  0.00     0.162 A 
ATOM      6  C5  UNL d   1       1.550   0.560  -3.225  0.00  0.00     0.062 A 
ATOM      7  F   UNL d   1       1.329  -0.759  -3.324  0.00  0.00    -0.097 F 
ATOM      8  F1  UNL d   1       1.431   0.755  -5.568  0.00  0.00    -0.096 F 
ATOM      9  I   UNL d   1       1.913   3.888  -5.999  0.00  0.00    -0.060 I 
ATOM     10  F2  UNL d   1       2.229   4.610  -2.897  0.00  0.00    -0.096 F 
ATOM     11  F3  UNL d   1       2.121   3.070  -0.672  0.00  0.00    -0.097 F 
ATOM     12  F4  UNL d   1       1.672   0.386  -0.872  0.00  0.00    -0.092 F 
ENDROOT
TORSDOF 0
ENDMDL
