MODEL 1
REMARK minimizedAffinity 14.5914087
REMARK minimizedRMSD -1
REMARK  0 active torsions:
REMARK  status: ('A' for Active; 'I' for Inactive)
ROOT
ATOM      1  C   UNL d   1       1.379   1.553  -2.890  0.00  0.00     0.124 A 
ATOM      2  C1  UNL d   1       1.680   0.369  -3.549  0.00  0.00     0.062 A 
ATOM      3  C2  UNL d   1       1.722  -0.832  -2.846  0.00  0.00     0.162 A 
ATOM      4  C3  UNL d   1       1.462  -0.855  -1.476  0.00  0.00    -0.034 A 
ATOM      5  C4  UNL d   1       1.161   0.340  -0.820  0.00  0.00     0.162 A 
ATOM      6  C5  UNL d   1       1.120   1.537  -1.526  0.00  0.00     0.062 A 
ATOM      7  F   UNL d   1       0.829   2.680  -0.888  0.00  0.00    -0.097 F 
ATOM      8  F1  UNL d   1       0.905   0.353   0.497  0.00  0.00    -0.096 F 
ATOM      9  I   UNL d   1       1.523  -2.649  -0.422  0.00  0.00    -0.060 I 
ATOM     10  F2  UNL d   1       2.016  -1.961  -3.509  0.00  0.00    -0.096 F 
ATOM     11  F3  UNL d   1       1.932   0.382  -4.865  0.00  0.00    -0.097 F 
ATOM     12  F4  UNL d   1       1.340   2.707  -3.568  0.00  0.00    -0.092 F 
ENDROOT
TORSDOF 0
ENDMDL
