MODEL 1
REMARK minimizedAffinity 3.99883366
REMARK minimizedRMSD -1
REMARK  0 active torsions:
REMARK  status: ('A' for Active; 'I' for Inactive)
ROOT
ATOM      1  C   UNL d   1       1.727   3.579  -1.789  0.00  0.00     0.124 A 
ATOM      2  C1  UNL d   1       1.825   3.009  -0.527  0.00  0.00     0.062 A 
ATOM      3  C2  UNL d   1       1.814   1.625  -0.381  0.00  0.00     0.162 A 
ATOM      4  C3  UNL d   1       1.704   0.800  -1.501  0.00  0.00    -0.034 A 
ATOM      5  C4  UNL d   1       1.604   1.381  -2.766  0.00  0.00     0.162 A 
ATOM      6  C5  UNL d   1       1.617   2.765  -2.907  0.00  0.00     0.062 A 
ATOM      7  F   UNL d   1       1.521   3.313  -4.127  0.00  0.00    -0.097 F 
ATOM      8  F1  UNL d   1       1.497   0.617  -3.864  0.00  0.00    -0.096 F 
ATOM      9  I   UNL d   1       1.686  -1.270  -1.287  0.00  0.00    -0.060 I 
ATOM     10  F2  UNL d   1       1.910   1.102   0.850  0.00  0.00    -0.096 F 
ATOM     11  F3  UNL d   1       1.931   3.794   0.555  0.00  0.00    -0.097 F 
ATOM     12  F4  UNL d   1       1.738   4.911  -1.926  0.00  0.00    -0.092 F 
ENDROOT
TORSDOF 0
ENDMDL
