MODEL 1
REMARK minimizedAffinity 7.78113794
REMARK minimizedRMSD -1
REMARK  0 active torsions:
REMARK  status: ('A' for Active; 'I' for Inactive)
ROOT
ATOM      1  C   UNL d   1       1.632   2.899  -2.286  0.00  0.00     0.124 A 
ATOM      2  C1  UNL d   1       2.197   3.694  -1.298  0.00  0.00     0.062 A 
ATOM      3  C2  UNL d   1       2.660   3.120  -0.117  0.00  0.00     0.162 A 
ATOM      4  C3  UNL d   1       2.561   1.743   0.082  0.00  0.00    -0.034 A 
ATOM      5  C4  UNL d   1       1.991   0.950  -0.916  0.00  0.00     0.162 A 
ATOM      6  C5  UNL d   1       1.530   1.529  -2.094  0.00  0.00     0.062 A 
ATOM      7  F   UNL d   1       0.985   0.759  -3.048  0.00  0.00    -0.097 F 
ATOM      8  F1  UNL d   1       1.881  -0.377  -0.758  0.00  0.00    -0.096 F 
ATOM      9  I   UNL d   1       3.252   0.881   1.846  0.00  0.00    -0.060 I 
ATOM     10  F2  UNL d   1       3.201   3.912   0.821  0.00  0.00    -0.096 F 
ATOM     11  F3  UNL d   1       2.296   5.018  -1.480  0.00  0.00    -0.097 F 
ATOM     12  F4  UNL d   1       1.187   3.454  -3.420  0.00  0.00    -0.092 F 
ENDROOT
TORSDOF 0
ENDMDL
