MODEL 1
REMARK minimizedAffinity 14.2280521
REMARK minimizedRMSD -1
REMARK  0 active torsions:
REMARK  status: ('A' for Active; 'I' for Inactive)
ROOT
ATOM      1  C   UNL d   1       1.402   1.191  -3.367  0.00  0.00     0.124 A 
ATOM      2  C1  UNL d   1       1.696   2.546  -3.320  0.00  0.00     0.062 A 
ATOM      3  C2  UNL d   1       1.982   3.159  -2.103  0.00  0.00     0.162 A 
ATOM      4  C3  UNL d   1       1.976   2.416  -0.923  0.00  0.00    -0.034 A 
ATOM      5  C4  UNL d   1       1.678   1.053  -0.978  0.00  0.00     0.162 A 
ATOM      6  C5  UNL d   1       1.393   0.446  -2.197  0.00  0.00     0.062 A 
ATOM      7  F   UNL d   1       1.109  -0.864  -2.240  0.00  0.00    -0.097 F 
ATOM      8  F1  UNL d   1       1.663   0.309   0.138  0.00  0.00    -0.096 F 
ATOM      9  I   UNL d   1       2.402   3.328   0.899  0.00  0.00    -0.060 I 
ATOM     10  F2  UNL d   1       2.263   4.470  -2.087  0.00  0.00    -0.096 F 
ATOM     11  F3  UNL d   1       1.705   3.269  -4.449  0.00  0.00    -0.097 F 
ATOM     12  F4  UNL d   1       1.127   0.604  -4.539  0.00  0.00    -0.092 F 
ENDROOT
TORSDOF 0
ENDMDL
