MODEL 1
REMARK minimizedAffinity 1.78706074
REMARK minimizedRMSD -1
REMARK  0 active torsions:
REMARK  status: ('A' for Active; 'I' for Inactive)
ROOT
ATOM      1  C   UNL d   1      -2.321  -5.614  -5.996  0.00  0.00     0.078 C 
ATOM      2  C1  UNL d   1      -3.588  -5.727  -5.202  0.00  0.00    -0.077 A 
ATOM      3  C2  UNL d   1      -3.567  -5.694  -3.802  0.00  0.00    -0.001 A 
ATOM      4  C3  UNL d   1      -4.753  -5.811  -3.075  0.00  0.00     0.003 A 
ATOM      5  C4  UNL d   1      -5.969  -5.963  -3.740  0.00  0.00    -0.005 A 
ATOM      6  C5  UNL d   1      -5.999  -6.000  -5.132  0.00  0.00     0.003 A 
ATOM      7  C6  UNL d   1      -4.814  -5.883  -5.861  0.00  0.00    -0.001 A 
ENDROOT
TORSDOF 0
ENDMDL
