MODEL 1
REMARK minimizedAffinity 10.4577961
REMARK minimizedRMSD -1
REMARK  0 active torsions:
REMARK  status: ('A' for Active; 'I' for Inactive)
ROOT
ATOM      1  C   UNL d   1       5.517  -5.282  -0.587  0.00  0.00     0.078 C 
ATOM      2  C1  UNL d   1       4.828  -3.952  -0.516  0.00  0.00    -0.077 A 
ATOM      3  C2  UNL d   1       5.517  -2.767  -0.802  0.00  0.00    -0.001 A 
ATOM      4  C3  UNL d   1       4.865  -1.535  -0.723  0.00  0.00     0.003 A 
ATOM      5  C4  UNL d   1       3.522  -1.477  -0.357  0.00  0.00    -0.005 A 
ATOM      6  C5  UNL d   1       2.829  -2.650  -0.069  0.00  0.00     0.003 A 
ATOM      7  C6  UNL d   1       3.478  -3.883  -0.148  0.00  0.00    -0.001 A 
ENDROOT
TORSDOF 0
ENDMDL
