MODEL 1
REMARK minimizedAffinity 8.17241096
REMARK minimizedRMSD -1
REMARK  0 active torsions:
REMARK  status: ('A' for Active; 'I' for Inactive)
ROOT
ATOM      1  C   UNL d   1       0.789  -0.829   3.796  0.00  0.00     0.078 C 
ATOM      2  C1  UNL d   1       0.685   0.562   3.246  0.00  0.00    -0.077 A 
ATOM      3  C2  UNL d   1       1.830   1.338   3.028  0.00  0.00    -0.001 A 
ATOM      4  C3  UNL d   1       1.719   2.635   2.524  0.00  0.00     0.003 A 
ATOM      5  C4  UNL d   1       0.464   3.168   2.236  0.00  0.00    -0.005 A 
ATOM      6  C5  UNL d   1      -0.681   2.405   2.453  0.00  0.00     0.003 A 
ATOM      7  C6  UNL d   1      -0.572   1.107   2.956  0.00  0.00    -0.001 A 
ENDROOT
TORSDOF 0
ENDMDL
