MODEL 1
REMARK minimizedAffinity 2.71745229
REMARK minimizedRMSD -1
REMARK  0 active torsions:
REMARK  status: ('A' for Active; 'I' for Inactive)
ROOT
ATOM      1  C   UNL d   1      -0.148   3.977  -0.009  0.00  0.00     0.078 C 
ATOM      2  C1  UNL d   1       0.196   3.282   1.275  0.00  0.00    -0.077 A 
ATOM      3  C2  UNL d   1       1.381   3.578   1.960  0.00  0.00    -0.001 A 
ATOM      4  C3  UNL d   1       1.693   2.917   3.149  0.00  0.00     0.003 A 
ATOM      5  C4  UNL d   1       0.826   1.954   3.662  0.00  0.00    -0.005 A 
ATOM      6  C5  UNL d   1      -0.355   1.652   2.986  0.00  0.00     0.003 A 
ATOM      7  C6  UNL d   1      -0.668   2.312   1.797  0.00  0.00    -0.001 A 
ENDROOT
TORSDOF 0
ENDMDL
