MODEL 1
REMARK minimizedAffinity -3.72889495
REMARK minimizedRMSD -1
REMARK  0 active torsions:
REMARK  status: ('A' for Active; 'I' for Inactive)
ROOT
ATOM      1  C   UNL d   1       4.916  -1.335   0.673  0.00  0.00     0.078 C 
ATOM      2  C1  UNL d   1       4.621  -2.423  -0.316  0.00  0.00    -0.077 A 
ATOM      3  C2  UNL d   1       3.568  -2.299  -1.231  0.00  0.00    -0.001 A 
ATOM      4  C3  UNL d   1       3.299  -3.324  -2.140  0.00  0.00     0.003 A 
ATOM      5  C4  UNL d   1       4.076  -4.480  -2.141  0.00  0.00    -0.005 A 
ATOM      6  C5  UNL d   1       5.124  -4.614  -1.233  0.00  0.00     0.003 A 
ATOM      7  C6  UNL d   1       5.395  -3.590  -0.323  0.00  0.00    -0.001 A 
ENDROOT
TORSDOF 0
ENDMDL
