MODEL 1
REMARK minimizedAffinity 7.0915103
REMARK minimizedRMSD -1
REMARK  0 active torsions:
REMARK  status: ('A' for Active; 'I' for Inactive)
ROOT
ATOM      1  C   UNL d   1       4.453  -5.468  -4.634  0.00  0.00     0.078 C 
ATOM      2  C1  UNL d   1       4.636  -4.648  -3.392  0.00  0.00    -0.077 A 
ATOM      3  C2  UNL d   1       4.818  -5.259  -2.145  0.00  0.00    -0.001 A 
ATOM      4  C3  UNL d   1       4.977  -4.484  -0.995  0.00  0.00     0.003 A 
ATOM      5  C4  UNL d   1       4.955  -3.093  -1.081  0.00  0.00    -0.005 A 
ATOM      6  C5  UNL d   1       4.773  -2.476  -2.317  0.00  0.00     0.003 A 
ATOM      7  C6  UNL d   1       4.613  -3.250  -3.467  0.00  0.00    -0.001 A 
ENDROOT
TORSDOF 0
ENDMDL
