MODEL 1
REMARK minimizedAffinity 4.36452484
REMARK minimizedRMSD -1
REMARK  0 active torsions:
REMARK  status: ('A' for Active; 'I' for Inactive)
ROOT
ATOM      1  C4' PXY d   1       1.875  -0.658   2.689  0.00  0.00     0.077 C 
ATOM      2  C1' PXY d   1       1.391  -5.371   6.000  0.00  0.00     0.077 C 
ATOM      3  C1  PXY d   1       1.519  -4.128   5.142  0.00  0.00    -0.082 A 
ATOM      4  C2  PXY d   1       1.016  -4.122   3.919  0.00  0.00     0.003 A 
ATOM      5  C3  PXY d   1       1.150  -3.017   3.118  0.00  0.00     0.003 A 
ATOM      6  C4  PXY d   1       1.761  -1.888   3.594  0.00  0.00    -0.082 A 
ATOM      7  C5  PXY d   1       2.268  -1.882   4.845  0.00  0.00     0.003 A 
ATOM      8  C6  PXY d   1       2.157  -3.028   5.627  0.00  0.00     0.003 A 
ENDROOT
TORSDOF 0
ENDMDL
