MODEL 1
REMARK minimizedAffinity 7.61953306
REMARK minimizedRMSD -1
REMARK  0 active torsions:
REMARK  status: ('A' for Active; 'I' for Inactive)
ROOT
ATOM      1  C4' PXY d   1      -3.416   0.638  -3.031  0.00  0.00     0.077 C 
ATOM      2  C1' PXY d   1      -6.000  -4.246  -1.333  0.00  0.00     0.077 C 
ATOM      3  C1  PXY d   1      -5.311  -2.970  -1.775  0.00  0.00    -0.082 A 
ATOM      4  C2  PXY d   1      -5.984  -1.832  -1.781  0.00  0.00     0.003 A 
ATOM      5  C3  PXY d   1      -5.386  -0.674  -2.208  0.00  0.00     0.003 A 
ATOM      6  C4  PXY d   1      -4.069  -0.673  -2.583  0.00  0.00    -0.082 A 
ATOM      7  C5  PXY d   1      -3.372  -1.829  -2.569  0.00  0.00     0.003 A 
ATOM      8  C6  PXY d   1      -4.009  -3.000  -2.171  0.00  0.00     0.003 A 
ENDROOT
TORSDOF 0
ENDMDL
