MODEL 1
REMARK minimizedAffinity 6.55592203
REMARK minimizedRMSD -1
REMARK  0 active torsions:
REMARK  status: ('A' for Active; 'I' for Inactive)
ROOT
ATOM      1  C4' PXY d   1      -5.658   4.589   0.349  0.00  0.00     0.077 C 
ATOM      2  C1' PXY d   1      -1.582   0.490   0.418  0.00  0.00     0.077 C 
ATOM      3  C1  PXY d   1      -2.660   1.556   0.405  0.00  0.00    -0.082 A 
ATOM      4  C2  PXY d   1      -2.549   2.588  -0.416  0.00  0.00     0.003 A 
ATOM      5  C3  PXY d   1      -3.498   3.578  -0.418  0.00  0.00     0.003 A 
ATOM      6  C4  PXY d   1      -4.599   3.484   0.390  0.00  0.00    -0.082 A 
ATOM      7  C5  PXY d   1      -4.725   2.428   1.222  0.00  0.00     0.003 A 
ATOM      8  C6  PXY d   1      -3.730   1.455   1.239  0.00  0.00     0.003 A 
ENDROOT
TORSDOF 0
ENDMDL
