MODEL 1
REMARK minimizedAffinity 10.1599598
REMARK minimizedRMSD -1
REMARK  0 active torsions:
REMARK  status: ('A' for Active; 'I' for Inactive)
ROOT
ATOM      1  C4' PXY d   1       2.944   1.960   1.587  0.00  0.00     0.077 C 
ATOM      2  C1' PXY d   1       1.213  -3.244   3.412  0.00  0.00     0.077 C 
ATOM      3  C1  PXY d   1       1.659  -1.874   2.941  0.00  0.00    -0.082 A 
ATOM      4  C2  PXY d   1       2.247  -1.746   1.763  0.00  0.00     0.003 A 
ATOM      5  C3  PXY d   1       2.685  -0.519   1.336  0.00  0.00     0.003 A 
ATOM      6  C4  PXY d   1       2.470   0.597   2.099  0.00  0.00    -0.082 A 
ATOM      7  C5  PXY d   1       1.860   0.477   3.298  0.00  0.00     0.003 A 
ATOM      8  C6  PXY d   1       1.461  -0.784   3.731  0.00  0.00     0.003 A 
ENDROOT
TORSDOF 0
ENDMDL
