MODEL 1
REMARK minimizedAffinity 0.552920043
REMARK minimizedRMSD -1
REMARK  0 active torsions:
REMARK  status: ('A' for Active; 'I' for Inactive)
ROOT
ATOM      1  C4' PXY d   1       2.969  -5.059   5.745  0.00  0.00     0.077 C 
ATOM      2  C1' PXY d   1       2.579  -0.853   1.799  0.00  0.00     0.077 C 
ATOM      3  C1  PXY d   1       2.694  -1.957   2.831  0.00  0.00    -0.082 A 
ATOM      4  C2  PXY d   1       1.612  -2.627   3.195  0.00  0.00     0.003 A 
ATOM      5  C3  PXY d   1       1.693  -3.608   4.150  0.00  0.00     0.003 A 
ATOM      6  C4  PXY d   1       2.902  -3.942   4.700  0.00  0.00    -0.082 A 
ATOM      7  C5  PXY d   1       4.011  -3.270   4.325  0.00  0.00     0.003 A 
ATOM      8  C6  PXY d   1       3.901  -2.251   3.384  0.00  0.00     0.003 A 
ENDROOT
TORSDOF 0
ENDMDL
