MODEL 1
REMARK minimizedAffinity 2.38813162
REMARK minimizedRMSD -1
REMARK  0 active torsions:
REMARK  status: ('A' for Active; 'I' for Inactive)
ROOT
ATOM      1  C4' PXY d   1       1.267  -5.060   5.870  0.00  0.00     0.077 C 
ATOM      2  C1' PXY d   1       2.647  -1.071   1.921  0.00  0.00     0.077 C 
ATOM      3  C1  PXY d   1       2.279  -2.124   2.947  0.00  0.00    -0.082 A 
ATOM      4  C2  PXY d   1       2.160  -1.783   4.220  0.00  0.00     0.003 A 
ATOM      5  C3  PXY d   1       1.860  -2.729   5.166  0.00  0.00     0.003 A 
ATOM      6  C4  PXY d   1       1.627  -4.028   4.798  0.00  0.00    -0.082 A 
ATOM      7  C5  PXY d   1       1.736  -4.381   3.500  0.00  0.00     0.003 A 
ATOM      8  C6  PXY d   1       2.083  -3.414   2.561  0.00  0.00     0.003 A 
ENDROOT
TORSDOF 0
ENDMDL
