MODEL 1
REMARK minimizedAffinity 11.9213791
REMARK minimizedRMSD -1
REMARK  0 active torsions:
REMARK  status: ('A' for Active; 'I' for Inactive)
ROOT
ATOM      1  C4' PXY d   1      -3.012  -1.153  -3.826  0.00  0.00     0.077 C 
ATOM      2  C1' PXY d   1      -2.790   3.094   0.089  0.00  0.00     0.077 C 
ATOM      3  C1  PXY d   1      -2.861   1.984  -0.941  0.00  0.00    -0.082 A 
ATOM      4  C2  PXY d   1      -2.079   0.924  -0.814  0.00  0.00     0.003 A 
ATOM      5  C3  PXY d   1      -2.107  -0.075  -1.754  0.00  0.00     0.003 A 
ATOM      6  C4  PXY d   1      -2.982  -0.013  -2.805  0.00  0.00    -0.082 A 
ATOM      7  C5  PXY d   1      -3.790   1.060  -2.935  0.00  0.00     0.003 A 
ATOM      8  C6  PXY d   1      -3.717   2.082  -1.993  0.00  0.00     0.003 A 
ENDROOT
TORSDOF 0
ENDMDL
