MODEL 1
REMARK minimizedAffinity 6.6214571
REMARK minimizedRMSD -1
REMARK  0 active torsions:
REMARK  status: ('A' for Active; 'I' for Inactive)
ROOT
ATOM      1  C4' PXY d   1       6.000  -2.999   4.065  0.00  0.00     0.077 C 
ATOM      2  C1' PXY d   1       0.295  -3.552   3.317  0.00  0.00     0.077 C 
ATOM      3  C1  PXY d   1       1.791  -3.417   3.521  0.00  0.00    -0.082 A 
ATOM      4  C2  PXY d   1       2.375  -2.246   3.325  0.00  0.00     0.003 A 
ATOM      5  C3  PXY d   1       3.732  -2.114   3.474  0.00  0.00     0.003 A 
ATOM      6  C4  PXY d   1       4.491  -3.179   3.880  0.00  0.00    -0.082 A 
ATOM      7  C5  PXY d   1       3.901  -4.375   4.092  0.00  0.00     0.003 A 
ATOM      8  C6  PXY d   1       2.528  -4.498   3.895  0.00  0.00     0.003 A 
ENDROOT
TORSDOF 0
ENDMDL
