MODEL 1
REMARK minimizedAffinity 8.32852364
REMARK minimizedRMSD -1
REMARK  0 active torsions:
REMARK  status: ('A' for Active; 'I' for Inactive)
ROOT
ATOM      1  C4' PXY d   1       5.015  -2.683   4.038  0.00  0.00     0.077 C 
ATOM      2  C1' PXY d   1      -0.390  -4.246   2.716  0.00  0.00     0.077 C 
ATOM      3  C1  PXY d   1       1.026  -3.826   3.055  0.00  0.00    -0.082 A 
ATOM      4  C2  PXY d   1       1.894  -4.731   3.476  0.00  0.00     0.003 A 
ATOM      5  C3  PXY d   1       3.170  -4.363   3.818  0.00  0.00     0.003 A 
ATOM      6  C4  PXY d   1       3.577  -3.063   3.675  0.00  0.00    -0.082 A 
ATOM      7  C5  PXY d   1       2.701  -2.135   3.236  0.00  0.00     0.003 A 
ATOM      8  C6  PXY d   1       1.398  -2.522   2.934  0.00  0.00     0.003 A 
ENDROOT
TORSDOF 0
ENDMDL
