MODEL 1
REMARK minimizedAffinity -3.66371632
REMARK minimizedRMSD -1
REMARK  1 active torsions:
REMARK  status: ('A' for Active; 'I' for Inactive)
REMARK    1  A    between atoms: C1_2  and  C2_3 
ROOT
ATOM      1  C2  UNL d   1       0.961   0.496   0.147  0.00  0.00    -0.076 A 
ATOM      2  C3  UNL d   1       0.460  -0.807   0.310  0.00  0.00     0.004 A 
ATOM      3  C4  UNL d   1      -0.875  -1.102   0.038  0.00  0.00    -0.003 A 
ATOM      4  C5  UNL d   1      -1.730  -0.098  -0.403  0.00  0.00     0.000 A 
ATOM      5  C6  UNL d   1      -1.246   1.197  -0.587  0.00  0.00     0.000 A 
ATOM      6  C7  UNL d   1       0.101   1.507  -0.332  0.00  0.00    -0.073 A 
ATOM      7  C8  UNL d   1       0.568   2.922  -0.542  0.00  0.00     0.078 C 
ENDROOT
BRANCH   1   8
ATOM      8  C1  UNL d   1       2.411   0.762   0.484  0.00  0.00     0.053 C 
ATOM      9  C   UNL d   1       2.894  -0.060   1.669  0.00  0.00     0.018 C 
ENDBRANCH   1   8
TORSDOF 1
ENDMDL
