MODEL 1
REMARK minimizedAffinity -5.70835495
REMARK minimizedRMSD -1
REMARK  1 active torsions:
REMARK  status: ('A' for Active; 'I' for Inactive)
REMARK    1  A    between atoms: C1_2  and  C2_3 
ROOT
ATOM      1  C2  UNL d   1       0.431  -0.305   0.302  0.00  0.00    -0.076 A 
ATOM      2  C3  UNL d   1       0.110  -1.505   0.960  0.00  0.00     0.004 A 
ATOM      3  C4  UNL d   1       1.074  -2.210   1.679  0.00  0.00    -0.003 A 
ATOM      4  C5  UNL d   1       2.375  -1.725   1.753  0.00  0.00     0.000 A 
ATOM      5  C6  UNL d   1       2.707  -0.527   1.121  0.00  0.00     0.000 A 
ATOM      6  C7  UNL d   1       1.743   0.204   0.406  0.00  0.00    -0.073 A 
ATOM      7  C8  UNL d   1       2.158   1.487  -0.261  0.00  0.00     0.078 C 
ENDROOT
BRANCH   1   8
ATOM      8  C1  UNL d   1      -0.650   0.401  -0.486  0.00  0.00     0.053 C 
ATOM      9  C   UNL d   1      -1.773  -0.536  -0.903  0.00  0.00     0.018 C 
ENDBRANCH   1   8
TORSDOF 1
ENDMDL
