MODEL 1
REMARK minimizedAffinity -5.37959099
REMARK minimizedRMSD -1
REMARK  1 active torsions:
REMARK  status: ('A' for Active; 'I' for Inactive)
REMARK    1  A    between atoms: C1_2  and  C2_3 
ROOT
ATOM      1  C2  UNL d   1       0.454  -0.295   0.398  0.00  0.00    -0.076 A 
ATOM      2  C3  UNL d   1       1.594   0.506   0.212  0.00  0.00     0.004 A 
ATOM      3  C4  UNL d   1       2.834   0.117   0.716  0.00  0.00    -0.003 A 
ATOM      4  C5  UNL d   1       2.954  -1.080   1.414  0.00  0.00     0.000 A 
ATOM      5  C6  UNL d   1       1.837  -1.895   1.592  0.00  0.00     0.000 A 
ATOM      6  C7  UNL d   1       0.583  -1.526   1.076  0.00  0.00    -0.073 A 
ATOM      7  C8  UNL d   1      -0.589  -2.440   1.304  0.00  0.00     0.078 C 
ENDROOT
BRANCH   1   8
ATOM      8  C1  UNL d   1      -0.870   0.192  -0.148  0.00  0.00     0.053 C 
ATOM      9  C   UNL d   1      -1.168  -0.362  -1.533  0.00  0.00     0.018 C 
ENDBRANCH   1   8
TORSDOF 1
ENDMDL
