MODEL 1
REMARK minimizedAffinity -6.41730976
REMARK minimizedRMSD -1
REMARK  1 active torsions:
REMARK  status: ('A' for Active; 'I' for Inactive)
REMARK    1  A    between atoms: C1_2  and  C2_3 
ROOT
ATOM      1  C2  UNL d   1       1.569  -0.735   1.033  0.00  0.00    -0.076 A 
ATOM      2  C3  UNL d   1       0.781  -1.786   1.531  0.00  0.00     0.004 A 
ATOM      3  C4  UNL d   1      -0.607  -1.674   1.596  0.00  0.00    -0.003 A 
ATOM      4  C5  UNL d   1      -1.229  -0.508   1.163  0.00  0.00     0.000 A 
ATOM      5  C6  UNL d   1      -0.464   0.538   0.650  0.00  0.00     0.000 A 
ATOM      6  C7  UNL d   1       0.935   0.435   0.563  0.00  0.00    -0.073 A 
ATOM      7  C8  UNL d   1       1.711   1.597   0.006  0.00  0.00     0.078 C 
ENDROOT
BRANCH   1   8
ATOM      8  C1  UNL d   1       3.072  -0.903   1.012  0.00  0.00     0.053 C 
ATOM      9  C   UNL d   1       3.562  -1.890   2.060  0.00  0.00     0.018 C 
ENDBRANCH   1   8
TORSDOF 1
ENDMDL
