MODEL 1
REMARK minimizedAffinity -3.72998238
REMARK minimizedRMSD -1
REMARK  0 active torsions:
REMARK  status: ('A' for Active; 'I' for Inactive)
ROOT
ATOM      1  C   UNL d   1      -0.035  -3.473   0.322  0.00  0.00    -0.002 A 
ATOM      2  C1  UNL d   1       0.743  -3.076  -0.756  0.00  0.00     0.010 A 
ATOM      3  C2  UNL d   1       0.932  -1.721  -1.035  0.00  0.00     0.041 A 
ATOM      4  C3  UNL d   1       0.323  -0.762  -0.202  0.00  0.00    -0.075 A 
ATOM      5  S   UNL d   1       0.416   0.953  -0.349  0.00  0.00     0.015 SA
ATOM      6  C4  UNL d   1      -0.574   1.199   1.016  0.00  0.00     0.022 A 
ATOM      7  C5  UNL d   1      -0.975   0.012   1.583  0.00  0.00     0.026 A 
ATOM      8  C6  UNL d   1      -0.465  -1.138   0.891  0.00  0.00    -0.082 A 
ATOM      9  C7  UNL d   1      -0.639  -2.519   1.146  0.00  0.00     0.045 A 
ENDROOT
TORSDOF 0
ENDMDL
