MODEL 1
REMARK minimizedAffinity -1.65745902
REMARK minimizedRMSD -1
REMARK  0 active torsions:
REMARK  status: ('A' for Active; 'I' for Inactive)
ROOT
ATOM      1  C   UNL d   1      -0.398  -3.767   0.181  0.00  0.00    -0.002 A 
ATOM      2  C1  UNL d   1      -1.618  -3.173   0.470  0.00  0.00     0.010 A 
ATOM      3  C2  UNL d   1      -1.759  -1.784   0.427  0.00  0.00     0.041 A 
ATOM      4  C3  UNL d   1      -0.643  -0.996   0.085  0.00  0.00    -0.075 A 
ATOM      5  S   UNL d   1      -0.581   0.723  -0.031  0.00  0.00     0.015 SA
ATOM      6  C4  UNL d   1       1.066   0.709  -0.468  0.00  0.00     0.022 A 
ATOM      7  C5  UNL d   1       1.573  -0.568  -0.528  0.00  0.00     0.026 A 
ATOM      8  C6  UNL d   1       0.596  -1.571  -0.211  0.00  0.00    -0.082 A 
ATOM      9  C7  UNL d   1       0.707  -2.982  -0.159  0.00  0.00     0.045 A 
ENDROOT
TORSDOF 0
ENDMDL
