MODEL 1
REMARK minimizedAffinity 1.81222117
REMARK minimizedRMSD -1
REMARK  0 active torsions:
REMARK  status: ('A' for Active; 'I' for Inactive)
ROOT
ATOM      1  C   UNL d   1      -1.091  -3.683  -1.789  0.00  0.00    -0.002 A 
ATOM      2  C1  UNL d   1      -0.440  -2.749  -2.582  0.00  0.00     0.010 A 
ATOM      3  C2  UNL d   1      -0.131  -1.483  -2.080  0.00  0.00     0.041 A 
ATOM      4  C3  UNL d   1      -0.490  -1.170  -0.755  0.00  0.00    -0.075 A 
ATOM      5  S   UNL d   1      -0.213   0.317   0.074  0.00  0.00     0.015 SA
ATOM      6  C4  UNL d   1      -0.952  -0.254   1.499  0.00  0.00     0.022 A 
ATOM      7  C5  UNL d   1      -1.405  -1.545   1.365  0.00  0.00     0.026 A 
ATOM      8  C6  UNL d   1      -1.146  -2.094   0.064  0.00  0.00    -0.082 A 
ATOM      9  C7  UNL d   1      -1.446  -3.369  -0.475  0.00  0.00     0.045 A 
ENDROOT
TORSDOF 0
ENDMDL
