MODEL 1
REMARK minimizedAffinity -1.22956991
REMARK minimizedRMSD -1
REMARK  0 active torsions:
REMARK  status: ('A' for Active; 'I' for Inactive)
ROOT
ATOM      1  C   UNL d   1       1.316  -0.292  -1.658  0.00  0.00    -0.002 A 
ATOM      2  C1  UNL d   1      -0.031   0.031  -1.563  0.00  0.00     0.010 A 
ATOM      3  C2  UNL d   1      -0.437   1.200  -0.917  0.00  0.00     0.041 A 
ATOM      4  C3  UNL d   1       0.543   2.049  -0.364  0.00  0.00    -0.075 A 
ATOM      5  S   UNL d   1       0.280   3.533   0.472  0.00  0.00     0.015 SA
ATOM      6  C4  UNL d   1       1.948   3.774   0.721  0.00  0.00     0.022 A 
ATOM      7  C5  UNL d   1       2.702   2.757   0.187  0.00  0.00     0.026 A 
ATOM      8  C6  UNL d   1       1.905   1.745  -0.448  0.00  0.00    -0.082 A 
ATOM      9  C7  UNL d   1       2.284   0.552  -1.109  0.00  0.00     0.045 A 
ENDROOT
TORSDOF 0
ENDMDL
