MODEL 1
REMARK minimizedAffinity 2.53402853
REMARK minimizedRMSD -1
REMARK  0 active torsions:
REMARK  status: ('A' for Active; 'I' for Inactive)
ROOT
ATOM      1  C   UNL d   1      -2.088  -1.028   1.711  0.00  0.00    -0.002 A 
ATOM      2  C1  UNL d   1      -1.780  -2.281   1.200  0.00  0.00     0.010 A 
ATOM      3  C2  UNL d   1      -0.895  -2.412   0.128  0.00  0.00     0.041 A 
ATOM      4  C3  UNL d   1      -0.318  -1.252  -0.426  0.00  0.00    -0.075 A 
ATOM      5  S   UNL d   1       0.792  -1.171  -1.742  0.00  0.00     0.015 SA
ATOM      6  C4  UNL d   1       0.885   0.529  -1.656  0.00  0.00     0.022 A 
ATOM      7  C5  UNL d   1       0.094   1.038  -0.653  0.00  0.00     0.026 A 
ATOM      8  C6  UNL d   1      -0.612   0.020   0.072  0.00  0.00    -0.082 A 
ATOM      9  C7  UNL d   1      -1.514   0.120   1.160  0.00  0.00     0.045 A 
ENDROOT
TORSDOF 0
ENDMDL
