MODEL 1
REMARK minimizedAffinity -3.78827524
REMARK minimizedRMSD -1
REMARK  0 active torsions:
REMARK  status: ('A' for Active; 'I' for Inactive)
ROOT
ATOM      1  C   UNL d   1       0.919  -3.277  -0.076  0.00  0.00    -0.002 A 
ATOM      2  C1  UNL d   1      -0.078  -3.526   0.857  0.00  0.00     0.010 A 
ATOM      3  C2  UNL d   1      -0.899  -2.493   1.312  0.00  0.00     0.041 A 
ATOM      4  C3  UNL d   1      -0.702  -1.193   0.807  0.00  0.00    -0.075 A 
ATOM      5  S   UNL d   1      -1.588   0.228   1.218  0.00  0.00     0.015 SA
ATOM      6  C4  UNL d   1      -0.665   1.199   0.165  0.00  0.00     0.022 A 
ATOM      7  C5  UNL d   1       0.300   0.473  -0.493  0.00  0.00     0.026 A 
ATOM      8  C6  UNL d   1       0.295  -0.917  -0.134  0.00  0.00    -0.082 A 
ATOM      9  C7  UNL d   1       1.112  -1.986  -0.574  0.00  0.00     0.045 A 
ENDROOT
TORSDOF 0
ENDMDL
