MODEL 1
REMARK minimizedAffinity -2.63257813
REMARK minimizedRMSD -1
REMARK  0 active torsions:
REMARK  status: ('A' for Active; 'I' for Inactive)
ROOT
ATOM      1  C   UNL d   1      -0.422  -0.240  -0.471  0.00  0.00    -0.002 A 
ATOM      2  C1  UNL d   1       0.393  -0.826   0.487  0.00  0.00     0.010 A 
ATOM      3  C2  UNL d   1       1.367  -0.074   1.147  0.00  0.00     0.041 A 
ATOM      4  C3  UNL d   1       1.508   1.291   0.827  0.00  0.00    -0.075 A 
ATOM      5  S   UNL d   1       2.631   2.408   1.507  0.00  0.00     0.015 SA
ATOM      6  C4  UNL d   1       2.055   3.690   0.543  0.00  0.00     0.022 A 
ATOM      7  C5  UNL d   1       1.031   3.293  -0.284  0.00  0.00     0.026 A 
ATOM      8  C6  UNL d   1       0.698   1.904  -0.134  0.00  0.00    -0.082 A 
ATOM      9  C7  UNL d   1      -0.279   1.114  -0.787  0.00  0.00     0.045 A 
ENDROOT
TORSDOF 0
ENDMDL
