MODEL 1
REMARK minimizedAffinity -1.83267796
REMARK minimizedRMSD -1
REMARK  0 active torsions:
REMARK  status: ('A' for Active; 'I' for Inactive)
ROOT
ATOM      1  C   UNL d   1      -1.825  -3.033   1.167  0.00  0.00    -0.002 A 
ATOM      2  C1  UNL d   1      -2.017  -1.922   1.976  0.00  0.00     0.010 A 
ATOM      3  C2  UNL d   1      -1.498  -0.679   1.610  0.00  0.00     0.041 A 
ATOM      4  C3  UNL d   1      -0.779  -0.569   0.404  0.00  0.00    -0.075 A 
ATOM      5  S   UNL d   1      -0.053   0.853  -0.248  0.00  0.00     0.015 SA
ATOM      6  C4  UNL d   1       0.527   0.020  -1.617  0.00  0.00     0.022 A 
ATOM      7  C5  UNL d   1       0.185  -1.312  -1.593  0.00  0.00     0.026 A 
ATOM      8  C6  UNL d   1      -0.573  -1.673  -0.429  0.00  0.00    -0.082 A 
ATOM      9  C7  UNL d   1      -1.111  -2.920  -0.029  0.00  0.00     0.045 A 
ENDROOT
TORSDOF 0
ENDMDL
