MODEL 1
REMARK minimizedAffinity -1.20972288
REMARK minimizedRMSD -1
REMARK  0 active torsions:
REMARK  status: ('A' for Active; 'I' for Inactive)
ROOT
ATOM      1  C   UNL d   1      -1.040  -2.477   1.006  0.00  0.00    -0.002 A 
ATOM      2  C1  UNL d   1      -0.160  -2.735  -0.036  0.00  0.00     0.010 A 
ATOM      3  C2  UNL d   1       0.521  -1.691  -0.665  0.00  0.00     0.041 A 
ATOM      4  C3  UNL d   1       0.302  -0.371  -0.225  0.00  0.00    -0.075 A 
ATOM      5  S   UNL d   1       1.026   1.065  -0.846  0.00  0.00     0.015 SA
ATOM      6  C4  UNL d   1       0.184   2.055   0.257  0.00  0.00     0.022 A 
ATOM      7  C5  UNL d   1      -0.633   1.324   1.086  0.00  0.00     0.026 A 
ATOM      8  C6  UNL d   1      -0.579  -0.086   0.822  0.00  0.00    -0.082 A 
ATOM      9  C7  UNL d   1      -1.255  -1.166   1.440  0.00  0.00     0.045 A 
ENDROOT
TORSDOF 0
ENDMDL
