MODEL 1
REMARK minimizedAffinity -4.362885
REMARK minimizedRMSD -1
REMARK  0 active torsions:
REMARK  status: ('A' for Active; 'I' for Inactive)
ROOT
ATOM      1  C   UNL d   1      -0.551  -3.531   0.465  0.00  0.00    -0.002 A 
ATOM      2  C1  UNL d   1      -1.005  -2.590   1.378  0.00  0.00     0.010 A 
ATOM      3  C2  UNL d   1      -0.934  -1.226   1.087  0.00  0.00     0.041 A 
ATOM      4  C3  UNL d   1      -0.396  -0.820  -0.150  0.00  0.00    -0.075 A 
ATOM      5  S   UNL d   1      -0.211   0.795  -0.723  0.00  0.00     0.015 SA
ATOM      6  C4  UNL d   1       0.473   0.274  -2.194  0.00  0.00     0.022 A 
ATOM      7  C5  UNL d   1       0.566  -1.096  -2.263  0.00  0.00     0.026 A 
ATOM      8  C6  UNL d   1       0.066  -1.749  -1.087  0.00  0.00    -0.082 A 
ATOM      9  C7  UNL d   1      -0.018  -3.124  -0.762  0.00  0.00     0.045 A 
ENDROOT
TORSDOF 0
ENDMDL
