MODEL 1
REMARK minimizedAffinity -1.77863002
REMARK minimizedRMSD -1
REMARK  0 active torsions:
REMARK  status: ('A' for Active; 'I' for Inactive)
ROOT
ATOM      1  C   UNL d   1      -0.837  -1.675   1.697  0.00  0.00    -0.002 A 
ATOM      2  C1  UNL d   1      -0.390  -0.385   1.450  0.00  0.00     0.010 A 
ATOM      3  C2  UNL d   1      -0.079   0.022   0.151  0.00  0.00     0.041 A 
ATOM      4  C3  UNL d   1      -0.227  -0.898  -0.906  0.00  0.00    -0.075 A 
ATOM      5  S   UNL d   1       0.094  -0.622  -2.577  0.00  0.00     0.015 SA
ATOM      6  C4  UNL d   1      -0.356  -2.211  -3.002  0.00  0.00     0.022 A 
ATOM      7  C5  UNL d   1      -0.743  -2.947  -1.908  0.00  0.00     0.026 A 
ATOM      8  C6  UNL d   1      -0.676  -2.203  -0.682  0.00  0.00    -0.082 A 
ATOM      9  C7  UNL d   1      -0.983  -2.585   0.647  0.00  0.00     0.045 A 
ENDROOT
TORSDOF 0
ENDMDL
