MODEL 1
REMARK minimizedAffinity 9.53764915
REMARK minimizedRMSD -1
REMARK  0 active torsions:
REMARK  status: ('A' for Active; 'I' for Inactive)
ROOT
ATOM      1  C   UNL d   1      -0.738   5.450   2.869  0.00  0.00    -0.002 A 
ATOM      2  C1  UNL d   1      -1.581   5.029   1.850  0.00  0.00     0.010 A 
ATOM      3  C2  UNL d   1      -1.183   4.021   0.970  0.00  0.00     0.041 A 
ATOM      4  C3  UNL d   1       0.089   3.436   1.133  0.00  0.00    -0.075 A 
ATOM      5  S   UNL d   1       0.788   2.185   0.176  0.00  0.00     0.015 SA
ATOM      6  C4  UNL d   1       2.222   2.179   1.097  0.00  0.00     0.022 A 
ATOM      7  C5  UNL d   1       2.185   3.103   2.115  0.00  0.00     0.026 A 
ATOM      8  C6  UNL d   1       0.955   3.843   2.153  0.00  0.00    -0.082 A 
ATOM      9  C7  UNL d   1       0.522   4.867   3.028  0.00  0.00     0.045 A 
ENDROOT
TORSDOF 0
ENDMDL
