MODEL 1
REMARK minimizedAffinity -1.6753
REMARK minimizedRMSD -1
REMARK  1 active torsions:
REMARK  status: ('A' for Active; 'I' for Inactive)
REMARK    1  A    between atoms: C1_2  and  C2_3 
ROOT
ATOM      1  C2  UNL d   1       1.011  -1.453   1.069  0.00  0.00    -0.077 A 
ATOM      2  C3  UNL d   1       1.209  -0.450   0.110  0.00  0.00     0.002 A 
ATOM      3  C4  UNL d   1       0.124   0.272  -0.392  0.00  0.00     0.002 A 
ATOM      4  C5  UNL d   1      -1.165   0.002   0.062  0.00  0.00    -0.004 A 
ATOM      5  C6  UNL d   1      -1.373  -0.995   1.014  0.00  0.00     0.002 A 
ATOM      6  C7  UNL d   1      -0.290  -1.719   1.516  0.00  0.00     0.002 A 
ENDROOT
BRANCH   1   7
ATOM      7  C1  UNL d   1       2.184  -2.199   1.648  0.00  0.00     0.055 C 
ATOM      8  C   UNL d   1       3.296  -1.246   2.062  0.00  0.00     0.019 C 
ENDBRANCH   1   7
TORSDOF 1
ENDMDL
