MODEL 1
REMARK minimizedAffinity -4.51946831
REMARK minimizedRMSD -1
REMARK  1 active torsions:
REMARK  status: ('A' for Active; 'I' for Inactive)
REMARK    1  A    between atoms: C1_2  and  C2_3 
ROOT
ATOM      1  C2  UNL d   1      -1.040   1.774  -1.591  0.00  0.00    -0.077 A 
ATOM      2  C3  UNL d   1      -1.796   1.245  -2.646  0.00  0.00     0.002 A 
ATOM      3  C4  UNL d   1      -1.814   1.880  -3.890  0.00  0.00     0.002 A 
ATOM      4  C5  UNL d   1      -1.074   3.044  -4.090  0.00  0.00    -0.004 A 
ATOM      5  C6  UNL d   1      -0.320   3.578  -3.046  0.00  0.00     0.002 A 
ATOM      6  C7  UNL d   1      -0.302   2.946  -1.802  0.00  0.00     0.002 A 
ENDROOT
BRANCH   1   7
ATOM      7  C1  UNL d   1      -0.980   1.063  -0.264  0.00  0.00     0.055 C 
ATOM      8  C   UNL d   1       0.104  -0.004  -0.256  0.00  0.00     0.019 C 
ENDBRANCH   1   7
TORSDOF 1
ENDMDL
