MODEL 1
REMARK minimizedAffinity -2.87375689
REMARK minimizedRMSD -1
REMARK  1 active torsions:
REMARK  status: ('A' for Active; 'I' for Inactive)
REMARK    1  A    between atoms: C1_2  and  C2_3 
ROOT
ATOM      1  C2  UNL d   1       0.952   0.221  -0.246  0.00  0.00    -0.077 A 
ATOM      2  C3  UNL d   1       0.035  -0.399  -1.105  0.00  0.00     0.002 A 
ATOM      3  C4  UNL d   1      -0.281  -1.750  -0.945  0.00  0.00     0.002 A 
ATOM      4  C5  UNL d   1       0.313  -2.490   0.075  0.00  0.00    -0.004 A 
ATOM      5  C6  UNL d   1       1.229  -1.883   0.933  0.00  0.00     0.002 A 
ATOM      6  C7  UNL d   1       1.546  -0.533   0.774  0.00  0.00     0.002 A 
ENDROOT
BRANCH   1   7
ATOM      7  C1  UNL d   1       1.257   1.690  -0.385  0.00  0.00     0.055 C 
ATOM      8  C   UNL d   1       2.710   1.919  -0.776  0.00  0.00     0.019 C 
ENDBRANCH   1   7
TORSDOF 1
ENDMDL
