MODEL 1
REMARK minimizedAffinity -3.55421257
REMARK minimizedRMSD -1
REMARK  1 active torsions:
REMARK  status: ('A' for Active; 'I' for Inactive)
REMARK    1  A    between atoms: C1_2  and  C2_3 
ROOT
ATOM      1  C2  UNL d   1      -1.875   1.362  -1.873  0.00  0.00    -0.077 A 
ATOM      2  C3  UNL d   1      -2.607   0.282  -2.387  0.00  0.00     0.002 A 
ATOM      3  C4  UNL d   1      -2.999   0.270  -3.727  0.00  0.00     0.002 A 
ATOM      4  C5  UNL d   1      -2.662   1.331  -4.564  0.00  0.00    -0.004 A 
ATOM      5  C6  UNL d   1      -1.936   2.410  -4.061  0.00  0.00     0.002 A 
ATOM      6  C7  UNL d   1      -1.544   2.425  -2.722  0.00  0.00     0.002 A 
ENDROOT
BRANCH   1   7
ATOM      7  C1  UNL d   1      -1.408   1.354  -0.440  0.00  0.00     0.055 C 
ATOM      8  C   UNL d   1      -0.701   0.052  -0.096  0.00  0.00     0.019 C 
ENDBRANCH   1   7
TORSDOF 1
ENDMDL
