MODEL 1
REMARK minimizedAffinity -5.25937033
REMARK minimizedRMSD -1
REMARK  1 active torsions:
REMARK  status: ('A' for Active; 'I' for Inactive)
REMARK    1  A    between atoms: C1_2  and  C2_3 
ROOT
ATOM      1  C2  UNL d   1       0.435   1.054  -0.356  0.00  0.00    -0.077 A 
ATOM      2  C3  UNL d   1       0.116   2.374  -0.009  0.00  0.00     0.002 A 
ATOM      3  C4  UNL d   1       1.120   3.268   0.369  0.00  0.00     0.002 A 
ATOM      4  C5  UNL d   1       2.449   2.852   0.399  0.00  0.00    -0.004 A 
ATOM      5  C6  UNL d   1       2.777   1.540   0.058  0.00  0.00     0.002 A 
ATOM      6  C7  UNL d   1       1.774   0.646  -0.319  0.00  0.00     0.002 A 
ENDROOT
BRANCH   1   7
ATOM      7  C1  UNL d   1      -0.641   0.103  -0.811  0.00  0.00     0.055 C 
ATOM      8  C   UNL d   1      -1.716   0.825  -1.611  0.00  0.00     0.019 C 
ENDBRANCH   1   7
TORSDOF 1
ENDMDL
