MODEL 1
REMARK minimizedAffinity -4.54120874
REMARK minimizedRMSD -1
REMARK  1 active torsions:
REMARK  status: ('A' for Active; 'I' for Inactive)
REMARK    1  A    between atoms: C1_2  and  C2_3 
ROOT
ATOM      1  C2  UNL d   1      -1.458   2.265  -3.708  0.00  0.00    -0.077 A 
ATOM      2  C3  UNL d   1      -2.840   2.495  -3.770  0.00  0.00     0.002 A 
ATOM      3  C4  UNL d   1      -3.741   1.471  -3.471  0.00  0.00     0.002 A 
ATOM      4  C5  UNL d   1      -3.270   0.212  -3.105  0.00  0.00    -0.004 A 
ATOM      5  C6  UNL d   1      -1.898  -0.028  -3.043  0.00  0.00     0.002 A 
ATOM      6  C7  UNL d   1      -0.996   0.994  -3.342  0.00  0.00     0.002 A 
ENDROOT
BRANCH   1   7
ATOM      7  C1  UNL d   1      -0.485   3.382  -3.982  0.00  0.00     0.055 C 
ATOM      8  C   UNL d   1       0.319   3.732  -2.739  0.00  0.00     0.019 C 
ENDBRANCH   1   7
TORSDOF 1
ENDMDL
