MODEL 1
REMARK minimizedAffinity -4.18100882
REMARK minimizedRMSD -1
REMARK  1 active torsions:
REMARK  status: ('A' for Active; 'I' for Inactive)
REMARK    1  A    between atoms: C1_2  and  C2_3 
ROOT
ATOM      1  C2  UNL d   1       0.829  -0.767   0.246  0.00  0.00    -0.077 A 
ATOM      2  C3  UNL d   1       1.186   0.000  -0.873  0.00  0.00     0.002 A 
ATOM      3  C4  UNL d   1       0.379   1.061  -1.288  0.00  0.00     0.002 A 
ATOM      4  C5  UNL d   1      -0.787   1.368  -0.589  0.00  0.00    -0.004 A 
ATOM      5  C6  UNL d   1      -1.151   0.610   0.523  0.00  0.00     0.002 A 
ATOM      6  C7  UNL d   1      -0.347  -0.452   0.939  0.00  0.00     0.002 A 
ENDROOT
BRANCH   1   7
ATOM      7  C1  UNL d   1       1.723  -1.880   0.725  0.00  0.00     0.055 C 
ATOM      8  C   UNL d   1       2.967  -1.335   1.410  0.00  0.00     0.019 C 
ENDBRANCH   1   7
TORSDOF 1
ENDMDL
