MODEL 1
REMARK minimizedAffinity -4.48347378
REMARK minimizedRMSD -1
REMARK  1 active torsions:
REMARK  status: ('A' for Active; 'I' for Inactive)
REMARK    1  A    between atoms: C1_2  and  C2_3 
ROOT
ATOM      1  C2  UNL d   1       0.191  -0.406   0.019  0.00  0.00    -0.077 A 
ATOM      2  C3  UNL d   1      -0.368  -1.189   1.039  0.00  0.00     0.002 A 
ATOM      3  C4  UNL d   1       0.336  -2.276   1.561  0.00  0.00     0.002 A 
ATOM      4  C5  UNL d   1       1.604  -2.585   1.074  0.00  0.00    -0.004 A 
ATOM      5  C6  UNL d   1       2.168  -1.813   0.060  0.00  0.00     0.002 A 
ATOM      6  C7  UNL d   1       1.465  -0.727  -0.465  0.00  0.00     0.002 A 
ENDROOT
BRANCH   1   7
ATOM      7  C1  UNL d   1      -0.547   0.796  -0.511  0.00  0.00     0.055 C 
ATOM      8  C   UNL d   1      -1.477   0.414  -1.654  0.00  0.00     0.019 C 
ENDBRANCH   1   7
TORSDOF 1
ENDMDL
