MODEL 1
REMARK minimizedAffinity -3.25662518
REMARK minimizedRMSD -1
REMARK  1 active torsions:
REMARK  status: ('A' for Active; 'I' for Inactive)
REMARK    1  A    between atoms: C1_2  and  C2_3 
ROOT
ATOM      1  C2  UNL d   1       0.176  -1.491   0.883  0.00  0.00    -0.077 A 
ATOM      2  C3  UNL d   1       0.353  -0.410   0.007  0.00  0.00     0.002 A 
ATOM      3  C4  UNL d   1      -0.476   0.710   0.091  0.00  0.00     0.002 A 
ATOM      4  C5  UNL d   1      -1.485   0.762   1.050  0.00  0.00    -0.004 A 
ATOM      5  C6  UNL d   1      -1.670  -0.308   1.924  0.00  0.00     0.002 A 
ATOM      6  C7  UNL d   1      -0.843  -1.429   1.842  0.00  0.00     0.002 A 
ENDROOT
BRANCH   1   7
ATOM      7  C1  UNL d   1       1.101  -2.679   0.828  0.00  0.00     0.055 C 
ATOM      8  C   UNL d   1       2.414  -2.392   1.541  0.00  0.00     0.019 C 
ENDBRANCH   1   7
TORSDOF 1
ENDMDL
