MODEL 1
REMARK minimizedAffinity -4.05093575
REMARK minimizedRMSD -1
REMARK  1 active torsions:
REMARK  status: ('A' for Active; 'I' for Inactive)
REMARK    1  A    between atoms: C1_2  and  C2_3 
ROOT
ATOM      1  C2  UNL d   1       0.789   1.196  -0.368  0.00  0.00    -0.077 A 
ATOM      2  C3  UNL d   1       2.120   0.927  -0.716  0.00  0.00     0.002 A 
ATOM      3  C4  UNL d   1       3.080   1.941  -0.675  0.00  0.00     0.002 A 
ATOM      4  C5  UNL d   1       2.719   3.228  -0.282  0.00  0.00    -0.004 A 
ATOM      5  C6  UNL d   1       1.397   3.506   0.064  0.00  0.00     0.002 A 
ATOM      6  C7  UNL d   1       0.437   2.494   0.022  0.00  0.00     0.002 A 
ENDROOT
BRANCH   1   7
ATOM      7  C1  UNL d   1      -0.237   0.093  -0.365  0.00  0.00     0.055 C 
ATOM      8  C   UNL d   1      -0.011  -0.869   0.793  0.00  0.00     0.019 C 
ENDBRANCH   1   7
TORSDOF 1
ENDMDL
