MODEL 1
REMARK minimizedAffinity -2.61060333
REMARK minimizedRMSD -1
REMARK  1 active torsions:
REMARK  status: ('A' for Active; 'I' for Inactive)
REMARK    1  A    between atoms: C1_2  and  C2_3 
ROOT
ATOM      1  C2  UNL d   1      -0.235  -1.235   0.919  0.00  0.00    -0.077 A 
ATOM      2  C3  UNL d   1      -0.179  -0.338  -0.157  0.00  0.00     0.002 A 
ATOM      3  C4  UNL d   1      -1.129   0.678  -0.280  0.00  0.00     0.002 A 
ATOM      4  C5  UNL d   1      -2.138   0.808   0.672  0.00  0.00    -0.004 A 
ATOM      5  C6  UNL d   1      -2.204  -0.080   1.744  0.00  0.00     0.002 A 
ATOM      6  C7  UNL d   1      -1.256  -1.097   1.868  0.00  0.00     0.002 A 
ENDROOT
BRANCH   1   7
ATOM      7  C1  UNL d   1       0.817  -2.301   1.079  0.00  0.00     0.055 C 
ATOM      8  C   UNL d   1       2.153  -1.702   1.494  0.00  0.00     0.019 C 
ENDBRANCH   1   7
TORSDOF 1
ENDMDL
