MODEL 1
REMARK minimizedAffinity -5.45611858
REMARK minimizedRMSD -1
REMARK  0 active torsions:
REMARK  status: ('A' for Active; 'I' for Inactive)
ROOT
ATOM      1  C2' OXE d   1      -1.466   0.657   1.068  0.00  0.00     0.078 C 
ATOM      2  C1' OXE d   1       0.247  -0.635  -0.743  0.00  0.00     0.078 C 
ATOM      3  C1  OXE d   1       0.783   0.564  -0.000  0.00  0.00    -0.078 A 
ATOM      4  C2  OXE d   1      -0.077   1.218   0.849  0.00  0.00    -0.078 A 
ATOM      5  C3  OXE d   1       0.382   2.296   1.599  0.00  0.00     0.003 A 
ATOM      6  C4  OXE d   1       1.665   2.815   1.383  0.00  0.00    -0.002 A 
ATOM      7  C5  OXE d   1       2.544   2.188   0.493  0.00  0.00    -0.002 A 
ATOM      8  C6  OXE d   1       2.133   1.038  -0.173  0.00  0.00     0.003 A 
ENDROOT
TORSDOF 0
ENDMDL
