MODEL 1
REMARK minimizedAffinity -5.60400391
REMARK minimizedRMSD -1
REMARK  0 active torsions:
REMARK  status: ('A' for Active; 'I' for Inactive)
ROOT
ATOM      1  C2' OXE d   1      -1.432  -0.323   1.872  0.00  0.00     0.078 C 
ATOM      2  C1' OXE d   1       0.148  -1.083  -0.321  0.00  0.00     0.078 C 
ATOM      3  C1  OXE d   1       0.384   0.281   0.277  0.00  0.00    -0.078 A 
ATOM      4  C2  OXE d   1      -0.425   0.663   1.320  0.00  0.00    -0.078 A 
ATOM      5  C3  OXE d   1      -0.213   1.889   1.944  0.00  0.00     0.003 A 
ATOM      6  C4  OXE d   1       0.714   2.800   1.421  0.00  0.00    -0.002 A 
ATOM      7  C5  OXE d   1       1.521   2.446   0.335  0.00  0.00    -0.002 A 
ATOM      8  C6  OXE d   1       1.399   1.177  -0.221  0.00  0.00     0.003 A 
ENDROOT
TORSDOF 0
ENDMDL
