MODEL 1
REMARK minimizedAffinity -1.97905636
REMARK minimizedRMSD -1
REMARK  0 active torsions:
REMARK  status: ('A' for Active; 'I' for Inactive)
ROOT
ATOM      1  C2' OXE d   1       1.301  -1.731  -1.040  0.00  0.00     0.078 C 
ATOM      2  C1' OXE d   1      -1.503  -1.702  -1.179  0.00  0.00     0.078 C 
ATOM      3  C1  OXE d   1      -0.832  -0.681  -0.294  0.00  0.00    -0.078 A 
ATOM      4  C2  OXE d   1       0.537  -0.733  -0.196  0.00  0.00    -0.078 A 
ATOM      5  C3  OXE d   1       1.210   0.220   0.564  0.00  0.00     0.003 A 
ATOM      6  C4  OXE d   1       0.496   1.134   1.349  0.00  0.00    -0.002 A 
ATOM      7  C5  OXE d   1      -0.901   1.177   1.294  0.00  0.00    -0.002 A 
ATOM      8  C6  OXE d   1      -1.577   0.306   0.447  0.00  0.00     0.003 A 
ENDROOT
TORSDOF 0
ENDMDL
