MODEL 1
REMARK minimizedAffinity -4.25651693
REMARK minimizedRMSD -1
REMARK  0 active torsions:
REMARK  status: ('A' for Active; 'I' for Inactive)
ROOT
ATOM      1  C2' OXE d   1      -1.513  -0.108   2.178  0.00  0.00     0.078 C 
ATOM      2  C1' OXE d   1      -0.753  -0.750  -0.447  0.00  0.00     0.078 C 
ATOM      3  C1  OXE d   1      -0.214   0.526   0.150  0.00  0.00    -0.078 A 
ATOM      4  C2  OXE d   1      -0.628   0.856   1.418  0.00  0.00    -0.078 A 
ATOM      5  C3  OXE d   1      -0.118   1.994   2.035  0.00  0.00     0.003 A 
ATOM      6  C4  OXE d   1       0.692   2.885   1.321  0.00  0.00    -0.002 A 
ATOM      7  C5  OXE d   1       1.094   2.588   0.015  0.00  0.00    -0.002 A 
ATOM      8  C6  OXE d   1       0.686   1.395  -0.569  0.00  0.00     0.003 A 
ENDROOT
TORSDOF 0
ENDMDL
