MODEL 1
REMARK minimizedAffinity -4.12185287
REMARK minimizedRMSD -1
REMARK  0 active torsions:
REMARK  status: ('A' for Active; 'I' for Inactive)
ROOT
ATOM      1  C2' OXE d   1       0.584   2.043   1.546  0.00  0.00     0.078 C 
ATOM      2  C1' OXE d   1      -1.674   0.391   1.775  0.00  0.00     0.078 C 
ATOM      3  C1  OXE d   1      -0.599  -0.018   0.799  0.00  0.00    -0.078 A 
ATOM      4  C2  OXE d   1       0.480   0.821   0.660  0.00  0.00    -0.078 A 
ATOM      5  C3  OXE d   1       1.526   0.464  -0.187  0.00  0.00     0.003 A 
ATOM      6  C4  OXE d   1       1.418  -0.663  -1.011  0.00  0.00    -0.002 A 
ATOM      7  C5  OXE d   1       0.309  -1.510  -0.913  0.00  0.00    -0.002 A 
ATOM      8  C6  OXE d   1      -0.686  -1.225   0.015  0.00  0.00     0.003 A 
ENDROOT
TORSDOF 0
ENDMDL
