MODEL 1
REMARK minimizedAffinity -3.59396744
REMARK minimizedRMSD -1
REMARK  0 active torsions:
REMARK  status: ('A' for Active; 'I' for Inactive)
ROOT
ATOM      1  C2' OXE d   1      -1.477  -0.220   1.509  0.00  0.00     0.078 C 
ATOM      2  C1' OXE d   1      -0.369  -0.870  -0.987  0.00  0.00     0.078 C 
ATOM      3  C1  OXE d   1       0.166   0.347  -0.276  0.00  0.00    -0.078 A 
ATOM      4  C2  OXE d   1      -0.414   0.685   0.923  0.00  0.00    -0.078 A 
ATOM      5  C3  OXE d   1       0.079   1.767   1.647  0.00  0.00     0.003 A 
ATOM      6  C4  OXE d   1       1.056   2.604   1.094  0.00  0.00    -0.002 A 
ATOM      7  C5  OXE d   1       1.632   2.301  -0.144  0.00  0.00    -0.002 A 
ATOM      8  C6  OXE d   1       1.230   1.155  -0.821  0.00  0.00     0.003 A 
ENDROOT
TORSDOF 0
ENDMDL
