MODEL 1
REMARK minimizedAffinity -5.12489605
REMARK minimizedRMSD -1
REMARK  0 active torsions:
REMARK  status: ('A' for Active; 'I' for Inactive)
ROOT
ATOM      1  C2' OXE d   1       3.103   1.103  -0.461  0.00  0.00     0.078 C 
ATOM      2  C1' OXE d   1       1.350   2.642   1.100  0.00  0.00     0.078 C 
ATOM      3  C1  OXE d   1       0.869   1.295   0.623  0.00  0.00    -0.078 A 
ATOM      4  C2  OXE d   1       1.716   0.569  -0.179  0.00  0.00    -0.078 A 
ATOM      5  C3  OXE d   1       1.343  -0.704  -0.601  0.00  0.00     0.003 A 
ATOM      6  C4  OXE d   1       0.054  -1.187  -0.344  0.00  0.00    -0.002 A 
ATOM      7  C5  OXE d   1      -0.838  -0.447   0.438  0.00  0.00    -0.002 A 
ATOM      8  C6  OXE d   1      -0.432   0.775   0.964  0.00  0.00     0.003 A 
ENDROOT
TORSDOF 0
ENDMDL
