MODEL 1
REMARK minimizedAffinity -1.03444624
REMARK minimizedRMSD -1
REMARK  0 active torsions:
REMARK  status: ('A' for Active; 'I' for Inactive)
ROOT
ATOM      1  C2' OXE d   1      -3.069  -0.593  -3.035  0.00  0.00     0.078 C 
ATOM      2  C1' OXE d   1      -0.899  -2.136  -3.925  0.00  0.00     0.078 C 
ATOM      3  C1  OXE d   1      -0.815  -1.535  -2.545  0.00  0.00    -0.078 A 
ATOM      4  C2  OXE d   1      -1.861  -0.743  -2.135  0.00  0.00    -0.078 A 
ATOM      5  C3  OXE d   1      -1.859  -0.209  -0.850  0.00  0.00     0.003 A 
ATOM      6  C4  OXE d   1      -0.733  -0.343  -0.028  0.00  0.00    -0.002 A 
ATOM      7  C5  OXE d   1       0.360  -1.113  -0.441  0.00  0.00    -0.002 A 
ATOM      8  C6  OXE d   1       0.317  -1.749  -1.677  0.00  0.00     0.003 A 
ENDROOT
TORSDOF 0
ENDMDL
