MODEL 1
REMARK minimizedAffinity -3.3448298
REMARK minimizedRMSD -1
REMARK  0 active torsions:
REMARK  status: ('A' for Active; 'I' for Inactive)
ROOT
ATOM      1  C2' OXE d   1      -1.482   0.370   1.903  0.00  0.00     0.078 C 
ATOM      2  C1' OXE d   1       0.844   1.915   1.615  0.00  0.00     0.078 C 
ATOM      3  C1  OXE d   1       0.711   0.679   0.761  0.00  0.00    -0.078 A 
ATOM      4  C2  OXE d   1      -0.409  -0.096   0.942  0.00  0.00    -0.078 A 
ATOM      5  C3  OXE d   1      -0.608  -1.217   0.141  0.00  0.00     0.003 A 
ATOM      6  C4  OXE d   1       0.393  -1.647  -0.738  0.00  0.00    -0.002 A 
ATOM      7  C5  OXE d   1       1.560  -0.894  -0.908  0.00  0.00    -0.002 A 
ATOM      8  C6  OXE d   1       1.714   0.292  -0.199  0.00  0.00     0.003 A 
ENDROOT
TORSDOF 0
ENDMDL
