MODEL 1
REMARK minimizedAffinity -0.792038858
REMARK minimizedRMSD -1
REMARK  0 active torsions:
REMARK  status: ('A' for Active; 'I' for Inactive)
ROOT
ATOM      1  C2' OXE d   1      -0.057  -1.388  -0.995  0.00  0.00     0.078 C 
ATOM      2  C1' OXE d   1       2.396  -0.100  -0.544  0.00  0.00     0.078 C 
ATOM      3  C1  OXE d   1       1.190   0.400   0.211  0.00  0.00    -0.078 A 
ATOM      4  C2  OXE d   1      -0.015  -0.206  -0.051  0.00  0.00    -0.078 A 
ATOM      5  C3  OXE d   1      -1.149   0.180   0.659  0.00  0.00     0.003 A 
ATOM      6  C4  OXE d   1      -1.104   1.281   1.523  0.00  0.00    -0.002 A 
ATOM      7  C5  OXE d   1       0.106   1.937   1.774  0.00  0.00    -0.002 A 
ATOM      8  C6  OXE d   1       1.268   1.483   1.160  0.00  0.00     0.003 A 
ENDROOT
TORSDOF 0
ENDMDL
