MODEL 1
REMARK minimizedAffinity -3.24467182
REMARK minimizedRMSD -1
REMARK  0 active torsions:
REMARK  status: ('A' for Active; 'I' for Inactive)
ROOT
ATOM      1  C2' OXE d   1      -0.446  -0.329  -0.771  0.00  0.00     0.078 C 
ATOM      2  C1' OXE d   1      -1.259   0.072   1.885  0.00  0.00     0.078 C 
ATOM      3  C1  OXE d   1      -0.021   0.793   1.412  0.00  0.00    -0.078 A 
ATOM      4  C2  OXE d   1       0.396   0.554   0.125  0.00  0.00    -0.078 A 
ATOM      5  C3  OXE d   1       1.500   1.235  -0.380  0.00  0.00     0.003 A 
ATOM      6  C4  OXE d   1       2.279   2.042   0.459  0.00  0.00    -0.002 A 
ATOM      7  C5  OXE d   1       1.895   2.267   1.785  0.00  0.00    -0.002 A 
ATOM      8  C6  OXE d   1       0.726   1.685   2.264  0.00  0.00     0.003 A 
ENDROOT
TORSDOF 0
ENDMDL
