MODEL 1
REMARK minimizedAffinity -4.68487835
REMARK minimizedRMSD -1
REMARK  0 active torsions:
REMARK  status: ('A' for Active; 'I' for Inactive)
ROOT
ATOM      1  C2' OXE d   1       4.239   2.246  -0.474  0.00  0.00     0.078 C 
ATOM      2  C1' OXE d   1       4.324   1.047   2.062  0.00  0.00     0.078 C 
ATOM      3  C1  OXE d   1       3.005   1.608   1.593  0.00  0.00    -0.078 A 
ATOM      4  C2  OXE d   1       2.983   2.235   0.371  0.00  0.00    -0.078 A 
ATOM      5  C3  OXE d   1       1.780   2.721  -0.133  0.00  0.00     0.003 A 
ATOM      6  C4  OXE d   1       0.626   2.715   0.659  0.00  0.00    -0.002 A 
ATOM      7  C5  OXE d   1       0.636   2.118   1.923  0.00  0.00    -0.002 A 
ATOM      8  C6  OXE d   1       1.804   1.523   2.387  0.00  0.00     0.003 A 
ENDROOT
TORSDOF 0
ENDMDL
