MODEL 1
REMARK minimizedAffinity -5.14602757
REMARK minimizedRMSD -1
REMARK  0 active torsions:
REMARK  status: ('A' for Active; 'I' for Inactive)
ROOT
ATOM      1  C2' OXE d   1      -0.964   0.834   1.309  0.00  0.00     0.078 C 
ATOM      2  C1' OXE d   1       0.154  -0.971  -0.529  0.00  0.00     0.078 C 
ATOM      3  C1  OXE d   1       1.047   0.110   0.028  0.00  0.00    -0.078 A 
ATOM      4  C2  OXE d   1       0.479   1.017   0.891  0.00  0.00    -0.078 A 
ATOM      5  C3  OXE d   1       1.272   2.001   1.475  0.00  0.00     0.003 A 
ATOM      6  C4  OXE d   1       2.603   2.169   1.075  0.00  0.00    -0.002 A 
ATOM      7  C5  OXE d   1       3.189   1.281   0.168  0.00  0.00    -0.002 A 
ATOM      8  C6  OXE d   1       2.439   0.223  -0.332  0.00  0.00     0.003 A 
ENDROOT
TORSDOF 0
ENDMDL
