MODEL 1
REMARK minimizedAffinity -1.75929129
REMARK minimizedRMSD -1
REMARK  0 active torsions:
REMARK  status: ('A' for Active; 'I' for Inactive)
ROOT
ATOM      1  C2' OXE d   1      -1.695   0.065   1.598  0.00  0.00     0.078 C 
ATOM      2  C1' OXE d   1      -0.287  -0.715  -0.702  0.00  0.00     0.078 C 
ATOM      3  C1  OXE d   1       0.298   0.392   0.140  0.00  0.00    -0.078 A 
ATOM      4  C2  OXE d   1      -0.422   0.799   1.237  0.00  0.00    -0.078 A 
ATOM      5  C3  OXE d   1       0.098   1.779   2.078  0.00  0.00     0.003 A 
ATOM      6  C4  OXE d   1       1.272   2.460   1.732  0.00  0.00    -0.002 A 
ATOM      7  C5  OXE d   1       2.000   2.088   0.597  0.00  0.00    -0.002 A 
ATOM      8  C6  OXE d   1       1.549   1.030  -0.185  0.00  0.00     0.003 A 
ENDROOT
TORSDOF 0
ENDMDL
