MODEL 1
REMARK minimizedAffinity -4.6277256
REMARK minimizedRMSD -1
REMARK  0 active torsions:
REMARK  status: ('A' for Active; 'I' for Inactive)
ROOT
ATOM      1  C2' OXE d   1      -0.936   1.062   1.544  0.00  0.00     0.078 C 
ATOM      2  C1' OXE d   1      -0.076  -0.693  -0.471  0.00  0.00     0.078 C 
ATOM      3  C1  OXE d   1       0.957   0.194   0.178  0.00  0.00    -0.078 A 
ATOM      4  C2  OXE d   1       0.519   1.083   1.130  0.00  0.00    -0.078 A 
ATOM      5  C3  OXE d   1       1.439   1.885   1.798  0.00  0.00     0.003 A 
ATOM      6  C4  OXE d   1       2.782   1.905   1.403  0.00  0.00    -0.002 A 
ATOM      7  C5  OXE d   1       3.242   1.036   0.407  0.00  0.00    -0.002 A 
ATOM      8  C6  OXE d   1       2.352   0.146  -0.184  0.00  0.00     0.003 A 
ENDROOT
TORSDOF 0
ENDMDL
