MODEL 1
REMARK minimizedAffinity 0.942934692
REMARK minimizedRMSD -1
REMARK  0 active torsions:
REMARK  status: ('A' for Active; 'I' for Inactive)
ROOT
ATOM      1  C2' OXE d   1      -1.747   0.697   1.907  0.00  0.00     0.078 C 
ATOM      2  C1' OXE d   1      -1.127  -1.037  -0.213  0.00  0.00     0.078 C 
ATOM      3  C1  OXE d   1      -0.018  -0.177   0.340  0.00  0.00    -0.078 A 
ATOM      4  C2  OXE d   1      -0.341   0.702   1.346  0.00  0.00    -0.078 A 
ATOM      5  C3  OXE d   1       0.656   1.479   1.929  0.00  0.00     0.003 A 
ATOM      6  C4  OXE d   1       1.951   1.485   1.397  0.00  0.00    -0.002 A 
ATOM      7  C5  OXE d   1       2.292   0.627   0.346  0.00  0.00    -0.002 A 
ATOM      8  C6  OXE d   1       1.331  -0.240  -0.164  0.00  0.00     0.003 A 
ENDROOT
TORSDOF 0
ENDMDL
