MODEL 1
REMARK minimizedAffinity -4.51361895
REMARK minimizedRMSD -1
REMARK  0 active torsions:
REMARK  status: ('A' for Active; 'I' for Inactive)
ROOT
ATOM      1  C2' OXE d   1       0.504   5.711  -3.389  0.00  0.00     0.078 C 
ATOM      2  C1' OXE d   1       1.494   6.000  -6.000  0.00  0.00     0.078 C 
ATOM      3  C1  OXE d   1       2.390   5.349  -4.976  0.00  0.00    -0.078 A 
ATOM      4  C2  OXE d   1       1.916   5.254  -3.690  0.00  0.00    -0.078 A 
ATOM      5  C3  OXE d   1       2.680   4.614  -2.719  0.00  0.00     0.003 A 
ATOM      6  C4  OXE d   1       3.988   4.204  -3.002  0.00  0.00    -0.002 A 
ATOM      7  C5  OXE d   1       4.506   4.327  -4.296  0.00  0.00    -0.002 A 
ATOM      8  C6  OXE d   1       3.706   4.858  -5.302  0.00  0.00     0.003 A 
ENDROOT
TORSDOF 0
ENDMDL
