MODEL 1
REMARK minimizedAffinity -1.32853401
REMARK minimizedRMSD -1
REMARK  0 active torsions:
REMARK  status: ('A' for Active; 'I' for Inactive)
ROOT
ATOM      1  O1  BZF d   1       0.581  -2.149   1.281  0.00  0.00    -0.204 OA
ATOM      2  C2  BZF d   1       1.497  -2.527   2.243  0.00  0.00     0.174 A 
ATOM      3  C3  BZF d   1       2.504  -1.632   2.323  0.00  0.00    -0.012 A 
ATOM      4  C3A BZF d   1       2.150  -0.586   1.413  0.00  0.00    -0.107 A 
ATOM      5  C4  BZF d   1       2.744   0.591   1.060  0.00  0.00     0.055 A 
ATOM      6  C5  BZF d   1       2.177   1.352   0.087  0.00  0.00    -0.016 A 
ATOM      7  C6  BZF d   1       1.020   0.964  -0.556  0.00  0.00     0.022 A 
ATOM      8  C7  BZF d   1       0.391  -0.194  -0.236  0.00  0.00     0.029 A 
ATOM      9  C7A BZF d   1       0.944  -0.948   0.770  0.00  0.00     0.058 A 
ENDROOT
TORSDOF 0
ENDMDL
