MODEL 1
REMARK minimizedAffinity -4.10697508
REMARK minimizedRMSD -1
REMARK  0 active torsions:
REMARK  status: ('A' for Active; 'I' for Inactive)
ROOT
ATOM      1  O1  BZF d   1       2.478  -1.144   0.697  0.00  0.00    -0.204 OA
ATOM      2  C2  BZF d   1       3.222  -0.046   1.085  0.00  0.00     0.174 A 
ATOM      3  C3  BZF d   1       2.481   1.079   1.024  0.00  0.00    -0.012 A 
ATOM      4  C3A BZF d   1       1.167   0.645   0.659  0.00  0.00    -0.107 A 
ATOM      5  C4  BZF d   1      -0.015   1.299   0.456  0.00  0.00     0.055 A 
ATOM      6  C5  BZF d   1      -1.096   0.592   0.036  0.00  0.00    -0.016 A 
ATOM      7  C6  BZF d   1      -1.031  -0.767  -0.196  0.00  0.00     0.022 A 
ATOM      8  C7  BZF d   1       0.118  -1.459  -0.004  0.00  0.00     0.029 A 
ATOM      9  C7A BZF d   1       1.205  -0.753   0.452  0.00  0.00     0.058 A 
ENDROOT
TORSDOF 0
ENDMDL
