MODEL 1
REMARK minimizedAffinity -2.28807068
REMARK minimizedRMSD -1
REMARK  0 active torsions:
REMARK  status: ('A' for Active; 'I' for Inactive)
ROOT
ATOM      1  O1  BZF d   1      -0.429  -0.563  -0.049  0.00  0.00    -0.204 OA
ATOM      2  C2  BZF d   1      -0.929   0.715   0.109  0.00  0.00     0.174 A 
ATOM      3  C3  BZF d   1       0.037   1.560   0.524  0.00  0.00    -0.012 A 
ATOM      4  C3A BZF d   1       1.236   0.779   0.543  0.00  0.00    -0.107 A 
ATOM      5  C4  BZF d   1       2.535   1.062   0.855  0.00  0.00     0.055 A 
ATOM      6  C5  BZF d   1       3.451   0.057   0.843  0.00  0.00    -0.016 A 
ATOM      7  C6  BZF d   1       3.101  -1.240   0.530  0.00  0.00     0.022 A 
ATOM      8  C7  BZF d   1       1.826  -1.568   0.210  0.00  0.00     0.029 A 
ATOM      9  C7A BZF d   1       0.905  -0.549   0.189  0.00  0.00     0.058 A 
ENDROOT
TORSDOF 0
ENDMDL
