MODEL 1
REMARK minimizedAffinity -5.7074132
REMARK minimizedRMSD -1
REMARK  0 active torsions:
REMARK  status: ('A' for Active; 'I' for Inactive)
ROOT
ATOM      1  O1  BZF d   1       2.536  -1.227   0.938  0.00  0.00    -0.204 OA
ATOM      2  C2  BZF d   1       3.082  -0.142   0.280  0.00  0.00     0.174 A 
ATOM      3  C3  BZF d   1       2.114   0.641  -0.236  0.00  0.00    -0.012 A 
ATOM      4  C3A BZF d   1       0.883   0.056   0.202  0.00  0.00    -0.107 A 
ATOM      5  C4  BZF d   1      -0.429   0.389   0.026  0.00  0.00     0.055 A 
ATOM      6  C5  BZF d   1      -1.391  -0.433   0.523  0.00  0.00    -0.016 A 
ATOM      7  C6  BZF d   1      -1.076  -1.595   1.195  0.00  0.00     0.022 A 
ATOM      8  C7  BZF d   1       0.212  -1.964   1.400  0.00  0.00     0.029 A 
ATOM      9  C7A BZF d   1       1.186  -1.119   0.927  0.00  0.00     0.058 A 
ENDROOT
TORSDOF 0
ENDMDL
