MODEL 1
REMARK minimizedAffinity -3.19329929
REMARK minimizedRMSD -1
REMARK  0 active torsions:
REMARK  status: ('A' for Active; 'I' for Inactive)
ROOT
ATOM      1  O1  BZF d   1       2.970   0.538   0.892  0.00  0.00    -0.204 OA
ATOM      2  C2  BZF d   1       3.405  -0.770   0.990  0.00  0.00     0.174 A 
ATOM      3  C3  BZF d   1       2.417  -1.628   0.664  0.00  0.00    -0.012 A 
ATOM      4  C3A BZF d   1       1.322  -0.803   0.254  0.00  0.00    -0.107 A 
ATOM      5  C4  BZF d   1       0.062  -1.072  -0.200  0.00  0.00     0.055 A 
ATOM      6  C5  BZF d   1      -0.786  -0.040  -0.444  0.00  0.00    -0.016 A 
ATOM      7  C6  BZF d   1      -0.411   1.272  -0.241  0.00  0.00     0.022 A 
ATOM      8  C7  BZF d   1       0.830   1.589   0.203  0.00  0.00     0.029 A 
ATOM      9  C7A BZF d   1       1.701   0.549   0.420  0.00  0.00     0.058 A 
ENDROOT
TORSDOF 0
ENDMDL
