MODEL 1
REMARK minimizedAffinity -3.63884449
REMARK minimizedRMSD -1
REMARK  0 active torsions:
REMARK  status: ('A' for Active; 'I' for Inactive)
ROOT
ATOM      1  O1  BZF d   1       1.415  -1.494   0.588  0.00  0.00    -0.204 OA
ATOM      2  C2  BZF d   1       2.661  -0.909   0.709  0.00  0.00     0.174 A 
ATOM      3  C3  BZF d   1       2.639   0.362   0.258  0.00  0.00    -0.012 A 
ATOM      4  C3A BZF d   1       1.274   0.615  -0.086  0.00  0.00    -0.107 A 
ATOM      5  C4  BZF d   1       0.617   1.707  -0.577  0.00  0.00     0.055 A 
ATOM      6  C5  BZF d   1      -0.706   1.604  -0.873  0.00  0.00    -0.016 A 
ATOM      7  C6  BZF d   1      -1.400   0.425  -0.696  0.00  0.00     0.022 A 
ATOM      8  C7  BZF d   1      -0.792  -0.683  -0.208  0.00  0.00     0.029 A 
ATOM      9  C7A BZF d   1       0.537  -0.573   0.124  0.00  0.00     0.058 A 
ENDROOT
TORSDOF 0
ENDMDL
