MODEL 1
REMARK minimizedAffinity -3.60728908
REMARK minimizedRMSD -1
REMARK  0 active torsions:
REMARK  status: ('A' for Active; 'I' for Inactive)
ROOT
ATOM      1  O1  BZF d   1      -0.109   1.422   0.196  0.00  0.00    -0.204 OA
ATOM      2  C2  BZF d   1      -1.112   0.493   0.000  0.00  0.00     0.174 A 
ATOM      3  C3  BZF d   1      -0.608  -0.758  -0.019  0.00  0.00    -0.012 A 
ATOM      4  C3A BZF d   1       0.786  -0.607   0.269  0.00  0.00    -0.107 A 
ATOM      5  C4  BZF d   1       1.818  -1.491   0.403  0.00  0.00     0.055 A 
ATOM      6  C5  BZF d   1       3.073  -1.014   0.613  0.00  0.00    -0.016 A 
ATOM      7  C6  BZF d   1       3.332   0.339   0.689  0.00  0.00     0.022 A 
ATOM      8  C7  BZF d   1       2.340   1.254   0.567  0.00  0.00     0.029 A 
ATOM      9  C7A BZF d   1       1.065   0.774   0.388  0.00  0.00     0.058 A 
ENDROOT
TORSDOF 0
ENDMDL
