MODEL 1
REMARK minimizedAffinity -2.88219571
REMARK minimizedRMSD -1
REMARK  0 active torsions:
REMARK  status: ('A' for Active; 'I' for Inactive)
ROOT
ATOM      1  O1  BZF d   1       2.623  -1.332   1.155  0.00  0.00    -0.204 OA
ATOM      2  C2  BZF d   1       3.506  -0.280   1.309  0.00  0.00     0.174 A 
ATOM      3  C3  BZF d   1       2.962   0.871   0.864  0.00  0.00    -0.012 A 
ATOM      4  C3A BZF d   1       1.623   0.533   0.487  0.00  0.00    -0.107 A 
ATOM      5  C4  BZF d   1       0.578   1.256  -0.014  0.00  0.00     0.055 A 
ATOM      6  C5  BZF d   1      -0.572   0.612  -0.343  0.00  0.00    -0.016 A 
ATOM      7  C6  BZF d   1      -0.711  -0.752  -0.189  0.00  0.00     0.022 A 
ATOM      8  C7  BZF d   1       0.296  -1.510   0.309  0.00  0.00     0.029 A 
ATOM      9  C7A BZF d   1       1.449  -0.858   0.674  0.00  0.00     0.058 A 
ENDROOT
TORSDOF 0
ENDMDL
