MODEL 1
REMARK minimizedAffinity -4.6742506
REMARK minimizedRMSD -1
REMARK  0 active torsions:
REMARK  status: ('A' for Active; 'I' for Inactive)
ROOT
ATOM      1  O1  BZF d   1      -0.692  -0.433   0.084  0.00  0.00    -0.204 OA
ATOM      2  C2  BZF d   1      -0.753   0.861  -0.397  0.00  0.00     0.174 A 
ATOM      3  C3  BZF d   1       0.430   1.488  -0.234  0.00  0.00    -0.012 A 
ATOM      4  C3A BZF d   1       1.310   0.496   0.303  0.00  0.00    -0.107 A 
ATOM      5  C4  BZF d   1       2.627   0.506   0.664  0.00  0.00     0.055 A 
ATOM      6  C5  BZF d   1       3.168  -0.608   1.224  0.00  0.00    -0.016 A 
ATOM      7  C6  BZF d   1       2.420  -1.746   1.442  0.00  0.00     0.022 A 
ATOM      8  C7  BZF d   1       1.111  -1.806   1.095  0.00  0.00     0.029 A 
ATOM      9  C7A BZF d   1       0.571  -0.693   0.499  0.00  0.00     0.058 A 
ENDROOT
TORSDOF 0
ENDMDL
