MODEL 1
REMARK minimizedAffinity -5.5736165
REMARK minimizedRMSD -1
REMARK  0 active torsions:
REMARK  status: ('A' for Active; 'I' for Inactive)
ROOT
ATOM      1  O1  BZF d   1      -0.789  -0.999   0.325  0.00  0.00    -0.204 OA
ATOM      2  C2  BZF d   1      -0.917   0.230  -0.293  0.00  0.00     0.174 A 
ATOM      3  C3  BZF d   1       0.201   0.966  -0.132  0.00  0.00    -0.012 A 
ATOM      4  C3A BZF d   1       1.118   0.110   0.556  0.00  0.00    -0.107 A 
ATOM      5  C4  BZF d   1       2.404   0.267   0.988  0.00  0.00     0.055 A 
ATOM      6  C5  BZF d   1       2.991  -0.736   1.693  0.00  0.00    -0.016 A 
ATOM      7  C6  BZF d   1       2.320  -1.905   1.988  0.00  0.00     0.022 A 
ATOM      8  C7  BZF d   1       1.045  -2.108   1.577  0.00  0.00     0.029 A 
ATOM      9  C7A BZF d   1       0.461  -1.110   0.836  0.00  0.00     0.058 A 
ENDROOT
TORSDOF 0
ENDMDL
