MODEL 1
REMARK minimizedAffinity 3.75330067
REMARK minimizedRMSD -1
REMARK  1 active torsions:
REMARK  status: ('A' for Active; 'I' for Inactive)
REMARK    1  A    between atoms: C1_2  and  C2_3 
ROOT
ATOM      1  C2  UNL d   1       4.800  -4.761   3.248  0.00  0.00    -0.073 A 
ATOM      2  C3  UNL d   1       4.666  -5.955   3.966  0.00  0.00    -0.002 A 
ATOM      3  C4  UNL d   1       4.956  -5.994   5.330  0.00  0.00     0.004 A 
ATOM      4  C5  UNL d   1       5.376  -4.840   5.992  0.00  0.00    -0.004 A 
ATOM      5  C6  UNL d   1       5.505  -3.635   5.294  0.00  0.00    -0.075 A 
ATOM      6  C7  UNL d   1       5.957  -2.385   5.991  0.00  0.00     0.076 C 
ATOM      7  C8  UNL d   1       5.214  -3.604   3.924  0.00  0.00     0.001 A 
ENDROOT
BRANCH   1   8
ATOM      8  C1  UNL d   1       4.482  -4.713   1.776  0.00  0.00     0.053 C 
ATOM      9  C   UNL d   1       3.391  -3.701   1.462  0.00  0.00     0.018 C 
ENDBRANCH   1   8
TORSDOF 1
ENDMDL
