MODEL 1
REMARK minimizedAffinity 2.17716312
REMARK minimizedRMSD -1
REMARK  1 active torsions:
REMARK  status: ('A' for Active; 'I' for Inactive)
REMARK    1  A    between atoms: C1_2  and  C2_3 
ROOT
ATOM      1  C2  UNL d   1       4.539  -4.551   3.294  0.00  0.00    -0.073 A 
ATOM      2  C3  UNL d   1       4.544  -5.762   3.995  0.00  0.00    -0.002 A 
ATOM      3  C4  UNL d   1       4.931  -5.799   5.335  0.00  0.00     0.004 A 
ATOM      4  C5  UNL d   1       5.310  -4.627   5.989  0.00  0.00    -0.004 A 
ATOM      5  C6  UNL d   1       5.301  -3.405   5.309  0.00  0.00    -0.075 A 
ATOM      6  C7  UNL d   1       5.709  -2.136   5.997  0.00  0.00     0.076 C 
ATOM      7  C8  UNL d   1       4.914  -3.377   3.962  0.00  0.00     0.001 A 
ENDROOT
BRANCH   1   8
ATOM      8  C1  UNL d   1       4.116  -4.505   1.848  0.00  0.00     0.053 C 
ATOM      9  C   UNL d   1       4.543  -3.212   1.170  0.00  0.00     0.018 C 
ENDBRANCH   1   8
TORSDOF 1
ENDMDL
