MODEL 1
REMARK minimizedAffinity 6.4216094
REMARK minimizedRMSD -1
REMARK  1 active torsions:
REMARK  status: ('A' for Active; 'I' for Inactive)
REMARK    1  A    between atoms: C1_2  and  C2_3 
ROOT
ATOM      1  C2  UNL d   1       4.068  -3.597   2.098  0.00  0.00    -0.073 A 
ATOM      2  C3  UNL d   1       4.691  -3.930   0.890  0.00  0.00    -0.002 A 
ATOM      3  C4  UNL d   1       4.178  -3.462  -0.320  0.00  0.00     0.004 A 
ATOM      4  C5  UNL d   1       3.042  -2.652  -0.335  0.00  0.00    -0.004 A 
ATOM      5  C6  UNL d   1       2.413  -2.298   0.863  0.00  0.00    -0.075 A 
ATOM      6  C7  UNL d   1       1.189  -1.429   0.864  0.00  0.00     0.076 C 
ATOM      7  C8  UNL d   1       2.932  -2.775   2.074  0.00  0.00     0.001 A 
ENDROOT
BRANCH   1   8
ATOM      8  C1  UNL d   1       4.622  -4.095   3.408  0.00  0.00     0.053 C 
ATOM      9  C   UNL d   1       4.823  -2.967   4.408  0.00  0.00     0.018 C 
ENDBRANCH   1   8
TORSDOF 1
ENDMDL
