MODEL 1
REMARK minimizedAffinity 0.385602146
REMARK minimizedRMSD -1
REMARK  1 active torsions:
REMARK  status: ('A' for Active; 'I' for Inactive)
REMARK    1  A    between atoms: C1_2  and  C2_3 
ROOT
ATOM      1  C2  UNL d   1      -3.065   0.979  -3.447  0.00  0.00    -0.073 A 
ATOM      2  C3  UNL d   1      -2.781   0.943  -2.077  0.00  0.00    -0.002 A 
ATOM      3  C4  UNL d   1      -3.409   0.009  -1.251  0.00  0.00     0.004 A 
ATOM      4  C5  UNL d   1      -4.321  -0.900  -1.787  0.00  0.00    -0.004 A 
ATOM      5  C6  UNL d   1      -4.610  -0.887  -3.155  0.00  0.00    -0.075 A 
ATOM      6  C7  UNL d   1      -5.590  -1.857  -3.746  0.00  0.00     0.076 C 
ATOM      7  C8  UNL d   1      -3.977   0.055  -3.977  0.00  0.00     0.001 A 
ENDROOT
BRANCH   1   8
ATOM      8  C1  UNL d   1      -2.385   1.981  -4.343  0.00  0.00     0.053 C 
ATOM      9  C   UNL d   1      -3.105   3.320  -4.352  0.00  0.00     0.018 C 
ENDBRANCH   1   8
TORSDOF 1
ENDMDL
