MODEL 1
REMARK minimizedAffinity 3.5387342
REMARK minimizedRMSD -1
REMARK  1 active torsions:
REMARK  status: ('A' for Active; 'I' for Inactive)
REMARK    1  A    between atoms: C1_2  and  C2_3 
ROOT
ATOM      1  C2  UNL d   1       0.229  -0.985   1.002  0.00  0.00    -0.073 A 
ATOM      2  C3  UNL d   1       0.806  -2.225   1.302  0.00  0.00    -0.002 A 
ATOM      3  C4  UNL d   1       2.050  -2.570   0.772  0.00  0.00     0.004 A 
ATOM      4  C5  UNL d   1       2.732  -1.678  -0.055  0.00  0.00    -0.004 A 
ATOM      5  C6  UNL d   1       2.178  -0.430  -0.357  0.00  0.00    -0.075 A 
ATOM      6  C7  UNL d   1       2.898   0.539  -1.247  0.00  0.00     0.076 C 
ATOM      7  C8  UNL d   1       0.927  -0.092   0.177  0.00  0.00     0.001 A 
ENDROOT
BRANCH   1   8
ATOM      8  C1  UNL d   1      -1.111  -0.605   1.577  0.00  0.00     0.053 C 
ATOM      9  C   UNL d   1      -1.562   0.770   1.111  0.00  0.00     0.018 C 
ENDBRANCH   1   8
TORSDOF 1
ENDMDL
