MODEL 1
REMARK minimizedAffinity 1.06982672
REMARK minimizedRMSD -1
REMARK  1 active torsions:
REMARK  status: ('A' for Active; 'I' for Inactive)
REMARK    1  A    between atoms: C1_2  and  C2_3 
ROOT
ATOM      1  C2  UNL d   1       1.702   1.032   0.187  0.00  0.00    -0.073 A 
ATOM      2  C3  UNL d   1       1.175  -0.004   0.965  0.00  0.00    -0.002 A 
ATOM      3  C4  UNL d   1       1.621  -1.315   0.790  0.00  0.00     0.004 A 
ATOM      4  C5  UNL d   1       2.603  -1.601  -0.159  0.00  0.00    -0.004 A 
ATOM      5  C6  UNL d   1       3.151  -0.576  -0.938  0.00  0.00    -0.075 A 
ATOM      6  C7  UNL d   1       4.207  -0.868  -1.964  0.00  0.00     0.076 C 
ATOM      7  C8  UNL d   1       2.695   0.736  -0.758  0.00  0.00     0.001 A 
ENDROOT
BRANCH   1   8
ATOM      8  C1  UNL d   1       1.227   2.450   0.377  0.00  0.00     0.053 C 
ATOM      9  C   UNL d   1       1.173   3.214  -0.936  0.00  0.00     0.018 C 
ENDBRANCH   1   8
TORSDOF 1
ENDMDL
