MODEL 1
REMARK minimizedAffinity 7.97559643
REMARK minimizedRMSD -1
REMARK  1 active torsions:
REMARK  status: ('A' for Active; 'I' for Inactive)
REMARK    1  A    between atoms: C1_2  and  C2_3 
ROOT
ATOM      1  C2  UNL d   1       1.422  -0.972   0.678  0.00  0.00    -0.073 A 
ATOM      2  C3  UNL d   1       1.768  -2.326   0.764  0.00  0.00    -0.002 A 
ATOM      3  C4  UNL d   1       2.711  -2.869  -0.109  0.00  0.00     0.004 A 
ATOM      4  C5  UNL d   1       3.323  -2.064  -1.070  0.00  0.00    -0.004 A 
ATOM      5  C6  UNL d   1       3.000  -0.707  -1.164  0.00  0.00    -0.075 A 
ATOM      6  C7  UNL d   1       3.647   0.171  -2.194  0.00  0.00     0.076 C 
ATOM      7  C8  UNL d   1       2.049  -0.170  -0.285  0.00  0.00     0.001 A 
ENDROOT
BRANCH   1   8
ATOM      8  C1  UNL d   1       0.408  -0.380   1.623  0.00  0.00     0.053 C 
ATOM      9  C   UNL d   1      -0.941  -1.074   1.520  0.00  0.00     0.018 C 
ENDBRANCH   1   8
TORSDOF 1
ENDMDL
