MODEL 1
REMARK minimizedAffinity 5.62711143
REMARK minimizedRMSD -1
REMARK  1 active torsions:
REMARK  status: ('A' for Active; 'I' for Inactive)
REMARK    1  A    between atoms: C1_2  and  C2_3 
ROOT
ATOM      1  C2  UNL d   1      -3.116  -1.688   0.365  0.00  0.00    -0.073 A 
ATOM      2  C3  UNL d   1      -2.947  -1.058   1.603  0.00  0.00    -0.002 A 
ATOM      3  C4  UNL d   1      -3.123   0.321   1.722  0.00  0.00     0.004 A 
ATOM      4  C5  UNL d   1      -3.476   1.082   0.608  0.00  0.00    -0.004 A 
ATOM      5  C6  UNL d   1      -3.661   0.469  -0.635  0.00  0.00    -0.075 A 
ATOM      6  C7  UNL d   1      -4.038   1.274  -1.844  0.00  0.00     0.076 C 
ATOM      7  C8  UNL d   1      -3.479  -0.916  -0.747  0.00  0.00     0.001 A 
ENDROOT
BRANCH   1   8
ATOM      8  C1  UNL d   1      -2.933  -3.178   0.233  0.00  0.00     0.053 C 
ATOM      9  C   UNL d   1      -2.649  -3.839   1.573  0.00  0.00     0.018 C 
ENDBRANCH   1   8
TORSDOF 1
ENDMDL
