MODEL 1
REMARK minimizedAffinity -2.98681402
REMARK minimizedRMSD -1
REMARK  1 active torsions:
REMARK  status: ('A' for Active; 'I' for Inactive)
REMARK    1  A    between atoms: C1_2  and  C2_3 
ROOT
ATOM      1  C2  UNL d   1      -3.991  -5.955   0.522  0.00  0.00    -0.073 A 
ATOM      2  C3  UNL d   1      -2.609  -5.914   0.310  0.00  0.00    -0.002 A 
ATOM      3  C4  UNL d   1      -2.095  -5.908  -0.988  0.00  0.00     0.004 A 
ATOM      4  C5  UNL d   1      -2.957  -5.936  -2.084  0.00  0.00    -0.004 A 
ATOM      5  C6  UNL d   1      -4.342  -5.966  -1.892  0.00  0.00    -0.075 A 
ATOM      6  C7  UNL d   1      -5.283  -5.998  -3.061  0.00  0.00     0.076 C 
ATOM      7  C8  UNL d   1      -4.850  -5.974  -0.586  0.00  0.00     0.001 A 
ENDROOT
BRANCH   1   8
ATOM      8  C1  UNL d   1      -4.551  -5.955   1.922  0.00  0.00     0.053 C 
ATOM      9  C   UNL d   1      -3.454  -5.998   2.974  0.00  0.00     0.018 C 
ENDBRANCH   1   8
TORSDOF 1
ENDMDL
