MODEL 1
REMARK minimizedAffinity 6.98679972
REMARK minimizedRMSD -1
REMARK  1 active torsions:
REMARK  status: ('A' for Active; 'I' for Inactive)
REMARK    1  A    between atoms: C1_2  and  C2_3 
ROOT
ATOM      1  C2  UNL d   1      -4.096  -4.731   2.389  0.00  0.00    -0.073 A 
ATOM      2  C3  UNL d   1      -4.976  -5.491   1.610  0.00  0.00    -0.002 A 
ATOM      3  C4  UNL d   1      -4.828  -5.539   0.224  0.00  0.00     0.004 A 
ATOM      4  C5  UNL d   1      -3.797  -4.835  -0.397  0.00  0.00    -0.004 A 
ATOM      5  C6  UNL d   1      -2.900  -4.078   0.365  0.00  0.00    -0.075 A 
ATOM      6  C7  UNL d   1      -1.787  -3.313  -0.288  0.00  0.00     0.076 C 
ATOM      7  C8  UNL d   1      -3.057  -4.033   1.757  0.00  0.00     0.001 A 
ENDROOT
BRANCH   1   8
ATOM      8  C1  UNL d   1      -4.248  -4.681   3.887  0.00  0.00     0.053 C 
ATOM      9  C   UNL d   1      -2.903  -4.672   4.597  0.00  0.00     0.018 C 
ENDBRANCH   1   8
TORSDOF 1
ENDMDL
