MODEL 1
REMARK minimizedAffinity 7.28214598
REMARK minimizedRMSD -1
REMARK  1 active torsions:
REMARK  status: ('A' for Active; 'I' for Inactive)
REMARK    1  A    between atoms: C1_2  and  C2_3 
ROOT
ATOM      1  C2  UNL d   1      -0.213  -2.146   0.003  0.00  0.00    -0.073 A 
ATOM      2  C3  UNL d   1      -1.087  -1.163   0.481  0.00  0.00    -0.002 A 
ATOM      3  C4  UNL d   1      -0.758   0.189   0.365  0.00  0.00     0.004 A 
ATOM      4  C5  UNL d   1       0.441   0.570  -0.236  0.00  0.00    -0.004 A 
ATOM      5  C6  UNL d   1       1.322  -0.397  -0.731  0.00  0.00    -0.075 A 
ATOM      6  C7  UNL d   1       2.617  -0.003  -1.378  0.00  0.00     0.076 C 
ATOM      7  C8  UNL d   1       0.986  -1.752  -0.608  0.00  0.00     0.001 A 
ENDROOT
BRANCH   1   8
ATOM      8  C1  UNL d   1      -0.567  -3.606   0.121  0.00  0.00     0.053 C 
ATOM      9  C   UNL d   1      -2.046  -3.814   0.404  0.00  0.00     0.018 C 
ENDBRANCH   1   8
TORSDOF 1
ENDMDL
