MODEL 1
REMARK minimizedAffinity 6.32017517
REMARK minimizedRMSD -1
REMARK  1 active torsions:
REMARK  status: ('A' for Active; 'I' for Inactive)
REMARK    1  A    between atoms: C1_2  and  C2_3 
ROOT
ATOM      1  C2  UNL d   1       2.791   1.206  -0.419  0.00  0.00    -0.073 A 
ATOM      2  C3  UNL d   1       3.478   0.287   0.382  0.00  0.00    -0.002 A 
ATOM      3  C4  UNL d   1       4.791   0.543   0.781  0.00  0.00     0.004 A 
ATOM      4  C5  UNL d   1       5.426   1.721   0.391  0.00  0.00    -0.004 A 
ATOM      5  C6  UNL d   1       4.751   2.658  -0.400  0.00  0.00    -0.075 A 
ATOM      6  C7  UNL d   1       5.421   3.929  -0.831  0.00  0.00     0.076 C 
ATOM      7  C8  UNL d   1       3.435   2.392  -0.799  0.00  0.00     0.001 A 
ENDROOT
BRANCH   1   8
ATOM      8  C1  UNL d   1       1.371   0.936  -0.847  0.00  0.00     0.053 C 
ATOM      9  C   UNL d   1       0.559   0.276   0.256  0.00  0.00     0.018 C 
ENDBRANCH   1   8
TORSDOF 1
ENDMDL
