MODEL 1
REMARK minimizedAffinity 1.84557819
REMARK minimizedRMSD -1
REMARK  1 active torsions:
REMARK  status: ('A' for Active; 'I' for Inactive)
REMARK    1  A    between atoms: C1_2  and  C2_3 
ROOT
ATOM      1  C2  UNL d   1      -1.558  -5.640  -3.242  0.00  0.00    -0.073 A 
ATOM      2  C3  UNL d   1      -0.824  -4.956  -2.266  0.00  0.00    -0.002 A 
ATOM      3  C4  UNL d   1       0.511  -4.619  -2.495  0.00  0.00     0.004 A 
ATOM      4  C5  UNL d   1       1.122  -4.955  -3.703  0.00  0.00    -0.004 A 
ATOM      5  C6  UNL d   1       0.402  -5.628  -4.695  0.00  0.00    -0.075 A 
ATOM      6  C7  UNL d   1       1.046  -6.000  -5.998  0.00  0.00     0.076 C 
ATOM      7  C8  UNL d   1      -0.937  -5.966  -4.456  0.00  0.00     0.001 A 
ENDROOT
BRANCH   1   8
ATOM      8  C1  UNL d   1      -3.001  -6.000  -3.002  0.00  0.00     0.053 C 
ATOM      9  C   UNL d   1      -3.748  -4.901  -2.262  0.00  0.00     0.018 C 
ENDBRANCH   1   8
TORSDOF 1
ENDMDL
