MODEL 1
REMARK minimizedAffinity 3.48526549
REMARK minimizedRMSD -1
REMARK  1 active torsions:
REMARK  status: ('A' for Active; 'I' for Inactive)
REMARK    1  A    between atoms: C1_2  and  C2_3 
ROOT
ATOM      1  C2  UNL d   1       0.493   0.383  -0.112  0.00  0.00    -0.073 A 
ATOM      2  C3  UNL d   1       1.678  -0.201  -0.575  0.00  0.00    -0.002 A 
ATOM      3  C4  UNL d   1       2.016  -0.133  -1.927  0.00  0.00     0.004 A 
ATOM      4  C5  UNL d   1       1.178   0.524  -2.828  0.00  0.00    -0.004 A 
ATOM      5  C6  UNL d   1      -0.004   1.125  -2.382  0.00  0.00    -0.075 A 
ATOM      6  C7  UNL d   1      -0.918   1.834  -3.339  0.00  0.00     0.076 C 
ATOM      7  C8  UNL d   1      -0.338   1.050  -1.023  0.00  0.00     0.001 A 
ENDROOT
BRANCH   1   8
ATOM      8  C1  UNL d   1       0.128   0.318   1.348  0.00  0.00     0.053 C 
ATOM      9  C   UNL d   1      -1.279  -0.220   1.560  0.00  0.00     0.018 C 
ENDBRANCH   1   8
TORSDOF 1
ENDMDL
