MODEL 1
REMARK minimizedAffinity 2.91199207
REMARK minimizedRMSD -1
REMARK  0 active torsions:
REMARK  status: ('A' for Active; 'I' for Inactive)
ROOT
ATOM      1  C   UNL d   1      -0.621   2.070  -0.111  0.00  0.00     0.124 A 
ATOM      2  C1  UNL d   1      -1.878   2.505  -0.507  0.00  0.00     0.062 A 
ATOM      3  C2  UNL d   1      -3.021   1.862  -0.041  0.00  0.00     0.162 A 
ATOM      4  C3  UNL d   1      -2.912   0.776   0.828  0.00  0.00    -0.034 A 
ATOM      5  C4  UNL d   1      -1.645   0.344   1.222  0.00  0.00     0.162 A 
ATOM      6  C5  UNL d   1      -0.505   0.990   0.753  0.00  0.00     0.062 A 
ATOM      7  F   UNL d   1       0.708   0.568   1.137  0.00  0.00    -0.097 F 
ATOM      8  F1  UNL d   1      -1.504  -0.697   2.057  0.00  0.00    -0.096 F 
ATOM      9  I   UNL d   1      -4.618  -0.189   1.528  0.00  0.00    -0.060 I 
ATOM     10  F2  UNL d   1      -4.223   2.303  -0.441  0.00  0.00    -0.096 F 
ATOM     11  F3  UNL d   1      -1.992   3.548  -1.342  0.00  0.00    -0.097 F 
ATOM     12  F4  UNL d   1       0.477   2.690  -0.561  0.00  0.00    -0.092 F 
ENDROOT
TORSDOF 0
ENDMDL
