MODEL 1
REMARK minimizedAffinity 8.49859047
REMARK minimizedRMSD -1
REMARK  0 active torsions:
REMARK  status: ('A' for Active; 'I' for Inactive)
ROOT
ATOM      1  C   UNL d   1      -0.291   0.995   0.751  0.00  0.00     0.124 A 
ATOM      2  C1  UNL d   1      -1.287   0.066   1.016  0.00  0.00     0.062 A 
ATOM      3  C2  UNL d   1      -2.611   0.347   0.691  0.00  0.00     0.162 A 
ATOM      4  C3  UNL d   1      -2.946   1.564   0.097  0.00  0.00    -0.034 A 
ATOM      5  C4  UNL d   1      -1.939   2.494  -0.166  0.00  0.00     0.162 A 
ATOM      6  C5  UNL d   1      -0.617   2.208   0.161  0.00  0.00     0.062 A 
ATOM      7  F   UNL d   1       0.344   3.107  -0.096  0.00  0.00    -0.097 F 
ATOM      8  F1  UNL d   1      -2.226   3.673  -0.736  0.00  0.00    -0.096 F 
ATOM      9  I   UNL d   1      -4.925   1.989  -0.390  0.00  0.00    -0.060 I 
ATOM     10  F2  UNL d   1      -3.553  -0.569   0.959  0.00  0.00    -0.096 F 
ATOM     11  F3  UNL d   1      -0.974  -1.106   1.587  0.00  0.00    -0.097 F 
ATOM     12  F4  UNL d   1       0.982   0.722   1.065  0.00  0.00    -0.092 F 
ENDROOT
TORSDOF 0
ENDMDL
