MODEL 1
REMARK minimizedAffinity 5.26546574
REMARK minimizedRMSD -1
REMARK  0 active torsions:
REMARK  status: ('A' for Active; 'I' for Inactive)
ROOT
ATOM      1  C   UNL d   1      -2.264   1.311  -0.414  0.00  0.00     0.124 A 
ATOM      2  C1  UNL d   1      -1.197   1.865  -1.106  0.00  0.00     0.062 A 
ATOM      3  C2  UNL d   1       0.109   1.502  -0.788  0.00  0.00     0.162 A 
ATOM      4  C3  UNL d   1       0.354   0.578   0.228  0.00  0.00    -0.034 A 
ATOM      5  C4  UNL d   1      -0.725   0.026   0.921  0.00  0.00     0.162 A 
ATOM      6  C5  UNL d   1      -2.028   0.392   0.599  0.00  0.00     0.062 A 
ATOM      7  F   UNL d   1      -3.058  -0.144   1.269  0.00  0.00    -0.097 F 
ATOM      8  F1  UNL d   1      -0.525  -0.865   1.904  0.00  0.00    -0.096 F 
ATOM      9  I   UNL d   1       2.304   0.032   0.708  0.00  0.00    -0.060 I 
ATOM     10  F2  UNL d   1       1.121   2.053  -1.474  0.00  0.00    -0.096 F 
ATOM     11  F3  UNL d   1      -1.423   2.754  -2.085  0.00  0.00    -0.097 F 
ATOM     12  F4  UNL d   1      -3.519   1.663  -0.722  0.00  0.00    -0.092 F 
ENDROOT
TORSDOF 0
ENDMDL
