MODEL 1
REMARK minimizedAffinity 17.8065567
REMARK minimizedRMSD -1
REMARK  0 active torsions:
REMARK  status: ('A' for Active; 'I' for Inactive)
ROOT
ATOM      1  C   UNL d   1      -2.119   0.434   0.726  0.00  0.00     0.124 A 
ATOM      2  C1  UNL d   1      -0.890   0.311   1.359  0.00  0.00     0.062 A 
ATOM      3  C2  UNL d   1       0.118   1.241   1.118  0.00  0.00     0.162 A 
ATOM      4  C3  UNL d   1      -0.100   2.302   0.240  0.00  0.00    -0.034 A 
ATOM      5  C4  UNL d   1      -1.339   2.418  -0.394  0.00  0.00     0.162 A 
ATOM      6  C5  UNL d   1      -2.342   1.487  -0.149  0.00  0.00     0.062 A 
ATOM      7  F   UNL d   1      -3.529   1.607  -0.762  0.00  0.00    -0.097 F 
ATOM      8  F1  UNL d   1      -1.582   3.427  -1.244  0.00  0.00    -0.096 F 
ATOM      9  I   UNL d   1       1.404   3.695  -0.124  0.00  0.00    -0.060 I 
ATOM     10  F2  UNL d   1       1.296   1.098   1.743  0.00  0.00    -0.096 F 
ATOM     11  F3  UNL d   1      -0.671  -0.706   2.205  0.00  0.00    -0.097 F 
ATOM     12  F4  UNL d   1      -3.086  -0.463   0.960  0.00  0.00    -0.092 F 
ENDROOT
TORSDOF 0
ENDMDL
