MODEL 1
REMARK minimizedAffinity 10.6368637
REMARK minimizedRMSD -1
REMARK  0 active torsions:
REMARK  status: ('A' for Active; 'I' for Inactive)
ROOT
ATOM      1  C   UNL d   1      -0.904   0.984  -0.393  0.00  0.00     0.124 A 
ATOM      2  C1  UNL d   1       0.020   0.782   0.623  0.00  0.00     0.062 A 
ATOM      3  C2  UNL d   1      -0.202   1.319   1.888  0.00  0.00     0.162 A 
ATOM      4  C3  UNL d   1      -1.353   2.062   2.145  0.00  0.00    -0.034 A 
ATOM      5  C4  UNL d   1      -2.278   2.262   1.118  0.00  0.00     0.162 A 
ATOM      6  C5  UNL d   1      -2.052   1.723  -0.144  0.00  0.00     0.062 A 
ATOM      7  F   UNL d   1      -2.946   1.920  -1.124  0.00  0.00    -0.097 F 
ATOM      8  F1  UNL d   1      -3.396   2.972   1.331  0.00  0.00    -0.096 F 
ATOM      9  I   UNL d   1      -1.688   2.866   4.035  0.00  0.00    -0.060 I 
ATOM     10  F2  UNL d   1       0.709   1.107   2.850  0.00  0.00    -0.096 F 
ATOM     11  F3  UNL d   1       1.130   0.068   0.385  0.00  0.00    -0.097 F 
ATOM     12  F4  UNL d   1      -0.688   0.467  -1.609  0.00  0.00    -0.092 F 
ENDROOT
TORSDOF 0
ENDMDL
