MODEL 1
REMARK minimizedAffinity 20.4037743
REMARK minimizedRMSD -1
REMARK  0 active torsions:
REMARK  status: ('A' for Active; 'I' for Inactive)
ROOT
ATOM      1  C   UNL d   1      -1.644   1.244   0.299  0.00  0.00     0.124 A 
ATOM      2  C1  UNL d   1      -2.061   2.204  -0.613  0.00  0.00     0.062 A 
ATOM      3  C2  UNL d   1      -1.213   3.250  -0.965  0.00  0.00     0.162 A 
ATOM      4  C3  UNL d   1       0.061   3.342  -0.405  0.00  0.00    -0.034 A 
ATOM      5  C4  UNL d   1       0.473   2.374   0.512  0.00  0.00     0.162 A 
ATOM      6  C5  UNL d   1      -0.378   1.330   0.860  0.00  0.00     0.062 A 
ATOM      7  F   UNL d   1       0.027   0.404   1.742  0.00  0.00    -0.097 F 
ATOM      8  F1  UNL d   1       1.692   2.432   1.069  0.00  0.00    -0.096 F 
ATOM      9  I   UNL d   1       1.332   4.905  -0.928  0.00  0.00    -0.060 I 
ATOM     10  F2  UNL d   1      -1.642   4.163  -1.849  0.00  0.00    -0.096 F 
ATOM     11  F3  UNL d   1      -3.284   2.124  -1.157  0.00  0.00    -0.097 F 
ATOM     12  F4  UNL d   1      -2.462   0.239   0.636  0.00  0.00    -0.092 F 
ENDROOT
TORSDOF 0
ENDMDL
