MODEL 1
REMARK minimizedAffinity 2.97698355
REMARK minimizedRMSD -1
REMARK  0 active torsions:
REMARK  status: ('A' for Active; 'I' for Inactive)
ROOT
ATOM      1  C   UNL d   1      -3.114   1.457   0.399  0.00  0.00     0.124 A 
ATOM      2  C1  UNL d   1      -2.806   0.397   1.241  0.00  0.00     0.062 A 
ATOM      3  C2  UNL d   1      -1.481   0.125   1.569  0.00  0.00     0.162 A 
ATOM      4  C3  UNL d   1      -0.453   0.916   1.056  0.00  0.00    -0.034 A 
ATOM      5  C4  UNL d   1      -0.770   1.980   0.209  0.00  0.00     0.162 A 
ATOM      6  C5  UNL d   1      -2.096   2.247  -0.116  0.00  0.00     0.062 A 
ATOM      7  F   UNL d   1      -2.392   3.272  -0.929  0.00  0.00    -0.097 F 
ATOM      8  F1  UNL d   1       0.193   2.761  -0.302  0.00  0.00    -0.096 F 
ATOM      9  I   UNL d   1       1.530   0.514   1.544  0.00  0.00    -0.060 I 
ATOM     10  F2  UNL d   1      -1.213  -0.905   2.384  0.00  0.00    -0.096 F 
ATOM     11  F3  UNL d   1      -3.788  -0.369   1.739  0.00  0.00    -0.097 F 
ATOM     12  F4  UNL d   1      -4.390   1.715   0.084  0.00  0.00    -0.092 F 
ENDROOT
TORSDOF 0
ENDMDL
