MODEL 1
REMARK minimizedAffinity 2.65783119
REMARK minimizedRMSD -1
REMARK  0 active torsions:
REMARK  status: ('A' for Active; 'I' for Inactive)
ROOT
ATOM      1  C   UNL d   1      -0.000   0.685   0.735  0.00  0.00     0.124 A 
ATOM      2  C1  UNL d   1      -0.372   1.938   0.267  0.00  0.00     0.062 A 
ATOM      3  C2  UNL d   1      -1.718   2.256   0.113  0.00  0.00     0.162 A 
ATOM      4  C3  UNL d   1      -2.703   1.321   0.429  0.00  0.00    -0.034 A 
ATOM      5  C4  UNL d   1      -2.322   0.062   0.899  0.00  0.00     0.162 A 
ATOM      6  C5  UNL d   1      -0.975  -0.251   1.050  0.00  0.00     0.062 A 
ATOM      7  F   UNL d   1      -0.617  -1.462   1.503  0.00  0.00    -0.097 F 
ATOM      8  F1  UNL d   1      -3.243  -0.861   1.212  0.00  0.00    -0.096 F 
ATOM      9  I   UNL d   1      -4.717   1.793   0.202  0.00  0.00    -0.060 I 
ATOM     10  F2  UNL d   1      -2.049   3.474  -0.341  0.00  0.00    -0.096 F 
ATOM     11  F3  UNL d   1       0.568   2.843  -0.040  0.00  0.00    -0.097 F 
ATOM     12  F4  UNL d   1       1.296   0.381   0.880  0.00  0.00    -0.092 F 
ENDROOT
TORSDOF 0
ENDMDL
