MODEL 1
REMARK minimizedAffinity 10.5729942
REMARK minimizedRMSD -1
REMARK  0 active torsions:
REMARK  status: ('A' for Active; 'I' for Inactive)
ROOT
ATOM      1  C   UNL d   1      -3.389   0.322   1.674  0.00  0.00     0.124 A 
ATOM      2  C1  UNL d   1      -2.130   0.307   2.257  0.00  0.00     0.062 A 
ATOM      3  C2  UNL d   1      -1.062   0.948   1.636  0.00  0.00     0.162 A 
ATOM      4  C3  UNL d   1      -1.249   1.611   0.423  0.00  0.00    -0.034 A 
ATOM      5  C4  UNL d   1      -2.518   1.622  -0.158  0.00  0.00     0.162 A 
ATOM      6  C5  UNL d   1      -3.582   0.979   0.467  0.00  0.00     0.062 A 
ATOM      7  F   UNL d   1      -4.798   0.995  -0.099  0.00  0.00    -0.097 F 
ATOM      8  F1  UNL d   1      -2.733   2.250  -1.324  0.00  0.00    -0.096 F 
ATOM      9  I   UNL d   1       0.345   2.571  -0.510  0.00  0.00    -0.060 I 
ATOM     10  F2  UNL d   1       0.144   0.917   2.222  0.00  0.00    -0.096 F 
ATOM     11  F3  UNL d   1      -1.940  -0.328   3.423  0.00  0.00    -0.097 F 
ATOM     12  F4  UNL d   1      -4.414  -0.296   2.273  0.00  0.00    -0.092 F 
ENDROOT
TORSDOF 0
ENDMDL
