MODEL 1
REMARK minimizedAffinity 14.3371525
REMARK minimizedRMSD -1
REMARK  0 active torsions:
REMARK  status: ('A' for Active; 'I' for Inactive)
ROOT
ATOM      1  C   UNL d   1      -0.485   2.535   0.198  0.00  0.00     0.124 A 
ATOM      2  C1  UNL d   1      -0.234   1.663   1.249  0.00  0.00     0.062 A 
ATOM      3  C2  UNL d   1      -1.261   0.880   1.769  0.00  0.00     0.162 A 
ATOM      4  C3  UNL d   1      -2.548   0.964   1.238  0.00  0.00    -0.034 A 
ATOM      5  C4  UNL d   1      -2.792   1.843   0.181  0.00  0.00     0.162 A 
ATOM      6  C5  UNL d   1      -1.763   2.623  -0.335  0.00  0.00     0.062 A 
ATOM      7  F   UNL d   1      -2.007   3.464  -1.350  0.00  0.00    -0.097 F 
ATOM      8  F1  UNL d   1      -4.018   1.948  -0.353  0.00  0.00    -0.096 F 
ATOM      9  I   UNL d   1      -4.086  -0.205   2.012  0.00  0.00    -0.060 I 
ATOM     10  F2  UNL d   1      -0.990   0.047   2.785  0.00  0.00    -0.096 F 
ATOM     11  F3  UNL d   1       1.000   1.576   1.767  0.00  0.00    -0.097 F 
ATOM     12  F4  UNL d   1       0.505   3.288  -0.299  0.00  0.00    -0.092 F 
ENDROOT
TORSDOF 0
ENDMDL
