MODEL 1
REMARK minimizedAffinity 7.67439079
REMARK minimizedRMSD -1
REMARK  0 active torsions:
REMARK  status: ('A' for Active; 'I' for Inactive)
ROOT
ATOM      1  C   UNL d   1      -0.765   0.965   1.318  0.00  0.00     0.124 A 
ATOM      2  C1  UNL d   1      -1.011   2.012   0.441  0.00  0.00     0.062 A 
ATOM      3  C2  UNL d   1      -2.316   2.329   0.077  0.00  0.00     0.162 A 
ATOM      4  C3  UNL d   1      -3.387   1.597   0.591  0.00  0.00    -0.034 A 
ATOM      5  C4  UNL d   1      -3.132   0.544   1.472  0.00  0.00     0.162 A 
ATOM      6  C5  UNL d   1      -1.825   0.232   1.832  0.00  0.00     0.062 A 
ATOM      7  F   UNL d   1      -1.589  -0.780   2.679  0.00  0.00    -0.097 F 
ATOM      8  F1  UNL d   1      -4.138  -0.180   1.984  0.00  0.00    -0.096 F 
ATOM      9  I   UNL d   1      -5.341   2.067   0.049  0.00  0.00    -0.060 I 
ATOM     10  F2  UNL d   1      -2.525   3.346  -0.772  0.00  0.00    -0.096 F 
ATOM     11  F3  UNL d   1       0.012   2.721  -0.058  0.00  0.00    -0.097 F 
ATOM     12  F4  UNL d   1       0.493   0.662   1.666  0.00  0.00    -0.092 F 
ENDROOT
TORSDOF 0
ENDMDL
