MODEL 1
REMARK minimizedAffinity 6.92059708
REMARK minimizedRMSD -1
REMARK  0 active torsions:
REMARK  status: ('A' for Active; 'I' for Inactive)
ROOT
ATOM      1  C   UNL d   1      -2.488   1.897   0.517  0.00  0.00     0.124 A 
ATOM      2  C1  UNL d   1      -2.092   0.693   1.082  0.00  0.00     0.062 A 
ATOM      3  C2  UNL d   1      -0.741   0.424   1.284  0.00  0.00     0.162 A 
ATOM      4  C3  UNL d   1       0.225   1.363   0.920  0.00  0.00    -0.034 A 
ATOM      5  C4  UNL d   1      -0.181   2.572   0.352  0.00  0.00     0.162 A 
ATOM      6  C5  UNL d   1      -1.532   2.835   0.152  0.00  0.00     0.062 A 
ATOM      7  F   UNL d   1      -1.913   3.999  -0.394  0.00  0.00    -0.097 F 
ATOM      8  F1  UNL d   1       0.721   3.496  -0.009  0.00  0.00    -0.096 F 
ATOM      9  I   UNL d   1       2.245   0.966   1.220  0.00  0.00    -0.060 I 
ATOM     10  F2  UNL d   1      -0.387  -0.748   1.832  0.00  0.00    -0.096 F 
ATOM     11  F3  UNL d   1      -3.013  -0.216   1.434  0.00  0.00    -0.097 F 
ATOM     12  F4  UNL d   1      -3.788   2.152   0.323  0.00  0.00    -0.092 F 
ENDROOT
TORSDOF 0
ENDMDL
