MODEL 1
REMARK minimizedAffinity 7.65724802
REMARK minimizedRMSD -1
REMARK  0 active torsions:
REMARK  status: ('A' for Active; 'I' for Inactive)
ROOT
ATOM      1  C   UNL d   1      -1.231   1.967  -0.436  0.00  0.00     0.124 A 
ATOM      2  C1  UNL d   1       0.059   1.580  -0.099  0.00  0.00     0.062 A 
ATOM      3  C2  UNL d   1       0.267   0.630   0.897  0.00  0.00     0.162 A 
ATOM      4  C3  UNL d   1      -0.817   0.059   1.562  0.00  0.00    -0.034 A 
ATOM      5  C4  UNL d   1      -2.111   0.453   1.219  0.00  0.00     0.162 A 
ATOM      6  C5  UNL d   1      -2.314   1.403   0.223  0.00  0.00     0.062 A 
ATOM      7  F   UNL d   1      -3.561   1.775  -0.101  0.00  0.00    -0.097 F 
ATOM      8  F1  UNL d   1      -3.176  -0.076   1.839  0.00  0.00    -0.096 F 
ATOM      9  I   UNL d   1      -0.509  -1.362   3.052  0.00  0.00    -0.060 I 
ATOM     10  F2  UNL d   1       1.525   0.276   1.201  0.00  0.00    -0.096 F 
ATOM     11  F3  UNL d   1       1.107   2.124  -0.734  0.00  0.00    -0.097 F 
ATOM     12  F4  UNL d   1      -1.429   2.882  -1.393  0.00  0.00    -0.092 F 
ENDROOT
TORSDOF 0
ENDMDL
