MODEL 1
REMARK minimizedAffinity 4.86137724
REMARK minimizedRMSD -1
REMARK  0 active torsions:
REMARK  status: ('A' for Active; 'I' for Inactive)
ROOT
ATOM      1  C   UNL d   1      -1.485   2.065  -0.157  0.00  0.00     0.124 A 
ATOM      2  C1  UNL d   1      -2.588   1.339   0.270  0.00  0.00     0.062 A 
ATOM      3  C2  UNL d   1      -2.418   0.209   1.064  0.00  0.00     0.162 A 
ATOM      4  C3  UNL d   1      -1.138  -0.203   1.437  0.00  0.00    -0.034 A 
ATOM      5  C4  UNL d   1      -0.033   0.531   1.002  0.00  0.00     0.162 A 
ATOM      6  C5  UNL d   1      -0.209   1.660   0.209  0.00  0.00     0.062 A 
ATOM      7  F   UNL d   1       0.859   2.360  -0.204  0.00  0.00    -0.097 F 
ATOM      8  F1  UNL d   1       1.211   0.163   1.342  0.00  0.00    -0.096 F 
ATOM      9  I   UNL d   1      -0.879  -1.893   2.624  0.00  0.00    -0.060 I 
ATOM     10  F2  UNL d   1      -3.502  -0.473   1.463  0.00  0.00    -0.096 F 
ATOM     11  F3  UNL d   1      -3.822   1.728  -0.083  0.00  0.00    -0.097 F 
ATOM     12  F4  UNL d   1      -1.651   3.152  -0.922  0.00  0.00    -0.092 F 
ENDROOT
TORSDOF 0
ENDMDL
