MODEL 1
REMARK minimizedAffinity 10.0653343
REMARK minimizedRMSD -1
REMARK  0 active torsions:
REMARK  status: ('A' for Active; 'I' for Inactive)
ROOT
ATOM      1  C   UNL d   1      -0.055   2.325   2.171  0.00  0.00     0.124 A 
ATOM      2  C1  UNL d   1      -0.567   1.967   0.931  0.00  0.00     0.062 A 
ATOM      3  C2  UNL d   1       0.288   1.551  -0.085  0.00  0.00     0.162 A 
ATOM      4  C3  UNL d   1       1.664   1.490   0.133  0.00  0.00    -0.034 A 
ATOM      5  C4  UNL d   1       2.172   1.853   1.382  0.00  0.00     0.162 A 
ATOM      6  C5  UNL d   1       1.314   2.269   2.394  0.00  0.00     0.062 A 
ATOM      7  F   UNL d   1       1.810   2.615   3.591  0.00  0.00    -0.097 F 
ATOM      8  F1  UNL d   1       3.490   1.807   1.626  0.00  0.00    -0.096 F 
ATOM      9  I   UNL d   1       2.946   0.869  -1.385  0.00  0.00    -0.060 I 
ATOM     10  F2  UNL d   1      -0.235   1.210  -1.273  0.00  0.00    -0.096 F 
ATOM     11  F3  UNL d   1      -1.888   2.022   0.712  0.00  0.00    -0.097 F 
ATOM     12  F4  UNL d   1      -0.879   2.726   3.147  0.00  0.00    -0.092 F 
ENDROOT
TORSDOF 0
ENDMDL
