MODEL 1
REMARK minimizedAffinity 8.32063866
REMARK minimizedRMSD -1
REMARK  0 active torsions:
REMARK  status: ('A' for Active; 'I' for Inactive)
ROOT
ATOM      1  C   UNL d   1       0.104   2.662   2.427  0.00  0.00     0.124 A 
ATOM      2  C1  UNL d   1      -0.477   1.978   1.368  0.00  0.00     0.062 A 
ATOM      3  C2  UNL d   1       0.321   1.423   0.372  0.00  0.00     0.162 A 
ATOM      4  C3  UNL d   1       1.709   1.549   0.430  0.00  0.00    -0.034 A 
ATOM      5  C4  UNL d   1       2.285   2.239   1.497  0.00  0.00     0.162 A 
ATOM      6  C5  UNL d   1       1.484   2.792   2.491  0.00  0.00     0.062 A 
ATOM      7  F   UNL d   1       2.047   3.452   3.513  0.00  0.00    -0.097 F 
ATOM      8  F1  UNL d   1       3.617   2.378   1.584  0.00  0.00    -0.096 F 
ATOM      9  I   UNL d   1       2.905   0.720  -1.058  0.00  0.00    -0.060 I 
ATOM     10  F2  UNL d   1      -0.268   0.767  -0.640  0.00  0.00    -0.096 F 
ATOM     11  F3  UNL d   1      -1.810   1.852   1.304  0.00  0.00    -0.097 F 
ATOM     12  F4  UNL d   1      -0.666   3.196   3.384  0.00  0.00    -0.092 F 
ENDROOT
TORSDOF 0
ENDMDL
