MODEL 1
REMARK minimizedAffinity 9.46590519
REMARK minimizedRMSD -1
REMARK  0 active torsions:
REMARK  status: ('A' for Active; 'I' for Inactive)
ROOT
ATOM      1  C   UNL d   1      -0.023   2.377   2.004  0.00  0.00     0.124 A 
ATOM      2  C1  UNL d   1       1.357   2.477   2.116  0.00  0.00     0.062 A 
ATOM      3  C2  UNL d   1       2.179   2.021   1.090  0.00  0.00     0.162 A 
ATOM      4  C3  UNL d   1       1.622   1.460  -0.060  0.00  0.00    -0.034 A 
ATOM      5  C4  UNL d   1       0.234   1.361  -0.166  0.00  0.00     0.162 A 
ATOM      6  C5  UNL d   1      -0.583   1.819   0.863  0.00  0.00     0.062 A 
ATOM      7  F   UNL d   1      -1.916   1.721   0.752  0.00  0.00    -0.097 F 
ATOM      8  F1  UNL d   1      -0.334   0.827  -1.257  0.00  0.00    -0.096 F 
ATOM      9  I   UNL d   1       2.847   0.775  -1.597  0.00  0.00    -0.060 I 
ATOM     10  F2  UNL d   1       3.509   2.130   1.226  0.00  0.00    -0.096 F 
ATOM     11  F3  UNL d   1       1.901   3.015   3.218  0.00  0.00    -0.097 F 
ATOM     12  F4  UNL d   1      -0.811   2.816   2.993  0.00  0.00    -0.092 F 
ENDROOT
TORSDOF 0
ENDMDL
