MODEL 1
REMARK minimizedAffinity 17.6936359
REMARK minimizedRMSD -1
REMARK  0 active torsions:
REMARK  status: ('A' for Active; 'I' for Inactive)
ROOT
ATOM      1  C   UNL d   1       1.667   3.040   2.282  0.00  0.00     0.124 A 
ATOM      2  C1  UNL d   1       0.327   3.200   2.606  0.00  0.00     0.062 A 
ATOM      3  C2  UNL d   1      -0.632   2.358   2.052  0.00  0.00     0.162 A 
ATOM      4  C3  UNL d   1      -0.256   1.347   1.168  0.00  0.00    -0.034 A 
ATOM      5  C4  UNL d   1       1.094   1.193   0.846  0.00  0.00     0.162 A 
ATOM      6  C5  UNL d   1       2.049   2.037   1.402  0.00  0.00     0.062 A 
ATOM      7  F   UNL d   1       3.343   1.881   1.087  0.00  0.00    -0.097 F 
ATOM      8  F1  UNL d   1       1.491   0.231  -0.001  0.00  0.00    -0.096 F 
ATOM      9  I   UNL d   1      -1.687   0.085   0.338  0.00  0.00    -0.060 I 
ATOM     10  F2  UNL d   1      -1.920   2.535   2.384  0.00  0.00    -0.096 F 
ATOM     11  F3  UNL d   1      -0.045   4.169   3.455  0.00  0.00    -0.097 F 
ATOM     12  F4  UNL d   1       2.588   3.853   2.815  0.00  0.00    -0.092 F 
ENDROOT
TORSDOF 0
ENDMDL
