MODEL 1
REMARK minimizedAffinity 2.77816057
REMARK minimizedRMSD -1
REMARK  1 active torsions:
REMARK  status: ('A' for Active; 'I' for Inactive)
REMARK    1  A    between atoms: N_2  and  C1_3 
ROOT
ATOM      1  C1  UNL d   1       3.118  -0.584  -4.341  0.00  0.00     0.143 A 
ATOM      2  C2  UNL d   1       4.053   0.415  -4.632  0.00  0.00    -0.057 A 
ATOM      3  C3  UNL d   1       3.665   1.752  -4.779  0.00  0.00     0.033 A 
ATOM      4  C4  UNL d   1       2.326   2.111  -4.667  0.00  0.00    -0.042 A 
ATOM      5  C5  UNL d   1       1.375   1.131  -4.403  0.00  0.00     0.033 A 
ATOM      6  C6  UNL d   1       1.770  -0.202  -4.250  0.00  0.00    -0.057 A 
ENDROOT
BRANCH   1   7
ATOM      7  N   UNL d   1       3.427  -1.945  -4.280  0.00  0.00    -0.732 N 
ATOM      8  C   UNL d   1       3.305  -2.782  -5.455  0.00  0.00     0.284 C 
ATOM      9  H3  UNL d   1       4.257  -2.130  -3.722  0.00  0.00     0.395 HD
ENDBRANCH   1   7
TORSDOF 1
ENDMDL
