MODEL 1
REMARK minimizedAffinity 6.47722578
REMARK minimizedRMSD -1
REMARK  1 active torsions:
REMARK  status: ('A' for Active; 'I' for Inactive)
REMARK    1  A    between atoms: N_2  and  C1_3 
ROOT
ATOM      1  C1  UNL d   1       2.409   0.137   0.439  0.00  0.00     0.143 A 
ATOM      2  C2  UNL d   1       1.086   0.593   0.444  0.00  0.00    -0.057 A 
ATOM      3  C3  UNL d   1       0.704   1.704   1.205  0.00  0.00     0.033 A 
ATOM      4  C4  UNL d   1       1.635   2.363   2.002  0.00  0.00    -0.042 A 
ATOM      5  C5  UNL d   1       2.950   1.911   2.032  0.00  0.00     0.033 A 
ATOM      6  C6  UNL d   1       3.327   0.805   1.264  0.00  0.00    -0.057 A 
ENDROOT
BRANCH   1   7
ATOM      7  N   UNL d   1       2.830  -1.021  -0.219  0.00  0.00    -0.732 N 
ATOM      8  C   UNL d   1       4.195  -1.149  -0.684  0.00  0.00     0.284 C 
ATOM      9  H3  UNL d   1       2.453  -1.867   0.202  0.00  0.00     0.395 HD
ENDBRANCH   1   7
TORSDOF 1
ENDMDL
