MODEL 1
REMARK minimizedAffinity 14.1210814
REMARK minimizedRMSD -1
REMARK  1 active torsions:
REMARK  status: ('A' for Active; 'I' for Inactive)
REMARK    1  A    between atoms: N_2  and  C1_3 
ROOT
ATOM      1  C1  UNL d   1       2.446  -0.124  -3.889  0.00  0.00     0.143 A 
ATOM      2  C2  UNL d   1       2.861   1.094  -4.438  0.00  0.00    -0.057 A 
ATOM      3  C3  UNL d   1       3.713   1.955  -3.736  0.00  0.00     0.033 A 
ATOM      4  C4  UNL d   1       4.144   1.624  -2.455  0.00  0.00    -0.042 A 
ATOM      5  C5  UNL d   1       3.724   0.430  -1.879  0.00  0.00     0.033 A 
ATOM      6  C6  UNL d   1       2.878  -0.428  -2.588  0.00  0.00    -0.057 A 
ENDROOT
BRANCH   1   7
ATOM      7  N   UNL d   1       1.521  -0.976  -4.497  0.00  0.00    -0.732 N 
ATOM      8  C   UNL d   1       0.242  -0.474  -4.949  0.00  0.00     0.284 C 
ATOM      9  H3  UNL d   1       1.961  -1.632  -5.139  0.00  0.00     0.395 HD
ENDBRANCH   1   7
TORSDOF 1
ENDMDL
