MODEL 1
REMARK minimizedAffinity 2.70753169
REMARK minimizedRMSD -1
REMARK  1 active torsions:
REMARK  status: ('A' for Active; 'I' for Inactive)
REMARK    1  A    between atoms: N_2  and  C1_3 
ROOT
ATOM      1  C1  UNL d   1      -3.589   0.126   0.041  0.00  0.00     0.143 A 
ATOM      2  C2  UNL d   1      -3.289   1.084   1.016  0.00  0.00    -0.057 A 
ATOM      3  C3  UNL d   1      -2.698   0.722   2.232  0.00  0.00     0.033 A 
ATOM      4  C4  UNL d   1      -2.423  -0.614   2.508  0.00  0.00    -0.042 A 
ATOM      5  C5  UNL d   1      -2.735  -1.586   1.565  0.00  0.00     0.033 A 
ATOM      6  C6  UNL d   1      -3.319  -1.217   0.349  0.00  0.00    -0.057 A 
ENDROOT
BRANCH   1   7
ATOM      7  N   UNL d   1      -4.267   0.411  -1.146  0.00  0.00    -0.732 N 
ATOM      8  C   UNL d   1      -4.128  -0.452  -2.300  0.00  0.00     0.284 C 
ATOM      9  H3  UNL d   1      -5.217   0.736  -0.983  0.00  0.00     0.395 HD
ENDBRANCH   1   7
TORSDOF 1
ENDMDL
