MODEL 1
REMARK minimizedAffinity -3.42599583
REMARK minimizedRMSD -1
REMARK  1 active torsions:
REMARK  status: ('A' for Active; 'I' for Inactive)
REMARK    1  A    between atoms: N_2  and  C1_3 
ROOT
ATOM      1  C1  UNL d   1       5.298  -1.902  -5.106  0.00  0.00     0.143 A 
ATOM      2  C2  UNL d   1       4.417  -2.523  -5.998  0.00  0.00    -0.057 A 
ATOM      3  C3  UNL d   1       4.208  -3.907  -5.967  0.00  0.00     0.033 A 
ATOM      4  C4  UNL d   1       4.901  -4.701  -5.059  0.00  0.00    -0.042 A 
ATOM      5  C5  UNL d   1       5.800  -4.109  -4.180  0.00  0.00     0.033 A 
ATOM      6  C6  UNL d   1       6.000  -2.725  -4.212  0.00  0.00    -0.057 A 
ENDROOT
BRANCH   1   7
ATOM      7  N   UNL d   1       5.623  -0.544  -5.153  0.00  0.00    -0.732 N 
ATOM      8  C   UNL d   1       4.877   0.364  -5.997  0.00  0.00     0.284 C 
ATOM      9  H3  UNL d   1       5.849  -0.167  -4.235  0.00  0.00     0.395 HD
ENDBRANCH   1   7
TORSDOF 1
ENDMDL
