MODEL 1
REMARK minimizedAffinity -2.24326062
REMARK minimizedRMSD -1
REMARK  1 active torsions:
REMARK  status: ('A' for Active; 'I' for Inactive)
REMARK    1  A    between atoms: N_2  and  C1_3 
ROOT
ATOM      1  C1  UNL d   1       5.294  -3.724  -4.842  0.00  0.00     0.143 A 
ATOM      2  C2  UNL d   1       5.442  -4.858  -4.035  0.00  0.00    -0.057 A 
ATOM      3  C3  UNL d   1       4.642  -5.992  -4.222  0.00  0.00     0.033 A 
ATOM      4  C4  UNL d   1       3.656  -6.000  -5.203  0.00  0.00    -0.042 A 
ATOM      5  C5  UNL d   1       3.474  -4.875  -6.000  0.00  0.00     0.033 A 
ATOM      6  C6  UNL d   1       4.281  -3.749  -5.813  0.00  0.00    -0.057 A 
ENDROOT
BRANCH   1   7
ATOM      7  N   UNL d   1       5.992  -2.531  -4.642  0.00  0.00    -0.732 N 
ATOM      8  C   UNL d   1       5.997  -1.888  -3.345  0.00  0.00     0.284 C 
ATOM      9  H3  UNL d   1       6.895  -2.525  -5.112  0.00  0.00     0.395 HD
ENDBRANCH   1   7
TORSDOF 1
ENDMDL
