MODEL 1
REMARK minimizedAffinity -2.60596418
REMARK minimizedRMSD -1
REMARK  1 active torsions:
REMARK  status: ('A' for Active; 'I' for Inactive)
REMARK    1  A    between atoms: N_2  and  C1_3 
ROOT
ATOM      1  C1  UNL d   1       5.339  -3.463  -5.139  0.00  0.00     0.143 A 
ATOM      2  C2  UNL d   1       5.925  -4.607  -5.690  0.00  0.00    -0.057 A 
ATOM      3  C3  UNL d   1       5.305  -5.859  -5.594  0.00  0.00     0.033 A 
ATOM      4  C4  UNL d   1       4.096  -5.993  -4.918  0.00  0.00    -0.042 A 
ATOM      5  C5  UNL d   1       3.508  -4.873  -4.341  0.00  0.00     0.033 A 
ATOM      6  C6  UNL d   1       4.129  -3.625  -4.446  0.00  0.00    -0.057 A 
ENDROOT
BRANCH   1   7
ATOM      7  N   UNL d   1       5.954  -2.209  -5.115  0.00  0.00    -0.732 N 
ATOM      8  C   UNL d   1       5.221  -1.021  -5.500  0.00  0.00     0.284 C 
ATOM      9  H3  UNL d   1       6.550  -2.084  -4.300  0.00  0.00     0.395 HD
ENDBRANCH   1   7
TORSDOF 1
ENDMDL
