MODEL 1
REMARK minimizedAffinity -2.53038907
REMARK minimizedRMSD -1
REMARK  1 active torsions:
REMARK  status: ('A' for Active; 'I' for Inactive)
REMARK    1  A    between atoms: N_2  and  C1_3 
ROOT
ATOM      1  C1  UNL d   1       5.237  -3.225  -5.350  0.00  0.00     0.143 A 
ATOM      2  C2  UNL d   1       6.000  -3.595  -4.237  0.00  0.00    -0.057 A 
ATOM      3  C3  UNL d   1       5.991  -4.909  -3.755  0.00  0.00     0.033 A 
ATOM      4  C4  UNL d   1       5.193  -5.874  -4.362  0.00  0.00    -0.042 A 
ATOM      5  C5  UNL d   1       4.407  -5.523  -5.454  0.00  0.00     0.033 A 
ATOM      6  C6  UNL d   1       4.426  -4.210  -5.935  0.00  0.00    -0.057 A 
ENDROOT
BRANCH   1   7
ATOM      7  N   UNL d   1       5.128  -1.913  -5.817  0.00  0.00    -0.732 N 
ATOM      8  C   UNL d   1       3.830  -1.300  -5.996  0.00  0.00     0.284 C 
ATOM      9  H3  UNL d   1       5.827  -1.296  -5.409  0.00  0.00     0.395 HD
ENDBRANCH   1   7
TORSDOF 1
ENDMDL
