MODEL 1
REMARK minimizedAffinity -1.9434042
REMARK minimizedRMSD -1
REMARK  1 active torsions:
REMARK  status: ('A' for Active; 'I' for Inactive)
REMARK    1  A    between atoms: N_2  and  C1_3 
ROOT
ATOM      1  C1  UNL d   1       5.148  -3.410  -5.414  0.00  0.00     0.143 A 
ATOM      2  C2  UNL d   1       4.485  -4.495  -5.997  0.00  0.00    -0.057 A 
ATOM      3  C3  UNL d   1       4.553  -5.776  -5.435  0.00  0.00     0.033 A 
ATOM      4  C4  UNL d   1       5.312  -6.000  -4.291  0.00  0.00    -0.042 A 
ATOM      5  C5  UNL d   1       5.999  -4.942  -3.708  0.00  0.00     0.033 A 
ATOM      6  C6  UNL d   1       5.922  -3.664  -4.270  0.00  0.00    -0.057 A 
ENDROOT
BRANCH   1   7
ATOM      7  N   UNL d   1       5.199  -2.134  -5.979  0.00  0.00    -0.732 N 
ATOM      8  C   UNL d   1       4.157  -1.166  -5.710  0.00  0.00     0.284 C 
ATOM      9  H3  UNL d   1       6.139  -1.745  -5.976  0.00  0.00     0.395 HD
ENDBRANCH   1   7
TORSDOF 1
ENDMDL
