MODEL 1
REMARK minimizedAffinity -5.46783018
REMARK minimizedRMSD -1
REMARK  0 active torsions:
REMARK  status: ('A' for Active; 'I' for Inactive)
ROOT
ATOM      1  N1  IND d   1      -0.853  -0.786   0.605  0.00  0.00    -0.196 N 
ATOM      2  C2  IND d   1      -0.929   0.046  -0.477  0.00  0.00     0.054 A 
ATOM      3  C3  IND d   1       0.311   0.376  -0.905  0.00  0.00    -0.031 A 
ATOM      4  C4  IND d   1       2.603  -0.417  -0.043  0.00  0.00     0.051 A 
ATOM      5  C5  IND d   1       3.184  -1.153   0.951  0.00  0.00    -0.031 A 
ATOM      6  C6  IND d   1       2.434  -1.821   1.898  0.00  0.00     0.015 A 
ATOM      7  C7  IND d   1       1.069  -1.786   1.879  0.00  0.00    -0.016 A 
ATOM      8  C8  IND d   1       0.475  -1.033   0.875  0.00  0.00    -0.047 A 
ATOM      9  C9  IND d   1       1.232  -0.319  -0.063  0.00  0.00    -0.096 A 
ATOM     10  HN1 IND d   1      -1.522  -1.102   1.042  0.00  0.00     0.298 HD
ENDROOT
TORSDOF 0
ENDMDL
