MODEL 1
REMARK minimizedAffinity -3.75124764
REMARK minimizedRMSD -1
REMARK  0 active torsions:
REMARK  status: ('A' for Active; 'I' for Inactive)
ROOT
ATOM      1  N1  IND d   1      -0.586  -0.582   0.856  0.00  0.00    -0.196 N 
ATOM      2  C2  IND d   1      -1.204  -0.169  -0.291  0.00  0.00     0.054 A 
ATOM      3  C3  IND d   1      -0.346   0.540  -1.058  0.00  0.00    -0.031 A 
ATOM      4  C4  IND d   1       2.147   1.057  -0.675  0.00  0.00     0.051 A 
ATOM      5  C5  IND d   1       3.145   0.921   0.248  0.00  0.00    -0.031 A 
ATOM      6  C6  IND d   1       2.948   0.261   1.443  0.00  0.00     0.015 A 
ATOM      7  C7  IND d   1       1.742  -0.300   1.757  0.00  0.00    -0.016 A 
ATOM      8  C8  IND d   1       0.724  -0.157   0.826  0.00  0.00    -0.047 A 
ATOM      9  C9  IND d   1       0.906   0.548  -0.371  0.00  0.00    -0.096 A 
ATOM     10  HN1 IND d   1      -0.954  -1.032   1.490  0.00  0.00     0.298 HD
ENDROOT
TORSDOF 0
ENDMDL
