MODEL 1
REMARK minimizedAffinity 0.113271818
REMARK minimizedRMSD -1
REMARK  0 active torsions:
REMARK  status: ('A' for Active; 'I' for Inactive)
ROOT
ATOM      1  N1  IND d   1      -2.961   0.434  -1.646  0.00  0.00    -0.196 N 
ATOM      2  C2  IND d   1      -2.906   0.331  -3.008  0.00  0.00     0.054 A 
ATOM      3  C3  IND d   1      -1.631   0.467  -3.439  0.00  0.00    -0.031 A 
ATOM      4  C4  IND d   1       0.533   0.764  -2.077  0.00  0.00     0.051 A 
ATOM      5  C5  IND d   1       0.985   0.950  -0.801  0.00  0.00    -0.031 A 
ATOM      6  C6  IND d   1       0.129   0.971   0.281  0.00  0.00     0.015 A 
ATOM      7  C7  IND d   1      -1.217   0.795   0.127  0.00  0.00    -0.016 A 
ATOM      8  C8  IND d   1      -1.681   0.613  -1.168  0.00  0.00    -0.047 A 
ATOM      9  C9  IND d   1      -0.822   0.633  -2.274  0.00  0.00    -0.096 A 
ATOM     10  HN1 IND d   1      -3.674   0.394  -1.169  0.00  0.00     0.298 HD
ENDROOT
TORSDOF 0
ENDMDL
