MODEL 1
REMARK minimizedAffinity -5.01149416
REMARK minimizedRMSD -1
REMARK  0 active torsions:
REMARK  status: ('A' for Active; 'I' for Inactive)
ROOT
ATOM      1  N1  IND d   1      -0.307  -1.460   0.380  0.00  0.00    -0.196 N 
ATOM      2  C2  IND d   1      -1.278  -0.591  -0.032  0.00  0.00     0.054 A 
ATOM      3  C3  IND d   1      -0.832   0.683   0.041  0.00  0.00    -0.031 A 
ATOM      4  C4  IND d   1       1.492   1.565   0.712  0.00  0.00     0.051 A 
ATOM      5  C5  IND d   1       2.700   1.155   1.201  0.00  0.00    -0.031 A 
ATOM      6  C6  IND d   1       2.974  -0.176   1.445  0.00  0.00     0.015 A 
ATOM      7  C7  IND d   1       2.050  -1.150   1.195  0.00  0.00    -0.016 A 
ATOM      8  C8  IND d   1       0.820  -0.737   0.705  0.00  0.00    -0.047 A 
ATOM      9  C9  IND d   1       0.521   0.616   0.496  0.00  0.00    -0.096 A 
ATOM     10  HN1 IND d   1      -0.386  -2.315   0.428  0.00  0.00     0.298 HD
ENDROOT
TORSDOF 0
ENDMDL
