MODEL 1
REMARK minimizedAffinity -3.47375774
REMARK minimizedRMSD -1
REMARK  0 active torsions:
REMARK  status: ('A' for Active; 'I' for Inactive)
ROOT
ATOM      1  N1  IND d   1      -0.744  -1.065   0.844  0.00  0.00    -0.196 N 
ATOM      2  C2  IND d   1      -1.713  -0.330   0.220  0.00  0.00     0.054 A 
ATOM      3  C3  IND d   1      -1.181   0.789  -0.320  0.00  0.00    -0.031 A 
ATOM      4  C4  IND d   1       1.273   1.563  -0.389  0.00  0.00     0.051 A 
ATOM      5  C5  IND d   1       2.517   1.243   0.078  0.00  0.00    -0.031 A 
ATOM      6  C6  IND d   1       2.743   0.113   0.836  0.00  0.00     0.015 A 
ATOM      7  C7  IND d   1       1.730  -0.749   1.149  0.00  0.00    -0.016 A 
ATOM      8  C8  IND d   1       0.464  -0.423   0.683  0.00  0.00    -0.047 A 
ATOM      9  C9  IND d   1       0.222   0.745  -0.051  0.00  0.00    -0.096 A 
ATOM     10  HN1 IND d   1      -0.868  -1.803   1.267  0.00  0.00     0.298 HD
ENDROOT
TORSDOF 0
ENDMDL
