MODEL 1
REMARK minimizedAffinity -4.50241041
REMARK minimizedRMSD -1
REMARK  0 active torsions:
REMARK  status: ('A' for Active; 'I' for Inactive)
ROOT
ATOM      1  N1  IND d   1      -0.073   1.533   0.765  0.00  0.00    -0.196 N 
ATOM      2  C2  IND d   1      -1.143   0.788   0.354  0.00  0.00     0.054 A 
ATOM      3  C3  IND d   1      -0.787  -0.509   0.215  0.00  0.00    -0.031 A 
ATOM      4  C4  IND d   1       1.468  -1.649   0.706  0.00  0.00     0.051 A 
ATOM      5  C5  IND d   1       2.758  -1.374   1.067  0.00  0.00    -0.031 A 
ATOM      6  C6  IND d   1       3.177  -0.091   1.354  0.00  0.00     0.015 A 
ATOM      7  C7  IND d   1       2.316   0.968   1.302  0.00  0.00    -0.016 A 
ATOM      8  C8  IND d   1       1.008   0.694   0.929  0.00  0.00    -0.047 A 
ATOM      9  C9  IND d   1       0.587  -0.599   0.595  0.00  0.00    -0.096 A 
ATOM     10  HN1 IND d   1      -0.075   2.382   0.898  0.00  0.00     0.298 HD
ENDROOT
TORSDOF 0
ENDMDL
