MODEL 1
REMARK minimizedAffinity 0.35292697
REMARK minimizedRMSD -1
REMARK  0 active torsions:
REMARK  status: ('A' for Active; 'I' for Inactive)
ROOT
ATOM      1  N1  IND d   1       1.285  -0.492   1.647  0.00  0.00    -0.196 N 
ATOM      2  C2  IND d   1       2.522   0.090   1.631  0.00  0.00     0.054 A 
ATOM      3  C3  IND d   1       2.564   1.081   0.713  0.00  0.00    -0.031 A 
ATOM      4  C4  IND d   1       0.691   1.986  -0.803  0.00  0.00     0.051 A 
ATOM      5  C5  IND d   1      -0.604   1.752  -1.173  0.00  0.00    -0.031 A 
ATOM      6  C6  IND d   1      -1.351   0.739  -0.607  0.00  0.00     0.015 A 
ATOM      7  C7  IND d   1      -0.832  -0.074   0.361  0.00  0.00    -0.016 A 
ATOM      8  C8  IND d   1       0.484   0.157   0.733  0.00  0.00    -0.047 A 
ATOM      9  C9  IND d   1       1.261   1.156   0.133  0.00  0.00    -0.096 A 
ATOM     10  HN1 IND d   1       1.047  -1.152   2.144  0.00  0.00     0.298 HD
ENDROOT
TORSDOF 0
ENDMDL
