MODEL 1
REMARK minimizedAffinity -2.58104563
REMARK minimizedRMSD -1
REMARK  0 active torsions:
REMARK  status: ('A' for Active; 'I' for Inactive)
ROOT
ATOM      1  N1  IND d   1      -1.200  -0.682   0.323  0.00  0.00    -0.196 N 
ATOM      2  C2  IND d   1      -1.858  -0.048  -0.695  0.00  0.00     0.054 A 
ATOM      3  C3  IND d   1      -1.058   0.880  -1.266  0.00  0.00    -0.031 A 
ATOM      4  C4  IND d   1       1.399   1.458  -0.757  0.00  0.00     0.051 A 
ATOM      5  C5  IND d   1       2.415   1.173   0.111  0.00  0.00    -0.031 A 
ATOM      6  C6  IND d   1       2.276   0.234   1.113  0.00  0.00     0.015 A 
ATOM      7  C7  IND d   1       1.114  -0.466   1.277  0.00  0.00    -0.016 A 
ATOM      8  C8  IND d   1       0.078  -0.174   0.402  0.00  0.00    -0.047 A 
ATOM      9  C9  IND d   1       0.199   0.808  -0.590  0.00  0.00    -0.096 A 
ATOM     10  HN1 IND d   1      -1.530  -1.294   0.828  0.00  0.00     0.298 HD
ENDROOT
TORSDOF 0
ENDMDL
