MODEL 1
REMARK minimizedAffinity -1.33010995
REMARK minimizedRMSD -1
REMARK  2 active torsions:
REMARK  status: ('A' for Active; 'I' for Inactive)
REMARK    1  A    between atoms: C2'_3  and  C1'_4 
REMARK    2  A    between atoms: C1'_4  and  C1_5 
ROOT
ATOM      1  C1  I4B d   1      -0.555  -0.707  -0.072  0.00  0.00    -0.075 A 
ATOM      2  C2  I4B d   1       0.601  -0.074  -0.456  0.00  0.00     0.003 A 
ATOM      3  C3  I4B d   1       0.845   1.264  -0.064  0.00  0.00     0.002 A 
ATOM      4  C4  I4B d   1      -0.110   1.944   0.665  0.00  0.00    -0.004 A 
ATOM      5  C5  I4B d   1      -1.271   1.293   1.072  0.00  0.00     0.002 A 
ATOM      6  C6  I4B d   1      -1.490  -0.045   0.712  0.00  0.00     0.003 A 
ENDROOT
BRANCH   1   7
ATOM      7  C1' I4B d   1      -0.795  -2.110  -0.532  0.00  0.00     0.060 C 
BRANCH   7   8
ATOM      8  C2' I4B d   1      -1.128  -2.066  -2.010  0.00  0.00    -0.013 C 
ATOM      9  C4' I4B d   1      -0.064  -2.748  -2.829  0.00  0.00     0.013 C 
ATOM     10  C3' I4B d   1      -2.463  -2.722  -2.203  0.00  0.00     0.013 C 
ENDBRANCH   7   8
ENDBRANCH   1   7
TORSDOF 2
ENDMDL
