MODEL 1
REMARK minimizedAffinity 0.674320459
REMARK minimizedRMSD -1
REMARK  2 active torsions:
REMARK  status: ('A' for Active; 'I' for Inactive)
REMARK    1  A    between atoms: C2'_3  and  C1'_4 
REMARK    2  A    between atoms: C1'_4  and  C1_5 
ROOT
ATOM      1  C1  I4B d   1       0.066   0.961  -0.134  0.00  0.00    -0.075 A 
ATOM      2  C2  I4B d   1      -0.894   0.394   0.667  0.00  0.00     0.003 A 
ATOM      3  C3  I4B d   1      -1.894   1.201   1.262  0.00  0.00     0.002 A 
ATOM      4  C4  I4B d   1      -1.865   2.568   1.072  0.00  0.00    -0.004 A 
ATOM      5  C5  I4B d   1      -0.905   3.138   0.242  0.00  0.00     0.002 A 
ATOM      6  C6  I4B d   1       0.060   2.328  -0.375  0.00  0.00     0.003 A 
ENDROOT
BRANCH   1   7
ATOM      7  C1' I4B d   1       1.126   0.083  -0.720  0.00  0.00     0.060 C 
BRANCH   7   8
ATOM      8  C2' I4B d   1       2.380   0.244   0.115  0.00  0.00    -0.013 C 
ATOM      9  C4' I4B d   1       2.987  -1.093   0.451  0.00  0.00     0.013 C 
ATOM     10  C3' I4B d   1       3.342   1.097  -0.656  0.00  0.00     0.013 C 
ENDBRANCH   7   8
ENDBRANCH   1   7
TORSDOF 2
ENDMDL
