MODEL 1
REMARK minimizedAffinity -4.86475611
REMARK minimizedRMSD -1
REMARK  2 active torsions:
REMARK  status: ('A' for Active; 'I' for Inactive)
REMARK    1  A    between atoms: C2'_3  and  C1'_4 
REMARK    2  A    between atoms: C1'_4  and  C1_5 
ROOT
ATOM      1  C1  I4B d   1       0.220  -0.254  -0.085  0.00  0.00    -0.075 A 
ATOM      2  C2  I4B d   1      -0.971   0.153   0.464  0.00  0.00     0.003 A 
ATOM      3  C3  I4B d   1      -1.241   1.531   0.639  0.00  0.00     0.002 A 
ATOM      4  C4  I4B d   1      -0.279   2.461   0.300  0.00  0.00    -0.004 A 
ATOM      5  C5  I4B d   1       0.918   2.048  -0.278  0.00  0.00     0.002 A 
ATOM      6  C6  I4B d   1       1.165   0.683  -0.483  0.00  0.00     0.003 A 
ENDROOT
BRANCH   1   7
ATOM      7  C1' I4B d   1       0.486  -1.719  -0.225  0.00  0.00     0.060 C 
BRANCH   7   8
ATOM      8  C2' I4B d   1      -0.466  -2.269  -1.268  0.00  0.00    -0.013 C 
ATOM      9  C4' I4B d   1       0.268  -2.671  -2.520  0.00  0.00     0.013 C 
ATOM     10  C3' I4B d   1      -1.188  -3.437  -0.665  0.00  0.00     0.013 C 
ENDBRANCH   7   8
ENDBRANCH   1   7
TORSDOF 2
ENDMDL
