MODEL 1
REMARK minimizedAffinity -2.1972115
REMARK minimizedRMSD -1
REMARK  2 active torsions:
REMARK  status: ('A' for Active; 'I' for Inactive)
REMARK    1  A    between atoms: C2'_3  and  C1'_4 
REMARK    2  A    between atoms: C1'_4  and  C1_5 
ROOT
ATOM      1  C1  I4B d   1       0.339  -1.582  -0.162  0.00  0.00    -0.075 A 
ATOM      2  C2  I4B d   1       0.141  -1.988  -1.458  0.00  0.00     0.003 A 
ATOM      3  C3  I4B d   1      -0.821  -2.983  -1.754  0.00  0.00     0.002 A 
ATOM      4  C4  I4B d   1      -1.523  -3.578  -0.726  0.00  0.00    -0.004 A 
ATOM      5  C5  I4B d   1      -1.338  -3.149   0.586  0.00  0.00     0.002 A 
ATOM      6  C6  I4B d   1      -0.410  -2.136   0.868  0.00  0.00     0.003 A 
ENDROOT
BRANCH   1   7
ATOM      7  C1' I4B d   1       1.386  -0.552   0.119  0.00  0.00     0.060 C 
BRANCH   7   8
ATOM      8  C2' I4B d   1       0.925   0.760  -0.483  0.00  0.00    -0.013 C 
ATOM      9  C4' I4B d   1      -0.167   1.385   0.343  0.00  0.00     0.013 C 
ATOM     10  C3' I4B d   1       2.115   1.667  -0.583  0.00  0.00     0.013 C 
ENDBRANCH   7   8
ENDBRANCH   1   7
TORSDOF 2
ENDMDL
