MODEL 1
REMARK minimizedAffinity -2.87753773
REMARK minimizedRMSD -1
REMARK  2 active torsions:
REMARK  status: ('A' for Active; 'I' for Inactive)
REMARK    1  A    between atoms: C2'_3  and  C1'_4 
REMARK    2  A    between atoms: C1'_4  and  C1_5 
ROOT
ATOM      1  C1  I4B d   1      -1.113  -4.888  -2.007  0.00  0.00    -0.075 A 
ATOM      2  C2  I4B d   1      -0.100  -5.515  -2.688  0.00  0.00     0.003 A 
ATOM      3  C3  I4B d   1       0.802  -4.761  -3.477  0.00  0.00     0.002 A 
ATOM      4  C4  I4B d   1       0.626  -3.397  -3.595  0.00  0.00    -0.004 A 
ATOM      5  C5  I4B d   1      -0.388  -2.760  -2.885  0.00  0.00     0.002 A 
ATOM      6  C6  I4B d   1      -1.256  -3.508  -2.076  0.00  0.00     0.003 A 
ENDROOT
BRANCH   1   7
ATOM      7  C1' I4B d   1      -2.069  -5.718  -1.210  0.00  0.00     0.060 C 
BRANCH   7   8
ATOM      8  C2' I4B d   1      -2.860  -4.789  -0.313  0.00  0.00    -0.013 C 
ATOM      9  C4' I4B d   1      -4.092  -4.276  -1.010  0.00  0.00     0.013 C 
ATOM     10  C3' I4B d   1      -3.217  -5.541   0.934  0.00  0.00     0.013 C 
ENDBRANCH   7   8
ENDBRANCH   1   7
TORSDOF 2
ENDMDL
