MODEL 1
REMARK minimizedAffinity -6.11114168
REMARK minimizedRMSD -1
REMARK  2 active torsions:
REMARK  status: ('A' for Active; 'I' for Inactive)
REMARK    1  A    between atoms: C2'_3  and  C1'_4 
REMARK    2  A    between atoms: C1'_4  and  C1_5 
ROOT
ATOM      1  C1  I4B d   1      -0.078  -0.355   0.134  0.00  0.00    -0.075 A 
ATOM      2  C2  I4B d   1      -1.162   0.074   0.857  0.00  0.00     0.003 A 
ATOM      3  C3  I4B d   1      -1.461   1.456   0.941  0.00  0.00     0.002 A 
ATOM      4  C4  I4B d   1      -0.625   2.370   0.334  0.00  0.00    -0.004 A 
ATOM      5  C5  I4B d   1       0.461   1.932  -0.418  0.00  0.00     0.002 A 
ATOM      6  C6  I4B d   1       0.730   0.560  -0.529  0.00  0.00     0.003 A 
ENDROOT
BRANCH   1   7
ATOM      7  C1' I4B d   1       0.228  -1.819   0.093  0.00  0.00     0.060 C 
BRANCH   7   8
ATOM      8  C2' I4B d   1      -0.567  -2.430  -1.044  0.00  0.00    -0.013 C 
ATOM      9  C4' I4B d   1       0.328  -2.806  -2.195  0.00  0.00     0.013 C 
ATOM     10  C3' I4B d   1      -1.294  -3.627  -0.509  0.00  0.00     0.013 C 
ENDBRANCH   7   8
ENDBRANCH   1   7
TORSDOF 2
ENDMDL
