MODEL 1
REMARK minimizedAffinity 0.555618405
REMARK minimizedRMSD -1
REMARK  2 active torsions:
REMARK  status: ('A' for Active; 'I' for Inactive)
REMARK    1  A    between atoms: C2'_3  and  C1'_4 
REMARK    2  A    between atoms: C1'_4  and  C1_5 
ROOT
ATOM      1  C1  I4B d   1       3.807   3.305  -4.048  0.00  0.00    -0.075 A 
ATOM      2  C2  I4B d   1       3.563   2.369  -5.022  0.00  0.00     0.003 A 
ATOM      3  C3  I4B d   1       4.547   2.083  -5.999  0.00  0.00     0.002 A 
ATOM      4  C4  I4B d   1       5.733   2.789  -5.995  0.00  0.00    -0.004 A 
ATOM      5  C5  I4B d   1       5.988   3.721  -4.994  0.00  0.00     0.002 A 
ATOM      6  C6  I4B d   1       5.024   3.973  -4.007  0.00  0.00     0.003 A 
ENDROOT
BRANCH   1   7
ATOM      7  C1' I4B d   1       2.733   3.606  -3.051  0.00  0.00     0.060 C 
BRANCH   7   8
ATOM      8  C2' I4B d   1       1.738   4.543  -3.705  0.00  0.00    -0.013 C 
ATOM      9  C4' I4B d   1       0.324   4.188  -3.328  0.00  0.00     0.013 C 
ATOM     10  C3' I4B d   1       2.076   5.943  -3.284  0.00  0.00     0.013 C 
ENDBRANCH   7   8
ENDBRANCH   1   7
TORSDOF 2
ENDMDL
