MODEL 1
REMARK minimizedAffinity -5.2094841
REMARK minimizedRMSD -1
REMARK  2 active torsions:
REMARK  status: ('A' for Active; 'I' for Inactive)
REMARK    1  A    between atoms: C2'_3  and  C1'_4 
REMARK    2  A    between atoms: C1'_4  and  C1_5 
ROOT
ATOM      1  C1  I4B d   1       0.134  -0.483  -0.150  0.00  0.00    -0.075 A 
ATOM      2  C2  I4B d   1       1.094   0.433  -0.502  0.00  0.00     0.003 A 
ATOM      3  C3  I4B d   1       0.853   1.818  -0.336  0.00  0.00     0.002 A 
ATOM      4  C4  I4B d   1      -0.373   2.243   0.134  0.00  0.00    -0.004 A 
ATOM      5  C5  I4B d   1      -1.337   1.313   0.511  0.00  0.00     0.002 A 
ATOM      6  C6  I4B d   1      -1.078  -0.060   0.380  0.00  0.00     0.003 A 
ENDROOT
BRANCH   1   7
ATOM      7  C1' I4B d   1       0.409  -1.937  -0.370  0.00  0.00     0.060 C 
BRANCH   7   8
ATOM      8  C2' I4B d   1      -0.388  -2.386  -1.577  0.00  0.00    -0.013 C 
ATOM      9  C4' I4B d   1       0.519  -2.827  -2.696  0.00  0.00     0.013 C 
ATOM     10  C3' I4B d   1      -1.295  -3.499  -1.145  0.00  0.00     0.013 C 
ENDBRANCH   7   8
ENDBRANCH   1   7
TORSDOF 2
ENDMDL
