MODEL 1
REMARK minimizedAffinity -5.10862494
REMARK minimizedRMSD -1
REMARK  2 active torsions:
REMARK  status: ('A' for Active; 'I' for Inactive)
REMARK    1  A    between atoms: C2'_3  and  C1'_4 
REMARK    2  A    between atoms: C1'_4  and  C1_5 
ROOT
ATOM      1  C1  I4B d   1      -0.460  -0.693   0.121  0.00  0.00    -0.075 A 
ATOM      2  C2  I4B d   1       0.626  -0.042  -0.409  0.00  0.00     0.003 A 
ATOM      3  C3  I4B d   1       0.785   1.352  -0.218  0.00  0.00     0.002 A 
ATOM      4  C4  I4B d   1      -0.186   2.060   0.462  0.00  0.00    -0.004 A 
ATOM      5  C5  I4B d   1      -1.275   1.395   1.018  0.00  0.00     0.002 A 
ATOM      6  C6  I4B d   1      -1.407   0.008   0.858  0.00  0.00     0.003 A 
ENDROOT
BRANCH   1   7
ATOM      7  C1' I4B d   1      -0.614  -2.160  -0.127  0.00  0.00     0.060 C 
BRANCH   7   8
ATOM      8  C2' I4B d   1      -0.630  -2.380  -1.627  0.00  0.00    -0.013 C 
ATOM      9  C4' I4B d   1       0.563  -3.183  -2.073  0.00  0.00     0.013 C 
ATOM     10  C3' I4B d   1      -1.912  -3.073  -1.979  0.00  0.00     0.013 C 
ENDBRANCH   7   8
ENDBRANCH   1   7
TORSDOF 2
ENDMDL
