MODEL 1
REMARK minimizedAffinity -4.923347
REMARK minimizedRMSD -1
REMARK  2 active torsions:
REMARK  status: ('A' for Active; 'I' for Inactive)
REMARK    1  A    between atoms: C2'_3  and  C1'_4 
REMARK    2  A    between atoms: C1'_4  and  C1_5 
ROOT
ATOM      1  C1  I4B d   1      -0.022  -2.390  -0.910  0.00  0.00    -0.075 A 
ATOM      2  C2  I4B d   1      -1.097  -3.193  -0.620  0.00  0.00     0.003 A 
ATOM      3  C3  I4B d   1      -1.838  -3.797  -1.664  0.00  0.00     0.002 A 
ATOM      4  C4  I4B d   1      -1.504  -3.532  -2.976  0.00  0.00    -0.004 A 
ATOM      5  C5  I4B d   1      -0.400  -2.735  -3.269  0.00  0.00     0.002 A 
ATOM      6  C6  I4B d   1       0.353  -2.171  -2.229  0.00  0.00     0.003 A 
ENDROOT
BRANCH   1   7
ATOM      7  C1' I4B d   1       0.718  -1.742   0.216  0.00  0.00     0.060 C 
BRANCH   7   8
ATOM      8  C2' I4B d   1       0.785  -0.255  -0.063  0.00  0.00    -0.013 C 
ATOM      9  C4' I4B d   1      -0.421   0.459   0.489  0.00  0.00     0.013 C 
ATOM     10  C3' I4B d   1       2.051   0.274   0.542  0.00  0.00     0.013 C 
ENDBRANCH   7   8
ENDBRANCH   1   7
TORSDOF 2
ENDMDL
