MODEL 1
REMARK minimizedAffinity -5.0206871
REMARK minimizedRMSD -1
REMARK  2 active torsions:
REMARK  status: ('A' for Active; 'I' for Inactive)
REMARK    1  A    between atoms: C2'_3  and  C1'_4 
REMARK    2  A    between atoms: C1'_4  and  C1_5 
ROOT
ATOM      1  C1  I4B d   1       0.154  -0.814  -0.157  0.00  0.00    -0.075 A 
ATOM      2  C2  I4B d   1       1.202  -0.023  -0.557  0.00  0.00     0.003 A 
ATOM      3  C3  I4B d   1       1.097   1.388  -0.488  0.00  0.00     0.002 A 
ATOM      4  C4  I4B d   1      -0.084   1.962  -0.062  0.00  0.00    -0.004 A 
ATOM      5  C5  I4B d   1      -1.137   1.158   0.365  0.00  0.00     0.002 A 
ATOM      6  C6  I4B d   1      -1.013  -0.239   0.329  0.00  0.00     0.003 A 
ENDROOT
BRANCH   1   7
ATOM      7  C1' I4B d   1       0.286  -2.299  -0.275  0.00  0.00     0.060 C 
BRANCH   7   8
ATOM      8  C2' I4B d   1      -0.712  -2.776  -1.309  0.00  0.00    -0.013 C 
ATOM      9  C4' I4B d   1      -0.021  -3.211  -2.575  0.00  0.00     0.013 C 
ATOM     10  C3' I4B d   1      -1.500  -3.902  -0.708  0.00  0.00     0.013 C 
ENDBRANCH   7   8
ENDBRANCH   1   7
TORSDOF 2
ENDMDL
