MODEL 1
REMARK minimizedAffinity -5.04316139
REMARK minimizedRMSD -1
REMARK  2 active torsions:
REMARK  status: ('A' for Active; 'I' for Inactive)
REMARK    1  A    between atoms: C2'_3  and  C1'_4 
REMARK    2  A    between atoms: C1'_4  and  C1_5 
ROOT
ATOM      1  C1  I4B d   1       0.228   0.114   0.085  0.00  0.00    -0.075 A 
ATOM      2  C2  I4B d   1      -1.099   0.383  -0.136  0.00  0.00     0.003 A 
ATOM      3  C3  I4B d   1      -1.560   1.721  -0.164  0.00  0.00     0.002 A 
ATOM      4  C4  I4B d   1      -0.675   2.751   0.083  0.00  0.00    -0.004 A 
ATOM      5  C5  I4B d   1       0.675   2.477   0.284  0.00  0.00     0.002 A 
ATOM      6  C6  I4B d   1       1.132   1.151   0.273  0.00  0.00     0.003 A 
ENDROOT
BRANCH   1   7
ATOM      7  C1' I4B d   1       0.675  -1.313   0.141  0.00  0.00     0.060 C 
BRANCH   7   8
ATOM      8  C2' I4B d   1       0.008  -2.056  -0.998  0.00  0.00    -0.013 C 
ATOM      9  C4' I4B d   1       1.020  -2.795  -1.833  0.00  0.00     0.013 C 
ATOM     10  C3' I4B d   1      -1.000  -2.997  -0.410  0.00  0.00     0.013 C 
ENDBRANCH   7   8
ENDBRANCH   1   7
TORSDOF 2
ENDMDL
