MODEL 1
REMARK minimizedAffinity -2.37916374
REMARK minimizedRMSD -1
REMARK  2 active torsions:
REMARK  status: ('A' for Active; 'I' for Inactive)
REMARK    1  A    between atoms: C2'_3  and  C1'_4 
REMARK    2  A    between atoms: C1'_4  and  C1_5 
ROOT
ATOM      1  C1  I4B d   1       0.050  -0.994  -0.303  0.00  0.00    -0.075 A 
ATOM      2  C2  I4B d   1      -0.814  -1.269  -1.334  0.00  0.00     0.003 A 
ATOM      3  C3  I4B d   1      -0.877  -2.573  -1.881  0.00  0.00     0.002 A 
ATOM      4  C4  I4B d   1      -0.029  -3.552  -1.405  0.00  0.00    -0.004 A 
ATOM      5  C5  I4B d   1       0.829  -3.277  -0.345  0.00  0.00     0.002 A 
ATOM      6  C6  I4B d   1       0.861  -1.993   0.218  0.00  0.00     0.003 A 
ENDROOT
BRANCH   1   7
ATOM      7  C1' I4B d   1       0.114   0.403   0.230  0.00  0.00     0.060 C 
BRANCH   7   8
ATOM      8  C2' I4B d   1      -1.301   0.856   0.523  0.00  0.00    -0.013 C 
ATOM      9  C4' I4B d   1      -1.706   0.505   1.930  0.00  0.00     0.013 C 
ATOM     10  C3' I4B d   1      -1.370   2.337   0.293  0.00  0.00     0.013 C 
ENDBRANCH   7   8
ENDBRANCH   1   7
TORSDOF 2
ENDMDL
