MODEL 1
REMARK minimizedAffinity -2.33580637
REMARK minimizedRMSD -1
REMARK  2 active torsions:
REMARK  status: ('A' for Active; 'I' for Inactive)
REMARK    1  A    between atoms: C2'_3  and  C1'_4 
REMARK    2  A    between atoms: C1'_4  and  C1_5 
ROOT
ATOM      1  C1  I4B d   1       0.851  -0.373  -0.073  0.00  0.00    -0.075 A 
ATOM      2  C2  I4B d   1       2.143   0.080  -0.177  0.00  0.00     0.003 A 
ATOM      3  C3  I4B d   1       2.405   1.467  -0.289  0.00  0.00     0.002 A 
ATOM      4  C4  I4B d   1       1.351   2.356  -0.344  0.00  0.00    -0.004 A 
ATOM      5  C5  I4B d   1       0.043   1.897  -0.215  0.00  0.00     0.002 A 
ATOM      6  C6  I4B d   1      -0.208   0.525  -0.067  0.00  0.00     0.003 A 
ENDROOT
BRANCH   1   7
ATOM      7  C1' I4B d   1       0.609  -1.847   0.010  0.00  0.00     0.060 C 
BRANCH   7   8
ATOM      8  C2' I4B d   1      -0.333  -2.229  -1.113  0.00  0.00    -0.013 C 
ATOM      9  C4' I4B d   1       0.428  -2.660  -2.340  0.00  0.00     0.013 C 
ATOM     10  C3' I4B d   1      -1.225  -3.328  -0.616  0.00  0.00     0.013 C 
ENDBRANCH   7   8
ENDBRANCH   1   7
TORSDOF 2
ENDMDL
