MODEL 1
REMARK minimizedAffinity 6.67289209
REMARK minimizedRMSD -1
REMARK  0 active torsions:
REMARK  status: ('A' for Active; 'I' for Inactive)
ROOT
ATOM      1  O1  BZF d   1       3.741   5.927   4.804  0.00  0.00    -0.204 OA
ATOM      2  C2  BZF d   1       4.923   5.885   5.516  0.00  0.00     0.174 A 
ATOM      3  C3  BZF d   1       5.982   5.821   4.683  0.00  0.00    -0.012 A 
ATOM      4  C3A BZF d   1       5.430   5.918   3.366  0.00  0.00    -0.107 A 
ATOM      5  C4  BZF d   1       5.980   5.930   2.116  0.00  0.00     0.055 A 
ATOM      6  C5  BZF d   1       5.160   5.962   1.033  0.00  0.00    -0.016 A 
ATOM      7  C6  BZF d   1       3.786   5.978   1.164  0.00  0.00     0.022 A 
ATOM      8  C7  BZF d   1       3.195   5.972   2.383  0.00  0.00     0.029 A 
ATOM      9  C7A BZF d   1       4.022   5.973   3.479  0.00  0.00     0.058 A 
ENDROOT
TORSDOF 0
ENDMDL
