MODEL 1
REMARK minimizedAffinity -2.41574335
REMARK minimizedRMSD -1
REMARK  0 active torsions:
REMARK  status: ('A' for Active; 'I' for Inactive)
ROOT
ATOM      1  O1  BZF d   1       5.993   4.044   5.180  0.00  0.00    -0.204 OA
ATOM      2  C2  BZF d   1       5.463   5.036   5.983  0.00  0.00     0.174 A 
ATOM      3  C3  BZF d   1       4.856   5.981   5.237  0.00  0.00    -0.012 A 
ATOM      4  C3A BZF d   1       4.936   5.506   3.889  0.00  0.00    -0.107 A 
ATOM      5  C4  BZF d   1       4.498   5.998   2.693  0.00  0.00     0.055 A 
ATOM      6  C5  BZF d   1       4.803   5.326   1.552  0.00  0.00    -0.016 A 
ATOM      7  C6  BZF d   1       5.547   4.164   1.569  0.00  0.00     0.022 A 
ATOM      8  C7  BZF d   1       5.999   3.636   2.732  0.00  0.00     0.029 A 
ATOM      9  C7A BZF d   1       5.665   4.294   3.890  0.00  0.00     0.058 A 
ENDROOT
TORSDOF 0
ENDMDL
