MODEL 1
REMARK minimizedAffinity 13.4192934
REMARK minimizedRMSD -1
REMARK  0 active torsions:
REMARK  status: ('A' for Active; 'I' for Inactive)
ROOT
ATOM      1  O1  BZF d   1       2.328  -2.951  -0.802  0.00  0.00    -0.204 OA
ATOM      2  C2  BZF d   1       1.334  -2.336  -1.540  0.00  0.00     0.174 A 
ATOM      3  C3  BZF d   1       0.116  -2.773  -1.160  0.00  0.00    -0.012 A 
ATOM      4  C3A BZF d   1       0.359  -3.651  -0.057  0.00  0.00    -0.107 A 
ATOM      5  C4  BZF d   1      -0.457  -4.383   0.758  0.00  0.00     0.055 A 
ATOM      6  C5  BZF d   1       0.100  -5.195   1.694  0.00  0.00    -0.016 A 
ATOM      7  C6  BZF d   1       1.467  -5.303   1.840  0.00  0.00     0.022 A 
ATOM      8  C7  BZF d   1       2.317  -4.593   1.059  0.00  0.00     0.029 A 
ATOM      9  C7A BZF d   1       1.757  -3.747   0.134  0.00  0.00     0.058 A 
ENDROOT
TORSDOF 0
ENDMDL
