MODEL 1
REMARK minimizedAffinity -0.969270945
REMARK minimizedRMSD -1
REMARK  0 active torsions:
REMARK  status: ('A' for Active; 'I' for Inactive)
ROOT
ATOM      1  O1  BZF d   1       3.814   5.962   3.426  0.00  0.00    -0.204 OA
ATOM      2  C2  BZF d   1       5.105   5.932   3.918  0.00  0.00     0.174 A 
ATOM      3  C3  BZF d   1       5.999   5.870   2.910  0.00  0.00    -0.012 A 
ATOM      4  C3A BZF d   1       5.222   5.954   1.712  0.00  0.00    -0.107 A 
ATOM      5  C4  BZF d   1       5.542   5.961   0.384  0.00  0.00     0.055 A 
ATOM      6  C5  BZF d   1       4.542   5.980  -0.536  0.00  0.00    -0.016 A 
ATOM      7  C6  BZF d   1       3.214   5.987  -0.165  0.00  0.00     0.022 A 
ATOM      8  C7  BZF d   1       2.847   5.986   1.140  0.00  0.00     0.029 A 
ATOM      9  C7A BZF d   1       3.856   6.000   2.073  0.00  0.00     0.058 A 
ENDROOT
TORSDOF 0
ENDMDL
