MODEL 1
REMARK minimizedAffinity -2.86873698
REMARK minimizedRMSD -1
REMARK  0 active torsions:
REMARK  status: ('A' for Active; 'I' for Inactive)
ROOT
ATOM      1  O1  BZF d   1       3.924   5.996   4.405  0.00  0.00    -0.204 OA
ATOM      2  C2  BZF d   1       5.034   5.626   5.139  0.00  0.00     0.174 A 
ATOM      3  C3  BZF d   1       5.999   5.138   4.334  0.00  0.00    -0.012 A 
ATOM      4  C3A BZF d   1       5.494   5.293   3.004  0.00  0.00    -0.107 A 
ATOM      5  C4  BZF d   1       6.000   5.007   1.768  0.00  0.00     0.055 A 
ATOM      6  C5  BZF d   1       5.222   5.213   0.673  0.00  0.00    -0.016 A 
ATOM      7  C6  BZF d   1       3.935   5.697   0.776  0.00  0.00     0.022 A 
ATOM      8  C7  BZF d   1       3.392   6.000   1.981  0.00  0.00     0.029 A 
ATOM      9  C7A BZF d   1       4.186   5.825   3.087  0.00  0.00     0.058 A 
ENDROOT
TORSDOF 0
ENDMDL
