MODEL 1
REMARK minimizedAffinity 9.24746513
REMARK minimizedRMSD -1
REMARK  0 active torsions:
REMARK  status: ('A' for Active; 'I' for Inactive)
ROOT
ATOM      1  O1  BZF d   1       3.055  -2.239  -0.408  0.00  0.00    -0.204 OA
ATOM      2  C2  BZF d   1       2.303  -3.348  -0.071  0.00  0.00     0.174 A 
ATOM      3  C3  BZF d   1       1.042  -3.230  -0.536  0.00  0.00    -0.012 A 
ATOM      4  C3A BZF d   1       1.029  -2.011  -1.285  0.00  0.00    -0.107 A 
ATOM      5  C4  BZF d   1       0.067  -1.360  -2.002  0.00  0.00     0.055 A 
ATOM      6  C5  BZF d   1       0.357  -0.152  -2.553  0.00  0.00    -0.016 A 
ATOM      7  C6  BZF d   1       1.597   0.435  -2.403  0.00  0.00     0.022 A 
ATOM      8  C7  BZF d   1       2.585  -0.176  -1.705  0.00  0.00     0.029 A 
ATOM      9  C7A BZF d   1       2.305  -1.411  -1.175  0.00  0.00     0.058 A 
ENDROOT
TORSDOF 0
ENDMDL
