MODEL 1
REMARK minimizedAffinity 8.47553158
REMARK minimizedRMSD -1
REMARK  0 active torsions:
REMARK  status: ('A' for Active; 'I' for Inactive)
ROOT
ATOM      1  O1  BZF d   1      -1.475   0.775   3.521  0.00  0.00    -0.204 OA
ATOM      2  C2  BZF d   1      -2.274   0.130   2.597  0.00  0.00     0.174 A 
ATOM      3  C3  BZF d   1      -3.250   0.948   2.155  0.00  0.00    -0.012 A 
ATOM      4  C3A BZF d   1      -2.994   2.211   2.776  0.00  0.00    -0.107 A 
ATOM      5  C4  BZF d   1      -3.609   3.429   2.718  0.00  0.00     0.055 A 
ATOM      6  C5  BZF d   1      -3.152   4.438   3.504  0.00  0.00    -0.016 A 
ATOM      7  C6  BZF d   1      -2.086   4.264   4.363  0.00  0.00     0.022 A 
ATOM      8  C7  BZF d   1      -1.440   3.076   4.451  0.00  0.00     0.029 A 
ATOM      9  C7A BZF d   1      -1.879   2.063   3.634  0.00  0.00     0.058 A 
ENDROOT
TORSDOF 0
ENDMDL
