MODEL 1
REMARK minimizedAffinity -3.53177691
REMARK minimizedRMSD -1
REMARK  0 active torsions:
REMARK  status: ('A' for Active; 'I' for Inactive)
ROOT
ATOM      1  O1  BZF d   1       4.426  -2.086   4.396  0.00  0.00    -0.204 OA
ATOM      2  C2  BZF d   1       5.301  -1.385   5.204  0.00  0.00     0.174 A 
ATOM      3  C3  BZF d   1       5.999  -2.226   5.994  0.00  0.00    -0.012 A 
ATOM      4  C3A BZF d   1       5.598  -3.539   5.594  0.00  0.00    -0.107 A 
ATOM      5  C4  BZF d   1       5.954  -4.794   6.000  0.00  0.00     0.055 A 
ATOM      6  C5  BZF d   1       5.321  -5.868   5.458  0.00  0.00    -0.016 A 
ATOM      7  C6  BZF d   1       4.327  -5.724   4.513  0.00  0.00     0.022 A 
ATOM      8  C7  BZF d   1       3.943  -4.499   4.076  0.00  0.00     0.029 A 
ATOM      9  C7A BZF d   1       4.603  -3.414   4.597  0.00  0.00     0.058 A 
ENDROOT
TORSDOF 0
ENDMDL
