MODEL 1
REMARK minimizedAffinity 10.6515818
REMARK minimizedRMSD -1
REMARK  0 active torsions:
REMARK  status: ('A' for Active; 'I' for Inactive)
ROOT
ATOM      1  O1  BZF d   1      -2.436  -0.572  -0.787  0.00  0.00    -0.204 OA
ATOM      2  C2  BZF d   1      -3.484  -1.437  -0.539  0.00  0.00     0.174 A 
ATOM      3  C3  BZF d   1      -3.166  -2.693  -0.913  0.00  0.00    -0.012 A 
ATOM      4  C3A BZF d   1      -1.803  -2.624  -1.343  0.00  0.00    -0.107 A 
ATOM      5  C4  BZF d   1      -0.920  -3.552  -1.815  0.00  0.00     0.055 A 
ATOM      6  C5  BZF d   1       0.314  -3.146  -2.215  0.00  0.00    -0.016 A 
ATOM      7  C6  BZF d   1       0.695  -1.822  -2.160  0.00  0.00     0.022 A 
ATOM      8  C7  BZF d   1      -0.145  -0.866  -1.694  0.00  0.00     0.029 A 
ATOM      9  C7A BZF d   1      -1.380  -1.277  -1.259  0.00  0.00     0.058 A 
ENDROOT
TORSDOF 0
ENDMDL
