MODEL 1
REMARK minimizedAffinity 9.87490082
REMARK minimizedRMSD -1
REMARK  0 active torsions:
REMARK  status: ('A' for Active; 'I' for Inactive)
ROOT
ATOM      1  O1  BZF d   1       0.494  -1.361  -2.911  0.00  0.00    -0.204 OA
ATOM      2  C2  BZF d   1      -0.408  -2.387  -3.114  0.00  0.00     0.174 A 
ATOM      3  C3  BZF d   1      -0.078  -3.467  -2.377  0.00  0.00    -0.012 A 
ATOM      4  C3A BZF d   1       1.052  -3.060  -1.599  0.00  0.00    -0.107 A 
ATOM      5  C4  BZF d   1       1.822  -3.689  -0.662  0.00  0.00     0.055 A 
ATOM      6  C5  BZF d   1       2.896  -3.036  -0.145  0.00  0.00    -0.016 A 
ATOM      7  C6  BZF d   1       3.231  -1.759  -0.544  0.00  0.00     0.022 A 
ATOM      8  C7  BZF d   1       2.494  -1.093  -1.466  0.00  0.00     0.029 A 
ATOM      9  C7A BZF d   1       1.389  -1.737  -1.967  0.00  0.00     0.058 A 
ENDROOT
TORSDOF 0
ENDMDL
