MODEL 1
REMARK minimizedAffinity 11.8471451
REMARK minimizedRMSD -1
REMARK  0 active torsions:
REMARK  status: ('A' for Active; 'I' for Inactive)
ROOT
ATOM      1  O1  BZF d   1      -0.392  -5.287   1.698  0.00  0.00    -0.204 OA
ATOM      2  C2  BZF d   1       0.655  -6.000   2.250  0.00  0.00     0.174 A 
ATOM      3  C3  BZF d   1       1.830  -5.624   1.704  0.00  0.00    -0.012 A 
ATOM      4  C3A BZF d   1       1.506  -4.549   0.818  0.00  0.00    -0.107 A 
ATOM      5  C4  BZF d   1       2.252  -3.750  -0.001  0.00  0.00     0.055 A 
ATOM      6  C5  BZF d   1       1.621  -2.842  -0.791  0.00  0.00    -0.016 A 
ATOM      7  C6  BZF d   1       0.248  -2.709  -0.791  0.00  0.00     0.022 A 
ATOM      8  C7  BZF d   1      -0.534  -3.475   0.008  0.00  0.00     0.029 A 
ATOM      9  C7A BZF d   1       0.103  -4.371   0.832  0.00  0.00     0.058 A 
ENDROOT
TORSDOF 0
ENDMDL
