MODEL 1
REMARK minimizedAffinity 10.9379301
REMARK minimizedRMSD -1
REMARK  0 active torsions:
REMARK  status: ('A' for Active; 'I' for Inactive)
ROOT
ATOM      1  O1  BZF d   1       3.060  -3.691   3.537  0.00  0.00    -0.204 OA
ATOM      2  C2  BZF d   1       2.493  -4.856   3.056  0.00  0.00     0.174 A 
ATOM      3  C3  BZF d   1       3.165  -5.936   3.505  0.00  0.00    -0.012 A 
ATOM      4  C3A BZF d   1       4.161  -5.417   4.391  0.00  0.00    -0.107 A 
ATOM      5  C4  BZF d   1       5.129  -5.999   5.159  0.00  0.00     0.055 A 
ATOM      6  C5  BZF d   1       5.986  -5.207   5.854  0.00  0.00    -0.016 A 
ATOM      7  C6  BZF d   1       5.908  -3.830   5.801  0.00  0.00     0.022 A 
ATOM      8  C7  BZF d   1       4.961  -3.207   5.057  0.00  0.00     0.029 A 
ATOM      9  C7A BZF d   1       4.073  -4.006   4.380  0.00  0.00     0.058 A 
ENDROOT
TORSDOF 0
ENDMDL
