MODEL 1
REMARK minimizedAffinity 7.35125732
REMARK minimizedRMSD -1
REMARK  0 active torsions:
REMARK  status: ('A' for Active; 'I' for Inactive)
ROOT
ATOM      1  O1  BZF d   1      -1.365   0.780  -2.109  0.00  0.00    -0.204 OA
ATOM      2  C2  BZF d   1      -1.811  -0.300  -1.371  0.00  0.00     0.174 A 
ATOM      3  C3  BZF d   1      -0.787  -1.118  -1.054  0.00  0.00    -0.012 A 
ATOM      4  C3A BZF d   1       0.385  -0.464  -1.550  0.00  0.00    -0.107 A 
ATOM      5  C4  BZF d   1       1.714  -0.774  -1.527  0.00  0.00     0.055 A 
ATOM      6  C5  BZF d   1       2.594   0.041  -2.166  0.00  0.00    -0.016 A 
ATOM      7  C6  BZF d   1       2.180   1.170  -2.841  0.00  0.00     0.022 A 
ATOM      8  C7  BZF d   1       0.872   1.522  -2.888  0.00  0.00     0.029 A 
ATOM      9  C7A BZF d   1      -0.016   0.718  -2.215  0.00  0.00     0.058 A 
ENDROOT
TORSDOF 0
ENDMDL
