MODEL 1
REMARK minimizedAffinity 19.1665936
REMARK minimizedRMSD -1
REMARK  0 active torsions:
REMARK  status: ('A' for Active; 'I' for Inactive)
ROOT
ATOM      1  O1  BZF d   1      -2.139   0.753   3.960  0.00  0.00    -0.204 OA
ATOM      2  C2  BZF d   1      -1.887   0.989   2.622  0.00  0.00     0.174 A 
ATOM      3  C3  BZF d   1      -2.970   0.700   1.873  0.00  0.00    -0.012 A 
ATOM      4  C3A BZF d   1      -3.991   0.343   2.810  0.00  0.00    -0.107 A 
ATOM      5  C4  BZF d   1      -5.298  -0.030   2.677  0.00  0.00     0.055 A 
ATOM      6  C5  BZF d   1      -6.000  -0.382   3.786  0.00  0.00    -0.016 A 
ATOM      7  C6  BZF d   1      -5.426  -0.379   5.040  0.00  0.00     0.022 A 
ATOM      8  C7  BZF d   1      -4.134  -0.011   5.223  0.00  0.00     0.029 A 
ATOM      9  C7A BZF d   1      -3.432   0.377   4.108  0.00  0.00     0.058 A 
ENDROOT
TORSDOF 0
ENDMDL
