MODEL 1
REMARK minimizedAffinity 1.15781105
REMARK minimizedRMSD -1
REMARK  0 active torsions:
REMARK  status: ('A' for Active; 'I' for Inactive)
ROOT
ATOM      1  O1  BZF d   1       4.351   1.204  -1.702  0.00  0.00    -0.204 OA
ATOM      2  C2  BZF d   1       3.885   2.485  -1.933  0.00  0.00     0.174 A 
ATOM      3  C3  BZF d   1       2.556   2.477  -2.162  0.00  0.00    -0.012 A 
ATOM      4  C3A BZF d   1       2.151   1.117  -1.978  0.00  0.00    -0.107 A 
ATOM      5  C4  BZF d   1       0.946   0.478  -2.052  0.00  0.00     0.055 A 
ATOM      6  C5  BZF d   1       0.902  -0.870  -1.889  0.00  0.00    -0.016 A 
ATOM      7  C6  BZF d   1       2.042  -1.611  -1.656  0.00  0.00     0.022 A 
ATOM      8  C7  BZF d   1       3.260  -1.021  -1.568  0.00  0.00     0.029 A 
ATOM      9  C7A BZF d   1       3.303   0.346  -1.700  0.00  0.00     0.058 A 
ENDROOT
TORSDOF 0
ENDMDL
