MODEL 1
REMARK minimizedAffinity 12.6591148
REMARK minimizedRMSD -1
REMARK  0 active torsions:
REMARK  status: ('A' for Active; 'I' for Inactive)
ROOT
ATOM      1  O1  BZF d   1      -0.165  -5.138   1.610  0.00  0.00    -0.204 OA
ATOM      2  C2  BZF d   1       1.105  -5.551   1.964  0.00  0.00     0.174 A 
ATOM      3  C3  BZF d   1       2.027  -5.029   1.130  0.00  0.00    -0.012 A 
ATOM      4  C3A BZF d   1       1.296  -4.167   0.252  0.00  0.00    -0.107 A 
ATOM      5  C4  BZF d   1       1.659  -3.356  -0.784  0.00  0.00     0.055 A 
ATOM      6  C5  BZF d   1       0.693  -2.704  -1.483  0.00  0.00    -0.016 A 
ATOM      7  C6  BZF d   1      -0.644  -2.844  -1.176  0.00  0.00     0.022 A 
ATOM      8  C7  BZF d   1      -1.053  -3.633  -0.153  0.00  0.00     0.029 A 
ATOM      9  C7A BZF d   1      -0.077  -4.268   0.576  0.00  0.00     0.058 A 
ENDROOT
TORSDOF 0
ENDMDL
