MODEL 1
REMARK minimizedAffinity 9.06776047
REMARK minimizedRMSD -1
REMARK  0 active torsions:
REMARK  status: ('A' for Active; 'I' for Inactive)
ROOT
ATOM      1  O1  BZF d   1       3.361   5.868   2.030  0.00  0.00    -0.204 OA
ATOM      2  C2  BZF d   1       4.417   5.851   1.138  0.00  0.00     0.174 A 
ATOM      3  C3  BZF d   1       5.595   5.928   1.790  0.00  0.00    -0.012 A 
ATOM      4  C3A BZF d   1       5.258   5.904   3.181  0.00  0.00    -0.107 A 
ATOM      5  C4  BZF d   1       5.999   5.937   4.327  0.00  0.00     0.055 A 
ATOM      6  C5  BZF d   1       5.360   5.973   5.526  0.00  0.00    -0.016 A 
ATOM      7  C6  BZF d   1       3.983   5.983   5.615  0.00  0.00     0.022 A 
ATOM      8  C7  BZF d   1       3.206   5.946   4.505  0.00  0.00     0.029 A 
ATOM      9  C7A BZF d   1       3.848   5.876   3.294  0.00  0.00     0.058 A 
ENDROOT
TORSDOF 0
ENDMDL
