MODEL 1
REMARK minimizedAffinity -4.76732397
REMARK minimizedRMSD -1
REMARK  0 active torsions:
REMARK  status: ('A' for Active; 'I' for Inactive)
ROOT
ATOM      1  C4' PXY d   1       0.818   0.057  -2.095  0.00  0.00     0.077 C 
ATOM      2  C1' PXY d   1      -1.239   1.120   3.201  0.00  0.00     0.077 C 
ATOM      3  C1  PXY d   1      -0.687   0.840   1.817  0.00  0.00    -0.082 A 
ATOM      4  C2  PXY d   1      -1.324   1.302   0.754  0.00  0.00     0.003 A 
ATOM      5  C3  PXY d   1      -0.857   1.030  -0.507  0.00  0.00     0.003 A 
ATOM      6  C4  PXY d   1       0.303   0.324  -0.678  0.00  0.00    -0.082 A 
ATOM      7  C5  PXY d   1       0.965  -0.142   0.403  0.00  0.00     0.003 A 
ATOM      8  C6  PXY d   1       0.452   0.110   1.672  0.00  0.00     0.003 A 
ENDROOT
TORSDOF 0
ENDMDL
