MODEL 1
REMARK minimizedAffinity -5.59175491
REMARK minimizedRMSD -1
REMARK  0 active torsions:
REMARK  status: ('A' for Active; 'I' for Inactive)
ROOT
ATOM      1  C4' PXY d   1      -0.792   1.535   2.393  0.00  0.00     0.077 C 
ATOM      2  C1' PXY d   1       1.029  -0.729  -2.605  0.00  0.00     0.077 C 
ATOM      3  C1  PXY d   1       0.550  -0.147  -1.290  0.00  0.00    -0.082 A 
ATOM      4  C2  PXY d   1       0.050   1.078  -1.259  0.00  0.00     0.003 A 
ATOM      5  C3  PXY d   1      -0.359   1.631  -0.073  0.00  0.00     0.003 A 
ATOM      6  C4  PXY d   1      -0.304   0.904   1.086  0.00  0.00    -0.082 A 
ATOM      7  C5  PXY d   1       0.194  -0.350   1.061  0.00  0.00     0.003 A 
ATOM      8  C6  PXY d   1       0.642  -0.879  -0.146  0.00  0.00     0.003 A 
ENDROOT
TORSDOF 0
ENDMDL
