MODEL 1
REMARK minimizedAffinity -3.86666751
REMARK minimizedRMSD -1
REMARK  0 active torsions:
REMARK  status: ('A' for Active; 'I' for Inactive)
ROOT
ATOM      1  C4' PXY d   1      -3.320  -0.056  -0.262  0.00  0.00     0.077 C 
ATOM      2  C1' PXY d   1       2.034  -1.062   1.673  0.00  0.00     0.077 C 
ATOM      3  C1  PXY d   1       0.626  -0.795   1.177  0.00  0.00    -0.082 A 
ATOM      4  C2  PXY d   1       0.208  -1.364   0.058  0.00  0.00     0.003 A 
ATOM      5  C3  PXY d   1      -1.051  -1.108  -0.421  0.00  0.00     0.003 A 
ATOM      6  C4  PXY d   1      -1.910  -0.304   0.281  0.00  0.00    -0.082 A 
ATOM      7  C5  PXY d   1      -1.494   0.271   1.429  0.00  0.00     0.003 A 
ATOM      8  C6  PXY d   1      -0.198   0.031   1.877  0.00  0.00     0.003 A 
ENDROOT
TORSDOF 0
ENDMDL
