MODEL 1
REMARK minimizedAffinity -4.29692173
REMARK minimizedRMSD -1
REMARK  0 active torsions:
REMARK  status: ('A' for Active; 'I' for Inactive)
ROOT
ATOM      1  C4' PXY d   1       2.130  -0.730   2.980  0.00  0.00     0.077 C 
ATOM      2  C1' PXY d   1      -2.840   0.787   0.448  0.00  0.00     0.077 C 
ATOM      3  C1  PXY d   1      -1.538   0.398   1.121  0.00  0.00    -0.082 A 
ATOM      4  C2  PXY d   1      -0.584  -0.185   0.413  0.00  0.00     0.003 A 
ATOM      5  C3  PXY d   1       0.586  -0.572   1.013  0.00  0.00     0.003 A 
ATOM      6  C4  PXY d   1       0.804  -0.312   2.340  0.00  0.00    -0.082 A 
ATOM      7  C5  PXY d   1      -0.161   0.292   3.066  0.00  0.00     0.003 A 
ATOM      8  C6  PXY d   1      -1.358   0.640   2.448  0.00  0.00     0.003 A 
ENDROOT
TORSDOF 0
ENDMDL
