MODEL 1
REMARK minimizedAffinity -1.67170513
REMARK minimizedRMSD -1
REMARK  0 active torsions:
REMARK  status: ('A' for Active; 'I' for Inactive)
ROOT
ATOM      1  C4' PXY d   1       0.465  -0.445  -2.247  0.00  0.00     0.077 C 
ATOM      2  C1' PXY d   1      -1.510   1.025   2.983  0.00  0.00     0.077 C 
ATOM      3  C1  PXY d   1      -0.980   0.643   1.615  0.00  0.00    -0.082 A 
ATOM      4  C2  PXY d   1      -1.799   0.634   0.576  0.00  0.00     0.003 A 
ATOM      5  C3  PXY d   1      -1.343   0.259  -0.663  0.00  0.00     0.003 A 
ATOM      6  C4  PXY d   1      -0.024  -0.057  -0.849  0.00  0.00    -0.082 A 
ATOM      7  C5  PXY d   1       0.820  -0.039   0.204  0.00  0.00     0.003 A 
ATOM      8  C6  PXY d   1       0.329   0.304   1.461  0.00  0.00     0.003 A 
ENDROOT
TORSDOF 0
ENDMDL
