MODEL 1
REMARK minimizedAffinity -2.17982078
REMARK minimizedRMSD -1
REMARK  0 active torsions:
REMARK  status: ('A' for Active; 'I' for Inactive)
ROOT
ATOM      1  C4' PXY d   1       0.817  -0.042  -3.234  0.00  0.00     0.077 C 
ATOM      2  C1' PXY d   1      -0.842   0.557   2.271  0.00  0.00     0.077 C 
ATOM      3  C1  PXY d   1      -0.395   0.397   0.831  0.00  0.00    -0.082 A 
ATOM      4  C2  PXY d   1      -1.049   1.027  -0.131  0.00  0.00     0.003 A 
ATOM      5  C3  PXY d   1      -0.678   0.868  -1.441  0.00  0.00     0.003 A 
ATOM      6  C4  PXY d   1       0.407   0.098  -1.766  0.00  0.00    -0.082 A 
ATOM      7  C5  PXY d   1       1.086  -0.539  -0.789  0.00  0.00     0.003 A 
ATOM      8  C6  PXY d   1       0.668  -0.398   0.531  0.00  0.00     0.003 A 
ENDROOT
TORSDOF 0
ENDMDL
