MODEL 1
REMARK minimizedAffinity 12.7093925
REMARK minimizedRMSD -1
REMARK  0 active torsions:
REMARK  status: ('A' for Active; 'I' for Inactive)
ROOT
ATOM      1  C   UNL d   1      -1.315  -2.314  -1.108  0.00  0.00     0.023 A 
ATOM      2  C1  UNL d   1      -1.763  -1.580  -0.009  0.00  0.00     0.003 A 
ATOM      3  C2  UNL d   1      -0.912  -1.354   1.075  0.00  0.00     0.048 A 
ATOM      4  C3  UNL d   1       0.386  -1.863   1.053  0.00  0.00     0.023 A 
ATOM      5  C4  UNL d   1       0.839  -2.598  -0.044  0.00  0.00     0.048 A 
ATOM      6  C5  UNL d   1      -0.016  -2.822  -1.125  0.00  0.00     0.003 A 
ATOM      7  I   UNL d   1       1.654  -1.528   2.665  0.00  0.00    -0.146 I 
ENDROOT
TORSDOF 0
ENDMDL
