MODEL 1
REMARK minimizedAffinity 3.53094172
REMARK minimizedRMSD -1
REMARK  0 active torsions:
REMARK  status: ('A' for Active; 'I' for Inactive)
ROOT
ATOM      1  C   UNL d   1       2.091  -3.817   3.909  0.00  0.00     0.023 A 
ATOM      2  C1  UNL d   1       1.099  -3.213   3.137  0.00  0.00     0.003 A 
ATOM      3  C2  UNL d   1       1.332  -1.967   2.549  0.00  0.00     0.048 A 
ATOM      4  C3  UNL d   1       2.560  -1.333   2.738  0.00  0.00     0.023 A 
ATOM      5  C4  UNL d   1       3.555  -1.934   3.509  0.00  0.00     0.048 A 
ATOM      6  C5  UNL d   1       3.318  -3.179   4.095  0.00  0.00     0.003 A 
ATOM      7  I   UNL d   1       2.909   0.521   1.865  0.00  0.00    -0.146 I 
ENDROOT
TORSDOF 0
ENDMDL
