MODEL 1
REMARK minimizedAffinity 2.19949389
REMARK minimizedRMSD -1
REMARK  0 active torsions:
REMARK  status: ('A' for Active; 'I' for Inactive)
ROOT
ATOM      1  C   UNL d   1       2.339   2.063   0.737  0.00  0.00     0.023 A 
ATOM      2  C1  UNL d   1       2.834   0.846   1.206  0.00  0.00     0.003 A 
ATOM      3  C2  UNL d   1       2.068  -0.315   1.082  0.00  0.00     0.048 A 
ATOM      4  C3  UNL d   1       0.808  -0.252   0.488  0.00  0.00     0.023 A 
ATOM      5  C4  UNL d   1       0.309   0.964   0.017  0.00  0.00     0.048 A 
ATOM      6  C5  UNL d   1       1.078   2.122   0.144  0.00  0.00     0.003 A 
ATOM      7  I   UNL d   1      -0.335  -1.978   0.302  0.00  0.00    -0.146 I 
ENDROOT
TORSDOF 0
ENDMDL
