MODEL 1
REMARK minimizedAffinity -0.156655565
REMARK minimizedRMSD -1
REMARK  0 active torsions:
REMARK  status: ('A' for Active; 'I' for Inactive)
ROOT
ATOM      1  C   UNL d   1       1.420  -2.124   3.852  0.00  0.00     0.023 A 
ATOM      2  C1  UNL d   1       2.241  -1.022   4.091  0.00  0.00     0.003 A 
ATOM      3  C2  UNL d   1       2.244   0.054   3.201  0.00  0.00     0.048 A 
ATOM      4  C3  UNL d   1       1.423   0.022   2.075  0.00  0.00     0.023 A 
ATOM      5  C4  UNL d   1       0.599  -1.079   1.832  0.00  0.00     0.048 A 
ATOM      6  C5  UNL d   1       0.601  -2.153   2.724  0.00  0.00     0.003 A 
ATOM      7  I   UNL d   1       1.425   1.622   0.748  0.00  0.00    -0.146 I 
ENDROOT
TORSDOF 0
ENDMDL
