MODEL 1
REMARK minimizedAffinity -1.08547735
REMARK minimizedRMSD -1
REMARK  0 active torsions:
REMARK  status: ('A' for Active; 'I' for Inactive)
ROOT
ATOM      1  C   UNL d   1       2.094  -1.036   3.295  0.00  0.00     0.023 A 
ATOM      2  C1  UNL d   1       1.009  -1.452   2.522  0.00  0.00     0.003 A 
ATOM      3  C2  UNL d   1       0.580  -0.677   1.444  0.00  0.00     0.048 A 
ATOM      4  C3  UNL d   1       1.240   0.514   1.142  0.00  0.00     0.023 A 
ATOM      5  C4  UNL d   1       2.326   0.935   1.912  0.00  0.00     0.048 A 
ATOM      6  C5  UNL d   1       2.751   0.156   2.990  0.00  0.00     0.003 A 
ATOM      7  I   UNL d   1       0.603   1.670  -0.463  0.00  0.00    -0.146 I 
ENDROOT
TORSDOF 0
ENDMDL
