MODEL 1
REMARK minimizedAffinity 2.24647784
REMARK minimizedRMSD -1
REMARK  0 active torsions:
REMARK  status: ('A' for Active; 'I' for Inactive)
ROOT
ATOM      1  C   UNL d   1       0.179  -4.342  -1.069  0.00  0.00     0.023 A 
ATOM      2  C1  UNL d   1      -1.080  -3.762  -1.228  0.00  0.00     0.003 A 
ATOM      3  C2  UNL d   1      -1.328  -2.480  -0.732  0.00  0.00     0.048 A 
ATOM      4  C3  UNL d   1      -0.311  -1.783  -0.080  0.00  0.00     0.023 A 
ATOM      5  C4  UNL d   1       0.950  -2.359   0.080  0.00  0.00     0.048 A 
ATOM      6  C5  UNL d   1       1.192  -3.641  -0.416  0.00  0.00     0.003 A 
ATOM      7  I   UNL d   1      -0.677   0.125   0.657  0.00  0.00    -0.146 I 
ENDROOT
TORSDOF 0
ENDMDL
