MODEL 1
REMARK minimizedAffinity 5.33206558
REMARK minimizedRMSD -1
REMARK  0 active torsions:
REMARK  status: ('A' for Active; 'I' for Inactive)
ROOT
ATOM      1  C   UNL d   1       0.124  -4.137  -1.248  0.00  0.00     0.023 A 
ATOM      2  C1  UNL d   1       0.945  -3.587  -0.263  0.00  0.00     0.003 A 
ATOM      3  C2  UNL d   1       0.722  -2.284   0.187  0.00  0.00     0.048 A 
ATOM      4  C3  UNL d   1      -0.324  -1.536  -0.353  0.00  0.00     0.023 A 
ATOM      5  C4  UNL d   1      -1.149  -2.082  -1.338  0.00  0.00     0.048 A 
ATOM      6  C5  UNL d   1      -0.921  -3.385  -1.785  0.00  0.00     0.003 A 
ATOM      7  I   UNL d   1      -0.658   0.403   0.315  0.00  0.00    -0.146 I 
ENDROOT
TORSDOF 0
ENDMDL
