MODEL 1
REMARK minimizedAffinity 3.87549019
REMARK minimizedRMSD -1
REMARK  0 active torsions:
REMARK  status: ('A' for Active; 'I' for Inactive)
ROOT
ATOM      1  C   UNL d   1       1.188   2.681   0.049  0.00  0.00     0.023 A 
ATOM      2  C1  UNL d   1      -0.132   2.238  -0.030  0.00  0.00     0.003 A 
ATOM      3  C2  UNL d   1      -0.456   0.933   0.344  0.00  0.00     0.048 A 
ATOM      4  C3  UNL d   1       0.546   0.075   0.798  0.00  0.00     0.023 A 
ATOM      5  C4  UNL d   1       1.868   0.514   0.879  0.00  0.00     0.048 A 
ATOM      6  C5  UNL d   1       2.187   1.820   0.503  0.00  0.00     0.003 A 
ATOM      7  I   UNL d   1       0.066  -1.869   1.356  0.00  0.00    -0.146 I 
ENDROOT
TORSDOF 0
ENDMDL
