MODEL 1
REMARK minimizedAffinity 7.65497065
REMARK minimizedRMSD -1
REMARK  1 active torsions:
REMARK  status: ('A' for Active; 'I' for Inactive)
REMARK    1  A    between atoms: N_2  and  C1_3 
ROOT
ATOM      1  C1  UNL d   1       3.362  -3.489   3.797  0.00  0.00     0.143 A 
ATOM      2  C2  UNL d   1       2.492  -4.584   3.833  0.00  0.00    -0.057 A 
ATOM      3  C3  UNL d   1       1.190  -4.494   3.325  0.00  0.00     0.033 A 
ATOM      4  C4  UNL d   1       0.724  -3.294   2.798  0.00  0.00    -0.042 A 
ATOM      5  C5  UNL d   1       1.563  -2.185   2.774  0.00  0.00     0.033 A 
ATOM      6  C6  UNL d   1       2.864  -2.284   3.276  0.00  0.00    -0.057 A 
ENDROOT
BRANCH   1   7
ATOM      7  N   UNL d   1       4.634  -3.487   4.374  0.00  0.00    -0.732 N 
ATOM      8  C   UNL d   1       5.816  -3.339   3.553  0.00  0.00     0.284 C 
ATOM      9  H3  UNL d   1       4.664  -2.961   5.245  0.00  0.00     0.395 HD
ENDBRANCH   1   7
TORSDOF 1
ENDMDL
