MODEL 1
REMARK minimizedAffinity 2.51739073
REMARK minimizedRMSD -1
REMARK  1 active torsions:
REMARK  status: ('A' for Active; 'I' for Inactive)
REMARK    1  A    between atoms: N_2  and  C1_3 
ROOT
ATOM      1  C1  UNL d   1       4.603   5.712  -3.844  0.00  0.00     0.143 A 
ATOM      2  C2  UNL d   1       5.743   5.924  -3.062  0.00  0.00    -0.057 A 
ATOM      3  C3  UNL d   1       5.664   5.993  -1.665  0.00  0.00     0.033 A 
ATOM      4  C4  UNL d   1       4.434   5.879  -1.026  0.00  0.00    -0.042 A 
ATOM      5  C5  UNL d   1       3.284   5.693  -1.785  0.00  0.00     0.033 A 
ATOM      6  C6  UNL d   1       3.370   5.619  -3.179  0.00  0.00    -0.057 A 
ENDROOT
BRANCH   1   7
ATOM      7  N   UNL d   1       4.603   5.733  -5.241  0.00  0.00    -0.732 N 
ATOM      8  C   UNL d   1       5.826   5.978  -5.974  0.00  0.00     0.284 C 
ATOM      9  H3  UNL d   1       4.017   5.003  -5.640  0.00  0.00     0.395 HD
ENDBRANCH   1   7
TORSDOF 1
ENDMDL
