MODEL 1
REMARK minimizedAffinity -1.39858556
REMARK minimizedRMSD -1
REMARK  1 active torsions:
REMARK  status: ('A' for Active; 'I' for Inactive)
REMARK    1  A    between atoms: N_2  and  C1_3 
ROOT
ATOM      1  C1  UNL d   1      -5.334  -4.877  -4.279  0.00  0.00     0.143 A 
ATOM      2  C2  UNL d   1      -4.371  -5.802  -3.862  0.00  0.00    -0.057 A 
ATOM      3  C3  UNL d   1      -4.094  -5.999  -2.504  0.00  0.00     0.033 A 
ATOM      4  C4  UNL d   1      -4.759  -5.252  -1.537  0.00  0.00    -0.042 A 
ATOM      5  C5  UNL d   1      -5.703  -4.310  -1.930  0.00  0.00     0.033 A 
ATOM      6  C6  UNL d   1      -5.979  -4.122  -3.287  0.00  0.00    -0.057 A 
ENDROOT
BRANCH   1   7
ATOM      7  N   UNL d   1      -5.584  -4.565  -5.618  0.00  0.00    -0.732 N 
ATOM      8  C   UNL d   1      -5.989  -3.229  -6.000  0.00  0.00     0.284 C 
ATOM      9  H3  UNL d   1      -4.909  -4.991  -6.249  0.00  0.00     0.395 HD
ENDBRANCH   1   7
TORSDOF 1
ENDMDL
