MODEL 1
REMARK minimizedAffinity -2.3366766
REMARK minimizedRMSD -1
REMARK  1 active torsions:
REMARK  status: ('A' for Active; 'I' for Inactive)
REMARK    1  A    between atoms: N_2  and  C1_3 
ROOT
ATOM      1  C1  UNL d   1      -5.672  -5.235  -3.455  0.00  0.00     0.143 A 
ATOM      2  C2  UNL d   1      -5.924  -3.867  -3.607  0.00  0.00    -0.057 A 
ATOM      3  C3  UNL d   1      -5.897  -3.260  -4.868  0.00  0.00     0.033 A 
ATOM      4  C4  UNL d   1      -5.587  -4.007  -6.000  0.00  0.00    -0.042 A 
ATOM      5  C5  UNL d   1      -5.308  -5.363  -5.869  0.00  0.00     0.033 A 
ATOM      6  C6  UNL d   1      -5.344  -5.965  -4.608  0.00  0.00    -0.057 A 
ENDROOT
BRANCH   1   7
ATOM      7  N   UNL d   1      -5.588  -5.877  -2.217  0.00  0.00    -0.732 N 
ATOM      8  C   UNL d   1      -4.317  -6.000  -1.535  0.00  0.00     0.284 C 
ATOM      9  H3  UNL d   1      -6.367  -5.646  -1.605  0.00  0.00     0.395 HD
ENDBRANCH   1   7
TORSDOF 1
ENDMDL
