MODEL 1
REMARK minimizedAffinity 1.31305027
REMARK minimizedRMSD -1
REMARK  1 active torsions:
REMARK  status: ('A' for Active; 'I' for Inactive)
REMARK    1  A    between atoms: N_2  and  C1_3 
ROOT
ATOM      1  C1  UNL d   1       3.122  -3.201   3.705  0.00  0.00     0.143 A 
ATOM      2  C2  UNL d   1       2.186  -4.215   3.930  0.00  0.00    -0.057 A 
ATOM      3  C3  UNL d   1       0.859  -4.088   3.500  0.00  0.00     0.033 A 
ATOM      4  C4  UNL d   1       0.438  -2.928   2.859  0.00  0.00    -0.042 A 
ATOM      5  C5  UNL d   1       1.345  -1.896   2.647  0.00  0.00     0.033 A 
ATOM      6  C6  UNL d   1       2.670  -2.032   3.073  0.00  0.00    -0.057 A 
ENDROOT
BRANCH   1   7
ATOM      7  N   UNL d   1       4.430  -3.226   4.196  0.00  0.00    -0.732 N 
ATOM      8  C   UNL d   1       5.556  -3.053   3.303  0.00  0.00     0.284 C 
ATOM      9  H3  UNL d   1       4.522  -2.734   5.081  0.00  0.00     0.395 HD
ENDBRANCH   1   7
TORSDOF 1
ENDMDL
