MODEL 1
REMARK minimizedAffinity 4.35278463
REMARK minimizedRMSD -1
REMARK  1 active torsions:
REMARK  status: ('A' for Active; 'I' for Inactive)
REMARK    1  A    between atoms: N_2  and  C1_3 
ROOT
ATOM      1  C1  UNL d   1       1.385   2.196   0.277  0.00  0.00     0.143 A 
ATOM      2  C2  UNL d   1       1.776   1.608  -0.931  0.00  0.00    -0.057 A 
ATOM      3  C3  UNL d   1       0.893   0.814  -1.672  0.00  0.00     0.033 A 
ATOM      4  C4  UNL d   1      -0.393   0.570  -1.202  0.00  0.00    -0.042 A 
ATOM      5  C5  UNL d   1      -0.796   1.123   0.008  0.00  0.00     0.033 A 
ATOM      6  C6  UNL d   1       0.089   1.920   0.741  0.00  0.00    -0.057 A 
ENDROOT
BRANCH   1   7
ATOM      7  N   UNL d   1       2.248   2.913   1.109  0.00  0.00    -0.732 N 
ATOM      8  C   UNL d   1       3.274   2.233   1.870  0.00  0.00     0.284 C 
ATOM      9  H3  UNL d   1       2.553   3.789   0.689  0.00  0.00     0.395 HD
ENDBRANCH   1   7
TORSDOF 1
ENDMDL
