MODEL 1
REMARK minimizedAffinity 9.95969296
REMARK minimizedRMSD -1
REMARK  1 active torsions:
REMARK  status: ('A' for Active; 'I' for Inactive)
REMARK    1  A    between atoms: N_2  and  C1_3 
ROOT
ATOM      1  C1  UNL d   1       0.532   4.666   0.459  0.00  0.00     0.143 A 
ATOM      2  C2  UNL d   1       1.343   4.458   1.579  0.00  0.00    -0.057 A 
ATOM      3  C3  UNL d   1       1.826   3.183   1.900  0.00  0.00     0.033 A 
ATOM      4  C4  UNL d   1       1.479   2.085   1.119  0.00  0.00    -0.042 A 
ATOM      5  C5  UNL d   1       0.653   2.264   0.015  0.00  0.00     0.033 A 
ATOM      6  C6  UNL d   1       0.180   3.541  -0.304  0.00  0.00    -0.057 A 
ENDROOT
BRANCH   1   7
ATOM      7  N   UNL d   1      -0.059   5.892   0.144  0.00  0.00    -0.732 N 
ATOM      8  C   UNL d   1      -1.468   5.970  -0.178  0.00  0.00     0.284 C 
ATOM      9  H3  UNL d   1       0.274   6.648   0.737  0.00  0.00     0.395 HD
ENDBRANCH   1   7
TORSDOF 1
ENDMDL
