MODEL 1
REMARK minimizedAffinity -1.12660468
REMARK minimizedRMSD -1
REMARK  1 active torsions:
REMARK  status: ('A' for Active; 'I' for Inactive)
REMARK    1  A    between atoms: N_2  and  C1_3 
ROOT
ATOM      1  C1  UNL d   1       5.156   2.246  -3.618  0.00  0.00     0.143 A 
ATOM      2  C2  UNL d   1       5.576   3.472  -3.089  0.00  0.00    -0.057 A 
ATOM      3  C3  UNL d   1       4.730   4.587  -3.081  0.00  0.00     0.033 A 
ATOM      4  C4  UNL d   1       3.455   4.505  -3.631  0.00  0.00    -0.042 A 
ATOM      5  C5  UNL d   1       3.026   3.304  -4.186  0.00  0.00     0.033 A 
ATOM      6  C6  UNL d   1       3.873   2.192  -4.184  0.00  0.00    -0.057 A 
ENDROOT
BRANCH   1   7
ATOM      7  N   UNL d   1       5.984   1.129  -3.744  0.00  0.00    -0.732 N 
ATOM      8  C   UNL d   1       5.999   0.355  -4.967  0.00  0.00     0.284 C 
ATOM      9  H3  UNL d   1       6.905   1.279  -3.337  0.00  0.00     0.395 HD
ENDBRANCH   1   7
TORSDOF 1
ENDMDL
