MODEL 1
REMARK minimizedAffinity 0.023586588
REMARK minimizedRMSD -1
REMARK  1 active torsions:
REMARK  status: ('A' for Active; 'I' for Inactive)
REMARK    1  A    between atoms: N_2  and  C1_3 
ROOT
ATOM      1  C1  UNL d   1       0.894  -0.090  -2.191  0.00  0.00     0.143 A 
ATOM      2  C2  UNL d   1       0.112  -0.064  -1.031  0.00  0.00    -0.057 A 
ATOM      3  C3  UNL d   1       0.122  -1.131  -0.125  0.00  0.00     0.033 A 
ATOM      4  C4  UNL d   1       0.896  -2.259  -0.377  0.00  0.00    -0.042 A 
ATOM      5  C5  UNL d   1       1.662  -2.318  -1.536  0.00  0.00     0.033 A 
ATOM      6  C6  UNL d   1       1.653  -1.246  -2.434  0.00  0.00    -0.057 A 
ENDROOT
BRANCH   1   7
ATOM      7  N   UNL d   1       0.852   0.896  -3.180  0.00  0.00    -0.732 N 
ATOM      8  C   UNL d   1       1.413   0.649  -4.491  0.00  0.00     0.284 C 
ATOM      9  H3  UNL d   1      -0.035   1.394  -3.194  0.00  0.00     0.395 HD
ENDBRANCH   1   7
TORSDOF 1
ENDMDL
