MODEL 1
REMARK minimizedAffinity -3.47919893
REMARK minimizedRMSD -1
REMARK  1 active torsions:
REMARK  status: ('A' for Active; 'I' for Inactive)
REMARK    1  A    between atoms: N_2  and  C1_3 
ROOT
ATOM      1  C1  UNL d   1      -0.209  -0.139  -0.819  0.00  0.00     0.143 A 
ATOM      2  C2  UNL d   1       1.033  -0.181  -1.462  0.00  0.00    -0.057 A 
ATOM      3  C3  UNL d   1       1.786  -1.360  -1.510  0.00  0.00     0.033 A 
ATOM      4  C4  UNL d   1       1.322  -2.515  -0.888  0.00  0.00    -0.042 A 
ATOM      5  C5  UNL d   1       0.102  -2.490  -0.222  0.00  0.00     0.033 A 
ATOM      6  C6  UNL d   1      -0.649  -1.311  -0.183  0.00  0.00    -0.057 A 
ENDROOT
BRANCH   1   7
ATOM      7  N   UNL d   1      -0.960   1.028  -0.653  0.00  0.00    -0.732 N 
ATOM      8  C   UNL d   1      -0.419   2.154   0.078  0.00  0.00     0.284 C 
ATOM      9  H3  UNL d   1      -1.470   1.284  -1.494  0.00  0.00     0.395 HD
ENDBRANCH   1   7
TORSDOF 1
ENDMDL
