MODEL 1
REMARK minimizedAffinity 0.491549134
REMARK minimizedRMSD -1
REMARK  1 active torsions:
REMARK  status: ('A' for Active; 'I' for Inactive)
REMARK    1  A    between atoms: N_2  and  C1_3 
ROOT
ATOM      1  C1  UNL d   1      -0.168  -0.070   0.245  0.00  0.00     0.143 A 
ATOM      2  C2  UNL d   1      -0.799   0.200   1.464  0.00  0.00    -0.057 A 
ATOM      3  C3  UNL d   1      -0.604   1.416   2.128  0.00  0.00     0.033 A 
ATOM      4  C4  UNL d   1       0.251   2.377   1.598  0.00  0.00    -0.042 A 
ATOM      5  C5  UNL d   1       0.908   2.120   0.400  0.00  0.00     0.033 A 
ATOM      6  C6  UNL d   1       0.704   0.906  -0.263  0.00  0.00    -0.057 A 
ENDROOT
BRANCH   1   7
ATOM      7  N   UNL d   1      -0.244  -1.299  -0.415  0.00  0.00    -0.732 N 
ATOM      8  C   UNL d   1       0.805  -2.284  -0.262  0.00  0.00     0.284 C 
ATOM      9  H3  UNL d   1      -1.184  -1.688  -0.405  0.00  0.00     0.395 HD
ENDBRANCH   1   7
TORSDOF 1
ENDMDL
