MODEL 1
REMARK minimizedAffinity -3.73371148
REMARK minimizedRMSD -1
REMARK  1 active torsions:
REMARK  status: ('A' for Active; 'I' for Inactive)
REMARK    1  A    between atoms: N_2  and  C1_3 
ROOT
ATOM      1  C1  UNL d   1      -0.125   0.983  -0.391  0.00  0.00     0.143 A 
ATOM      2  C2  UNL d   1       0.976   0.725  -1.215  0.00  0.00    -0.057 A 
ATOM      3  C3  UNL d   1       1.417  -0.583  -1.451  0.00  0.00     0.033 A 
ATOM      4  C4  UNL d   1       0.779  -1.658  -0.841  0.00  0.00    -0.042 A 
ATOM      5  C5  UNL d   1      -0.302  -1.424   0.001  0.00  0.00     0.033 A 
ATOM      6  C6  UNL d   1      -0.741  -0.116   0.227  0.00  0.00    -0.057 A 
ENDROOT
BRANCH   1   7
ATOM      7  N   UNL d   1      -0.550   2.266  -0.040  0.00  0.00    -0.732 N 
ATOM      8  C   UNL d   1       0.374   3.215   0.543  0.00  0.00     0.284 C 
ATOM      9  H3  UNL d   1      -1.180   2.669  -0.730  0.00  0.00     0.395 HD
ENDBRANCH   1   7
TORSDOF 1
ENDMDL
