MODEL 1
REMARK minimizedAffinity -2.99054098
REMARK minimizedRMSD -1
REMARK  1 active torsions:
REMARK  status: ('A' for Active; 'I' for Inactive)
REMARK    1  A    between atoms: N_2  and  C1_3 
ROOT
ATOM      1  C1  UNL d   1      -0.695   0.407  -0.774  0.00  0.00     0.143 A 
ATOM      2  C2  UNL d   1      -0.102  -0.854  -0.649  0.00  0.00    -0.057 A 
ATOM      3  C3  UNL d   1       0.950  -1.248  -1.484  0.00  0.00     0.033 A 
ATOM      4  C4  UNL d   1       1.410  -0.396  -2.482  0.00  0.00    -0.042 A 
ATOM      5  C5  UNL d   1       0.819   0.853  -2.642  0.00  0.00     0.033 A 
ATOM      6  C6  UNL d   1      -0.227   1.243  -1.800  0.00  0.00    -0.057 A 
ENDROOT
BRANCH   1   7
ATOM      7  N   UNL d   1      -1.809   0.819  -0.039  0.00  0.00    -0.732 N 
ATOM      8  C   UNL d   1      -1.961   0.435   1.348  0.00  0.00     0.284 C 
ATOM      9  H3  UNL d   1      -2.069   1.783  -0.234  0.00  0.00     0.395 HD
ENDBRANCH   1   7
TORSDOF 1
ENDMDL
