MODEL 1
REMARK minimizedAffinity -2.36535311
REMARK minimizedRMSD -1
REMARK  1 active torsions:
REMARK  status: ('A' for Active; 'I' for Inactive)
REMARK    1  A    between atoms: N_2  and  C1_3 
ROOT
ATOM      1  C1  UNL d   1      -0.534   2.598  -0.351  0.00  0.00     0.143 A 
ATOM      2  C2  UNL d   1      -0.249   2.578   1.019  0.00  0.00    -0.057 A 
ATOM      3  C3  UNL d   1      -0.225   3.757   1.773  0.00  0.00     0.033 A 
ATOM      4  C4  UNL d   1      -0.458   4.985   1.162  0.00  0.00    -0.042 A 
ATOM      5  C5  UNL d   1      -0.718   5.031  -0.203  0.00  0.00     0.033 A 
ATOM      6  C6  UNL d   1      -0.748   3.849  -0.949  0.00  0.00    -0.057 A 
ENDROOT
BRANCH   1   7
ATOM      7  N   UNL d   1      -0.476   1.470  -1.174  0.00  0.00    -0.732 N 
ATOM      8  C   UNL d   1      -0.893   0.175  -0.681  0.00  0.00     0.284 C 
ATOM      9  H3  UNL d   1      -0.775   1.669  -2.126  0.00  0.00     0.395 HD
ENDBRANCH   1   7
TORSDOF 1
ENDMDL
