MODEL 1
REMARK minimizedAffinity -2.61488795
REMARK minimizedRMSD -1
REMARK  1 active torsions:
REMARK  status: ('A' for Active; 'I' for Inactive)
REMARK    1  A    between atoms: N_2  and  C1_3 
ROOT
ATOM      1  C1  UNL d   1      -1.149  -0.417   1.238  0.00  0.00     0.143 A 
ATOM      2  C2  UNL d   1      -1.028  -1.667   0.622  0.00  0.00    -0.057 A 
ATOM      3  C3  UNL d   1      -0.121  -1.876  -0.424  0.00  0.00     0.033 A 
ATOM      4  C4  UNL d   1       0.662  -0.827  -0.893  0.00  0.00    -0.042 A 
ATOM      5  C5  UNL d   1       0.541   0.430  -0.313  0.00  0.00     0.033 A 
ATOM      6  C6  UNL d   1      -0.362   0.631   0.736  0.00  0.00    -0.057 A 
ENDROOT
BRANCH   1   7
ATOM      7  N   UNL d   1      -2.102  -0.121   2.216  0.00  0.00    -0.732 N 
ATOM      8  C   UNL d   1      -1.806   0.824   3.272  0.00  0.00     0.284 C 
ATOM      9  H3  UNL d   1      -3.040  -0.033   1.831  0.00  0.00     0.395 HD
ENDBRANCH   1   7
TORSDOF 1
ENDMDL
