MODEL 1
REMARK minimizedAffinity -3.45060873
REMARK minimizedRMSD -1
REMARK  1 active torsions:
REMARK  status: ('A' for Active; 'I' for Inactive)
REMARK    1  A    between atoms: N_2  and  C1_3 
ROOT
ATOM      1  C1  UNL d   1       5.653   1.955   3.343  0.00  0.00     0.143 A 
ATOM      2  C2  UNL d   1       5.837   2.753   4.478  0.00  0.00    -0.057 A 
ATOM      3  C3  UNL d   1       5.994   4.140   4.373  0.00  0.00     0.033 A 
ATOM      4  C4  UNL d   1       6.000   4.753   3.124  0.00  0.00    -0.042 A 
ATOM      5  C5  UNL d   1       5.845   3.977   1.981  0.00  0.00     0.033 A 
ATOM      6  C6  UNL d   1       5.681   2.593   2.093  0.00  0.00    -0.057 A 
ENDROOT
BRANCH   1   7
ATOM      7  N   UNL d   1       5.590   0.560   3.375  0.00  0.00    -0.732 N 
ATOM      8  C   UNL d   1       5.694  -0.154   4.629  0.00  0.00     0.284 C 
ATOM      9  H3  UNL d   1       4.885   0.189   2.742  0.00  0.00     0.395 HD
ENDBRANCH   1   7
TORSDOF 1
ENDMDL
