MODEL 1
REMARK minimizedAffinity 6.86625004
REMARK minimizedRMSD -1
REMARK  1 active torsions:
REMARK  status: ('A' for Active; 'I' for Inactive)
REMARK    1  A    between atoms: C1_2  and  C2_3 
ROOT
ATOM      1  C2  UNL d   1      -0.476   5.097  -1.808  0.00  0.00    -0.081 A 
ATOM      2  C3  UNL d   1       0.714   5.283  -1.093  0.00  0.00     0.006 A 
ATOM      3  C4  UNL d   1       1.063   4.411  -0.060  0.00  0.00     0.002 A 
ATOM      4  C5  UNL d   1       0.234   3.335   0.271  0.00  0.00    -0.080 A 
ATOM      5  C6  UNL d   1       0.612   2.373   1.359  0.00  0.00     0.076 C 
ATOM      6  C7  UNL d   1      -0.963   3.158  -0.431  0.00  0.00     0.002 A 
ATOM      7  C8  UNL d   1      -1.314   4.030  -1.464  0.00  0.00     0.006 A 
ENDROOT
BRANCH   1   8
ATOM      8  C1  UNL d   1      -0.824   5.997  -2.966  0.00  0.00     0.054 C 
ATOM      9  C   UNL d   1      -2.244   5.748  -3.453  0.00  0.00     0.018 C 
ENDBRANCH   1   8
TORSDOF 1
ENDMDL
