MODEL 1
REMARK minimizedAffinity 5.65781164
REMARK minimizedRMSD -1
REMARK  1 active torsions:
REMARK  status: ('A' for Active; 'I' for Inactive)
REMARK    1  A    between atoms: C1_2  and  C2_3 
ROOT
ATOM      1  C2  UNL d   1      -0.027   4.971  -1.901  0.00  0.00    -0.081 A 
ATOM      2  C3  UNL d   1       1.127   4.734  -1.144  0.00  0.00     0.006 A 
ATOM      3  C4  UNL d   1       1.138   3.739  -0.163  0.00  0.00     0.002 A 
ATOM      4  C5  UNL d   1      -0.000   2.960   0.070  0.00  0.00    -0.080 A 
ATOM      5  C6  UNL d   1       0.008   1.868   1.099  0.00  0.00     0.076 C 
ATOM      6  C7  UNL d   1      -1.158   3.209  -0.674  0.00  0.00     0.002 A 
ATOM      7  C8  UNL d   1      -1.170   4.204  -1.654  0.00  0.00     0.006 A 
ENDROOT
BRANCH   1   8
ATOM      8  C1  UNL d   1      -0.022   6.000  -3.003  0.00  0.00     0.054 C 
ATOM      9  C   UNL d   1      -1.337   5.997  -3.768  0.00  0.00     0.018 C 
ENDBRANCH   1   8
TORSDOF 1
ENDMDL
