MODEL 1
REMARK minimizedAffinity 18.7866364
REMARK minimizedRMSD -1
REMARK  1 active torsions:
REMARK  status: ('A' for Active; 'I' for Inactive)
REMARK    1  A    between atoms: C1_2  and  C2_3 
ROOT
ATOM      1  C2  UNL d   1       1.536  -3.663  -0.640  0.00  0.00    -0.081 A 
ATOM      2  C3  UNL d   1       1.753  -3.847   0.731  0.00  0.00     0.006 A 
ATOM      3  C4  UNL d   1       2.195  -2.787   1.527  0.00  0.00     0.002 A 
ATOM      4  C5  UNL d   1       2.419  -1.525   0.967  0.00  0.00    -0.080 A 
ATOM      5  C6  UNL d   1       2.864  -0.371   1.816  0.00  0.00     0.076 C 
ATOM      6  C7  UNL d   1       2.219  -1.345  -0.406  0.00  0.00     0.002 A 
ATOM      7  C8  UNL d   1       1.779  -2.404  -1.202  0.00  0.00     0.006 A 
ENDROOT
BRANCH   1   8
ATOM      8  C1  UNL d   1       0.998  -4.786  -1.489  0.00  0.00     0.054 C 
ATOM      9  C   UNL d   1       1.916  -6.000  -1.446  0.00  0.00     0.018 C 
ENDBRANCH   1   8
TORSDOF 1
ENDMDL
