MODEL 1
REMARK minimizedAffinity 9.24146271
REMARK minimizedRMSD -1
REMARK  1 active torsions:
REMARK  status: ('A' for Active; 'I' for Inactive)
REMARK    1  A    between atoms: C1_2  and  C2_3 
ROOT
ATOM      1  C2  UNL d   1      -0.526   5.205  -2.509  0.00  0.00    -0.081 A 
ATOM      2  C3  UNL d   1       0.166   3.989  -2.566  0.00  0.00     0.006 A 
ATOM      3  C4  UNL d   1       0.400   3.252  -1.402  0.00  0.00     0.002 A 
ATOM      4  C5  UNL d   1      -0.061   3.714  -0.165  0.00  0.00    -0.080 A 
ATOM      5  C6  UNL d   1       0.157   2.918   1.087  0.00  0.00     0.076 C 
ATOM      6  C7  UNL d   1      -0.736   4.938  -0.105  0.00  0.00     0.002 A 
ATOM      7  C8  UNL d   1      -0.970   5.676  -1.268  0.00  0.00     0.006 A 
ENDROOT
BRANCH   1   8
ATOM      8  C1  UNL d   1      -0.836   5.971  -3.770  0.00  0.00     0.054 C 
ATOM      9  C   UNL d   1       0.354   5.978  -4.719  0.00  0.00     0.018 C 
ENDBRANCH   1   8
TORSDOF 1
ENDMDL
