MODEL 1
REMARK minimizedAffinity 4.6457715
REMARK minimizedRMSD -1
REMARK  0 active torsions:
REMARK  status: ('A' for Active; 'I' for Inactive)
ROOT
ATOM      1  C   UNL d   1       2.253   0.253   1.920  0.00  0.00    -0.002 A 
ATOM      2  C1  UNL d   1       1.305   1.232   2.182  0.00  0.00     0.010 A 
ATOM      3  C2  UNL d   1       0.334   1.554   1.231  0.00  0.00     0.041 A 
ATOM      4  C3  UNL d   1       0.331   0.866   0.002  0.00  0.00    -0.075 A 
ATOM      5  S   UNL d   1      -0.762   1.091  -1.312  0.00  0.00     0.015 SA
ATOM      6  C4  UNL d   1       0.003  -0.107  -2.252  0.00  0.00     0.022 A 
ATOM      7  C5  UNL d   1       1.068  -0.675  -1.595  0.00  0.00     0.026 A 
ATOM      8  C6  UNL d   1       1.275  -0.124  -0.285  0.00  0.00    -0.082 A 
ATOM      9  C7  UNL d   1       2.247  -0.426   0.699  0.00  0.00     0.045 A 
ENDROOT
TORSDOF 0
ENDMDL
