MODEL 1
REMARK minimizedAffinity -4.27040672
REMARK minimizedRMSD -1
REMARK  0 active torsions:
REMARK  status: ('A' for Active; 'I' for Inactive)
ROOT
ATOM      1  C   UNL d   1       0.925   1.010   2.752  0.00  0.00    -0.002 A 
ATOM      2  C1  UNL d   1      -0.394   0.759   3.101  0.00  0.00     0.010 A 
ATOM      3  C2  UNL d   1      -1.279   0.198   2.178  0.00  0.00     0.041 A 
ATOM      4  C3  UNL d   1      -0.810  -0.111   0.886  0.00  0.00    -0.075 A 
ATOM      5  S   UNL d   1      -1.713  -0.805  -0.409  0.00  0.00     0.015 SA
ATOM      6  C4  UNL d   1      -0.368  -0.785  -1.456  0.00  0.00     0.022 A 
ATOM      7  C5  UNL d   1       0.750  -0.265  -0.849  0.00  0.00     0.026 A 
ATOM      8  C6  UNL d   1       0.514   0.131   0.511  0.00  0.00    -0.082 A 
ATOM      9  C7  UNL d   1       1.387   0.701   1.469  0.00  0.00     0.045 A 
ENDROOT
TORSDOF 0
ENDMDL
