MODEL 1
REMARK minimizedAffinity -0.708876073
REMARK minimizedRMSD -1
REMARK  0 active torsions:
REMARK  status: ('A' for Active; 'I' for Inactive)
ROOT
ATOM      1  C   UNL d   1      -0.511   1.304   3.242  0.00  0.00    -0.002 A 
ATOM      2  C1  UNL d   1       0.794   0.937   2.946  0.00  0.00     0.010 A 
ATOM      3  C2  UNL d   1       1.096   0.299   1.741  0.00  0.00     0.041 A 
ATOM      4  C3  UNL d   1       0.055   0.037   0.829  0.00  0.00    -0.075 A 
ATOM      5  S   UNL d   1       0.189  -0.732  -0.708  0.00  0.00     0.015 SA
ATOM      6  C4  UNL d   1      -1.482  -0.589  -1.009  0.00  0.00     0.022 A 
ATOM      7  C5  UNL d   1      -2.142   0.027   0.028  0.00  0.00     0.026 A 
ATOM      8  C6  UNL d   1      -1.267   0.399   1.104  0.00  0.00    -0.082 A 
ATOM      9  C7  UNL d   1      -1.541   1.042   2.335  0.00  0.00     0.045 A 
ENDROOT
TORSDOF 0
ENDMDL
