MODEL 1
REMARK minimizedAffinity 11.5254622
REMARK minimizedRMSD -1
REMARK  0 active torsions:
REMARK  status: ('A' for Active; 'I' for Inactive)
ROOT
ATOM      1  C   UNL d   1      -2.258   0.885   1.899  0.00  0.00    -0.002 A 
ATOM      2  C1  UNL d   1      -1.511   2.028   2.150  0.00  0.00     0.010 A 
ATOM      3  C2  UNL d   1      -0.196   1.930   2.610  0.00  0.00     0.041 A 
ATOM      4  C3  UNL d   1       0.362   0.653   2.813  0.00  0.00    -0.075 A 
ATOM      5  S   UNL d   1       1.952   0.290   3.370  0.00  0.00     0.015 SA
ATOM      6  C4  UNL d   1       1.679  -1.390   3.286  0.00  0.00     0.022 A 
ATOM      7  C5  UNL d   1       0.410  -1.685   2.847  0.00  0.00     0.026 A 
ATOM      8  C6  UNL d   1      -0.370  -0.513   2.566  0.00  0.00    -0.082 A 
ATOM      9  C7  UNL d   1      -1.700  -0.380   2.101  0.00  0.00     0.045 A 
ENDROOT
TORSDOF 0
ENDMDL
