MODEL 1
REMARK minimizedAffinity 10.5497818
REMARK minimizedRMSD -1
REMARK  0 active torsions:
REMARK  status: ('A' for Active; 'I' for Inactive)
ROOT
ATOM      1  C   UNL d   1      -0.714  -4.255  -5.892  0.00  0.00    -0.002 A 
ATOM      2  C1  UNL d   1      -0.368  -2.912  -5.835  0.00  0.00     0.010 A 
ATOM      3  C2  UNL d   1      -1.354  -1.924  -5.834  0.00  0.00     0.041 A 
ATOM      4  C3  UNL d   1      -2.707  -2.311  -5.889  0.00  0.00    -0.075 A 
ATOM      5  S   UNL d   1      -4.085  -1.275  -5.898  0.00  0.00     0.015 SA
ATOM      6  C4  UNL d   1      -5.167  -2.590  -5.976  0.00  0.00     0.022 A 
ATOM      7  C5  UNL d   1      -4.509  -3.798  -5.995  0.00  0.00     0.026 A 
ATOM      8  C6  UNL d   1      -3.081  -3.657  -5.945  0.00  0.00    -0.082 A 
ATOM      9  C7  UNL d   1      -2.058  -4.635  -5.946  0.00  0.00     0.045 A 
ENDROOT
TORSDOF 0
ENDMDL
