MODEL 1
REMARK minimizedAffinity 6.27936506
REMARK minimizedRMSD -1
REMARK  0 active torsions:
REMARK  status: ('A' for Active; 'I' for Inactive)
ROOT
ATOM      1  C   UNL d   1      -1.658   0.604   0.877  0.00  0.00    -0.002 A 
ATOM      2  C1  UNL d   1      -2.558   0.402   1.914  0.00  0.00     0.010 A 
ATOM      3  C2  UNL d   1      -2.133  -0.143   3.127  0.00  0.00     0.041 A 
ATOM      4  C3  UNL d   1      -0.775  -0.482   3.284  0.00  0.00    -0.075 A 
ATOM      5  S   UNL d   1      -0.028  -1.162   4.681  0.00  0.00     0.015 SA
ATOM      6  C4  UNL d   1       1.504  -1.200   3.934  0.00  0.00     0.022 A 
ATOM      7  C5  UNL d   1       1.465  -0.710   2.650  0.00  0.00     0.026 A 
ATOM      8  C6  UNL d   1       0.150  -0.288   2.254  0.00  0.00    -0.082 A 
ATOM      9  C7  UNL d   1      -0.312   0.265   1.036  0.00  0.00     0.045 A 
ENDROOT
TORSDOF 0
ENDMDL
