MODEL 1
REMARK minimizedAffinity 8.71776199
REMARK minimizedRMSD -1
REMARK  0 active torsions:
REMARK  status: ('A' for Active; 'I' for Inactive)
ROOT
ATOM      1  C   UNL d   1       2.479   2.495   0.813  0.00  0.00    -0.002 A 
ATOM      2  C1  UNL d   1       2.458   3.832   0.442  0.00  0.00     0.010 A 
ATOM      3  C2  UNL d   1       3.122   4.792   1.208  0.00  0.00     0.041 A 
ATOM      4  C3  UNL d   1       3.815   4.382   2.363  0.00  0.00    -0.075 A 
ATOM      5  S   UNL d   1       4.701   5.381   3.454  0.00  0.00     0.015 SA
ATOM      6  C4  UNL d   1       5.129   4.057   4.438  0.00  0.00     0.022 A 
ATOM      7  C5  UNL d   1       4.617   2.874   3.961  0.00  0.00     0.026 A 
ATOM      8  C6  UNL d   1       3.852   3.041   2.757  0.00  0.00    -0.082 A 
ATOM      9  C7  UNL d   1       3.168   2.092   1.960  0.00  0.00     0.045 A 
ENDROOT
TORSDOF 0
ENDMDL
