MODEL 1
REMARK minimizedAffinity -0.69381851
REMARK minimizedRMSD -1
REMARK  0 active torsions:
REMARK  status: ('A' for Active; 'I' for Inactive)
ROOT
ATOM      1  C4' PXY d   1      -6.000   0.376  -4.967  0.00  0.00     0.077 C 
ATOM      2  C1' PXY d   1      -5.201   5.384  -2.193  0.00  0.00     0.077 C 
ATOM      3  C1  PXY d   1      -5.409   4.064  -2.909  0.00  0.00    -0.082 A 
ATOM      4  C2  PXY d   1      -5.199   3.987  -4.214  0.00  0.00     0.003 A 
ATOM      5  C3  PXY d   1      -5.413   2.810  -4.883  0.00  0.00     0.003 A 
ATOM      6  C4  PXY d   1      -5.794   1.685  -4.201  0.00  0.00    -0.082 A 
ATOM      7  C5  PXY d   1      -5.999   1.752  -2.869  0.00  0.00     0.003 A 
ATOM      8  C6  PXY d   1      -5.817   2.967  -2.215  0.00  0.00     0.003 A 
ENDROOT
TORSDOF 0
ENDMDL
