MODEL 1
REMARK minimizedAffinity 5.26208019
REMARK minimizedRMSD -1
REMARK  0 active torsions:
REMARK  status: ('A' for Active; 'I' for Inactive)
ROOT
ATOM      1  C4' PXY d   1      -5.826   4.318  -2.578  0.00  0.00     0.077 C 
ATOM      2  C1' PXY d   1      -5.984  -0.747  -5.359  0.00  0.00     0.077 C 
ATOM      3  C1  PXY d   1      -5.936   0.587  -4.640  0.00  0.00    -0.082 A 
ATOM      4  C2  PXY d   1      -6.000   0.620  -3.319  0.00  0.00     0.003 A 
ATOM      5  C3  PXY d   1      -5.991   1.819  -2.654  0.00  0.00     0.003 A 
ATOM      6  C4  PXY d   1      -5.861   2.994  -3.345  0.00  0.00    -0.082 A 
ATOM      7  C5  PXY d   1      -5.784   2.967  -4.693  0.00  0.00     0.003 A 
ATOM      8  C6  PXY d   1      -5.837   1.742  -5.351  0.00  0.00     0.003 A 
ENDROOT
TORSDOF 0
ENDMDL
