MODEL 1
REMARK minimizedAffinity 5.07971287
REMARK minimizedRMSD -1
REMARK  0 active torsions:
REMARK  status: ('A' for Active; 'I' for Inactive)
ROOT
ATOM      1  C4' PXY d   1      -5.924   0.033  -5.282  0.00  0.00     0.077 C 
ATOM      2  C1' PXY d   1      -5.998   4.750  -1.941  0.00  0.00     0.077 C 
ATOM      3  C1  PXY d   1      -5.973   3.506  -2.808  0.00  0.00    -0.082 A 
ATOM      4  C2  PXY d   1      -5.988   3.626  -4.125  0.00  0.00     0.003 A 
ATOM      5  C3  PXY d   1      -5.999   2.511  -4.924  0.00  0.00     0.003 A 
ATOM      6  C4  PXY d   1      -5.939   1.261  -4.368  0.00  0.00    -0.082 A 
ATOM      7  C5  PXY d   1      -5.912   1.130  -3.025  0.00  0.00     0.003 A 
ATOM      8  C6  PXY d   1      -5.944   2.274  -2.232  0.00  0.00     0.003 A 
ENDROOT
TORSDOF 0
ENDMDL
