MODEL 1
REMARK minimizedAffinity 7.76802826
REMARK minimizedRMSD -1
REMARK  0 active torsions:
REMARK  status: ('A' for Active; 'I' for Inactive)
ROOT
ATOM      1  C4' PXY d   1      -6.000  -0.098  -5.222  0.00  0.00     0.077 C 
ATOM      2  C1' PXY d   1      -4.731   4.669  -2.209  0.00  0.00     0.077 C 
ATOM      3  C1  PXY d   1      -5.064   3.412  -2.988  0.00  0.00    -0.082 A 
ATOM      4  C2  PXY d   1      -4.739   3.331  -4.268  0.00  0.00     0.003 A 
ATOM      5  C3  PXY d   1      -5.061   2.214  -4.996  0.00  0.00     0.003 A 
ATOM      6  C4  PXY d   1      -5.675   1.148  -4.394  0.00  0.00    -0.082 A 
ATOM      7  C5  PXY d   1      -6.000   1.220  -3.086  0.00  0.00     0.003 A 
ATOM      8  C6  PXY d   1      -5.701   2.378  -2.375  0.00  0.00     0.003 A 
ENDROOT
TORSDOF 0
ENDMDL
