MODEL 1
REMARK minimizedAffinity -0.525559247
REMARK minimizedRMSD -1
REMARK  0 active torsions:
REMARK  status: ('A' for Active; 'I' for Inactive)
ROOT
ATOM      1  C4' PXY d   1      -5.978   4.647  -2.017  0.00  0.00     0.077 C 
ATOM      2  C1' PXY d   1      -6.000   0.322  -5.852  0.00  0.00     0.077 C 
ATOM      3  C1  PXY d   1      -5.999   1.448  -4.837  0.00  0.00    -0.082 A 
ATOM      4  C2  PXY d   1      -5.998   2.704  -5.254  0.00  0.00     0.003 A 
ATOM      5  C3  PXY d   1      -5.966   3.735  -4.350  0.00  0.00     0.003 A 
ATOM      6  C4  PXY d   1      -5.988   3.478  -3.005  0.00  0.00    -0.082 A 
ATOM      7  C5  PXY d   1      -5.999   2.200  -2.572  0.00  0.00     0.003 A 
ATOM      8  C6  PXY d   1      -5.991   1.167  -3.506  0.00  0.00     0.003 A 
ENDROOT
TORSDOF 0
ENDMDL
