MODEL 1
REMARK minimizedAffinity 3.77149105
REMARK minimizedRMSD -1
REMARK  0 active torsions:
REMARK  status: ('A' for Active; 'I' for Inactive)
ROOT
ATOM      1  C4' PXY d   1      -4.988   2.181   0.793  0.00  0.00     0.077 C 
ATOM      2  C1' PXY d   1      -5.995   3.504  -4.743  0.00  0.00     0.077 C 
ATOM      3  C1  PXY d   1      -5.740   3.147  -3.292  0.00  0.00    -0.082 A 
ATOM      4  C2  PXY d   1      -5.255   4.063  -2.469  0.00  0.00     0.003 A 
ATOM      5  C3  PXY d   1      -4.988   3.748  -1.161  0.00  0.00     0.003 A 
ATOM      6  C4  PXY d   1      -5.270   2.499  -0.678  0.00  0.00    -0.082 A 
ATOM      7  C5  PXY d   1      -5.774   1.562  -1.509  0.00  0.00     0.003 A 
ATOM      8  C6  PXY d   1      -6.000   1.889  -2.842  0.00  0.00     0.003 A 
ENDROOT
TORSDOF 0
ENDMDL
