MODEL 1
REMARK minimizedAffinity 1.18498719
REMARK minimizedRMSD -1
REMARK  0 active torsions:
REMARK  status: ('A' for Active; 'I' for Inactive)
ROOT
ATOM      1  C4' PXY d   1      -5.161   1.856   0.439  0.00  0.00     0.077 C 
ATOM      2  C1' PXY d   1      -5.911   2.920  -5.193  0.00  0.00     0.077 C 
ATOM      3  C1  PXY d   1      -5.723   2.631  -3.717  0.00  0.00    -0.082 A 
ATOM      4  C2  PXY d   1      -5.282   3.586  -2.915  0.00  0.00     0.003 A 
ATOM      5  C3  PXY d   1      -5.076   3.333  -1.583  0.00  0.00     0.003 A 
ATOM      6  C4  PXY d   1      -5.375   2.105  -1.057  0.00  0.00    -0.082 A 
ATOM      7  C5  PXY d   1      -5.835   1.128  -1.867  0.00  0.00     0.003 A 
ATOM      8  C6  PXY d   1      -5.998   1.393  -3.224  0.00  0.00     0.003 A 
ENDROOT
TORSDOF 0
ENDMDL
