MODEL 1
REMARK minimizedAffinity 4.00536489
REMARK minimizedRMSD -1
REMARK  0 active torsions:
REMARK  status: ('A' for Active; 'I' for Inactive)
ROOT
ATOM      1  C4' PXY d   1      -5.984   5.149  -2.464  0.00  0.00     0.077 C 
ATOM      2  C1' PXY d   1      -5.803  -0.050  -4.984  0.00  0.00     0.077 C 
ATOM      3  C1  PXY d   1      -5.856   1.308  -4.313  0.00  0.00    -0.082 A 
ATOM      4  C2  PXY d   1      -5.857   2.404  -5.053  0.00  0.00     0.003 A 
ATOM      5  C3  PXY d   1      -5.872   3.641  -4.462  0.00  0.00     0.003 A 
ATOM      6  C4  PXY d   1      -5.941   3.756  -3.099  0.00  0.00    -0.082 A 
ATOM      7  C5  PXY d   1      -5.952   2.642  -2.337  0.00  0.00     0.003 A 
ATOM      8  C6  PXY d   1      -5.894   1.397  -2.955  0.00  0.00     0.003 A 
ENDROOT
TORSDOF 0
ENDMDL
