MODEL 1
REMARK minimizedAffinity 9.70541954
REMARK minimizedRMSD -1
REMARK  0 active torsions:
REMARK  status: ('A' for Active; 'I' for Inactive)
ROOT
ATOM      1  C4' PXY d   1      -2.237   5.786  -2.336  0.00  0.00     0.077 C 
ATOM      2  C1' PXY d   1       0.979   2.688   1.334  0.00  0.00     0.077 C 
ATOM      3  C1  PXY d   1       0.132   3.509   0.381  0.00  0.00    -0.082 A 
ATOM      4  C2  PXY d   1      -0.322   2.956  -0.731  0.00  0.00     0.003 A 
ATOM      5  C3  PXY d   1      -1.063   3.692  -1.620  0.00  0.00     0.003 A 
ATOM      6  C4  PXY d   1      -1.386   4.993  -1.340  0.00  0.00    -0.082 A 
ATOM      7  C5  PXY d   1      -0.935   5.561  -0.202  0.00  0.00     0.003 A 
ATOM      8  C6  PXY d   1      -0.150   4.809   0.667  0.00  0.00     0.003 A 
ENDROOT
TORSDOF 0
ENDMDL
