MODEL 1
REMARK minimizedAffinity -2.99383521
REMARK minimizedRMSD -1
REMARK  0 active torsions:
REMARK  status: ('A' for Active; 'I' for Inactive)
ROOT
ATOM      1  C4' PXY d   1      -5.966   4.645  -5.934  0.00  0.00     0.077 C 
ATOM      2  C1' PXY d   1      -5.999   2.576  -0.536  0.00  0.00     0.077 C 
ATOM      3  C1  PXY d   1      -5.995   3.130  -1.947  0.00  0.00    -0.082 A 
ATOM      4  C2  PXY d   1      -5.987   2.298  -2.976  0.00  0.00     0.003 A 
ATOM      5  C3  PXY d   1      -5.952   2.782  -4.259  0.00  0.00     0.003 A 
ATOM      6  C4  PXY d   1      -5.979   4.131  -4.491  0.00  0.00    -0.082 A 
ATOM      7  C5  PXY d   1      -5.998   4.986  -3.447  0.00  0.00     0.003 A 
ATOM      8  C6  PXY d   1      -5.992   4.475  -2.152  0.00  0.00     0.003 A 
ENDROOT
TORSDOF 0
ENDMDL
