MODEL 1
REMARK minimizedAffinity 3.60578656
REMARK minimizedRMSD -1
REMARK  0 active torsions:
REMARK  status: ('A' for Active; 'I' for Inactive)
ROOT
ATOM      1  C1  BNZ d   1      -1.911  -1.848  -1.549  0.00  0.00     0.000 A 
ATOM      2  C2  BNZ d   1      -1.136  -1.897  -0.421  0.00  0.00     0.000 A 
ATOM      3  C3  BNZ d   1      -0.370  -2.995  -0.146  0.00  0.00     0.000 A 
ATOM      4  C4  BNZ d   1      -0.409  -4.056  -0.977  0.00  0.00     0.000 A 
ATOM      5  C5  BNZ d   1      -1.192  -4.026  -2.113  0.00  0.00     0.000 A 
ATOM      6  C6  BNZ d   1      -1.933  -2.904  -2.407  0.00  0.00     0.000 A 
ENDROOT
TORSDOF 0
ENDMDL
