MODEL 1
REMARK minimizedAffinity -4.48293734
REMARK minimizedRMSD -1
REMARK  0 active torsions:
REMARK  status: ('A' for Active; 'I' for Inactive)
ROOT
ATOM      1  C1  BNZ d   1      -4.410  -3.865  -2.068  0.00  0.00     0.000 A 
ATOM      2  C2  BNZ d   1      -5.372  -3.844  -1.094  0.00  0.00     0.000 A 
ATOM      3  C3  BNZ d   1      -5.283  -2.976  -0.041  0.00  0.00     0.000 A 
ATOM      4  C4  BNZ d   1      -4.214  -2.160   0.057  0.00  0.00     0.000 A 
ATOM      5  C5  BNZ d   1      -3.231  -2.176  -0.913  0.00  0.00     0.000 A 
ATOM      6  C6  BNZ d   1      -3.343  -3.023  -1.991  0.00  0.00     0.000 A 
ENDROOT
TORSDOF 0
ENDMDL
