MODEL 1
REMARK minimizedAffinity -0.026158791
REMARK minimizedRMSD -1
REMARK  0 active torsions:
REMARK  status: ('A' for Active; 'I' for Inactive)
ROOT
ATOM      1  C1  BNZ d   1      -1.121  -2.270  -4.831  0.00  0.00     0.000 A 
ATOM      2  C2  BNZ d   1      -1.743  -2.639  -5.994  0.00  0.00     0.000 A 
ATOM      3  C3  BNZ d   1      -2.733  -3.582  -5.989  0.00  0.00     0.000 A 
ATOM      4  C4  BNZ d   1      -3.072  -4.182  -4.830  0.00  0.00     0.000 A 
ATOM      5  C5  BNZ d   1      -2.447  -3.827  -3.651  0.00  0.00     0.000 A 
ATOM      6  C6  BNZ d   1      -1.478  -2.850  -3.653  0.00  0.00     0.000 A 
ENDROOT
TORSDOF 0
ENDMDL
