MODEL 1
REMARK minimizedAffinity -2.02751374
REMARK minimizedRMSD -1
REMARK  0 active torsions:
REMARK  status: ('A' for Active; 'I' for Inactive)
ROOT
ATOM      1  C1  BNZ d   1       6.000   3.208  -3.649  0.00  0.00     0.000 A 
ATOM      2  C2  BNZ d   1       5.987   1.839  -3.628  0.00  0.00     0.000 A 
ATOM      3  C3  BNZ d   1       5.895   1.122  -4.789  0.00  0.00     0.000 A 
ATOM      4  C4  BNZ d   1       5.776   1.774  -5.963  0.00  0.00     0.000 A 
ATOM      5  C5  BNZ d   1       5.778   3.154  -6.000  0.00  0.00     0.000 A 
ATOM      6  C6  BNZ d   1       5.910   3.872  -4.834  0.00  0.00     0.000 A 
ENDROOT
TORSDOF 0
ENDMDL
