MODEL 1
REMARK minimizedAffinity 3.15562654
REMARK minimizedRMSD -1
REMARK  0 active torsions:
REMARK  status: ('A' for Active; 'I' for Inactive)
ROOT
ATOM      1  C1  BNZ d   1       3.674   2.318  -5.994  0.00  0.00     0.000 A 
ATOM      2  C2  BNZ d   1       4.971   2.757  -5.993  0.00  0.00     0.000 A 
ATOM      3  C3  BNZ d   1       5.991   1.927  -5.619  0.00  0.00     0.000 A 
ATOM      4  C4  BNZ d   1       5.709   0.673  -5.210  0.00  0.00     0.000 A 
ATOM      5  C5  BNZ d   1       4.405   0.219  -5.197  0.00  0.00     0.000 A 
ATOM      6  C6  BNZ d   1       3.385   1.044  -5.610  0.00  0.00     0.000 A 
ENDROOT
TORSDOF 0
ENDMDL
