MODEL 1
REMARK minimizedAffinity 4.82845259
REMARK minimizedRMSD -1
REMARK  0 active torsions:
REMARK  status: ('A' for Active; 'I' for Inactive)
ROOT
ATOM      1  C1  BNZ d   1       1.238   5.334  -5.985  0.00  0.00     0.000 A 
ATOM      2  C2  BNZ d   1       0.773   4.046  -6.000  0.00  0.00     0.000 A 
ATOM      3  C3  BNZ d   1       1.640   2.989  -5.985  0.00  0.00     0.000 A 
ATOM      4  C4  BNZ d   1       2.968   3.221  -5.996  0.00  0.00     0.000 A 
ATOM      5  C5  BNZ d   1       3.452   4.514  -5.990  0.00  0.00     0.000 A 
ATOM      6  C6  BNZ d   1       2.577   5.575  -5.966  0.00  0.00     0.000 A 
ENDROOT
TORSDOF 0
ENDMDL
