MODEL 1
REMARK minimizedAffinity 2.64825773
REMARK minimizedRMSD -1
REMARK  0 active torsions:
REMARK  status: ('A' for Active; 'I' for Inactive)
ROOT
ATOM      1  C1  BNZ d   1       3.016   2.119  -6.000  0.00  0.00     0.000 A 
ATOM      2  C2  BNZ d   1       2.192   3.213  -6.000  0.00  0.00     0.000 A 
ATOM      3  C3  BNZ d   1       2.103   4.022  -4.901  0.00  0.00     0.000 A 
ATOM      4  C4  BNZ d   1       2.806   3.713  -3.792  0.00  0.00     0.000 A 
ATOM      5  C5  BNZ d   1       3.633   2.609  -3.774  0.00  0.00     0.000 A 
ATOM      6  C6  BNZ d   1       3.750   1.819  -4.894  0.00  0.00     0.000 A 
ENDROOT
TORSDOF 0
ENDMDL
