MODEL 1
REMARK minimizedAffinity 0.52191776
REMARK minimizedRMSD -1
REMARK  0 active torsions:
REMARK  status: ('A' for Active; 'I' for Inactive)
ROOT
ATOM      1  C1  BNZ d   1       4.015   2.135  -0.434  0.00  0.00     0.000 A 
ATOM      2  C2  BNZ d   1       4.594   1.048   0.165  0.00  0.00     0.000 A 
ATOM      3  C3  BNZ d   1       4.056   0.503   1.296  0.00  0.00     0.000 A 
ATOM      4  C4  BNZ d   1       2.964   1.069   1.850  0.00  0.00     0.000 A 
ATOM      5  C5  BNZ d   1       2.374   2.171   1.264  0.00  0.00     0.000 A 
ATOM      6  C6  BNZ d   1       2.896   2.693   0.103  0.00  0.00     0.000 A 
ENDROOT
TORSDOF 0
ENDMDL
