MODEL 1
REMARK minimizedAffinity 1.42126155
REMARK minimizedRMSD -1
REMARK  0 active torsions:
REMARK  status: ('A' for Active; 'I' for Inactive)
ROOT
ATOM      1  C1  BNZ d   1      -1.877  -1.717  -1.268  0.00  0.00     0.000 A 
ATOM      2  C2  BNZ d   1      -1.518  -1.668   0.052  0.00  0.00     0.000 A 
ATOM      3  C3  BNZ d   1      -0.523  -2.470   0.537  0.00  0.00     0.000 A 
ATOM      4  C4  BNZ d   1       0.084  -3.347  -0.290  0.00  0.00     0.000 A 
ATOM      5  C5  BNZ d   1      -0.273  -3.414  -1.622  0.00  0.00     0.000 A 
ATOM      6  C6  BNZ d   1      -1.248  -2.577  -2.114  0.00  0.00     0.000 A 
ENDROOT
TORSDOF 0
ENDMDL
