MODEL 1
REMARK minimizedAffinity 6.33583021
REMARK minimizedRMSD -1
REMARK  0 active torsions:
REMARK  status: ('A' for Active; 'I' for Inactive)
ROOT
ATOM      1  C1  BNZ d   1      -2.144  -3.634  -6.000  0.00  0.00     0.000 A 
ATOM      2  C2  BNZ d   1      -2.626  -4.123  -4.815  0.00  0.00     0.000 A 
ATOM      3  C3  BNZ d   1      -2.195  -3.616  -3.621  0.00  0.00     0.000 A 
ATOM      4  C4  BNZ d   1      -1.254  -2.650  -3.613  0.00  0.00     0.000 A 
ATOM      5  C5  BNZ d   1      -0.751  -2.153  -4.799  0.00  0.00     0.000 A 
ATOM      6  C6  BNZ d   1      -1.216  -2.639  -5.999  0.00  0.00     0.000 A 
ENDROOT
TORSDOF 0
ENDMDL
