MODEL 1
REMARK minimizedAffinity 4.68035936
REMARK minimizedRMSD -1
REMARK  0 active torsions:
REMARK  status: ('A' for Active; 'I' for Inactive)
ROOT
ATOM      1  C1  BNZ d   1      -3.367  -3.738  -4.813  0.00  0.00     0.000 A 
ATOM      2  C2  BNZ d   1      -2.748  -3.421  -3.633  0.00  0.00     0.000 A 
ATOM      3  C3  BNZ d   1      -1.514  -2.834  -3.626  0.00  0.00     0.000 A 
ATOM      4  C4  BNZ d   1      -0.883  -2.602  -4.795  0.00  0.00     0.000 A 
ATOM      5  C5  BNZ d   1      -1.490  -2.925  -5.993  0.00  0.00     0.000 A 
ATOM      6  C6  BNZ d   1      -2.749  -3.480  -5.997  0.00  0.00     0.000 A 
ENDROOT
TORSDOF 0
ENDMDL
