MODEL 1
REMARK minimizedAffinity 4.51868677
REMARK minimizedRMSD -1
REMARK  0 active torsions:
REMARK  status: ('A' for Active; 'I' for Inactive)
ROOT
ATOM      1  C1  BNZ d   1      -1.482  -2.250  -5.671  0.00  0.00     0.000 A 
ATOM      2  C2  BNZ d   1      -1.142  -2.075  -4.356  0.00  0.00     0.000 A 
ATOM      3  C3  BNZ d   1      -1.877  -2.654  -3.360  0.00  0.00     0.000 A 
ATOM      4  C4  BNZ d   1      -2.972  -3.374  -3.677  0.00  0.00     0.000 A 
ATOM      5  C5  BNZ d   1      -3.333  -3.553  -4.998  0.00  0.00     0.000 A 
ATOM      6  C6  BNZ d   1      -2.569  -3.000  -6.000  0.00  0.00     0.000 A 
ENDROOT
TORSDOF 0
ENDMDL
