MODEL 1
REMARK minimizedAffinity 38.4334526
REMARK minimizedRMSD -1
REMARK  0 active torsions:
REMARK  status: ('A' for Active; 'I' for Inactive)
ROOT
ATOM      1  C1  BNZ d   1      -1.182  -3.346  -0.201  0.00  0.00     0.000 A 
ATOM      2  C2  BNZ d   1      -1.302  -2.974   1.111  0.00  0.00     0.000 A 
ATOM      3  C3  BNZ d   1      -1.852  -1.769   1.450  0.00  0.00     0.000 A 
ATOM      4  C4  BNZ d   1      -2.243  -0.922   0.476  0.00  0.00     0.000 A 
ATOM      5  C5  BNZ d   1      -2.120  -1.279  -0.852  0.00  0.00     0.000 A 
ATOM      6  C6  BNZ d   1      -1.602  -2.508  -1.188  0.00  0.00     0.000 A 
ENDROOT
TORSDOF 0
ENDMDL
