MODEL 1
REMARK minimizedAffinity 6.88989115
REMARK minimizedRMSD -1
REMARK  0 active torsions:
REMARK  status: ('A' for Active; 'I' for Inactive)
ROOT
ATOM      1  C1  BNZ d   1      -1.915  -2.993  -6.000  0.00  0.00     0.000 A 
ATOM      2  C2  BNZ d   1      -1.229  -2.988  -4.814  0.00  0.00     0.000 A 
ATOM      3  C3  BNZ d   1      -1.895  -2.994  -3.621  0.00  0.00     0.000 A 
ATOM      4  C4  BNZ d   1      -3.244  -2.965  -3.613  0.00  0.00     0.000 A 
ATOM      5  C5  BNZ d   1      -3.949  -2.961  -4.800  0.00  0.00     0.000 A 
ATOM      6  C6  BNZ d   1      -3.276  -2.994  -6.000  0.00  0.00     0.000 A 
ENDROOT
TORSDOF 0
ENDMDL
