MODEL 1
REMARK minimizedAffinity 2.75236249
REMARK minimizedRMSD -1
REMARK  0 active torsions:
REMARK  status: ('A' for Active; 'I' for Inactive)
ROOT
ATOM      1  C1  BNZ d   1      -1.874  -3.511  -3.530  0.00  0.00     0.000 A 
ATOM      2  C2  BNZ d   1      -1.171  -3.137  -4.645  0.00  0.00     0.000 A 
ATOM      3  C3  BNZ d   1      -1.763  -3.135  -5.877  0.00  0.00     0.000 A 
ATOM      4  C4  BNZ d   1      -3.041  -3.545  -5.999  0.00  0.00     0.000 A 
ATOM      5  C5  BNZ d   1      -3.760  -3.935  -4.887  0.00  0.00     0.000 A 
ATOM      6  C6  BNZ d   1      -3.174  -3.898  -3.642  0.00  0.00     0.000 A 
ENDROOT
TORSDOF 0
ENDMDL
