MODEL 1
REMARK minimizedAffinity 2.34503603
REMARK minimizedRMSD -1
REMARK  0 active torsions:
REMARK  status: ('A' for Active; 'I' for Inactive)
ROOT
ATOM      1  C1  BNZ d   1      -3.571  -3.479  -4.869  0.00  0.00     0.000 A 
ATOM      2  C2  BNZ d   1      -2.846  -3.747  -5.999  0.00  0.00     0.000 A 
ATOM      3  C3  BNZ d   1      -1.481  -3.682  -5.988  0.00  0.00     0.000 A 
ATOM      4  C4  BNZ d   1      -0.845  -3.309  -4.859  0.00  0.00     0.000 A 
ATOM      5  C5  BNZ d   1      -1.562  -3.026  -3.713  0.00  0.00     0.000 A 
ATOM      6  C6  BNZ d   1      -2.934  -3.131  -3.718  0.00  0.00     0.000 A 
ENDROOT
TORSDOF 0
ENDMDL
