MODEL 1
REMARK minimizedAffinity 1.68904102
REMARK minimizedRMSD -1
REMARK  0 active torsions:
REMARK  status: ('A' for Active; 'I' for Inactive)
ROOT
ATOM      1  C1  BNZ d   1      -2.236  -3.613  -6.000  0.00  0.00     0.000 A 
ATOM      2  C2  BNZ d   1      -2.694  -4.126  -4.815  0.00  0.00     0.000 A 
ATOM      3  C3  BNZ d   1      -2.195  -3.685  -3.622  0.00  0.00     0.000 A 
ATOM      4  C4  BNZ d   1      -1.211  -2.762  -3.615  0.00  0.00     0.000 A 
ATOM      5  C5  BNZ d   1      -0.732  -2.242  -4.801  0.00  0.00     0.000 A 
ATOM      6  C6  BNZ d   1      -1.265  -2.660  -5.999  0.00  0.00     0.000 A 
ENDROOT
TORSDOF 0
ENDMDL
