MODEL 1
REMARK minimizedAffinity -1.06901968
REMARK minimizedRMSD -1
REMARK  0 active torsions:
REMARK  status: ('A' for Active; 'I' for Inactive)
ROOT
ATOM      1  C1  DEN d   1       0.518   0.231   0.059  0.00  0.00     0.130 A 
ATOM      2  C2  DEN d   1      -0.579  -0.223   0.908  0.00  0.00    -0.031 A 
ATOM      3  C3  DEN d   1      -1.831   0.361   0.387  0.00  0.00     0.027 A 
ATOM      4  C4  DEN d   1      -2.175   1.914  -1.644  0.00  0.00     0.027 A 
ATOM      5  C5  DEN d   1      -1.539   2.583  -2.666  0.00  0.00    -0.003 A 
ATOM      6  C6  DEN d   1      -0.179   2.543  -2.829  0.00  0.00     0.001 A 
ATOM      7  C7  DEN d   1       0.584   1.782  -1.984  0.00  0.00     0.017 A 
ATOM      8  C8  DEN d   1      -0.050   1.110  -0.947  0.00  0.00    -0.094 A 
ATOM      9  C9  DEN d   1      -1.427   1.153  -0.806  0.00  0.00    -0.072 A 
ENDROOT
TORSDOF 0
ENDMDL
