MODEL 1
REMARK minimizedAffinity -0.29746893
REMARK minimizedRMSD -1
REMARK  0 active torsions:
REMARK  status: ('A' for Active; 'I' for Inactive)
ROOT
ATOM      1  C1  DEN d   1      -1.187   2.256  -2.644  0.00  0.00     0.130 A 
ATOM      2  C2  DEN d   1      -0.235   3.350  -2.469  0.00  0.00    -0.031 A 
ATOM      3  C3  DEN d   1       0.521   3.103  -1.225  0.00  0.00     0.027 A 
ATOM      4  C4  DEN d   1       0.315   1.140   0.436  0.00  0.00     0.027 A 
ATOM      5  C5  DEN d   1      -0.361  -0.026   0.717  0.00  0.00    -0.003 A 
ATOM      6  C6  DEN d   1      -1.375  -0.492  -0.077  0.00  0.00     0.001 A 
ATOM      7  C7  DEN d   1      -1.711   0.189  -1.217  0.00  0.00     0.017 A 
ATOM      8  C8  DEN d   1      -1.039   1.369  -1.504  0.00  0.00    -0.094 A 
ATOM      9  C9  DEN d   1      -0.009   1.817  -0.694  0.00  0.00    -0.072 A 
ENDROOT
TORSDOF 0
ENDMDL
