MODEL 1
REMARK minimizedAffinity -3.95871663
REMARK minimizedRMSD -1
REMARK  0 active torsions:
REMARK  status: ('A' for Active; 'I' for Inactive)
ROOT
ATOM      1  C1  DEN d   1       0.368   2.578  -3.194  0.00  0.00     0.130 A 
ATOM      2  C2  DEN d   1      -0.238   3.717  -2.509  0.00  0.00    -0.031 A 
ATOM      3  C3  DEN d   1      -0.898   3.215  -1.287  0.00  0.00     0.027 A 
ATOM      4  C4  DEN d   1      -1.034   0.801  -0.390  0.00  0.00     0.027 A 
ATOM      5  C5  DEN d   1      -0.681  -0.508  -0.633  0.00  0.00    -0.003 A 
ATOM      6  C6  DEN d   1       0.011  -0.882  -1.754  0.00  0.00     0.001 A 
ATOM      7  C7  DEN d   1       0.412   0.071  -2.653  0.00  0.00     0.017 A 
ATOM      8  C8  DEN d   1       0.054   1.392  -2.419  0.00  0.00    -0.094 A 
ATOM      9  C9  DEN d   1      -0.636   1.751  -1.274  0.00  0.00    -0.072 A 
ENDROOT
TORSDOF 0
ENDMDL
