MODEL 1
REMARK minimizedAffinity -1.87401712
REMARK minimizedRMSD -1
REMARK  0 active torsions:
REMARK  status: ('A' for Active; 'I' for Inactive)
ROOT
ATOM      1  C1  DEN d   1       2.099  -1.853  -0.355  0.00  0.00     0.130 A 
ATOM      2  C2  DEN d   1       2.694  -2.720   0.658  0.00  0.00    -0.031 A 
ATOM      3  C3  DEN d   1       1.913  -2.570   1.903  0.00  0.00     0.027 A 
ATOM      4  C4  DEN d   1      -0.152  -1.092   2.354  0.00  0.00     0.027 A 
ATOM      5  C5  DEN d   1      -1.015  -0.171   1.803  0.00  0.00    -0.003 A 
ATOM      6  C6  DEN d   1      -0.882   0.276   0.515  0.00  0.00     0.001 A 
ATOM      7  C7  DEN d   1       0.111  -0.232  -0.280  0.00  0.00     0.017 A 
ATOM      8  C8  DEN d   1       0.991  -1.155   0.271  0.00  0.00    -0.094 A 
ATOM      9  C9  DEN d   1       0.832  -1.603   1.571  0.00  0.00    -0.072 A 
ENDROOT
TORSDOF 0
ENDMDL
