MODEL 1
REMARK minimizedAffinity -2.84304023
REMARK minimizedRMSD -1
REMARK  0 active torsions:
REMARK  status: ('A' for Active; 'I' for Inactive)
ROOT
ATOM      1  C1  DEN d   1       1.750  -2.412   2.011  0.00  0.00     0.130 A 
ATOM      2  C2  DEN d   1       2.582  -2.766   0.865  0.00  0.00    -0.031 A 
ATOM      3  C3  DEN d   1       2.070  -2.037  -0.313  0.00  0.00     0.027 A 
ATOM      4  C4  DEN d   1       0.085  -0.398  -0.470  0.00  0.00     0.027 A 
ATOM      5  C5  DEN d   1      -0.930   0.207   0.238  0.00  0.00    -0.003 A 
ATOM      6  C6  DEN d   1      -1.141  -0.042   1.568  0.00  0.00     0.001 A 
ATOM      7  C7  DEN d   1      -0.299  -0.885   2.243  0.00  0.00     0.017 A 
ATOM      8  C8  DEN d   1       0.722  -1.505   1.534  0.00  0.00    -0.094 A 
ATOM      9  C9  DEN d   1       0.927  -1.231   0.193  0.00  0.00    -0.072 A 
ENDROOT
TORSDOF 0
ENDMDL
