MODEL 1
REMARK minimizedAffinity -4.09341145
REMARK minimizedRMSD -1
REMARK  0 active torsions:
REMARK  status: ('A' for Active; 'I' for Inactive)
ROOT
ATOM      1  C   UNL d   1      -1.138   1.383   2.466  0.00  0.00    -0.002 A 
ATOM      2  C1  UNL d   1       0.165   1.223   2.916  0.00  0.00     0.010 A 
ATOM      3  C2  UNL d   1       1.114   0.572   2.125  0.00  0.00     0.041 A 
ATOM      4  C3  UNL d   1       0.728   0.083   0.861  0.00  0.00    -0.075 A 
ATOM      5  S   UNL d   1       1.721  -0.746  -0.279  0.00  0.00     0.015 SA
ATOM      6  C4  UNL d   1       0.439  -0.905  -1.391  0.00  0.00     0.022 A 
ATOM      7  C5  UNL d   1      -0.725  -0.347  -0.919  0.00  0.00     0.026 A 
ATOM      8  C6  UNL d   1      -0.578   0.233   0.387  0.00  0.00    -0.082 A 
ATOM      9  C7  UNL d   1      -1.517   0.896   1.212  0.00  0.00     0.045 A 
ENDROOT
TORSDOF 0
ENDMDL
