MODEL 1
REMARK minimizedAffinity -0.999815822
REMARK minimizedRMSD -1
REMARK  0 active torsions:
REMARK  status: ('A' for Active; 'I' for Inactive)
ROOT
ATOM      1  C   UNL d   1      -1.852   0.805   2.884  0.00  0.00    -0.002 A 
ATOM      2  C1  UNL d   1      -2.726   0.275   1.946  0.00  0.00     0.010 A 
ATOM      3  C2  UNL d   1      -2.247  -0.236   0.738  0.00  0.00     0.041 A 
ATOM      4  C3  UNL d   1      -0.861  -0.208   0.488  0.00  0.00    -0.075 A 
ATOM      5  S   UNL d   1      -0.047  -0.779  -0.921  0.00  0.00     0.015 SA
ATOM      6  C4  UNL d   1       1.480  -0.333  -0.310  0.00  0.00     0.022 A 
ATOM      7  C5  UNL d   1       1.390   0.239   0.937  0.00  0.00     0.026 A 
ATOM      8  C6  UNL d   1       0.039   0.320   1.418  0.00  0.00    -0.082 A 
ATOM      9  C7  UNL d   1      -0.478   0.832   2.632  0.00  0.00     0.045 A 
ENDROOT
TORSDOF 0
ENDMDL
