MODEL 1
REMARK minimizedAffinity 2.21383429
REMARK minimizedRMSD -1
REMARK  0 active torsions:
REMARK  status: ('A' for Active; 'I' for Inactive)
ROOT
ATOM      1  C   UNL d   1       0.567  -0.138  -4.296  0.00  0.00    -0.002 A 
ATOM      2  C1  UNL d   1       1.255   1.030  -3.998  0.00  0.00     0.010 A 
ATOM      3  C2  UNL d   1       1.517   1.381  -2.672  0.00  0.00     0.041 A 
ATOM      4  C3  UNL d   1       1.074   0.530  -1.641  0.00  0.00    -0.075 A 
ATOM      5  S   UNL d   1       1.283   0.756   0.055  0.00  0.00     0.015 SA
ATOM      6  C4  UNL d   1       0.464  -0.693   0.425  0.00  0.00     0.022 A 
ATOM      7  C5  UNL d   1       0.035  -1.345  -0.707  0.00  0.00     0.026 A 
ATOM      8  C6  UNL d   1       0.380  -0.652  -1.916  0.00  0.00    -0.082 A 
ATOM      9  C7  UNL d   1       0.129  -0.980  -3.270  0.00  0.00     0.045 A 
ENDROOT
TORSDOF 0
ENDMDL
