MODEL 1
REMARK minimizedAffinity -4.08691978
REMARK minimizedRMSD -1
REMARK  0 active torsions:
REMARK  status: ('A' for Active; 'I' for Inactive)
ROOT
ATOM      1  C   UNL d   1      -1.130   1.431   2.755  0.00  0.00    -0.002 A 
ATOM      2  C1  UNL d   1      -2.149   1.222   1.835  0.00  0.00     0.010 A 
ATOM      3  C2  UNL d   1      -1.891   0.579   0.623  0.00  0.00     0.041 A 
ATOM      4  C3  UNL d   1      -0.580   0.143   0.349  0.00  0.00    -0.075 A 
ATOM      5  S   UNL d   1      -0.030  -0.669  -1.070  0.00  0.00     0.015 SA
ATOM      6  C4  UNL d   1       1.570  -0.759  -0.488  0.00  0.00     0.022 A 
ATOM      7  C5  UNL d   1       1.699  -0.189   0.756  0.00  0.00     0.026 A 
ATOM      8  C6  UNL d   1       0.462   0.340   1.259  0.00  0.00    -0.082 A 
ATOM      9  C7  UNL d   1       0.169   0.996   2.479  0.00  0.00     0.045 A 
ENDROOT
TORSDOF 0
ENDMDL
