MODEL 1
REMARK minimizedAffinity -1.48834395
REMARK minimizedRMSD -1
REMARK  0 active torsions:
REMARK  status: ('A' for Active; 'I' for Inactive)
ROOT
ATOM      1  C   UNL d   1       0.253   1.153   3.017  0.00  0.00    -0.002 A 
ATOM      2  C1  UNL d   1       1.274   0.648   2.225  0.00  0.00     0.010 A 
ATOM      3  C2  UNL d   1       0.988   0.018   1.013  0.00  0.00     0.041 A 
ATOM      4  C3  UNL d   1      -0.355  -0.096   0.604  0.00  0.00    -0.075 A 
ATOM      5  S   UNL d   1      -0.944  -0.827  -0.842  0.00  0.00     0.015 SA
ATOM      6  C4  UNL d   1      -2.565  -0.486  -0.443  0.00  0.00     0.022 A 
ATOM      7  C5  UNL d   1      -2.674   0.169   0.761  0.00  0.00     0.026 A 
ATOM      8  C6  UNL d   1      -1.402   0.405   1.384  0.00  0.00    -0.082 A 
ATOM      9  C7  UNL d   1      -1.079   1.038   2.609  0.00  0.00     0.045 A 
ENDROOT
TORSDOF 0
ENDMDL
