MODEL 1
REMARK minimizedAffinity 6.35222578
REMARK minimizedRMSD -1
REMARK  0 active torsions:
REMARK  status: ('A' for Active; 'I' for Inactive)
ROOT
ATOM      1  C4' PXY d   1       5.833  -3.767   1.146  0.00  0.00     0.077 C 
ATOM      2  C1' PXY d   1       0.751  -1.020   0.939  0.00  0.00     0.077 C 
ATOM      3  C1  PXY d   1       2.088  -1.733   0.983  0.00  0.00    -0.082 A 
ATOM      4  C2  PXY d   1       2.164  -2.948   1.502  0.00  0.00     0.003 A 
ATOM      5  C3  PXY d   1       3.371  -3.595   1.579  0.00  0.00     0.003 A 
ATOM      6  C4  PXY d   1       4.502  -3.013   1.072  0.00  0.00    -0.082 A 
ATOM      7  C5  PXY d   1       4.430  -1.778   0.531  0.00  0.00     0.003 A 
ATOM      8  C6  PXY d   1       3.203  -1.122   0.500  0.00  0.00     0.003 A 
ENDROOT
TORSDOF 0
ENDMDL
