MODEL 1
REMARK minimizedAffinity 3.01840043
REMARK minimizedRMSD -1
REMARK  0 active torsions:
REMARK  status: ('A' for Active; 'I' for Inactive)
ROOT
ATOM      1  C4' PXY d   1       3.237   5.051   5.967  0.00  0.00     0.077 C 
ATOM      2  C1' PXY d   1       5.953   5.998   0.954  0.00  0.00     0.077 C 
ATOM      3  C1  PXY d   1       5.230   5.754   2.263  0.00  0.00    -0.082 A 
ATOM      4  C2  PXY d   1       5.904   5.797   3.401  0.00  0.00     0.003 A 
ATOM      5  C3  PXY d   1       5.271   5.547   4.591  0.00  0.00     0.003 A 
ATOM      6  C4  PXY d   1       3.925   5.302   4.622  0.00  0.00    -0.082 A 
ATOM      7  C5  PXY d   1       3.228   5.266   3.467  0.00  0.00     0.003 A 
ATOM      8  C6  PXY d   1       3.896   5.482   2.265  0.00  0.00     0.003 A 
ENDROOT
TORSDOF 0
ENDMDL
