MODEL 1
REMARK minimizedAffinity 4.3457551
REMARK minimizedRMSD -1
REMARK  0 active torsions:
REMARK  status: ('A' for Active; 'I' for Inactive)
ROOT
ATOM      1  C4' PXY d   1       6.000   5.549   3.579  0.00  0.00     0.077 C 
ATOM      2  C1' PXY d   1       0.770   5.095   6.000  0.00  0.00     0.077 C 
ATOM      3  C1  PXY d   1       2.139   5.203   5.358  0.00  0.00    -0.082 A 
ATOM      4  C2  PXY d   1       3.106   5.856   5.984  0.00  0.00     0.003 A 
ATOM      5  C3  PXY d   1       4.340   5.990   5.403  0.00  0.00     0.003 A 
ATOM      6  C4  PXY d   1       4.605   5.406   4.194  0.00  0.00    -0.082 A 
ATOM      7  C5  PXY d   1       3.627   4.730   3.553  0.00  0.00     0.003 A 
ATOM      8  C6  PXY d   1       2.369   4.640   4.141  0.00  0.00     0.003 A 
ENDROOT
TORSDOF 0
ENDMDL
