MODEL 1
REMARK minimizedAffinity -1.72311044
REMARK minimizedRMSD -1
REMARK  0 active torsions:
REMARK  status: ('A' for Active; 'I' for Inactive)
ROOT
ATOM      1  C4' PXY d   1       5.969   6.000   5.988  0.00  0.00     0.077 C 
ATOM      2  C1' PXY d   1       0.896   4.428   3.705  0.00  0.00     0.077 C 
ATOM      3  C1  PXY d   1       2.221   4.851   4.310  0.00  0.00    -0.082 A 
ATOM      4  C2  PXY d   1       3.352   4.476   3.734  0.00  0.00     0.003 A 
ATOM      5  C3  PXY d   1       4.559   4.822   4.285  0.00  0.00     0.003 A 
ATOM      6  C4  PXY d   1       4.609   5.604   5.408  0.00  0.00    -0.082 A 
ATOM      7  C5  PXY d   1       3.459   5.999   5.995  0.00  0.00     0.003 A 
ATOM      8  C6  PXY d   1       2.245   5.603   5.443  0.00  0.00     0.003 A 
ENDROOT
TORSDOF 0
ENDMDL
