MODEL 1
REMARK minimizedAffinity 8.64716816
REMARK minimizedRMSD -1
REMARK  0 active torsions:
REMARK  status: ('A' for Active; 'I' for Inactive)
ROOT
ATOM      1  C4' PXY d   1       6.000   5.811   5.656  0.00  0.00     0.077 C 
ATOM      2  C1' PXY d   1       1.003   3.615   3.751  0.00  0.00     0.077 C 
ATOM      3  C1  PXY d   1       2.318   4.191   4.238  0.00  0.00    -0.082 A 
ATOM      4  C2  PXY d   1       2.684   4.013   5.497  0.00  0.00     0.003 A 
ATOM      5  C3  PXY d   1       3.855   4.554   5.963  0.00  0.00     0.003 A 
ATOM      6  C4  PXY d   1       4.685   5.239   5.118  0.00  0.00    -0.082 A 
ATOM      7  C5  PXY d   1       4.325   5.416   3.829  0.00  0.00     0.003 A 
ATOM      8  C6  PXY d   1       3.113   4.894   3.386  0.00  0.00     0.003 A 
ENDROOT
TORSDOF 0
ENDMDL
