MODEL 1
REMARK minimizedAffinity 2.68201828
REMARK minimizedRMSD -1
REMARK  0 active torsions:
REMARK  status: ('A' for Active; 'I' for Inactive)
ROOT
ATOM      1  C4' PXY d   1       0.701   4.493   3.697  0.00  0.00     0.077 C 
ATOM      2  C1' PXY d   1       5.895   6.000   5.740  0.00  0.00     0.077 C 
ATOM      3  C1  PXY d   1       4.534   5.613   5.194  0.00  0.00    -0.082 A 
ATOM      4  C2  PXY d   1       3.639   5.064   5.999  0.00  0.00     0.003 A 
ATOM      5  C3  PXY d   1       2.415   4.679   5.515  0.00  0.00     0.003 A 
ATOM      6  C4  PXY d   1       2.085   4.908   4.206  0.00  0.00    -0.082 A 
ATOM      7  C5  PXY d   1       2.989   5.478   3.381  0.00  0.00     0.003 A 
ATOM      8  C6  PXY d   1       4.240   5.823   3.883  0.00  0.00     0.003 A 
ENDROOT
TORSDOF 0
ENDMDL
