MODEL 1
REMARK minimizedAffinity 1.61523151
REMARK minimizedRMSD -1
REMARK  0 active torsions:
REMARK  status: ('A' for Active; 'I' for Inactive)
ROOT
ATOM      1  C4' PXY d   1       0.752   4.307   3.954  0.00  0.00     0.077 C 
ATOM      2  C1' PXY d   1       5.984   5.999   5.735  0.00  0.00     0.077 C 
ATOM      3  C1  PXY d   1       4.607   5.557   5.280  0.00  0.00    -0.082 A 
ATOM      4  C2  PXY d   1       4.485   4.822   4.187  0.00  0.00     0.003 A 
ATOM      5  C3  PXY d   1       3.245   4.440   3.744  0.00  0.00     0.003 A 
ATOM      6  C4  PXY d   1       2.123   4.769   4.456  0.00  0.00    -0.082 A 
ATOM      7  C5  PXY d   1       2.240   5.509   5.578  0.00  0.00     0.003 A 
ATOM      8  C6  PXY d   1       3.505   5.922   5.989  0.00  0.00     0.003 A 
ENDROOT
TORSDOF 0
ENDMDL
