MODEL 1
REMARK minimizedAffinity 10.290391
REMARK minimizedRMSD -1
REMARK  0 active torsions:
REMARK  status: ('A' for Active; 'I' for Inactive)
ROOT
ATOM      1  C4' PXY d   1       0.152   5.245  -6.000  0.00  0.00     0.077 C 
ATOM      2  C1' PXY d   1      -5.245   3.752  -4.565  0.00  0.00     0.077 C 
ATOM      3  C1  PXY d   1      -3.833   4.156  -4.939  0.00  0.00    -0.082 A 
ATOM      4  C2  PXY d   1      -3.094   3.344  -5.678  0.00  0.00     0.003 A 
ATOM      5  C3  PXY d   1      -1.804   3.679  -5.999  0.00  0.00     0.003 A 
ATOM      6  C4  PXY d   1      -1.283   4.883  -5.605  0.00  0.00    -0.082 A 
ATOM      7  C5  PXY d   1      -2.034   5.721  -4.860  0.00  0.00     0.003 A 
ATOM      8  C6  PXY d   1      -3.327   5.344  -4.510  0.00  0.00     0.003 A 
ENDROOT
TORSDOF 0
ENDMDL
