MODEL 1
REMARK minimizedAffinity -4.0109086
REMARK minimizedRMSD -1
REMARK  0 active torsions:
REMARK  status: ('A' for Active; 'I' for Inactive)
ROOT
ATOM      1  C4' PXY d   1      -1.319   5.612   5.116  0.00  0.00     0.077 C 
ATOM      2  C1' PXY d   1       4.354   5.313   4.047  0.00  0.00     0.077 C 
ATOM      3  C1  PXY d   1       2.864   5.391   4.315  0.00  0.00    -0.082 A 
ATOM      4  C2  PXY d   1       2.428   5.950   5.432  0.00  0.00     0.003 A 
ATOM      5  C3  PXY d   1       1.085   6.000   5.705  0.00  0.00     0.003 A 
ATOM      6  C4  PXY d   1       0.177   5.520   4.800  0.00  0.00    -0.082 A 
ATOM      7  C5  PXY d   1       0.613   4.958   3.653  0.00  0.00     0.003 A 
ATOM      8  C6  PXY d   1       1.982   4.880   3.414  0.00  0.00     0.003 A 
ENDROOT
TORSDOF 0
ENDMDL
