MODEL 1
REMARK minimizedAffinity 13.7398596
REMARK minimizedRMSD -1
REMARK  0 active torsions:
REMARK  status: ('A' for Active; 'I' for Inactive)
ROOT
ATOM      1  C4' PXY d   1      -0.601  -1.133  -1.584  0.00  0.00     0.077 C 
ATOM      2  C1' PXY d   1      -6.000   0.038  -3.287  0.00  0.00     0.077 C 
ATOM      3  C1  PXY d   1      -4.582  -0.257  -2.837  0.00  0.00    -0.082 A 
ATOM      4  C2  PXY d   1      -3.933  -1.288  -3.352  0.00  0.00     0.003 A 
ATOM      5  C3  PXY d   1      -2.663  -1.588  -2.933  0.00  0.00     0.003 A 
ATOM      6  C4  PXY d   1      -2.030  -0.793  -2.016  0.00  0.00    -0.082 A 
ATOM      7  C5  PXY d   1      -2.682   0.268  -1.493  0.00  0.00     0.003 A 
ATOM      8  C6  PXY d   1      -3.986   0.531  -1.902  0.00  0.00     0.003 A 
ENDROOT
TORSDOF 0
ENDMDL
