MODEL 1
REMARK minimizedAffinity 4.70704699
REMARK minimizedRMSD -1
REMARK  0 active torsions:
REMARK  status: ('A' for Active; 'I' for Inactive)
ROOT
ATOM      1  C4' PXY d   1       0.611   4.500   3.801  0.00  0.00     0.077 C 
ATOM      2  C1' PXY d   1       5.996   5.997   5.276  0.00  0.00     0.077 C 
ATOM      3  C1  PXY d   1       4.580   5.605   4.902  0.00  0.00    -0.082 A 
ATOM      4  C2  PXY d   1       4.366   4.893   3.808  0.00  0.00     0.003 A 
ATOM      5  C3  PXY d   1       3.089   4.558   3.437  0.00  0.00     0.003 A 
ATOM      6  C4  PXY d   1       2.025   4.910   4.223  0.00  0.00    -0.082 A 
ATOM      7  C5  PXY d   1       2.236   5.628   5.347  0.00  0.00     0.003 A 
ATOM      8  C6  PXY d   1       3.536   5.993   5.683  0.00  0.00     0.003 A 
ENDROOT
TORSDOF 0
ENDMDL
