MODEL 1
REMARK minimizedAffinity 24.7767143
REMARK minimizedRMSD -1
REMARK  0 active torsions:
REMARK  status: ('A' for Active; 'I' for Inactive)
ROOT
ATOM      1  C   UNL d   1       4.381  -0.533   5.142  0.00  0.00     0.124 A 
ATOM      2  C1  UNL d   1       4.265   0.580   4.320  0.00  0.00     0.062 A 
ATOM      3  C2  UNL d   1       3.114   0.773   3.562  0.00  0.00     0.162 A 
ATOM      4  C3  UNL d   1       2.069  -0.148   3.622  0.00  0.00    -0.034 A 
ATOM      5  C4  UNL d   1       2.193  -1.265   4.450  0.00  0.00     0.162 A 
ATOM      6  C5  UNL d   1       3.345  -1.454   5.206  0.00  0.00     0.062 A 
ATOM      7  F   UNL d   1       3.456  -2.529   6.000  0.00  0.00    -0.097 F 
ATOM      8  F1  UNL d   1       1.207  -2.171   4.532  0.00  0.00    -0.096 F 
ATOM      9  I   UNL d   1       0.346   0.137   2.490  0.00  0.00    -0.060 I 
ATOM     10  F2  UNL d   1       3.029   1.857   2.777  0.00  0.00    -0.096 F 
ATOM     11  F3  UNL d   1       5.265   1.471   4.256  0.00  0.00    -0.097 F 
ATOM     12  F4  UNL d   1       5.490  -0.717   5.870  0.00  0.00    -0.092 F 
ENDROOT
TORSDOF 0
ENDMDL
