MODEL 1
REMARK minimizedAffinity 12.2184877
REMARK minimizedRMSD -1
REMARK  0 active torsions:
REMARK  status: ('A' for Active; 'I' for Inactive)
ROOT
ATOM      1  C   UNL d   1      -1.176  -1.833  -1.474  0.00  0.00     0.124 A 
ATOM      2  C1  UNL d   1      -0.591  -1.299  -2.614  0.00  0.00     0.062 A 
ATOM      3  C2  UNL d   1      -0.625  -2.003  -3.814  0.00  0.00     0.162 A 
ATOM      4  C3  UNL d   1      -1.248  -3.249  -3.882  0.00  0.00    -0.034 A 
ATOM      5  C4  UNL d   1      -1.834  -3.781  -2.731  0.00  0.00     0.162 A 
ATOM      6  C5  UNL d   1      -1.797  -3.073  -1.534  0.00  0.00     0.062 A 
ATOM      7  F   UNL d   1      -2.363  -3.591  -0.434  0.00  0.00    -0.097 F 
ATOM      8  F1  UNL d   1      -2.441  -4.976  -2.761  0.00  0.00    -0.096 F 
ATOM      9  I   UNL d   1      -1.301  -4.305  -5.674  0.00  0.00    -0.060 I 
ATOM     10  F2  UNL d   1      -0.051  -1.463  -4.899  0.00  0.00    -0.096 F 
ATOM     11  F3  UNL d   1       0.010  -0.102  -2.559  0.00  0.00    -0.097 F 
ATOM     12  F4  UNL d   1      -1.141  -1.154  -0.321  0.00  0.00    -0.092 F 
ENDROOT
TORSDOF 0
ENDMDL
