MODEL 1
REMARK minimizedAffinity 10.8352146
REMARK minimizedRMSD -1
REMARK  0 active torsions:
REMARK  status: ('A' for Active; 'I' for Inactive)
ROOT
ATOM      1  C   UNL d   1      -0.326  -1.118  -2.556  0.00  0.00     0.124 A 
ATOM      2  C1  UNL d   1      -0.152  -1.131  -3.933  0.00  0.00     0.062 A 
ATOM      3  C2  UNL d   1      -0.484  -2.264  -4.670  0.00  0.00     0.162 A 
ATOM      4  C3  UNL d   1      -0.994  -3.394  -4.031  0.00  0.00    -0.034 A 
ATOM      5  C4  UNL d   1      -1.164  -3.374  -2.646  0.00  0.00     0.162 A 
ATOM      6  C5  UNL d   1      -0.831  -2.239  -1.914  0.00  0.00     0.062 A 
ATOM      7  F   UNL d   1      -0.999  -2.229  -0.583  0.00  0.00    -0.097 F 
ATOM      8  F1  UNL d   1      -1.652  -4.444  -2.000  0.00  0.00    -0.096 F 
ATOM      9  I   UNL d   1      -1.491  -5.091  -5.129  0.00  0.00    -0.060 I 
ATOM     10  F2  UNL d   1      -0.306  -2.248  -5.999  0.00  0.00    -0.096 F 
ATOM     11  F3  UNL d   1       0.337  -0.049  -4.556  0.00  0.00    -0.097 F 
ATOM     12  F4  UNL d   1      -0.005  -0.027  -1.849  0.00  0.00    -0.092 F 
ENDROOT
TORSDOF 0
ENDMDL
