MODEL 1
REMARK minimizedAffinity 12.6837845
REMARK minimizedRMSD -1
REMARK  0 active torsions:
REMARK  status: ('A' for Active; 'I' for Inactive)
ROOT
ATOM      1  C   UNL d   1      -1.350  -0.348   1.298  0.00  0.00     0.124 A 
ATOM      2  C1  UNL d   1      -1.398   0.651   2.261  0.00  0.00     0.062 A 
ATOM      3  C2  UNL d   1      -0.404   0.735   3.231  0.00  0.00     0.162 A 
ATOM      4  C3  UNL d   1       0.647  -0.182   3.244  0.00  0.00    -0.034 A 
ATOM      5  C4  UNL d   1       0.687  -1.184   2.273  0.00  0.00     0.162 A 
ATOM      6  C5  UNL d   1      -0.308  -1.264   1.305  0.00  0.00     0.062 A 
ATOM      7  F   UNL d   1      -0.261  -2.230   0.375  0.00  0.00    -0.097 F 
ATOM      8  F1  UNL d   1       1.683  -2.083   2.256  0.00  0.00    -0.096 F 
ATOM      9  I   UNL d   1       2.135  -0.060   4.694  0.00  0.00    -0.060 I 
ATOM     10  F2  UNL d   1      -0.475   1.710   4.150  0.00  0.00    -0.096 F 
ATOM     11  F3  UNL d   1      -2.404   1.537   2.257  0.00  0.00    -0.097 F 
ATOM     12  F4  UNL d   1      -2.309  -0.427   0.366  0.00  0.00    -0.092 F 
ENDROOT
TORSDOF 0
ENDMDL
