MODEL 1
REMARK minimizedAffinity 15.9229116
REMARK minimizedRMSD -1
REMARK  0 active torsions:
REMARK  status: ('A' for Active; 'I' for Inactive)
ROOT
ATOM      1  C   UNL d   1      -2.536  -0.617   1.124  0.00  0.00     0.124 A 
ATOM      2  C1  UNL d   1      -3.397  -0.786   0.048  0.00  0.00     0.062 A 
ATOM      3  C2  UNL d   1      -4.075   0.306  -0.485  0.00  0.00     0.162 A 
ATOM      4  C3  UNL d   1      -3.894   1.579   0.056  0.00  0.00    -0.034 A 
ATOM      5  C4  UNL d   1      -3.027   1.742   1.138  0.00  0.00     0.162 A 
ATOM      6  C5  UNL d   1      -2.352   0.647   1.667  0.00  0.00     0.062 A 
ATOM      7  F   UNL d   1      -1.520   0.813   2.706  0.00  0.00    -0.097 F 
ATOM      8  F1  UNL d   1      -2.830   2.952   1.682  0.00  0.00    -0.096 F 
ATOM      9  I   UNL d   1      -4.906   3.215  -0.738  0.00  0.00    -0.060 I 
ATOM     10  F2  UNL d   1      -4.901   0.112  -1.524  0.00  0.00    -0.096 F 
ATOM     11  F3  UNL d   1      -3.577  -2.006  -0.478  0.00  0.00    -0.097 F 
ATOM     12  F4  UNL d   1      -1.886  -1.670   1.635  0.00  0.00    -0.092 F 
ENDROOT
TORSDOF 0
ENDMDL
