MODEL 1
REMARK minimizedAffinity 12.7161818
REMARK minimizedRMSD -1
REMARK  0 active torsions:
REMARK  status: ('A' for Active; 'I' for Inactive)
ROOT
ATOM      1  C   UNL d   1       0.376  -0.491  -3.317  0.00  0.00     0.124 A 
ATOM      2  C1  UNL d   1      -0.501  -1.063  -2.404  0.00  0.00     0.062 A 
ATOM      3  C2  UNL d   1      -1.129  -2.269  -2.699  0.00  0.00     0.162 A 
ATOM      4  C3  UNL d   1      -0.883  -2.913  -3.912  0.00  0.00    -0.034 A 
ATOM      5  C4  UNL d   1      -0.002  -2.331  -4.825  0.00  0.00     0.162 A 
ATOM      6  C5  UNL d   1       0.624  -1.125  -4.525  0.00  0.00     0.062 A 
ATOM      7  F   UNL d   1       1.470  -0.574  -5.408  0.00  0.00    -0.097 F 
ATOM      8  F1  UNL d   1       0.257  -2.923  -6.000  0.00  0.00    -0.096 F 
ATOM      9  I   UNL d   1      -1.821  -4.717  -4.356  0.00  0.00    -0.060 I 
ATOM     10  F2  UNL d   1      -1.971  -2.798  -1.799  0.00  0.00    -0.096 F 
ATOM     11  F3  UNL d   1      -0.743  -0.451  -1.236  0.00  0.00    -0.097 F 
ATOM     12  F4  UNL d   1       0.978   0.670  -3.031  0.00  0.00    -0.092 F 
ENDROOT
TORSDOF 0
ENDMDL
