MODEL 1
REMARK minimizedAffinity 17.2923126
REMARK minimizedRMSD -1
REMARK  0 active torsions:
REMARK  status: ('A' for Active; 'I' for Inactive)
ROOT
ATOM      1  C   UNL d   1       2.436  -1.444   4.813  0.00  0.00     0.124 A 
ATOM      2  C1  UNL d   1       1.673  -2.583   4.594  0.00  0.00     0.062 A 
ATOM      3  C2  UNL d   1       0.595  -2.545   3.715  0.00  0.00     0.162 A 
ATOM      4  C3  UNL d   1       0.272  -1.363   3.048  0.00  0.00    -0.034 A 
ATOM      5  C4  UNL d   1       1.043  -0.222   3.274  0.00  0.00     0.162 A 
ATOM      6  C5  UNL d   1       2.120  -0.265   4.154  0.00  0.00     0.062 A 
ATOM      7  F   UNL d   1       2.855   0.837   4.365  0.00  0.00    -0.097 F 
ATOM      8  F1  UNL d   1       0.760   0.931   2.649  0.00  0.00    -0.096 F 
ATOM      9  I   UNL d   1      -1.340  -1.302   1.733  0.00  0.00    -0.060 I 
ATOM     10  F2  UNL d   1      -0.124  -3.661   3.522  0.00  0.00    -0.096 F 
ATOM     11  F3  UNL d   1       1.976  -3.724   5.231  0.00  0.00    -0.097 F 
ATOM     12  F4  UNL d   1       3.472  -1.483   5.660  0.00  0.00    -0.092 F 
ENDROOT
TORSDOF 0
ENDMDL
