MODEL 1
REMARK minimizedAffinity 14.0362253
REMARK minimizedRMSD -1
REMARK  0 active torsions:
REMARK  status: ('A' for Active; 'I' for Inactive)
ROOT
ATOM      1  C   UNL d   1       0.181  -1.108  -2.453  0.00  0.00     0.124 A 
ATOM      2  C1  UNL d   1       0.132  -0.825  -3.811  0.00  0.00     0.062 A 
ATOM      3  C2  UNL d   1      -0.476  -1.715  -4.691  0.00  0.00     0.162 A 
ATOM      4  C3  UNL d   1      -1.041  -2.898  -4.216  0.00  0.00    -0.034 A 
ATOM      5  C4  UNL d   1      -0.987  -3.178  -2.849  0.00  0.00     0.162 A 
ATOM      6  C5  UNL d   1      -0.378  -2.284  -1.974  0.00  0.00     0.062 A 
ATOM      7  F   UNL d   1      -0.332  -2.560  -0.662  0.00  0.00    -0.097 F 
ATOM      8  F1  UNL d   1      -1.521  -4.306  -2.359  0.00  0.00    -0.096 F 
ATOM      9  I   UNL d   1      -1.951  -4.233  -5.528  0.00  0.00    -0.060 I 
ATOM     10  F2  UNL d   1      -0.508  -1.415  -5.998  0.00  0.00    -0.096 F 
ATOM     11  F3  UNL d   1       0.673   0.311  -4.277  0.00  0.00    -0.097 F 
ATOM     12  F4  UNL d   1       0.768  -0.250  -1.609  0.00  0.00    -0.092 F 
ENDROOT
TORSDOF 0
ENDMDL
