MODEL 1
REMARK minimizedAffinity 22.2035866
REMARK minimizedRMSD -1
REMARK  0 active torsions:
REMARK  status: ('A' for Active; 'I' for Inactive)
ROOT
ATOM      1  C   UNL d   1       2.092  -0.890  -3.856  0.00  0.00     0.124 A 
ATOM      2  C1  UNL d   1       2.356  -1.559  -2.669  0.00  0.00     0.062 A 
ATOM      3  C2  UNL d   1       1.309  -1.992  -1.861  0.00  0.00     0.162 A 
ATOM      4  C3  UNL d   1      -0.013  -1.759  -2.238  0.00  0.00    -0.034 A 
ATOM      5  C4  UNL d   1      -0.272  -1.086  -3.433  0.00  0.00     0.162 A 
ATOM      6  C5  UNL d   1       0.778  -0.655  -4.237  0.00  0.00     0.062 A 
ATOM      7  F   UNL d   1       0.520  -0.009  -5.384  0.00  0.00    -0.097 F 
ATOM      8  F1  UNL d   1      -1.532  -0.845  -3.826  0.00  0.00    -0.096 F 
ATOM      9  I   UNL d   1      -1.582  -2.405  -1.033  0.00  0.00    -0.060 I 
ATOM     10  F2  UNL d   1       1.594  -2.635  -0.719  0.00  0.00    -0.096 F 
ATOM     11  F3  UNL d   1       3.625  -1.787  -2.298  0.00  0.00    -0.097 F 
ATOM     12  F4  UNL d   1       3.101  -0.474  -4.631  0.00  0.00    -0.092 F 
ENDROOT
TORSDOF 0
ENDMDL
