MODEL 1
REMARK minimizedAffinity 22.5254059
REMARK minimizedRMSD -1
REMARK  0 active torsions:
REMARK  status: ('A' for Active; 'I' for Inactive)
ROOT
ATOM      1  C   UNL d   1       0.007  -1.107  -2.916  0.00  0.00     0.124 A 
ATOM      2  C1  UNL d   1       0.177  -1.495  -4.238  0.00  0.00     0.062 A 
ATOM      3  C2  UNL d   1      -0.453  -2.640  -4.718  0.00  0.00     0.162 A 
ATOM      4  C3  UNL d   1      -1.260  -3.405  -3.875  0.00  0.00    -0.034 A 
ATOM      5  C4  UNL d   1      -1.425  -3.008  -2.546  0.00  0.00     0.162 A 
ATOM      6  C5  UNL d   1      -0.793  -1.864  -2.072  0.00  0.00     0.062 A 
ATOM      7  F   UNL d   1      -0.958  -1.490  -0.795  0.00  0.00    -0.097 F 
ATOM      8  F1  UNL d   1      -2.194  -3.721  -1.709  0.00  0.00    -0.096 F 
ATOM      9  I   UNL d   1      -2.204  -5.117  -4.588  0.00  0.00    -0.060 I 
ATOM     10  F2  UNL d   1      -0.272  -2.992  -5.999  0.00  0.00    -0.096 F 
ATOM     11  F3  UNL d   1       0.950  -0.767  -5.055  0.00  0.00    -0.097 F 
ATOM     12  F4  UNL d   1       0.616  -0.006  -2.457  0.00  0.00    -0.092 F 
ENDROOT
TORSDOF 0
ENDMDL
