MODEL 1
REMARK minimizedAffinity 27.8449364
REMARK minimizedRMSD -1
REMARK  0 active torsions:
REMARK  status: ('A' for Active; 'I' for Inactive)
ROOT
ATOM      1  C   UNL d   1      -2.905  -0.159   2.231  0.00  0.00     0.124 A 
ATOM      2  C1  UNL d   1      -2.809  -1.541   2.316  0.00  0.00     0.062 A 
ATOM      3  C2  UNL d   1      -1.602  -2.139   2.667  0.00  0.00     0.162 A 
ATOM      4  C3  UNL d   1      -0.481  -1.354   2.937  0.00  0.00    -0.034 A 
ATOM      5  C4  UNL d   1      -0.585   0.035   2.849  0.00  0.00     0.162 A 
ATOM      6  C5  UNL d   1      -1.794   0.627   2.498  0.00  0.00     0.062 A 
ATOM      7  F   UNL d   1      -1.884   1.963   2.416  0.00  0.00    -0.097 F 
ATOM      8  F1  UNL d   1       0.473   0.819   3.102  0.00  0.00    -0.096 F 
ATOM      9  I   UNL d   1       1.326  -2.244   3.463  0.00  0.00    -0.060 I 
ATOM     10  F2  UNL d   1      -1.538  -3.477   2.741  0.00  0.00    -0.096 F 
ATOM     11  F3  UNL d   1      -3.882  -2.304   2.058  0.00  0.00    -0.097 F 
ATOM     12  F4  UNL d   1      -4.068   0.413   1.892  0.00  0.00    -0.092 F 
ENDROOT
TORSDOF 0
ENDMDL
