MODEL 1
REMARK minimizedAffinity 20.8761711
REMARK minimizedRMSD -1
REMARK  0 active torsions:
REMARK  status: ('A' for Active; 'I' for Inactive)
ROOT
ATOM      1  C   UNL d   1       2.671  -0.129   2.964  0.00  0.00     0.124 A 
ATOM      2  C1  UNL d   1       3.870   0.300   3.517  0.00  0.00     0.062 A 
ATOM      3  C2  UNL d   1       4.702  -0.603   4.172  0.00  0.00     0.162 A 
ATOM      4  C3  UNL d   1       4.339  -1.946   4.277  0.00  0.00    -0.034 A 
ATOM      5  C4  UNL d   1       3.132  -2.370   3.719  0.00  0.00     0.162 A 
ATOM      6  C5  UNL d   1       2.303  -1.464   3.066  0.00  0.00     0.062 A 
ATOM      7  F   UNL d   1       1.146  -1.880   2.532  0.00  0.00    -0.097 F 
ATOM      8  F1  UNL d   1       2.752  -3.654   3.802  0.00  0.00    -0.096 F 
ATOM      9  I   UNL d   1       5.581  -3.300   5.255  0.00  0.00    -0.060 I 
ATOM     10  F2  UNL d   1       5.854  -0.161   4.697  0.00  0.00    -0.096 F 
ATOM     11  F3  UNL d   1       4.227   1.589   3.421  0.00  0.00    -0.097 F 
ATOM     12  F4  UNL d   1       1.872   0.742   2.336  0.00  0.00    -0.092 F 
ENDROOT
TORSDOF 0
ENDMDL
