MODEL 1
REMARK minimizedAffinity 1.13400877
REMARK minimizedRMSD -1
REMARK  0 active torsions:
REMARK  status: ('A' for Active; 'I' for Inactive)
ROOT
ATOM      1  C   UNL d   1      -2.309   0.747   1.229  0.00  0.00     0.172 C 
ATOM      2  N   UNL d   1      -1.087   0.375   0.554  0.00  0.00    -0.070 N 
ATOM      3  C1  UNL d   1      -0.245  -0.637   0.929  0.00  0.00    -0.004 A 
ATOM      4  C2  UNL d   1       0.801  -0.670   0.032  0.00  0.00    -0.047 A 
ATOM      5  C3  UNL d   1       0.581   0.360  -0.913  0.00  0.00    -0.047 A 
ATOM      6  C4  UNL d   1      -0.596   0.991  -0.566  0.00  0.00    -0.004 A 
ENDROOT
TORSDOF 0
ENDMDL
