MODEL 1
REMARK minimizedAffinity 1.27497947
REMARK minimizedRMSD -1
REMARK  0 active torsions:
REMARK  status: ('A' for Active; 'I' for Inactive)
ROOT
ATOM      1  C   UNL d   1      -1.042  -0.033  -0.216  0.00  0.00     0.172 C 
ATOM      2  N   UNL d   1       0.391  -0.010  -0.039  0.00  0.00    -0.070 N 
ATOM      3  C1  UNL d   1       1.259   0.845  -0.664  0.00  0.00    -0.004 A 
ATOM      4  C2  UNL d   1       2.532   0.547  -0.228  0.00  0.00    -0.047 A 
ATOM      5  C3  UNL d   1       2.426  -0.525   0.689  0.00  0.00    -0.047 A 
ATOM      6  C4  UNL d   1       1.089  -0.850   0.788  0.00  0.00    -0.004 A 
ENDROOT
TORSDOF 0
ENDMDL
