MODEL 1
REMARK minimizedAffinity 5.07097626
REMARK minimizedRMSD -1
REMARK  0 active torsions:
REMARK  status: ('A' for Active; 'I' for Inactive)
ROOT
ATOM      1  C   UNL d   1       1.848   1.443  -4.068  0.00  0.00     0.172 C 
ATOM      2  N   UNL d   1       0.709   0.558  -3.992  0.00  0.00    -0.070 N 
ATOM      3  C1  UNL d   1      -0.300   0.476  -4.914  0.00  0.00    -0.004 A 
ATOM      4  C2  UNL d   1      -1.191  -0.483  -4.480  0.00  0.00    -0.047 A 
ATOM      5  C3  UNL d   1      -0.700  -0.993  -3.255  0.00  0.00    -0.047 A 
ATOM      6  C4  UNL d   1       0.477  -0.331  -2.976  0.00  0.00    -0.004 A 
ENDROOT
TORSDOF 0
ENDMDL
