MODEL 1
REMARK minimizedAffinity -3.70444775
REMARK minimizedRMSD -1
REMARK  0 active torsions:
REMARK  status: ('A' for Active; 'I' for Inactive)
ROOT
ATOM      1  C   UNL d   1       0.734  -0.054   0.045  0.00  0.00     0.172 C 
ATOM      2  N   UNL d   1       0.420   0.404   1.378  0.00  0.00    -0.070 N 
ATOM      3  C1  UNL d   1       1.185   0.195   2.494  0.00  0.00    -0.004 A 
ATOM      4  C2  UNL d   1       0.545   0.787   3.561  0.00  0.00    -0.047 A 
ATOM      5  C3  UNL d   1      -0.646   1.372   3.069  0.00  0.00    -0.047 A 
ATOM      6  C4  UNL d   1      -0.698   1.120   1.715  0.00  0.00    -0.004 A 
ENDROOT
TORSDOF 0
ENDMDL
