MODEL 1
REMARK minimizedAffinity -2.75687051
REMARK minimizedRMSD -1
REMARK  0 active torsions:
REMARK  status: ('A' for Active; 'I' for Inactive)
ROOT
ATOM      1  C   UNL d   1      -0.394  -0.241  -0.881  0.00  0.00     0.172 C 
ATOM      2  N   UNL d   1       0.928  -0.235  -0.301  0.00  0.00    -0.070 N 
ATOM      3  C1  UNL d   1       1.267   0.314   0.907  0.00  0.00    -0.004 A 
ATOM      4  C2  UNL d   1       2.617   0.112   1.098  0.00  0.00    -0.047 A 
ATOM      5  C3  UNL d   1       3.106  -0.583  -0.034  0.00  0.00    -0.047 A 
ATOM      6  C4  UNL d   1       2.039  -0.785  -0.884  0.00  0.00    -0.004 A 
ENDROOT
TORSDOF 0
ENDMDL
