MODEL 1
REMARK minimizedAffinity -3.99030614
REMARK minimizedRMSD -1
REMARK  0 active torsions:
REMARK  status: ('A' for Active; 'I' for Inactive)
ROOT
ATOM      1  C   UNL d   1       2.173  -0.007   1.936  0.00  0.00     0.172 C 
ATOM      2  N   UNL d   1       0.773   0.335   1.850  0.00  0.00    -0.070 N 
ATOM      3  C1  UNL d   1      -0.065   0.541   2.912  0.00  0.00    -0.004 A 
ATOM      4  C2  UNL d   1      -1.313   0.846   2.412  0.00  0.00    -0.047 A 
ATOM      5  C3  UNL d   1      -1.221   0.821   1.001  0.00  0.00    -0.047 A 
ATOM      6  C4  UNL d   1       0.081   0.502   0.679  0.00  0.00    -0.004 A 
ENDROOT
TORSDOF 0
ENDMDL
