MODEL 1
REMARK minimizedAffinity -0.0418463163
REMARK minimizedRMSD -1
REMARK  0 active torsions:
REMARK  status: ('A' for Active; 'I' for Inactive)
ROOT
ATOM      1  C   UNL d   1      -1.421   0.396   2.049  0.00  0.00     0.172 C 
ATOM      2  N   UNL d   1      -0.396   0.147   1.062  0.00  0.00    -0.070 N 
ATOM      3  C1  UNL d   1      -0.561   0.220  -0.295  0.00  0.00    -0.004 A 
ATOM      4  C2  UNL d   1       0.647  -0.085  -0.884  0.00  0.00    -0.047 A 
ATOM      5  C3  UNL d   1       1.569  -0.353   0.156  0.00  0.00    -0.047 A 
ATOM      6  C4  UNL d   1       0.897  -0.202   1.350  0.00  0.00    -0.004 A 
ENDROOT
TORSDOF 0
ENDMDL
