MODEL 1
REMARK minimizedAffinity -3.1319294
REMARK minimizedRMSD -1
REMARK  0 active torsions:
REMARK  status: ('A' for Active; 'I' for Inactive)
ROOT
ATOM      1  C   UNL d   1       0.441  -0.597  -0.644  0.00  0.00     0.172 C 
ATOM      2  N   UNL d   1      -0.069  -0.109   0.616  0.00  0.00    -0.070 N 
ATOM      3  C1  UNL d   1       0.507   0.866   1.386  0.00  0.00    -0.004 A 
ATOM      4  C2  UNL d   1      -0.282   1.042   2.502  0.00  0.00    -0.047 A 
ATOM      5  C3  UNL d   1      -1.368   0.141   2.400  0.00  0.00    -0.047 A 
ATOM      6  C4  UNL d   1      -1.211  -0.559   1.223  0.00  0.00    -0.004 A 
ENDROOT
TORSDOF 0
ENDMDL
