MODEL 1
REMARK minimizedAffinity -3.19463658
REMARK minimizedRMSD -1
REMARK  0 active torsions:
REMARK  status: ('A' for Active; 'I' for Inactive)
ROOT
ATOM      1  C   UNL d   1       0.696  -0.260   3.804  0.00  0.00     0.172 C 
ATOM      2  N   UNL d   1       0.221  -0.217   2.441  0.00  0.00    -0.070 N 
ATOM      3  C1  UNL d   1      -0.994   0.264   2.034  0.00  0.00    -0.004 A 
ATOM      4  C2  UNL d   1      -1.064   0.131   0.664  0.00  0.00    -0.047 A 
ATOM      5  C3  UNL d   1       0.152  -0.451   0.233  0.00  0.00    -0.047 A 
ATOM      6  C4  UNL d   1       0.929  -0.656   1.353  0.00  0.00    -0.004 A 
ENDROOT
TORSDOF 0
ENDMDL
