MODEL 1
REMARK minimizedAffinity -3.02520084
REMARK minimizedRMSD -1
REMARK  0 active torsions:
REMARK  status: ('A' for Active; 'I' for Inactive)
ROOT
ATOM      1  C   UNL d   1       0.539  -0.644   3.522  0.00  0.00     0.172 C 
ATOM      2  N   UNL d   1       0.150  -0.554   2.134  0.00  0.00    -0.070 N 
ATOM      3  C1  UNL d   1       0.901  -0.968   1.067  0.00  0.00    -0.004 A 
ATOM      4  C2  UNL d   1       0.181  -0.710  -0.080  0.00  0.00    -0.047 A 
ATOM      5  C3  UNL d   1      -1.044  -0.120   0.312  0.00  0.00    -0.047 A 
ATOM      6  C4  UNL d   1      -1.036  -0.034   1.688  0.00  0.00    -0.004 A 
ENDROOT
TORSDOF 0
ENDMDL
