MODEL 1
REMARK minimizedAffinity 2.97825742
REMARK minimizedRMSD -1
REMARK  2 active torsions:
REMARK  status: ('A' for Active; 'I' for Inactive)
REMARK    1  A    between atoms: C2'_3  and  C1'_4 
REMARK    2  A    between atoms: C1'_4  and  C1_5 
ROOT
ATOM      1  C1  I4B d   1      -0.297  -1.129   1.482  0.00  0.00    -0.075 A 
ATOM      2  C2  I4B d   1      -1.361  -1.535   0.716  0.00  0.00     0.003 A 
ATOM      3  C3  I4B d   1      -2.322  -0.594   0.275  0.00  0.00     0.002 A 
ATOM      4  C4  I4B d   1      -2.210   0.725   0.663  0.00  0.00    -0.004 A 
ATOM      5  C5  I4B d   1      -1.118   1.140   1.421  0.00  0.00     0.002 A 
ATOM      6  C6  I4B d   1      -0.149   0.209   1.823  0.00  0.00     0.003 A 
ENDROOT
BRANCH   1   7
ATOM      7  C1' I4B d   1       0.682  -2.155   1.958  0.00  0.00     0.060 C 
BRANCH   7   8
ATOM      8  C2' I4B d   1       0.933  -3.123   0.820  0.00  0.00    -0.013 C 
ATOM      9  C4' I4B d   1       2.185  -2.763   0.063  0.00  0.00     0.013 C 
ATOM     10  C3' I4B d   1       1.029  -4.503   1.399  0.00  0.00     0.013 C 
ENDBRANCH   7   8
ENDBRANCH   1   7
TORSDOF 2
ENDMDL
