MODEL 1
REMARK minimizedAffinity 4.23116493
REMARK minimizedRMSD -1
REMARK  2 active torsions:
REMARK  status: ('A' for Active; 'I' for Inactive)
REMARK    1  A    between atoms: C2'_3  and  C1'_4 
REMARK    2  A    between atoms: C1'_4  and  C1_5 
ROOT
ATOM      1  C1  I4B d   1       0.904  -2.175  -0.785  0.00  0.00    -0.075 A 
ATOM      2  C2  I4B d   1       1.714  -2.442   0.290  0.00  0.00     0.003 A 
ATOM      3  C3  I4B d   1       1.245  -2.222   1.608  0.00  0.00     0.002 A 
ATOM      4  C4  I4B d   1      -0.014  -1.689   1.801  0.00  0.00    -0.004 A 
ATOM      5  C5  I4B d   1      -0.842  -1.440   0.711  0.00  0.00     0.002 A 
ATOM      6  C6  I4B d   1      -0.385  -1.696  -0.590  0.00  0.00     0.003 A 
ENDROOT
BRANCH   1   7
ATOM      7  C1' I4B d   1       1.443  -2.388  -2.164  0.00  0.00     0.060 C 
BRANCH   7   8
ATOM      8  C2' I4B d   1       0.708  -1.453  -3.102  0.00  0.00    -0.013 C 
ATOM      9  C4' I4B d   1       1.562  -1.089  -4.288  0.00  0.00     0.013 C 
ATOM     10  C3' I4B d   1      -0.558  -2.131  -3.534  0.00  0.00     0.013 C 
ENDBRANCH   7   8
ENDBRANCH   1   7
TORSDOF 2
ENDMDL
