MODEL 1
REMARK minimizedAffinity 6.46043205
REMARK minimizedRMSD -1
REMARK  2 active torsions:
REMARK  status: ('A' for Active; 'I' for Inactive)
REMARK    1  A    between atoms: C2'_3  and  C1'_4 
REMARK    2  A    between atoms: C1'_4  and  C1_5 
ROOT
ATOM      1  C1  I4B d   1      -3.091   3.488  -1.845  0.00  0.00    -0.075 A 
ATOM      2  C2  I4B d   1      -2.824   2.907  -3.059  0.00  0.00     0.003 A 
ATOM      3  C3  I4B d   1      -2.265   3.675  -4.109  0.00  0.00     0.002 A 
ATOM      4  C4  I4B d   1      -2.038   5.023  -3.919  0.00  0.00    -0.004 A 
ATOM      5  C5  I4B d   1      -2.289   5.605  -2.680  0.00  0.00     0.002 A 
ATOM      6  C6  I4B d   1      -2.807   4.830  -1.632  0.00  0.00     0.003 A 
ENDROOT
BRANCH   1   7
ATOM      7  C1' I4B d   1      -3.712   2.655  -0.768  0.00  0.00     0.060 C 
BRANCH   7   8
ATOM      8  C2' I4B d   1      -5.038   3.287  -0.396  0.00  0.00    -0.013 C 
ATOM      9  C4' I4B d   1      -6.000   3.259  -1.554  0.00  0.00     0.013 C 
ATOM     10  C3' I4B d   1      -5.590   2.543   0.784  0.00  0.00     0.013 C 
ENDBRANCH   7   8
ENDBRANCH   1   7
TORSDOF 2
ENDMDL
