MODEL 1
REMARK minimizedAffinity 7.48010397
REMARK minimizedRMSD -1
REMARK  2 active torsions:
REMARK  status: ('A' for Active; 'I' for Inactive)
REMARK    1  A    between atoms: C2'_3  and  C1'_4 
REMARK    2  A    between atoms: C1'_4  and  C1_5 
ROOT
ATOM      1  C1  I4B d   1      -1.968   2.231   1.987  0.00  0.00    -0.075 A 
ATOM      2  C2  I4B d   1      -1.730   1.723   3.240  0.00  0.00     0.003 A 
ATOM      3  C3  I4B d   1      -0.415   1.374   3.630  0.00  0.00     0.002 A 
ATOM      4  C4  I4B d   1       0.619   1.499   2.725  0.00  0.00    -0.004 A 
ATOM      5  C5  I4B d   1       0.380   2.035   1.462  0.00  0.00     0.002 A 
ATOM      6  C6  I4B d   1      -0.919   2.415   1.095  0.00  0.00     0.003 A 
ENDROOT
BRANCH   1   7
ATOM      7  C1' I4B d   1      -3.374   2.559   1.597  0.00  0.00     0.060 C 
BRANCH   7   8
ATOM      8  C2' I4B d   1      -4.222   1.324   1.825  0.00  0.00    -0.013 C 
ATOM      9  C4' I4B d   1      -5.440   1.644   2.651  0.00  0.00     0.013 C 
ATOM     10  C3' I4B d   1      -4.606   0.772   0.485  0.00  0.00     0.013 C 
ENDBRANCH   7   8
ENDBRANCH   1   7
TORSDOF 2
ENDMDL
