MODEL 1
REMARK minimizedAffinity -2.32557535
REMARK minimizedRMSD -1
REMARK  2 active torsions:
REMARK  status: ('A' for Active; 'I' for Inactive)
REMARK    1  A    between atoms: C2'_3  and  C1'_4 
REMARK    2  A    between atoms: C1'_4  and  C1_5 
ROOT
ATOM      1  C1  I4B d   1       1.012   0.267  -0.197  0.00  0.00    -0.075 A 
ATOM      2  C2  I4B d   1      -0.055  -0.560  -0.443  0.00  0.00     0.003 A 
ATOM      3  C3  I4B d   1       0.122  -1.965  -0.465  0.00  0.00     0.002 A 
ATOM      4  C4  I4B d   1       1.384  -2.494  -0.289  0.00  0.00    -0.004 A 
ATOM      5  C5  I4B d   1       2.461  -1.655  -0.018  0.00  0.00     0.002 A 
ATOM      6  C6  I4B d   1       2.273  -0.266   0.040  0.00  0.00     0.003 A 
ENDROOT
BRANCH   1   7
ATOM      7  C1' I4B d   1       0.796   1.747  -0.213  0.00  0.00     0.060 C 
BRANCH   7   8
ATOM      8  C2' I4B d   1       0.992   2.262   1.198  0.00  0.00    -0.013 C 
ATOM      9  C4' I4B d   1       1.181   3.757   1.211  0.00  0.00     0.013 C 
ATOM     10  C3' I4B d   1      -0.204   1.861   2.008  0.00  0.00     0.013 C 
ENDBRANCH   7   8
ENDBRANCH   1   7
TORSDOF 2
ENDMDL
