MODEL 1
REMARK minimizedAffinity -0.281304359
REMARK minimizedRMSD -1
REMARK  2 active torsions:
REMARK  status: ('A' for Active; 'I' for Inactive)
REMARK    1  A    between atoms: C2'_3  and  C1'_4 
REMARK    2  A    between atoms: C1'_4  and  C1_5 
ROOT
ATOM      1  C1  I4B d   1       0.424  -0.543  -0.334  0.00  0.00    -0.075 A 
ATOM      2  C2  I4B d   1      -0.452  -1.003  -1.285  0.00  0.00     0.003 A 
ATOM      3  C3  I4B d   1      -1.243  -0.091  -2.026  0.00  0.00     0.002 A 
ATOM      4  C4  I4B d   1      -1.164   1.258  -1.749  0.00  0.00    -0.004 A 
ATOM      5  C5  I4B d   1      -0.258   1.725  -0.801  0.00  0.00     0.002 A 
ATOM      6  C6  I4B d   1       0.550   0.820  -0.097  0.00  0.00     0.003 A 
ENDROOT
BRANCH   1   7
ATOM      7  C1' I4B d   1       1.221  -1.535   0.452  0.00  0.00     0.060 C 
BRANCH   7   8
ATOM      8  C2' I4B d   1       2.674  -1.395   0.046  0.00  0.00    -0.013 C 
ATOM      9  C4' I4B d   1       3.592  -1.620   1.218  0.00  0.00     0.013 C 
ATOM     10  C3' I4B d   1       2.944  -2.381  -1.052  0.00  0.00     0.013 C 
ENDBRANCH   7   8
ENDBRANCH   1   7
TORSDOF 2
ENDMDL
