MODEL 1
REMARK minimizedAffinity -3.90009332
REMARK minimizedRMSD -1
REMARK  2 active torsions:
REMARK  status: ('A' for Active; 'I' for Inactive)
REMARK    1  A    between atoms: C2'_3  and  C1'_4 
REMARK    2  A    between atoms: C1'_4  and  C1_5 
ROOT
ATOM      1  C1  I4B d   1      -0.938   0.688   0.318  0.00  0.00    -0.075 A 
ATOM      2  C2  I4B d   1      -2.135   0.288  -0.221  0.00  0.00     0.003 A 
ATOM      3  C3  I4B d   1      -3.353   0.627   0.417  0.00  0.00     0.002 A 
ATOM      4  C4  I4B d   1      -3.324   1.320   1.611  0.00  0.00    -0.004 A 
ATOM      5  C5  I4B d   1      -2.110   1.745   2.143  0.00  0.00     0.002 A 
ATOM      6  C6  I4B d   1      -0.910   1.438   1.486  0.00  0.00     0.003 A 
ENDROOT
BRANCH   1   7
ATOM      7  C1' I4B d   1       0.331   0.284  -0.365  0.00  0.00     0.060 C 
BRANCH   7   8
ATOM      8  C2' I4B d   1       0.510  -1.208  -0.171  0.00  0.00    -0.013 C 
ATOM      9  C4' I4B d   1       0.061  -1.974  -1.387  0.00  0.00     0.013 C 
ATOM     10  C3' I4B d   1       1.957  -1.465   0.127  0.00  0.00     0.013 C 
ENDBRANCH   7   8
ENDBRANCH   1   7
TORSDOF 2
ENDMDL
