MODEL 1
REMARK minimizedAffinity 1.30290866
REMARK minimizedRMSD -1
REMARK  0 active torsions:
REMARK  status: ('A' for Active; 'I' for Inactive)
ROOT
ATOM      1  C   UNL d   1      -5.997   1.485   0.724  0.00  0.00     0.077 C 
ATOM      2  C1  UNL d   1      -5.269   2.716   1.177  0.00  0.00    -0.074 A 
ATOM      3  C2  UNL d   1      -3.940   2.943   0.806  0.00  0.00    -0.005 A 
ATOM      4  C3  UNL d   1      -3.280   4.097   1.227  0.00  0.00     0.006 A 
ATOM      5  C4  UNL d   1      -3.940   5.035   2.022  0.00  0.00    -0.005 A 
ATOM      6  C5  UNL d   1      -5.270   4.825   2.402  0.00  0.00    -0.074 A 
ATOM      7  C6  UNL d   1      -5.998   5.828   3.248  0.00  0.00     0.077 C 
ATOM      8  C7  UNL d   1      -5.929   3.667   1.969  0.00  0.00    -0.001 A 
ENDROOT
TORSDOF 0
ENDMDL
