MODEL 1
REMARK minimizedAffinity 0.205699742
REMARK minimizedRMSD -1
REMARK  0 active torsions:
REMARK  status: ('A' for Active; 'I' for Inactive)
ROOT
ATOM      1  C   UNL d   1       3.800   1.658  -0.375  0.00  0.00     0.077 C 
ATOM      2  C1  UNL d   1       2.966   0.679   0.396  0.00  0.00    -0.074 A 
ATOM      3  C2  UNL d   1       3.003  -0.687   0.098  0.00  0.00    -0.005 A 
ATOM      4  C3  UNL d   1       2.228  -1.587   0.830  0.00  0.00     0.006 A 
ATOM      5  C4  UNL d   1       1.410  -1.131   1.865  0.00  0.00    -0.005 A 
ATOM      6  C5  UNL d   1       1.361   0.231   2.177  0.00  0.00    -0.074 A 
ATOM      7  C6  UNL d   1       0.495   0.737   3.292  0.00  0.00     0.077 C 
ATOM      8  C7  UNL d   1       2.148   1.128   1.442  0.00  0.00    -0.001 A 
ENDROOT
TORSDOF 0
ENDMDL
