MODEL 1
REMARK minimizedAffinity -2.15140462
REMARK minimizedRMSD -1
REMARK  0 active torsions:
REMARK  status: ('A' for Active; 'I' for Inactive)
ROOT
ATOM      1  C   UNL d   1       5.999   2.785   0.751  0.00  0.00     0.077 C 
ATOM      2  C1  UNL d   1       4.595   2.258   0.729  0.00  0.00    -0.074 A 
ATOM      3  C2  UNL d   1       4.116   1.535  -0.368  0.00  0.00    -0.005 A 
ATOM      4  C3  UNL d   1       2.811   1.043  -0.371  0.00  0.00     0.006 A 
ATOM      5  C4  UNL d   1       1.973   1.269   0.722  0.00  0.00    -0.005 A 
ATOM      6  C5  UNL d   1       2.435   1.989   1.829  0.00  0.00    -0.074 A 
ATOM      7  C6  UNL d   1       1.550   2.232   3.015  0.00  0.00     0.077 C 
ATOM      8  C7  UNL d   1       3.750   2.474   1.826  0.00  0.00    -0.001 A 
ENDROOT
TORSDOF 0
ENDMDL
