MODEL 1
REMARK minimizedAffinity -1.77669895
REMARK minimizedRMSD -1
REMARK  0 active torsions:
REMARK  status: ('A' for Active; 'I' for Inactive)
ROOT
ATOM      1  C   UNL d   1      -2.076   0.144  -3.354  0.00  0.00     0.077 C 
ATOM      2  C1  UNL d   1      -3.387   0.780  -3.708  0.00  0.00    -0.074 A 
ATOM      3  C2  UNL d   1      -4.047   0.452  -4.897  0.00  0.00    -0.005 A 
ATOM      4  C3  UNL d   1      -5.270   1.045  -5.209  0.00  0.00     0.006 A 
ATOM      5  C4  UNL d   1      -5.845   1.971  -4.337  0.00  0.00    -0.005 A 
ATOM      6  C5  UNL d   1      -5.200   2.311  -3.144  0.00  0.00    -0.074 A 
ATOM      7  C6  UNL d   1      -5.808   3.296  -2.191  0.00  0.00     0.077 C 
ATOM      8  C7  UNL d   1      -3.974   1.705  -2.834  0.00  0.00    -0.001 A 
ENDROOT
TORSDOF 0
ENDMDL
