MODEL 1
REMARK minimizedAffinity 6.07404089
REMARK minimizedRMSD -1
REMARK  0 active torsions:
REMARK  status: ('A' for Active; 'I' for Inactive)
ROOT
ATOM      1  C   UNL d   1      -5.812   4.069  -3.327  0.00  0.00     0.077 C 
ATOM      2  C1  UNL d   1      -5.092   2.755  -3.386  0.00  0.00    -0.074 A 
ATOM      3  C2  UNL d   1      -3.808   2.662  -3.933  0.00  0.00    -0.005 A 
ATOM      4  C3  UNL d   1      -3.147   1.434  -3.972  0.00  0.00     0.006 A 
ATOM      5  C4  UNL d   1      -3.762   0.289  -3.465  0.00  0.00    -0.005 A 
ATOM      6  C5  UNL d   1      -5.045   0.362  -2.914  0.00  0.00    -0.074 A 
ATOM      7  C6  UNL d   1      -5.717  -0.858  -2.357  0.00  0.00     0.077 C 
ATOM      8  C7  UNL d   1      -5.700   1.601  -2.872  0.00  0.00    -0.001 A 
ENDROOT
TORSDOF 0
ENDMDL
