MODEL 1
REMARK minimizedAffinity 6.59286642
REMARK minimizedRMSD -1
REMARK  0 active torsions:
REMARK  status: ('A' for Active; 'I' for Inactive)
ROOT
ATOM      1  C   UNL d   1      -5.997   0.011  -0.758  0.00  0.00     0.077 C 
ATOM      2  C1  UNL d   1      -5.435   0.801  -1.903  0.00  0.00    -0.074 A 
ATOM      3  C2  UNL d   1      -5.729   2.160  -2.052  0.00  0.00    -0.005 A 
ATOM      4  C3  UNL d   1      -5.191   2.883  -3.116  0.00  0.00     0.006 A 
ATOM      5  C4  UNL d   1      -4.355   2.256  -4.040  0.00  0.00    -0.005 A 
ATOM      6  C5  UNL d   1      -4.049   0.898  -3.907  0.00  0.00    -0.074 A 
ATOM      7  C6  UNL d   1      -3.144   0.211  -4.886  0.00  0.00     0.077 C 
ATOM      8  C7  UNL d   1      -4.588   0.180  -2.831  0.00  0.00    -0.001 A 
ENDROOT
TORSDOF 0
ENDMDL
