MODEL 1
REMARK minimizedAffinity -0.510339677
REMARK minimizedRMSD -1
REMARK  0 active torsions:
REMARK  status: ('A' for Active; 'I' for Inactive)
ROOT
ATOM      1  C   UNL d   1      -6.000   2.989  -1.353  0.00  0.00     0.077 C 
ATOM      2  C1  UNL d   1      -5.334   2.335  -2.527  0.00  0.00    -0.074 A 
ATOM      3  C2  UNL d   1      -4.104   2.797  -3.005  0.00  0.00    -0.005 A 
ATOM      4  C3  UNL d   1      -3.493   2.173  -4.092  0.00  0.00     0.006 A 
ATOM      5  C4  UNL d   1      -4.104   1.082  -4.711  0.00  0.00    -0.005 A 
ATOM      6  C5  UNL d   1      -5.334   0.605  -4.246  0.00  0.00    -0.074 A 
ATOM      7  C6  UNL d   1      -6.000  -0.573  -4.893  0.00  0.00     0.077 C 
ATOM      8  C7  UNL d   1      -5.939   1.233  -3.149  0.00  0.00    -0.001 A 
ENDROOT
TORSDOF 0
ENDMDL
