MODEL 1
REMARK minimizedAffinity -1.2688638
REMARK minimizedRMSD -1
REMARK  0 active torsions:
REMARK  status: ('A' for Active; 'I' for Inactive)
ROOT
ATOM      1  C   UNL d   1       2.706  -1.170   1.780  0.00  0.00     0.077 C 
ATOM      2  C1  UNL d   1       3.046  -0.729   0.388  0.00  0.00    -0.074 A 
ATOM      3  C2  UNL d   1       3.674   0.500   0.156  0.00  0.00    -0.005 A 
ATOM      4  C3  UNL d   1       3.993   0.893  -1.143  0.00  0.00     0.006 A 
ATOM      5  C4  UNL d   1       3.689   0.063  -2.223  0.00  0.00    -0.005 A 
ATOM      6  C5  UNL d   1       3.063  -1.170  -2.011  0.00  0.00    -0.074 A 
ATOM      7  C6  UNL d   1       2.738  -2.078  -3.160  0.00  0.00     0.077 C 
ATOM      8  C7  UNL d   1       2.751  -1.560  -0.702  0.00  0.00    -0.001 A 
ENDROOT
TORSDOF 0
ENDMDL
