MODEL 1
REMARK minimizedAffinity 8.63974285
REMARK minimizedRMSD -1
REMARK  0 active torsions:
REMARK  status: ('A' for Active; 'I' for Inactive)
ROOT
ATOM      1  C   UNL d   1       2.308  -2.213  -0.009  0.00  0.00     0.077 C 
ATOM      2  C1  UNL d   1       2.372  -0.715  -0.061  0.00  0.00    -0.074 A 
ATOM      3  C2  UNL d   1       1.276   0.065   0.320  0.00  0.00    -0.005 A 
ATOM      4  C3  UNL d   1       1.353   1.456   0.276  0.00  0.00     0.006 A 
ATOM      5  C4  UNL d   1       2.526   2.082  -0.149  0.00  0.00    -0.005 A 
ATOM      6  C5  UNL d   1       3.633   1.318  -0.533  0.00  0.00    -0.074 A 
ATOM      7  C6  UNL d   1       4.905   1.974  -0.983  0.00  0.00     0.077 C 
ATOM      8  C7  UNL d   1       3.550  -0.080  -0.479  0.00  0.00    -0.001 A 
ENDROOT
TORSDOF 0
ENDMDL
