MODEL 1
REMARK minimizedAffinity -1.55051053
REMARK minimizedRMSD -1
REMARK  0 active torsions:
REMARK  status: ('A' for Active; 'I' for Inactive)
ROOT
ATOM      1  C   UNL d   1       0.865   1.429  -4.296  0.00  0.00    -0.002 A 
ATOM      2  C1  UNL d   1       1.814   0.430  -4.462  0.00  0.00     0.010 A 
ATOM      3  C2  UNL d   1       1.947  -0.588  -3.515  0.00  0.00     0.041 A 
ATOM      4  C3  UNL d   1       1.100  -0.586  -2.389  0.00  0.00    -0.075 A 
ATOM      5  S   UNL d   1       1.080  -1.732  -1.101  0.00  0.00     0.015 SA
ATOM      6  C4  UNL d   1      -0.189  -0.923  -0.301  0.00  0.00     0.022 A 
ATOM      7  C5  UNL d   1      -0.600   0.196  -0.986  0.00  0.00     0.026 A 
ATOM      8  C6  UNL d   1       0.136   0.408  -2.201  0.00  0.00    -0.082 A 
ATOM      9  C7  UNL d   1       0.027   1.427  -3.178  0.00  0.00     0.045 A 
ENDROOT
TORSDOF 0
ENDMDL
