MODEL 1
REMARK minimizedAffinity -0.403817683
REMARK minimizedRMSD -1
REMARK  0 active torsions:
REMARK  status: ('A' for Active; 'I' for Inactive)
ROOT
ATOM      1  C   UNL d   1       0.607   0.091  -4.123  0.00  0.00    -0.002 A 
ATOM      2  C1  UNL d   1       1.874   0.306  -3.598  0.00  0.00     0.010 A 
ATOM      3  C2  UNL d   1       2.089   0.258  -2.220  0.00  0.00     0.041 A 
ATOM      4  C3  UNL d   1       0.999  -0.015  -1.369  0.00  0.00    -0.075 A 
ATOM      5  S   UNL d   1       1.026  -0.125   0.351  0.00  0.00     0.015 SA
ATOM      6  C4  UNL d   1      -0.643  -0.460   0.430  0.00  0.00     0.022 A 
ATOM      7  C5  UNL d   1      -1.223  -0.492  -0.816  0.00  0.00     0.026 A 
ATOM      8  C6  UNL d   1      -0.285  -0.236  -1.874  0.00  0.00    -0.082 A 
ATOM      9  C7  UNL d   1      -0.471  -0.179  -3.276  0.00  0.00     0.045 A 
ENDROOT
TORSDOF 0
ENDMDL
