MODEL 1
REMARK minimizedAffinity -1.84789622
REMARK minimizedRMSD -1
REMARK  1 active torsions:
REMARK  status: ('A' for Active; 'I' for Inactive)
REMARK    1  A    between atoms: C1_2  and  C2_3 
ROOT
ATOM      1  C2  UNL d   1       0.216   0.163  -0.312  0.00  0.00    -0.077 A 
ATOM      2  C3  UNL d   1      -0.464  -1.025  -0.009  0.00  0.00     0.002 A 
ATOM      3  C4  UNL d   1      -1.706  -1.295  -0.587  0.00  0.00     0.002 A 
ATOM      4  C5  UNL d   1      -2.276  -0.385  -1.474  0.00  0.00    -0.004 A 
ATOM      5  C6  UNL d   1      -1.609   0.801  -1.780  0.00  0.00     0.002 A 
ATOM      6  C7  UNL d   1      -0.368   1.073  -1.203  0.00  0.00     0.002 A 
ENDROOT
BRANCH   1   7
ATOM      7  C1  UNL d   1       1.578   0.433   0.271  0.00  0.00     0.055 C 
ATOM      8  C   UNL d   1       1.682   1.857   0.797  0.00  0.00     0.019 C 
ENDBRANCH   1   7
TORSDOF 1
ENDMDL
