MODEL 1
REMARK minimizedAffinity -4.08089304
REMARK minimizedRMSD -1
REMARK  1 active torsions:
REMARK  status: ('A' for Active; 'I' for Inactive)
REMARK    1  A    between atoms: C1_2  and  C2_3 
ROOT
ATOM      1  C2  UNL d   1       0.809   0.510   0.202  0.00  0.00    -0.077 A 
ATOM      2  C3  UNL d   1       2.048  -0.140   0.117  0.00  0.00     0.002 A 
ATOM      3  C4  UNL d   1       3.176   0.407   0.731  0.00  0.00     0.002 A 
ATOM      4  C5  UNL d   1       3.075   1.603   1.439  0.00  0.00    -0.004 A 
ATOM      5  C6  UNL d   1       1.848   2.258   1.528  0.00  0.00     0.002 A 
ATOM      6  C7  UNL d   1       0.719   1.714   0.913  0.00  0.00     0.002 A 
ENDROOT
BRANCH   1   7
ATOM      7  C1  UNL d   1      -0.420  -0.103  -0.418  0.00  0.00     0.055 C 
ATOM      8  C   UNL d   1      -1.164   0.903  -1.284  0.00  0.00     0.019 C 
ENDBRANCH   1   7
TORSDOF 1
ENDMDL
