MODEL 1
REMARK minimizedAffinity -3.27107286
REMARK minimizedRMSD -1
REMARK  1 active torsions:
REMARK  status: ('A' for Active; 'I' for Inactive)
REMARK    1  A    between atoms: C1_2  and  C2_3 
ROOT
ATOM      1  C2  UNL d   1       0.792   0.743   0.138  0.00  0.00    -0.077 A 
ATOM      2  C3  UNL d   1       0.746   2.073   0.579  0.00  0.00     0.002 A 
ATOM      3  C4  UNL d   1       1.863   2.656   1.181  0.00  0.00     0.002 A 
ATOM      4  C5  UNL d   1       3.033   1.918   1.345  0.00  0.00    -0.004 A 
ATOM      5  C6  UNL d   1       3.088   0.594   0.912  0.00  0.00     0.002 A 
ATOM      6  C7  UNL d   1       1.973   0.009   0.311  0.00  0.00     0.002 A 
ENDROOT
BRANCH   1   7
ATOM      7  C1  UNL d   1      -0.395   0.128  -0.556  0.00  0.00     0.055 C 
ATOM      8  C   UNL d   1      -0.640   0.775  -1.911  0.00  0.00     0.019 C 
ENDBRANCH   1   7
TORSDOF 1
ENDMDL
