MODEL 1
REMARK minimizedAffinity -0.935765147
REMARK minimizedRMSD -1
REMARK  1 active torsions:
REMARK  status: ('A' for Active; 'I' for Inactive)
REMARK    1  A    between atoms: C1_2  and  C2_3 
ROOT
ATOM      1  C2  UNL d   1       1.293   1.003   0.262  0.00  0.00    -0.077 A 
ATOM      2  C3  UNL d   1       2.084   1.799  -0.578  0.00  0.00     0.002 A 
ATOM      3  C4  UNL d   1       2.896   2.800  -0.042  0.00  0.00     0.002 A 
ATOM      4  C5  UNL d   1       2.929   3.011   1.335  0.00  0.00    -0.004 A 
ATOM      5  C6  UNL d   1       2.145   2.226   2.178  0.00  0.00     0.002 A 
ATOM      6  C7  UNL d   1       1.331   1.225   1.645  0.00  0.00     0.002 A 
ENDROOT
BRANCH   1   7
ATOM      7  C1  UNL d   1       0.453  -0.110  -0.309  0.00  0.00     0.055 C 
ATOM      8  C   UNL d   1      -0.961   0.362  -0.610  0.00  0.00     0.019 C 
ENDBRANCH   1   7
TORSDOF 1
ENDMDL
