MODEL 1
REMARK minimizedAffinity -2.30569863
REMARK minimizedRMSD -1
REMARK  1 active torsions:
REMARK  status: ('A' for Active; 'I' for Inactive)
REMARK    1  A    between atoms: C1_2  and  C2_3 
ROOT
ATOM      1  C2  UNL d   1       1.340   0.570   0.096  0.00  0.00    -0.077 A 
ATOM      2  C3  UNL d   1       1.148  -0.656   0.750  0.00  0.00     0.002 A 
ATOM      3  C4  UNL d   1       0.092  -1.493   0.384  0.00  0.00     0.002 A 
ATOM      4  C5  UNL d   1      -0.777  -1.116  -0.637  0.00  0.00    -0.004 A 
ATOM      5  C6  UNL d   1      -0.596   0.102  -1.292  0.00  0.00     0.002 A 
ATOM      6  C7  UNL d   1       0.458   0.940  -0.927  0.00  0.00     0.002 A 
ENDROOT
BRANCH   1   7
ATOM      7  C1  UNL d   1       2.507   1.452   0.455  0.00  0.00     0.055 C 
ATOM      8  C   UNL d   1       2.130   2.456   1.534  0.00  0.00     0.019 C 
ENDBRANCH   1   7
TORSDOF 1
ENDMDL
