MODEL 1
REMARK minimizedAffinity -2.60140848
REMARK minimizedRMSD -1
REMARK  1 active torsions:
REMARK  status: ('A' for Active; 'I' for Inactive)
REMARK    1  A    between atoms: C1_2  and  C2_3 
ROOT
ATOM      1  C2  UNL d   1      -0.135   0.007  -0.231  0.00  0.00    -0.077 A 
ATOM      2  C3  UNL d   1      -0.504  -1.281   0.184  0.00  0.00     0.002 A 
ATOM      3  C4  UNL d   1      -1.752  -1.803  -0.160  0.00  0.00     0.002 A 
ATOM      4  C5  UNL d   1      -2.640  -1.047  -0.923  0.00  0.00    -0.004 A 
ATOM      5  C6  UNL d   1      -2.283   0.235  -1.339  0.00  0.00     0.002 A 
ATOM      6  C7  UNL d   1      -1.036   0.759  -0.996  0.00  0.00     0.002 A 
ENDROOT
BRANCH   1   7
ATOM      7  C1  UNL d   1       1.230   0.553   0.096  0.00  0.00     0.055 C 
ATOM      8  C   UNL d   1       1.135   1.777   0.995  0.00  0.00     0.019 C 
ENDBRANCH   1   7
TORSDOF 1
ENDMDL
