MODEL 1
REMARK minimizedAffinity -4.65305758
REMARK minimizedRMSD -1
REMARK  1 active torsions:
REMARK  status: ('A' for Active; 'I' for Inactive)
REMARK    1  A    between atoms: C1_2  and  C2_3 
ROOT
ATOM      1  C2  UNL d   1      -0.344  -0.517   0.276  0.00  0.00    -0.077 A 
ATOM      2  C3  UNL d   1      -0.374  -1.664   1.082  0.00  0.00     0.002 A 
ATOM      3  C4  UNL d   1      -1.450  -2.550   1.010  0.00  0.00     0.002 A 
ATOM      4  C5  UNL d   1      -2.502  -2.301   0.131  0.00  0.00    -0.004 A 
ATOM      5  C6  UNL d   1      -2.483  -1.162  -0.673  0.00  0.00     0.002 A 
ATOM      6  C7  UNL d   1      -1.409  -0.274  -0.601  0.00  0.00     0.002 A 
ENDROOT
BRANCH   1   7
ATOM      7  C1  UNL d   1       0.839   0.414   0.317  0.00  0.00     0.055 C 
ATOM      8  C   UNL d   1       2.149  -0.358   0.389  0.00  0.00     0.019 C 
ENDBRANCH   1   7
TORSDOF 1
ENDMDL
