MODEL 1
REMARK minimizedAffinity -1.03331339
REMARK minimizedRMSD -1
REMARK  1 active torsions:
REMARK  status: ('A' for Active; 'I' for Inactive)
REMARK    1  A    between atoms: C1_2  and  C2_3 
ROOT
ATOM      1  C2  UNL d   1       1.216   0.946   0.212  0.00  0.00    -0.077 A 
ATOM      2  C3  UNL d   1       1.055  -0.394   0.591  0.00  0.00     0.002 A 
ATOM      3  C4  UNL d   1       0.010  -1.156   0.063  0.00  0.00     0.002 A 
ATOM      4  C5  UNL d   1      -0.877  -0.588  -0.849  0.00  0.00    -0.004 A 
ATOM      5  C6  UNL d   1      -0.726   0.744  -1.230  0.00  0.00     0.002 A 
ATOM      6  C7  UNL d   1       0.317   1.508  -0.703  0.00  0.00     0.002 A 
ENDROOT
BRANCH   1   7
ATOM      7  C1  UNL d   1       2.371   1.755   0.743  0.00  0.00     0.055 C 
ATOM      8  C   UNL d   1       1.914   3.126   1.218  0.00  0.00     0.019 C 
ENDBRANCH   1   7
TORSDOF 1
ENDMDL
