MODEL 1
REMARK minimizedAffinity -3.53745031
REMARK minimizedRMSD -1
REMARK  1 active torsions:
REMARK  status: ('A' for Active; 'I' for Inactive)
REMARK    1  A    between atoms: C1_2  and  C2_3 
ROOT
ATOM      1  C2  UNL d   1      -0.064   0.385  -0.426  0.00  0.00    -0.077 A 
ATOM      2  C3  UNL d   1      -1.179   0.690  -1.218  0.00  0.00     0.002 A 
ATOM      3  C4  UNL d   1      -2.201  -0.246  -1.389  0.00  0.00     0.002 A 
ATOM      4  C5  UNL d   1      -2.120  -1.490  -0.768  0.00  0.00    -0.004 A 
ATOM      5  C6  UNL d   1      -1.013  -1.804   0.020  0.00  0.00     0.002 A 
ATOM      6  C7  UNL d   1       0.010  -0.870   0.191  0.00  0.00     0.002 A 
ENDROOT
BRANCH   1   7
ATOM      7  C1  UNL d   1       1.016   1.411  -0.200  0.00  0.00     0.055 C 
ATOM      8  C   UNL d   1       2.278   0.772   0.360  0.00  0.00     0.019 C 
ENDBRANCH   1   7
TORSDOF 1
ENDMDL
