MODEL 1
REMARK minimizedAffinity -3.8092308
REMARK minimizedRMSD -1
REMARK  1 active torsions:
REMARK  status: ('A' for Active; 'I' for Inactive)
REMARK    1  A    between atoms: C1_2  and  C2_3 
ROOT
ATOM      1  C2  UNL d   1      -0.382   0.075  -0.593  0.00  0.00    -0.077 A 
ATOM      2  C3  UNL d   1      -0.175  -0.875   0.416  0.00  0.00     0.002 A 
ATOM      3  C4  UNL d   1       0.961  -0.810   1.226  0.00  0.00     0.002 A 
ATOM      4  C5  UNL d   1       1.895   0.206   1.037  0.00  0.00    -0.004 A 
ATOM      5  C6  UNL d   1       1.699   1.156   0.035  0.00  0.00     0.002 A 
ATOM      6  C7  UNL d   1       0.565   1.091  -0.776  0.00  0.00     0.002 A 
ENDROOT
BRANCH   1   7
ATOM      7  C1  UNL d   1      -1.631   0.035  -1.435  0.00  0.00     0.055 C 
ATOM      8  C   UNL d   1      -2.338  -1.306  -1.312  0.00  0.00     0.019 C 
ENDBRANCH   1   7
TORSDOF 1
ENDMDL
