MODEL 1
REMARK minimizedAffinity -1.64177167
REMARK minimizedRMSD -1
REMARK  1 active torsions:
REMARK  status: ('A' for Active; 'I' for Inactive)
REMARK    1  A    between atoms: C1_2  and  C2_3 
ROOT
ATOM      1  C2  UNL d   1      -2.356  -0.181  -1.269  0.00  0.00    -0.077 A 
ATOM      2  C3  UNL d   1      -3.429  -0.569  -0.455  0.00  0.00     0.002 A 
ATOM      3  C4  UNL d   1      -3.224  -1.438   0.618  0.00  0.00     0.002 A 
ATOM      4  C5  UNL d   1      -1.947  -1.923   0.890  0.00  0.00    -0.004 A 
ATOM      5  C6  UNL d   1      -0.873  -1.545   0.085  0.00  0.00     0.002 A 
ATOM      6  C7  UNL d   1      -1.076  -0.677  -0.989  0.00  0.00     0.002 A 
ENDROOT
BRANCH   1   7
ATOM      7  C1  UNL d   1      -2.566   0.795  -2.397  0.00  0.00     0.055 C 
ATOM      8  C   UNL d   1      -1.241   1.319  -2.931  0.00  0.00     0.019 C 
ENDBRANCH   1   7
TORSDOF 1
ENDMDL
