MODEL 1
REMARK minimizedAffinity -0.685812891
REMARK minimizedRMSD -1
REMARK  1 active torsions:
REMARK  status: ('A' for Active; 'I' for Inactive)
REMARK    1  A    between atoms: C1_2  and  C2_3 
ROOT
ATOM      1  C2  UNL d   1       0.527  -0.151   0.489  0.00  0.00    -0.077 A 
ATOM      2  C3  UNL d   1       1.421   0.242   1.495  0.00  0.00     0.002 A 
ATOM      3  C4  UNL d   1       2.375   1.229   1.246  0.00  0.00     0.002 A 
ATOM      4  C5  UNL d   1       2.443   1.835  -0.007  0.00  0.00    -0.004 A 
ATOM      5  C6  UNL d   1       1.560   1.450  -1.015  0.00  0.00     0.002 A 
ATOM      6  C7  UNL d   1       0.606   0.462  -0.768  0.00  0.00     0.002 A 
ENDROOT
BRANCH   1   7
ATOM      7  C1  UNL d   1      -0.536  -1.181   0.771  0.00  0.00     0.055 C 
ATOM      8  C   UNL d   1      -0.134  -2.089   1.924  0.00  0.00     0.019 C 
ENDBRANCH   1   7
TORSDOF 1
ENDMDL
