MODEL 1
REMARK minimizedAffinity -1.30679321
REMARK minimizedRMSD -1
REMARK  1 active torsions:
REMARK  status: ('A' for Active; 'I' for Inactive)
REMARK    1  A    between atoms: C1_2  and  C2_3 
ROOT
ATOM      1  C2  UNL d   1       0.451   0.180   0.059  0.00  0.00    -0.077 A 
ATOM      2  C3  UNL d   1      -0.452  -0.674   0.709  0.00  0.00     0.002 A 
ATOM      3  C4  UNL d   1      -1.661  -1.018   0.102  0.00  0.00     0.002 A 
ATOM      4  C5  UNL d   1      -1.977  -0.517  -1.159  0.00  0.00    -0.004 A 
ATOM      5  C6  UNL d   1      -1.087   0.334  -1.812  0.00  0.00     0.002 A 
ATOM      6  C7  UNL d   1       0.122   0.680  -1.207  0.00  0.00     0.002 A 
ENDROOT
BRANCH   1   7
ATOM      7  C1  UNL d   1       1.777   0.512   0.691  0.00  0.00     0.055 C 
ATOM      8  C   UNL d   1       2.273   1.881   0.248  0.00  0.00     0.019 C 
ENDBRANCH   1   7
TORSDOF 1
ENDMDL
