MODEL 1
REMARK minimizedAffinity -1.1182996
REMARK minimizedRMSD -1
REMARK  1 active torsions:
REMARK  status: ('A' for Active; 'I' for Inactive)
REMARK    1  A    between atoms: N_2  and  C1_3 
ROOT
ATOM      1  C1  UNL d   1       1.703  -1.901  -0.222  0.00  0.00     0.143 A 
ATOM      2  C2  UNL d   1       2.625  -1.255   0.609  0.00  0.00    -0.057 A 
ATOM      3  C3  UNL d   1       2.634   0.139   0.737  0.00  0.00     0.033 A 
ATOM      4  C4  UNL d   1       1.737   0.916   0.012  0.00  0.00    -0.042 A 
ATOM      5  C5  UNL d   1       0.828   0.297  -0.839  0.00  0.00     0.033 A 
ATOM      6  C6  UNL d   1       0.820  -1.096  -0.958  0.00  0.00    -0.057 A 
ENDROOT
BRANCH   1   7
ATOM      7  N   UNL d   1       1.708  -3.277  -0.467  0.00  0.00    -0.732 N 
ATOM      8  C   UNL d   1       0.471  -4.027  -0.484  0.00  0.00     0.284 C 
ATOM      9  H3  UNL d   1       2.363  -3.538  -1.201  0.00  0.00     0.395 HD
ENDBRANCH   1   7
TORSDOF 1
ENDMDL
