MODEL 1
REMARK minimizedAffinity -1.37318635
REMARK minimizedRMSD -1
REMARK  1 active torsions:
REMARK  status: ('A' for Active; 'I' for Inactive)
REMARK    1  A    between atoms: N_2  and  C1_3 
ROOT
ATOM      1  C1  UNL d   1       1.517  -0.531  -1.078  0.00  0.00     0.143 A 
ATOM      2  C2  UNL d   1       2.613  -1.381  -0.894  0.00  0.00    -0.057 A 
ATOM      3  C3  UNL d   1       3.914  -0.875  -0.789  0.00  0.00     0.033 A 
ATOM      4  C4  UNL d   1       4.146   0.492  -0.896  0.00  0.00    -0.042 A 
ATOM      5  C5  UNL d   1       3.075   1.354  -1.104  0.00  0.00     0.033 A 
ATOM      6  C6  UNL d   1       1.777   0.843  -1.201  0.00  0.00    -0.057 A 
ENDROOT
BRANCH   1   7
ATOM      7  N   UNL d   1       0.211  -0.980  -1.289  0.00  0.00    -0.732 N 
ATOM      8  C   UNL d   1      -0.688  -0.253  -2.159  0.00  0.00     0.284 C 
ATOM      9  H3  UNL d   1       0.160  -1.991  -1.390  0.00  0.00     0.395 HD
ENDBRANCH   1   7
TORSDOF 1
ENDMDL
