MODEL 1
REMARK minimizedAffinity -3.2662468
REMARK minimizedRMSD -1
REMARK  1 active torsions:
REMARK  status: ('A' for Active; 'I' for Inactive)
REMARK    1  A    between atoms: C3_4  and  O_7 
ROOT
ATOM      1  C   UNL d   1       0.351  -0.773  -0.621  0.00  0.00    -0.033 A 
ATOM      2  C1  UNL d   1       1.277  -0.088   0.168  0.00  0.00     0.039 A 
ATOM      3  C2  UNL d   1       2.100   0.884  -0.404  0.00  0.00    -0.080 A 
ATOM      4  C3  UNL d   1       1.987   1.162  -1.763  0.00  0.00     0.150 A 
ATOM      5  C4  UNL d   1       1.064   0.486  -2.555  0.00  0.00    -0.007 A 
ATOM      6  C5  UNL d   1       0.244  -0.485  -1.982  0.00  0.00     0.039 A 
ENDROOT
BRANCH   4   7
ATOM      7  O   UNL d   1       2.773   2.099  -2.367  0.00  0.00    -0.526 OA
ATOM      8  H5  UNL d   1       3.382   2.463  -1.704  0.00  0.00     0.418 HD
ENDBRANCH   4   7
TORSDOF 1
ENDMDL
