MODEL 1
REMARK minimizedAffinity 2.98999262
REMARK minimizedRMSD -1
REMARK  1 active torsions:
REMARK  status: ('A' for Active; 'I' for Inactive)
REMARK    1  A    between atoms: C3_4  and  O_7 
ROOT
ATOM      1  C   UNL d   1      -2.585   0.100  -0.159  0.00  0.00    -0.033 A 
ATOM      2  C1  UNL d   1      -1.894   1.311  -0.240  0.00  0.00     0.039 A 
ATOM      3  C2  UNL d   1      -0.500   1.319  -0.316  0.00  0.00    -0.080 A 
ATOM      4  C3  UNL d   1       0.191   0.110  -0.312  0.00  0.00     0.150 A 
ATOM      5  C4  UNL d   1      -0.491  -1.100  -0.235  0.00  0.00    -0.007 A 
ATOM      6  C5  UNL d   1      -1.883  -1.105  -0.158  0.00  0.00     0.039 A 
ENDROOT
BRANCH   4   7
ATOM      7  O   UNL d   1       1.552   0.067  -0.379  0.00  0.00    -0.526 OA
ATOM      8  H5  UNL d   1       1.888   0.979  -0.399  0.00  0.00     0.418 HD
ENDBRANCH   4   7
TORSDOF 1
ENDMDL
