MODEL 1
REMARK minimizedAffinity -5.09473181
REMARK minimizedRMSD -1
REMARK  1 active torsions:
REMARK  status: ('A' for Active; 'I' for Inactive)
REMARK    1  A    between atoms: C3_4  and  O_7 
ROOT
ATOM      1  C   UNL d   1      -0.873   2.038   2.041  0.00  0.00    -0.033 A 
ATOM      2  C1  UNL d   1      -0.087   1.908   0.894  0.00  0.00     0.039 A 
ATOM      3  C2  UNL d   1       0.866   0.891   0.810  0.00  0.00    -0.080 A 
ATOM      4  C3  UNL d   1       1.022   0.011   1.877  0.00  0.00     0.150 A 
ATOM      5  C4  UNL d   1       0.240   0.132   3.021  0.00  0.00    -0.007 A 
ATOM      6  C5  UNL d   1      -0.710   1.149   3.104  0.00  0.00     0.039 A 
ENDROOT
BRANCH   4   7
ATOM      7  O   UNL d   1       1.942  -0.994   1.843  0.00  0.00    -0.526 OA
ATOM      8  H5  UNL d   1       2.428  -0.938   1.003  0.00  0.00     0.418 HD
ENDBRANCH   4   7
TORSDOF 1
ENDMDL
