MODEL 1
REMARK minimizedAffinity -1.1275183
REMARK minimizedRMSD -1
REMARK  1 active torsions:
REMARK  status: ('A' for Active; 'I' for Inactive)
REMARK    1  A    between atoms: C3_4  and  O_7 
ROOT
ATOM      1  C   UNL d   1       0.292  -0.213  -1.077  0.00  0.00    -0.033 A 
ATOM      2  C1  UNL d   1      -1.089  -0.182  -1.284  0.00  0.00     0.039 A 
ATOM      3  C2  UNL d   1      -1.950   0.085  -0.218  0.00  0.00    -0.080 A 
ATOM      4  C3  UNL d   1      -1.419   0.321   1.047  0.00  0.00     0.150 A 
ATOM      5  C4  UNL d   1      -0.045   0.296   1.259  0.00  0.00    -0.007 A 
ATOM      6  C5  UNL d   1       0.814   0.028   0.194  0.00  0.00     0.039 A 
ENDROOT
BRANCH   4   7
ATOM      7  O   UNL d   1      -2.221   0.582   2.119  0.00  0.00    -0.526 OA
ATOM      8  H5  UNL d   1      -3.147   0.538   1.828  0.00  0.00     0.418 HD
ENDBRANCH   4   7
TORSDOF 1
ENDMDL
