MODEL 1
REMARK minimizedAffinity -0.927882195
REMARK minimizedRMSD -1
REMARK  1 active torsions:
REMARK  status: ('A' for Active; 'I' for Inactive)
REMARK    1  A    between atoms: C3_4  and  O_7 
ROOT
ATOM      1  C   UNL d   1       1.947   1.370  -3.725  0.00  0.00    -0.033 A 
ATOM      2  C1  UNL d   1       2.511   1.410  -2.448  0.00  0.00     0.039 A 
ATOM      3  C2  UNL d   1       1.898   0.736  -1.390  0.00  0.00    -0.080 A 
ATOM      4  C3  UNL d   1       0.723   0.026  -1.622  0.00  0.00     0.150 A 
ATOM      5  C4  UNL d   1       0.158  -0.022  -2.892  0.00  0.00    -0.007 A 
ATOM      6  C5  UNL d   1       0.771   0.652  -3.947  0.00  0.00     0.039 A 
ENDROOT
BRANCH   4   7
ATOM      7  O   UNL d   1       0.086  -0.643  -0.620  0.00  0.00    -0.526 OA
ATOM      8  H5  UNL d   1       0.575  -0.498   0.207  0.00  0.00     0.418 HD
ENDBRANCH   4   7
TORSDOF 1
ENDMDL
