MODEL 1
REMARK minimizedAffinity -4.54318571
REMARK minimizedRMSD -1
REMARK  1 active torsions:
REMARK  status: ('A' for Active; 'I' for Inactive)
REMARK    1  A    between atoms: C3_4  and  O_7 
ROOT
ATOM      1  C   UNL d   1       1.026  -1.326  -0.140  0.00  0.00    -0.033 A 
ATOM      2  C1  UNL d   1      -0.285  -1.010  -0.501  0.00  0.00     0.039 A 
ATOM      3  C2  UNL d   1      -1.097  -0.284   0.373  0.00  0.00    -0.080 A 
ATOM      4  C3  UNL d   1      -0.586   0.120   1.603  0.00  0.00     0.150 A 
ATOM      5  C4  UNL d   1       0.720  -0.188   1.968  0.00  0.00    -0.007 A 
ATOM      6  C5  UNL d   1       1.529  -0.914   1.095  0.00  0.00     0.039 A 
ENDROOT
BRANCH   4   7
ATOM      7  O   UNL d   1      -1.342   0.827   2.491  0.00  0.00    -0.526 OA
ATOM      8  H5  UNL d   1      -2.231   0.941   2.116  0.00  0.00     0.418 HD
ENDBRANCH   4   7
TORSDOF 1
ENDMDL
