MODEL 1
REMARK minimizedAffinity -5.33327007
REMARK minimizedRMSD -1
REMARK  1 active torsions:
REMARK  status: ('A' for Active; 'I' for Inactive)
REMARK    1  A    between atoms: C3_4  and  O_7 
ROOT
ATOM      1  C   UNL d   1      -0.433   0.982   2.816  0.00  0.00    -0.033 A 
ATOM      2  C1  UNL d   1      -1.365   0.865   1.783  0.00  0.00     0.039 A 
ATOM      3  C2  UNL d   1      -0.995   0.282   0.570  0.00  0.00    -0.080 A 
ATOM      4  C3  UNL d   1       0.307  -0.179   0.402  0.00  0.00     0.150 A 
ATOM      5  C4  UNL d   1       1.240  -0.069   1.428  0.00  0.00    -0.007 A 
ATOM      6  C5  UNL d   1       0.869   0.514   2.639  0.00  0.00     0.039 A 
ENDROOT
BRANCH   4   7
ATOM      7  O   UNL d   1       0.716  -0.751  -0.766  0.00  0.00    -0.526 OA
ATOM      8  H5  UNL d   1      -0.026  -0.734  -1.393  0.00  0.00     0.418 HD
ENDBRANCH   4   7
TORSDOF 1
ENDMDL
