MODEL 1
REMARK minimizedAffinity 5.54919147
REMARK minimizedRMSD -1
REMARK  1 active torsions:
REMARK  status: ('A' for Active; 'I' for Inactive)
REMARK    1  A    between atoms: C1_2  and  C2_3 
ROOT
ATOM      1  C2  UNL d   1      -3.309  -1.585   1.956  0.00  0.00    -0.073 A 
ATOM      2  C3  UNL d   1      -4.317  -2.261   2.653  0.00  0.00    -0.002 A 
ATOM      3  C4  UNL d   1      -5.655  -2.095   2.294  0.00  0.00     0.004 A 
ATOM      4  C5  UNL d   1      -5.998  -1.259   1.231  0.00  0.00    -0.004 A 
ATOM      5  C6  UNL d   1      -5.004  -0.585   0.514  0.00  0.00    -0.075 A 
ATOM      6  C7  UNL d   1      -5.357   0.319  -0.630  0.00  0.00     0.076 C 
ATOM      7  C8  UNL d   1      -3.663  -0.755   0.883  0.00  0.00     0.001 A 
ENDROOT
BRANCH   1   8
ATOM      8  C1  UNL d   1      -1.862  -1.766   2.337  0.00  0.00     0.053 C 
ATOM      9  C   UNL d   1      -1.146  -0.435   2.501  0.00  0.00     0.018 C 
ENDBRANCH   1   8
TORSDOF 1
ENDMDL
