MODEL 1
REMARK minimizedAffinity 6.34267282
REMARK minimizedRMSD -1
REMARK  1 active torsions:
REMARK  status: ('A' for Active; 'I' for Inactive)
REMARK    1  A    between atoms: C1_2  and  C2_3 
ROOT
ATOM      1  C2  UNL d   1      -1.596   2.385  -1.523  0.00  0.00    -0.073 A 
ATOM      2  C3  UNL d   1      -0.404   1.757  -1.147  0.00  0.00    -0.002 A 
ATOM      3  C4  UNL d   1       0.772   2.497  -1.015  0.00  0.00     0.004 A 
ATOM      4  C5  UNL d   1       0.766   3.872  -1.252  0.00  0.00    -0.004 A 
ATOM      5  C6  UNL d   1      -0.418   4.520  -1.618  0.00  0.00    -0.075 A 
ATOM      6  C7  UNL d   1      -0.440   5.997  -1.878  0.00  0.00     0.076 C 
ATOM      7  C8  UNL d   1      -1.594   3.769  -1.751  0.00  0.00     0.001 A 
ENDROOT
BRANCH   1   8
ATOM      8  C1  UNL d   1      -2.869   1.591  -1.660  0.00  0.00     0.053 C 
ATOM      9  C   UNL d   1      -3.321   1.004  -0.332  0.00  0.00     0.018 C 
ENDBRANCH   1   8
TORSDOF 1
ENDMDL
