MODEL 1
REMARK minimizedAffinity 0.892281353
REMARK minimizedRMSD -1
REMARK  1 active torsions:
REMARK  status: ('A' for Active; 'I' for Inactive)
REMARK    1  A    between atoms: C1_2  and  C2_3 
ROOT
ATOM      1  C2  UNL d   1       4.572  -3.714  -0.792  0.00  0.00    -0.073 A 
ATOM      2  C3  UNL d   1       5.477  -4.446  -1.569  0.00  0.00    -0.002 A 
ATOM      3  C4  UNL d   1       5.055  -5.585  -2.257  0.00  0.00     0.004 A 
ATOM      4  C5  UNL d   1       3.725  -5.999  -2.179  0.00  0.00    -0.004 A 
ATOM      5  C6  UNL d   1       2.804  -5.274  -1.417  0.00  0.00    -0.075 A 
ATOM      6  C7  UNL d   1       1.370  -5.708  -1.322  0.00  0.00     0.076 C 
ATOM      7  C8  UNL d   1       3.236  -4.133  -0.728  0.00  0.00     0.001 A 
ENDROOT
BRANCH   1   8
ATOM      8  C1  UNL d   1       5.022  -2.480  -0.053  0.00  0.00     0.053 C 
ATOM      9  C   UNL d   1       3.865  -1.536   0.237  0.00  0.00     0.018 C 
ENDBRANCH   1   8
TORSDOF 1
ENDMDL
