MODEL 1
REMARK minimizedAffinity 2.33327866
REMARK minimizedRMSD -1
REMARK  1 active torsions:
REMARK  status: ('A' for Active; 'I' for Inactive)
REMARK    1  A    between atoms: C1_2  and  C2_3 
ROOT
ATOM      1  C2  UNL d   1       0.825   2.863   0.880  0.00  0.00    -0.073 A 
ATOM      2  C3  UNL d   1      -0.000   1.877   0.327  0.00  0.00    -0.002 A 
ATOM      3  C4  UNL d   1      -0.579   2.066  -0.929  0.00  0.00     0.004 A 
ATOM      4  C5  UNL d   1      -0.333   3.236  -1.647  0.00  0.00    -0.004 A 
ATOM      5  C6  UNL d   1       0.498   4.228  -1.116  0.00  0.00    -0.075 A 
ATOM      6  C7  UNL d   1       0.770   5.494  -1.874  0.00  0.00     0.076 C 
ATOM      7  C8  UNL d   1       1.073   4.033   0.147  0.00  0.00     0.001 A 
ENDROOT
BRANCH   1   8
ATOM      8  C1  UNL d   1       1.457   2.662   2.233  0.00  0.00     0.053 C 
ATOM      9  C   UNL d   1       0.685   1.661   3.079  0.00  0.00     0.018 C 
ENDBRANCH   1   8
TORSDOF 1
ENDMDL
