MODEL 1
REMARK minimizedAffinity 6.03956461
REMARK minimizedRMSD -1
REMARK  1 active torsions:
REMARK  status: ('A' for Active; 'I' for Inactive)
REMARK    1  A    between atoms: C1_2  and  C2_3 
ROOT
ATOM      1  C2  UNL d   1       3.434  -4.137  -1.907  0.00  0.00    -0.073 A 
ATOM      2  C3  UNL d   1       2.591  -5.122  -2.435  0.00  0.00    -0.002 A 
ATOM      3  C4  UNL d   1       1.606  -5.707  -1.638  0.00  0.00     0.004 A 
ATOM      4  C5  UNL d   1       1.448  -5.309  -0.311  0.00  0.00    -0.004 A 
ATOM      5  C6  UNL d   1       2.273  -4.318   0.231  0.00  0.00    -0.075 A 
ATOM      6  C7  UNL d   1       2.118  -3.881   1.658  0.00  0.00     0.076 C 
ATOM      7  C8  UNL d   1       3.262  -3.737  -0.574  0.00  0.00     0.001 A 
ENDROOT
BRANCH   1   8
ATOM      8  C1  UNL d   1       4.495  -3.498  -2.765  0.00  0.00     0.053 C 
ATOM      9  C   UNL d   1       4.380  -1.982  -2.779  0.00  0.00     0.018 C 
ENDBRANCH   1   8
TORSDOF 1
ENDMDL
