MODEL 1
REMARK minimizedAffinity 7.6111064
REMARK minimizedRMSD -1
REMARK  0 active torsions:
REMARK  status: ('A' for Active; 'I' for Inactive)
ROOT
ATOM      1  C4' PXY d   1       0.213  -2.884  -0.955  0.00  0.00     0.077 C 
ATOM      2  C1' PXY d   1       3.466   0.038   2.826  0.00  0.00     0.077 C 
ATOM      3  C1  PXY d   1       2.623  -0.729   1.826  0.00  0.00    -0.082 A 
ATOM      4  C2  PXY d   1       1.308  -0.591   1.838  0.00  0.00     0.003 A 
ATOM      5  C3  PXY d   1       0.528  -1.302   0.962  0.00  0.00     0.003 A 
ATOM      6  C4  PXY d   1       1.104  -2.122   0.030  0.00  0.00    -0.082 A 
ATOM      7  C5  PXY d   1       2.447  -2.260   0.004  0.00  0.00     0.003 A 
ATOM      8  C6  PXY d   1       3.218  -1.562   0.929  0.00  0.00     0.003 A 
ENDROOT
TORSDOF 0
ENDMDL
