MODEL 1
REMARK minimizedAffinity 9.84901047
REMARK minimizedRMSD -1
REMARK  0 active torsions:
REMARK  status: ('A' for Active; 'I' for Inactive)
ROOT
ATOM      1  C4' PXY d   1       0.178  -1.650  -5.438  0.00  0.00     0.077 C 
ATOM      2  C1' PXY d   1       2.098   1.998  -1.386  0.00  0.00     0.077 C 
ATOM      3  C1  PXY d   1       1.596   1.051  -2.458  0.00  0.00    -0.082 A 
ATOM      4  C2  PXY d   1       0.793   0.053  -2.125  0.00  0.00     0.003 A 
ATOM      5  C3  PXY d   1       0.356  -0.832  -3.076  0.00  0.00     0.003 A 
ATOM      6  C4  PXY d   1       0.701  -0.663  -4.391  0.00  0.00    -0.082 A 
ATOM      7  C5  PXY d   1       1.511   0.359  -4.740  0.00  0.00     0.003 A 
ATOM      8  C6  PXY d   1       1.977   1.222  -3.752  0.00  0.00     0.003 A 
ENDROOT
TORSDOF 0
ENDMDL
