MODEL 1
REMARK minimizedAffinity 6.89227962
REMARK minimizedRMSD -1
REMARK  0 active torsions:
REMARK  status: ('A' for Active; 'I' for Inactive)
ROOT
ATOM      1  C4' PXY d   1       5.216   1.436  -3.367  0.00  0.00     0.077 C 
ATOM      2  C1' PXY d   1      -0.302  -0.201  -3.902  0.00  0.00     0.077 C 
ATOM      3  C1  PXY d   1       1.141   0.238  -3.754  0.00  0.00    -0.082 A 
ATOM      4  C2  PXY d   1       2.027  -0.105  -4.675  0.00  0.00     0.003 A 
ATOM      5  C3  PXY d   1       3.343   0.257  -4.541  0.00  0.00     0.003 A 
ATOM      6  C4  PXY d   1       3.746   1.023  -3.480  0.00  0.00    -0.082 A 
ATOM      7  C5  PXY d   1       2.846   1.386  -2.541  0.00  0.00     0.003 A 
ATOM      8  C6  PXY d   1       1.523   0.974  -2.675  0.00  0.00     0.003 A 
ENDROOT
TORSDOF 0
ENDMDL
