MODEL 1
REMARK minimizedAffinity 4.24355745
REMARK minimizedRMSD -1
REMARK  0 active torsions:
REMARK  status: ('A' for Active; 'I' for Inactive)
ROOT
ATOM      1  C4' PXY d   1       1.886  -0.546   0.328  0.00  0.00     0.077 C 
ATOM      2  C1' PXY d   1      -0.128   0.347  -5.016  0.00  0.00     0.077 C 
ATOM      3  C1  PXY d   1       0.411   0.118  -3.618  0.00  0.00    -0.082 A 
ATOM      4  C2  PXY d   1      -0.116  -0.830  -2.860  0.00  0.00     0.003 A 
ATOM      5  C3  PXY d   1       0.338  -1.029  -1.582  0.00  0.00     0.003 A 
ATOM      6  C4  PXY d   1       1.379  -0.286  -1.093  0.00  0.00    -0.082 A 
ATOM      7  C5  PXY d   1       1.930   0.676  -1.864  0.00  0.00     0.003 A 
ATOM      8  C6  PXY d   1       1.427   0.890  -3.144  0.00  0.00     0.003 A 
ENDROOT
TORSDOF 0
ENDMDL
