MODEL 1
REMARK minimizedAffinity 2.58344746
REMARK minimizedRMSD -1
REMARK  0 active torsions:
REMARK  status: ('A' for Active; 'I' for Inactive)
ROOT
ATOM      1  C4' PXY d   1       1.695   1.122  -3.434  0.00  0.00     0.077 C 
ATOM      2  C1' PXY d   1       1.975   0.182   2.263  0.00  0.00     0.077 C 
ATOM      3  C1  PXY d   1       1.899   0.442   0.771  0.00  0.00    -0.082 A 
ATOM      4  C2  PXY d   1       1.586  -0.548  -0.050  0.00  0.00     0.003 A 
ATOM      5  C3  PXY d   1       1.544  -0.339  -1.404  0.00  0.00     0.003 A 
ATOM      6  C4  PXY d   1       1.774   0.909  -1.920  0.00  0.00    -0.082 A 
ATOM      7  C5  PXY d   1       2.084   1.926  -1.088  0.00  0.00     0.003 A 
ATOM      8  C6  PXY d   1       2.161   1.683   0.280  0.00  0.00     0.003 A 
ENDROOT
TORSDOF 0
ENDMDL
