MODEL 1
REMARK minimizedAffinity 5.57759619
REMARK minimizedRMSD -1
REMARK  0 active torsions:
REMARK  status: ('A' for Active; 'I' for Inactive)
ROOT
ATOM      1  C4' PXY d   1       2.568  -0.265   1.547  0.00  0.00     0.077 C 
ATOM      2  C1' PXY d   1      -3.104   0.649   2.185  0.00  0.00     0.077 C 
ATOM      3  C1  PXY d   1      -1.614   0.421   2.023  0.00  0.00    -0.082 A 
ATOM      4  C2  PXY d   1      -1.179  -0.444   1.121  0.00  0.00     0.003 A 
ATOM      5  C3  PXY d   1       0.163  -0.686   0.983  0.00  0.00     0.003 A 
ATOM      6  C4  PXY d   1       1.073   0.004   1.739  0.00  0.00    -0.082 A 
ATOM      7  C5  PXY d   1       0.637   0.896   2.654  0.00  0.00     0.003 A 
ATOM      8  C6  PXY d   1      -0.731   1.097   2.808  0.00  0.00     0.003 A 
ENDROOT
TORSDOF 0
ENDMDL
