MODEL 1
REMARK minimizedAffinity 5.76631832
REMARK minimizedRMSD -1
REMARK  0 active torsions:
REMARK  status: ('A' for Active; 'I' for Inactive)
ROOT
ATOM      1  C4' PXY d   1      -0.723  -1.333  -5.998  0.00  0.00     0.077 C 
ATOM      2  C1' PXY d   1       2.429   1.780  -2.285  0.00  0.00     0.077 C 
ATOM      3  C1  PXY d   1       1.602   0.954  -3.250  0.00  0.00    -0.082 A 
ATOM      4  C2  PXY d   1       1.701   1.174  -4.551  0.00  0.00     0.003 A 
ATOM      5  C3  PXY d   1       0.936   0.458  -5.436  0.00  0.00     0.003 A 
ATOM      6  C4  PXY d   1       0.100  -0.530  -4.988  0.00  0.00    -0.082 A 
ATOM      7  C5  PXY d   1       0.002  -0.768  -3.663  0.00  0.00     0.003 A 
ATOM      8  C6  PXY d   1       0.756  -0.002  -2.778  0.00  0.00     0.003 A 
ENDROOT
TORSDOF 0
ENDMDL
