MODEL 1
REMARK minimizedAffinity 7.86150551
REMARK minimizedRMSD -1
REMARK  0 active torsions:
REMARK  status: ('A' for Active; 'I' for Inactive)
ROOT
ATOM      1  C4' PXY d   1       2.103  -1.298  -0.187  0.00  0.00     0.077 C 
ATOM      2  C1' PXY d   1       0.692   0.736  -5.411  0.00  0.00     0.077 C 
ATOM      3  C1  PXY d   1       1.050   0.198  -4.040  0.00  0.00    -0.082 A 
ATOM      4  C2  PXY d   1       2.024   0.766  -3.348  0.00  0.00     0.003 A 
ATOM      5  C3  PXY d   1       2.382   0.272  -2.120  0.00  0.00     0.003 A 
ATOM      6  C4  PXY d   1       1.701  -0.782  -1.572  0.00  0.00    -0.082 A 
ATOM      7  C5  PXY d   1       0.700  -1.361  -2.267  0.00  0.00     0.003 A 
ATOM      8  C6  PXY d   1       0.379  -0.870  -3.530  0.00  0.00     0.003 A 
ENDROOT
TORSDOF 0
ENDMDL
