MODEL 1
REMARK minimizedAffinity 5.35730457
REMARK minimizedRMSD -1
REMARK  0 active torsions:
REMARK  status: ('A' for Active; 'I' for Inactive)
ROOT
ATOM      1  C4' PXY d   1       4.512  -1.768  -4.323  0.00  0.00     0.077 C 
ATOM      2  C1' PXY d   1       1.709   2.988  -2.608  0.00  0.00     0.077 C 
ATOM      3  C1  PXY d   1       2.454   1.748  -3.062  0.00  0.00    -0.082 A 
ATOM      4  C2  PXY d   1       1.780   0.643  -3.335  0.00  0.00     0.003 A 
ATOM      5  C3  PXY d   1       2.440  -0.497  -3.716  0.00  0.00     0.003 A 
ATOM      6  C4  PXY d   1       3.801  -0.490  -3.871  0.00  0.00    -0.082 A 
ATOM      7  C5  PXY d   1       4.495   0.637  -3.605  0.00  0.00     0.003 A 
ATOM      8  C6  PXY d   1       3.810   1.771  -3.179  0.00  0.00     0.003 A 
ENDROOT
TORSDOF 0
ENDMDL
