MODEL 1
REMARK minimizedAffinity 2.09782743
REMARK minimizedRMSD -1
REMARK  0 active torsions:
REMARK  status: ('A' for Active; 'I' for Inactive)
ROOT
ATOM      1  C4' PXY d   1      -1.357   6.000  -2.680  0.00  0.00     0.077 C 
ATOM      2  C1' PXY d   1       1.553   3.617   1.710  0.00  0.00     0.077 C 
ATOM      3  C1  PXY d   1       0.799   4.252   0.558  0.00  0.00    -0.082 A 
ATOM      4  C2  PXY d   1      -0.499   4.030   0.425  0.00  0.00     0.003 A 
ATOM      5  C3  PXY d   1      -1.190   4.570  -0.629  0.00  0.00     0.003 A 
ATOM      6  C4  PXY d   1      -0.557   5.388  -1.527  0.00  0.00    -0.082 A 
ATOM      7  C5  PXY d   1       0.765   5.627  -1.392  0.00  0.00     0.003 A 
ATOM      8  C6  PXY d   1       1.457   5.037  -0.339  0.00  0.00     0.003 A 
ENDROOT
TORSDOF 0
ENDMDL
