MODEL 1
REMARK minimizedAffinity 8.32843781
REMARK minimizedRMSD -1
REMARK  0 active torsions:
REMARK  status: ('A' for Active; 'I' for Inactive)
ROOT
ATOM      1  C4' PXY d   1       2.926   3.428   4.053  0.00  0.00     0.077 C 
ATOM      2  C1' PXY d   1      -0.528   4.340  -0.492  0.00  0.00     0.077 C 
ATOM      3  C1  PXY d   1       0.388   4.104   0.693  0.00  0.00    -0.082 A 
ATOM      4  C2  PXY d   1       0.003   3.296   1.667  0.00  0.00     0.003 A 
ATOM      5  C3  PXY d   1       0.805   3.097   2.761  0.00  0.00     0.003 A 
ATOM      6  C4  PXY d   1       2.038   3.688   2.833  0.00  0.00    -0.082 A 
ATOM      7  C5  PXY d   1       2.443   4.506   1.838  0.00  0.00     0.003 A 
ATOM      8  C6  PXY d   1       1.596   4.727   0.756  0.00  0.00     0.003 A 
ENDROOT
TORSDOF 0
ENDMDL
