MODEL 1
REMARK minimizedAffinity 10.428092
REMARK minimizedRMSD -1
REMARK  0 active torsions:
REMARK  status: ('A' for Active; 'I' for Inactive)
ROOT
ATOM      1  C4' PXY d   1       1.094   5.980  -2.407  0.00  0.00     0.077 C 
ATOM      2  C1' PXY d   1      -0.457   3.216   2.427  0.00  0.00     0.077 C 
ATOM      3  C1  PXY d   1      -0.058   3.951   1.162  0.00  0.00    -0.082 A 
ATOM      4  C2  PXY d   1       0.390   3.267   0.122  0.00  0.00     0.003 A 
ATOM      5  C3  PXY d   1       0.785   3.918  -1.018  0.00  0.00     0.003 A 
ATOM      6  C4  PXY d   1       0.671   5.279  -1.113  0.00  0.00    -0.082 A 
ATOM      7  C5  PXY d   1       0.205   5.983  -0.060  0.00  0.00     0.003 A 
ATOM      8  C6  PXY d   1      -0.152   5.307   1.103  0.00  0.00     0.003 A 
ENDROOT
TORSDOF 0
ENDMDL
