MODEL 1
REMARK minimizedAffinity 11.795887
REMARK minimizedRMSD -1
REMARK  0 active torsions:
REMARK  status: ('A' for Active; 'I' for Inactive)
ROOT
ATOM      1  C4' PXY d   1       1.493  -0.698   4.861  0.00  0.00     0.077 C 
ATOM      2  C1' PXY d   1       5.997  -4.302   5.233  0.00  0.00     0.077 C 
ATOM      3  C1  PXY d   1       4.817  -3.353   5.148  0.00  0.00    -0.082 A 
ATOM      4  C2  PXY d   1       3.876  -3.560   4.242  0.00  0.00     0.003 A 
ATOM      5  C3  PXY d   1       2.819  -2.694   4.130  0.00  0.00     0.003 A 
ATOM      6  C4  PXY d   1       2.697  -1.635   4.989  0.00  0.00    -0.082 A 
ATOM      7  C5  PXY d   1       3.648  -1.424   5.924  0.00  0.00     0.003 A 
ATOM      8  C6  PXY d   1       4.734  -2.291   5.994  0.00  0.00     0.003 A 
ENDROOT
TORSDOF 0
ENDMDL
