MODEL 1
REMARK minimizedAffinity 4.60127354
REMARK minimizedRMSD -1
REMARK  0 active torsions:
REMARK  status: ('A' for Active; 'I' for Inactive)
ROOT
ATOM      1  C4' PXY d   1       2.531  -0.635  -0.760  0.00  0.00     0.077 C 
ATOM      2  C1' PXY d   1       5.995  -5.217  -0.106  0.00  0.00     0.077 C 
ATOM      3  C1  PXY d   1       5.097  -4.008  -0.281  0.00  0.00    -0.082 A 
ATOM      4  C2  PXY d   1       3.957  -3.937   0.388  0.00  0.00     0.003 A 
ATOM      5  C3  PXY d   1       3.118  -2.867   0.217  0.00  0.00     0.003 A 
ATOM      6  C4  PXY d   1       3.473  -1.832  -0.607  0.00  0.00    -0.082 A 
ATOM      7  C5  PXY d   1       4.639  -1.892  -1.285  0.00  0.00     0.003 A 
ATOM      8  C6  PXY d   1       5.458  -3.007  -1.129  0.00  0.00     0.003 A 
ENDROOT
TORSDOF 0
ENDMDL
