MODEL 1
REMARK minimizedAffinity 10.9480829
REMARK minimizedRMSD -1
REMARK  0 active torsions:
REMARK  status: ('A' for Active; 'I' for Inactive)
ROOT
ATOM      1  C4' PXY d   1       0.323   2.943   0.709  0.00  0.00     0.077 C 
ATOM      2  C1' PXY d   1      -1.171  -1.577  -2.570  0.00  0.00     0.077 C 
ATOM      3  C1  PXY d   1      -0.791  -0.386  -1.713  0.00  0.00    -0.082 A 
ATOM      4  C2  PXY d   1       0.487  -0.100  -1.520  0.00  0.00     0.003 A 
ATOM      5  C3  PXY d   1       0.848   0.954  -0.721  0.00  0.00     0.003 A 
ATOM      6  C4  PXY d   1      -0.107   1.756  -0.157  0.00  0.00    -0.082 A 
ATOM      7  C5  PXY d   1      -1.413   1.477  -0.357  0.00  0.00     0.003 A 
ATOM      8  C6  PXY d   1      -1.759   0.378  -1.138  0.00  0.00     0.003 A 
ENDROOT
TORSDOF 0
ENDMDL
