MODEL 1
REMARK minimizedAffinity 5.57943916
REMARK minimizedRMSD -1
REMARK  0 active torsions:
REMARK  status: ('A' for Active; 'I' for Inactive)
ROOT
ATOM      1  C4' PXY d   1       0.782   2.136   3.303  0.00  0.00     0.077 C 
ATOM      2  C1' PXY d   1       0.723   5.364  -1.492  0.00  0.00     0.077 C 
ATOM      3  C1  PXY d   1       0.751   4.520  -0.233  0.00  0.00    -0.082 A 
ATOM      4  C2  PXY d   1      -0.187   3.607  -0.036  0.00  0.00     0.003 A 
ATOM      5  C3  PXY d   1      -0.195   2.857   1.112  0.00  0.00     0.003 A 
ATOM      6  C4  PXY d   1       0.798   3.005   2.043  0.00  0.00    -0.082 A 
ATOM      7  C5  PXY d   1       1.765   3.926   1.844  0.00  0.00     0.003 A 
ATOM      8  C6  PXY d   1       1.732   4.706   0.692  0.00  0.00     0.003 A 
ENDROOT
TORSDOF 0
ENDMDL
