MODEL 1
REMARK minimizedAffinity -0.338056386
REMARK minimizedRMSD -1
REMARK  1 active torsions:
REMARK  status: ('A' for Active; 'I' for Inactive)
REMARK    1  A    between atoms: C3_4  and  O_7 
ROOT
ATOM      1  C   UNL d   1       2.528  -1.534   4.210  0.00  0.00    -0.033 A 
ATOM      2  C1  UNL d   1       3.114  -1.137   5.414  0.00  0.00     0.039 A 
ATOM      3  C2  UNL d   1       4.130  -1.905   5.985  0.00  0.00    -0.080 A 
ATOM      4  C3  UNL d   1       4.552  -3.066   5.342  0.00  0.00     0.150 A 
ATOM      5  C4  UNL d   1       3.976  -3.465   4.141  0.00  0.00    -0.007 A 
ATOM      6  C5  UNL d   1       2.961  -2.697   3.573  0.00  0.00     0.039 A 
ENDROOT
BRANCH   4   7
ATOM      7  O   UNL d   1       5.538  -3.850   5.863  0.00  0.00    -0.526 OA
ATOM      8  H5  UNL d   1       5.822  -3.466   6.710  0.00  0.00     0.418 HD
ENDBRANCH   4   7
TORSDOF 1
ENDMDL
