MODEL 1
REMARK minimizedAffinity -1.99843216
REMARK minimizedRMSD -1
REMARK  1 active torsions:
REMARK  status: ('A' for Active; 'I' for Inactive)
REMARK    1  A    between atoms: C3_4  and  O_7 
ROOT
ATOM      1  C   UNL d   1       0.367  -2.980  -3.595  0.00  0.00    -0.033 A 
ATOM      2  C1  UNL d   1      -0.171  -1.740  -3.244  0.00  0.00     0.039 A 
ATOM      3  C2  UNL d   1      -0.922  -1.609  -2.075  0.00  0.00    -0.080 A 
ATOM      4  C3  UNL d   1      -1.127  -2.723  -1.266  0.00  0.00     0.150 A 
ATOM      5  C4  UNL d   1      -0.591  -3.960  -1.607  0.00  0.00    -0.007 A 
ATOM      6  C5  UNL d   1       0.158  -4.090  -2.776  0.00  0.00     0.039 A 
ENDROOT
BRANCH   4   7
ATOM      7  O   UNL d   1      -1.857  -2.645  -0.117  0.00  0.00    -0.526 OA
ATOM      8  H5  UNL d   1      -2.189  -1.736  -0.025  0.00  0.00     0.418 HD
ENDBRANCH   4   7
TORSDOF 1
ENDMDL
