MODEL 1
REMARK minimizedAffinity -0.196348727
REMARK minimizedRMSD -1
REMARK  1 active torsions:
REMARK  status: ('A' for Active; 'I' for Inactive)
REMARK    1  A    between atoms: C3_4  and  O_7 
ROOT
ATOM      1  C   UNL d   1       0.637  -2.219  -3.189  0.00  0.00    -0.033 A 
ATOM      2  C1  UNL d   1      -0.759  -2.231  -3.232  0.00  0.00     0.039 A 
ATOM      3  C2  UNL d   1      -1.495  -2.333  -2.050  0.00  0.00    -0.080 A 
ATOM      4  C3  UNL d   1      -0.824  -2.421  -0.833  0.00  0.00     0.150 A 
ATOM      5  C4  UNL d   1       0.566  -2.406  -0.783  0.00  0.00    -0.007 A 
ATOM      6  C5  UNL d   1       1.299  -2.305  -1.964  0.00  0.00     0.039 A 
ENDROOT
BRANCH   4   7
ATOM      7  O   UNL d   1      -1.500  -2.527   0.346  0.00  0.00    -0.526 OA
ATOM      8  H5  UNL d   1      -2.452  -2.554   0.154  0.00  0.00     0.418 HD
ENDBRANCH   4   7
TORSDOF 1
ENDMDL
