MODEL 1
REMARK minimizedAffinity 3.09047461
REMARK minimizedRMSD -1
REMARK  1 active torsions:
REMARK  status: ('A' for Active; 'I' for Inactive)
REMARK    1  A    between atoms: C3_4  and  O_7 
ROOT
ATOM      1  C   UNL d   1       5.927   4.517  -4.625  0.00  0.00    -0.033 A 
ATOM      2  C1  UNL d   1       5.973   5.808  -4.095  0.00  0.00     0.039 A 
ATOM      3  C2  UNL d   1       6.000   5.995  -2.711  0.00  0.00    -0.080 A 
ATOM      4  C3  UNL d   1       5.980   4.886  -1.871  0.00  0.00     0.150 A 
ATOM      5  C4  UNL d   1       5.937   3.597  -2.392  0.00  0.00    -0.007 A 
ATOM      6  C5  UNL d   1       5.910   3.412  -3.774  0.00  0.00     0.039 A 
ENDROOT
BRANCH   4   7
ATOM      7  O   UNL d   1       5.999   5.019  -0.514  0.00  0.00    -0.526 OA
ATOM      8  H5  UNL d   1       5.999   5.967  -0.298  0.00  0.00     0.418 HD
ENDBRANCH   4   7
TORSDOF 1
ENDMDL
