MODEL 1
REMARK minimizedAffinity -1.79326618
REMARK minimizedRMSD -1
REMARK  1 active torsions:
REMARK  status: ('A' for Active; 'I' for Inactive)
REMARK    1  A    between atoms: C3_4  and  O_7 
ROOT
ATOM      1  C   UNL d   1       4.513   4.961  -5.462  0.00  0.00    -0.033 A 
ATOM      2  C1  UNL d   1       5.523   4.101  -5.024  0.00  0.00     0.039 A 
ATOM      3  C2  UNL d   1       6.000   4.191  -3.715  0.00  0.00    -0.080 A 
ATOM      4  C3  UNL d   1       5.459   5.143  -2.855  0.00  0.00     0.150 A 
ATOM      5  C4  UNL d   1       4.450   6.000  -3.283  0.00  0.00    -0.007 A 
ATOM      6  C5  UNL d   1       3.976   5.909  -4.591  0.00  0.00     0.039 A 
ENDROOT
BRANCH   4   7
ATOM      7  O   UNL d   1       5.895   5.271  -1.570  0.00  0.00    -0.526 OA
ATOM      8  H5  UNL d   1       6.613   4.634  -1.423  0.00  0.00     0.418 HD
ENDBRANCH   4   7
TORSDOF 1
ENDMDL
