MODEL 1
REMARK minimizedAffinity 2.83410454
REMARK minimizedRMSD -1
REMARK  1 active torsions:
REMARK  status: ('A' for Active; 'I' for Inactive)
REMARK    1  A    between atoms: C3_4  and  O_7 
ROOT
ATOM      1  C   UNL d   1       4.530   5.108  -5.999  0.00  0.00    -0.033 A 
ATOM      2  C1  UNL d   1       4.027   5.965  -5.018  0.00  0.00     0.039 A 
ATOM      3  C2  UNL d   1       4.508   5.890  -3.709  0.00  0.00    -0.080 A 
ATOM      4  C3  UNL d   1       5.490   4.955  -3.395  0.00  0.00     0.150 A 
ATOM      5  C4  UNL d   1       5.998   4.101  -4.369  0.00  0.00    -0.007 A 
ATOM      6  C5  UNL d   1       5.516   4.177  -5.675  0.00  0.00     0.039 A 
ENDROOT
BRANCH   4   7
ATOM      7  O   UNL d   1       5.987   4.840  -2.131  0.00  0.00    -0.526 OA
ATOM      8  H5  UNL d   1       5.523   5.474  -1.559  0.00  0.00     0.418 HD
ENDBRANCH   4   7
TORSDOF 1
ENDMDL
