MODEL 1
REMARK minimizedAffinity 1.67402124
REMARK minimizedRMSD -1
REMARK  1 active torsions:
REMARK  status: ('A' for Active; 'I' for Inactive)
REMARK    1  A    between atoms: C3_4  and  O_7 
ROOT
ATOM      1  C   UNL d   1      -2.643  -3.118   1.429  0.00  0.00    -0.033 A 
ATOM      2  C1  UNL d   1      -3.359  -2.742   0.290  0.00  0.00     0.039 A 
ATOM      3  C2  UNL d   1      -2.684  -2.271  -0.837  0.00  0.00    -0.080 A 
ATOM      4  C3  UNL d   1      -1.295  -2.181  -0.814  0.00  0.00     0.150 A 
ATOM      5  C4  UNL d   1      -0.575  -2.557   0.315  0.00  0.00    -0.007 A 
ATOM      6  C5  UNL d   1      -1.251  -3.027   1.441  0.00  0.00     0.039 A 
ENDROOT
BRANCH   4   7
ATOM      7  O   UNL d   1      -0.592  -1.722  -1.888  0.00  0.00    -0.526 OA
ATOM      8  H5  UNL d   1      -1.223  -1.472  -2.584  0.00  0.00     0.418 HD
ENDBRANCH   4   7
TORSDOF 1
ENDMDL
