MODEL 1
REMARK minimizedAffinity -0.233974218
REMARK minimizedRMSD -1
REMARK  1 active torsions:
REMARK  status: ('A' for Active; 'I' for Inactive)
REMARK    1  A    between atoms: C3_4  and  O_7 
ROOT
ATOM      1  C   UNL d   1       4.275  -2.806   1.751  0.00  0.00    -0.033 A 
ATOM      2  C1  UNL d   1       4.868  -3.542   2.779  0.00  0.00     0.039 A 
ATOM      3  C2  UNL d   1       4.790  -3.091   4.098  0.00  0.00    -0.080 A 
ATOM      4  C3  UNL d   1       4.118  -1.904   4.376  0.00  0.00     0.150 A 
ATOM      5  C4  UNL d   1       3.522  -1.168   3.357  0.00  0.00    -0.007 A 
ATOM      6  C5  UNL d   1       3.601  -1.619   2.041  0.00  0.00     0.039 A 
ENDROOT
BRANCH   4   7
ATOM      7  O   UNL d   1       4.020  -1.421   5.647  0.00  0.00    -0.526 OA
ATOM      8  H5  UNL d   1       4.503  -2.019   6.241  0.00  0.00     0.418 HD
ENDBRANCH   4   7
TORSDOF 1
ENDMDL
