MODEL 1
REMARK minimizedAffinity 3.33340764
REMARK minimizedRMSD -1
REMARK  1 active torsions:
REMARK  status: ('A' for Active; 'I' for Inactive)
REMARK    1  A    between atoms: C3_4  and  O_7 
ROOT
ATOM      1  C   UNL d   1      -1.966  -2.523   0.923  0.00  0.00    -0.033 A 
ATOM      2  C1  UNL d   1      -0.948  -1.583   1.096  0.00  0.00     0.039 A 
ATOM      3  C2  UNL d   1      -0.160  -1.197   0.010  0.00  0.00    -0.080 A 
ATOM      4  C3  UNL d   1      -0.401  -1.756  -1.242  0.00  0.00     0.150 A 
ATOM      5  C4  UNL d   1      -1.416  -2.690  -1.422  0.00  0.00    -0.007 A 
ATOM      6  C5  UNL d   1      -2.201  -3.075  -0.336  0.00  0.00     0.039 A 
ENDROOT
BRANCH   4   7
ATOM      7  O   UNL d   1       0.345  -1.414  -2.330  0.00  0.00    -0.526 OA
ATOM      8  H5  UNL d   1       1.028  -0.782  -2.049  0.00  0.00     0.418 HD
ENDBRANCH   4   7
TORSDOF 1
ENDMDL
