MODEL 1
REMARK minimizedAffinity 1.0881753
REMARK minimizedRMSD -1
REMARK  1 active torsions:
REMARK  status: ('A' for Active; 'I' for Inactive)
REMARK    1  A    between atoms: C3_4  and  O_7 
ROOT
ATOM      1  C   UNL d   1       5.998   4.088  -3.993  0.00  0.00    -0.033 A 
ATOM      2  C1  UNL d   1       4.835   3.495  -4.486  0.00  0.00     0.039 A 
ATOM      3  C2  UNL d   1       3.601   4.125  -4.315  0.00  0.00    -0.080 A 
ATOM      4  C3  UNL d   1       3.545   5.348  -3.650  0.00  0.00     0.150 A 
ATOM      5  C4  UNL d   1       4.701   5.946  -3.160  0.00  0.00    -0.007 A 
ATOM      6  C5  UNL d   1       5.932   5.314  -3.331  0.00  0.00     0.039 A 
ENDROOT
BRANCH   4   7
ATOM      7  O   UNL d   1       2.363   5.999  -3.455  0.00  0.00    -0.526 OA
ATOM      8  H5  UNL d   1       1.647   5.453  -3.821  0.00  0.00     0.418 HD
ENDBRANCH   4   7
TORSDOF 1
ENDMDL
