MODEL 1
REMARK minimizedAffinity 16.6622257
REMARK minimizedRMSD -1
REMARK  0 active torsions:
REMARK  status: ('A' for Active; 'I' for Inactive)
ROOT
ATOM      1  C   UNL d   1      -1.837  -1.592  -2.154  0.00  0.00     0.124 A 
ATOM      2  C1  UNL d   1      -0.495  -1.397  -1.860  0.00  0.00     0.062 A 
ATOM      3  C2  UNL d   1      -0.064  -0.188  -1.322  0.00  0.00     0.162 A 
ATOM      4  C3  UNL d   1      -0.978   0.836  -1.072  0.00  0.00    -0.034 A 
ATOM      5  C4  UNL d   1      -2.327   0.633  -1.370  0.00  0.00     0.162 A 
ATOM      6  C5  UNL d   1      -2.752  -0.577  -1.908  0.00  0.00     0.062 A 
ATOM      7  F   UNL d   1      -4.049  -0.764  -2.191  0.00  0.00    -0.097 F 
ATOM      8  F1  UNL d   1      -3.232   1.596  -1.142  0.00  0.00    -0.096 F 
ATOM      9  I   UNL d   1      -0.339   2.645  -0.266  0.00  0.00    -0.060 I 
ATOM     10  F2  UNL d   1       1.239  -0.027  -1.048  0.00  0.00    -0.096 F 
ATOM     11  F3  UNL d   1       0.391  -2.375  -2.097  0.00  0.00    -0.097 F 
ATOM     12  F4  UNL d   1      -2.249  -2.756  -2.673  0.00  0.00    -0.092 F 
ENDROOT
TORSDOF 0
ENDMDL
