MODEL 1
REMARK minimizedAffinity 14.6008844
REMARK minimizedRMSD -1
REMARK  0 active torsions:
REMARK  status: ('A' for Active; 'I' for Inactive)
ROOT
ATOM      1  C   UNL d   1       0.977   3.836   2.426  0.00  0.00     0.124 A 
ATOM      2  C1  UNL d   1       0.326   2.633   2.661  0.00  0.00     0.062 A 
ATOM      3  C2  UNL d   1      -0.335   1.980   1.625  0.00  0.00     0.162 A 
ATOM      4  C3  UNL d   1      -0.347   2.528   0.342  0.00  0.00    -0.034 A 
ATOM      5  C4  UNL d   1       0.309   3.739   0.113  0.00  0.00     0.162 A 
ATOM      6  C5  UNL d   1       0.968   4.388   1.153  0.00  0.00     0.062 A 
ATOM      7  F   UNL d   1       1.596   5.550   0.923  0.00  0.00    -0.097 F 
ATOM      8  F1  UNL d   1       0.317   4.294  -1.108  0.00  0.00    -0.096 F 
ATOM      9  I   UNL d   1      -1.334   1.555  -1.211  0.00  0.00    -0.060 I 
ATOM     10  F2  UNL d   1      -0.956   0.819   1.881  0.00  0.00    -0.096 F 
ATOM     11  F3  UNL d   1       0.332   2.098   3.891  0.00  0.00    -0.097 F 
ATOM     12  F4  UNL d   1       1.611   4.462   3.425  0.00  0.00    -0.092 F 
ENDROOT
TORSDOF 0
ENDMDL
