MODEL 1
REMARK minimizedAffinity 17.6099167
REMARK minimizedRMSD -1
REMARK  0 active torsions:
REMARK  status: ('A' for Active; 'I' for Inactive)
ROOT
ATOM      1  C   UNL d   1       0.708   2.227   1.559  0.00  0.00     0.124 A 
ATOM      2  C1  UNL d   1       1.390   1.028   1.407  0.00  0.00     0.062 A 
ATOM      3  C2  UNL d   1       1.169   0.234   0.286  0.00  0.00     0.162 A 
ATOM      4  C3  UNL d   1       0.261   0.637  -0.694  0.00  0.00    -0.034 A 
ATOM      5  C4  UNL d   1      -0.422   1.844  -0.534  0.00  0.00     0.162 A 
ATOM      6  C5  UNL d   1      -0.197   2.634   0.589  0.00  0.00     0.062 A 
ATOM      7  F   UNL d   1      -0.857   3.792   0.734  0.00  0.00    -0.097 F 
ATOM      8  F1  UNL d   1      -1.301   2.262  -1.456  0.00  0.00    -0.096 F 
ATOM      9  I   UNL d   1      -0.073  -0.547  -2.372  0.00  0.00    -0.060 I 
ATOM     10  F2  UNL d   1       1.842  -0.920   0.165  0.00  0.00    -0.096 F 
ATOM     11  F3  UNL d   1       2.265   0.632   2.343  0.00  0.00    -0.097 F 
ATOM     12  F4  UNL d   1       0.923   2.988   2.640  0.00  0.00    -0.092 F 
ENDROOT
TORSDOF 0
ENDMDL
