MODEL 1
REMARK minimizedAffinity 18.492754
REMARK minimizedRMSD -1
REMARK  0 active torsions:
REMARK  status: ('A' for Active; 'I' for Inactive)
ROOT
ATOM      1  C   UNL d   1      -1.679   1.740   0.785  0.00  0.00     0.124 A 
ATOM      2  C1  UNL d   1      -2.771   0.952   0.448  0.00  0.00     0.062 A 
ATOM      3  C2  UNL d   1      -2.688   0.058  -0.615  0.00  0.00     0.162 A 
ATOM      4  C3  UNL d   1      -1.507  -0.055  -1.349  0.00  0.00    -0.034 A 
ATOM      5  C4  UNL d   1      -0.413   0.741  -1.005  0.00  0.00     0.162 A 
ATOM      6  C5  UNL d   1      -0.502   1.633   0.059  0.00  0.00     0.062 A 
ATOM      7  F   UNL d   1       0.555   2.393   0.383  0.00  0.00    -0.097 F 
ATOM      8  F1  UNL d   1       0.737   0.658  -1.689  0.00  0.00    -0.096 F 
ATOM      9  I   UNL d   1      -1.379  -1.391  -2.940  0.00  0.00    -0.060 I 
ATOM     10  F2  UNL d   1      -3.759  -0.690  -0.919  0.00  0.00    -0.096 F 
ATOM     11  F3  UNL d   1      -3.911   1.054   1.148  0.00  0.00    -0.097 F 
ATOM     12  F4  UNL d   1      -1.762   2.600   1.808  0.00  0.00    -0.092 F 
ENDROOT
TORSDOF 0
ENDMDL
