MODEL 1
REMARK minimizedAffinity 6.76104355
REMARK minimizedRMSD -1
REMARK  0 active torsions:
REMARK  status: ('A' for Active; 'I' for Inactive)
ROOT
ATOM      1  C   UNL d   1       0.898   3.038   2.366  0.00  0.00     0.124 A 
ATOM      2  C1  UNL d   1       0.093   1.942   2.641  0.00  0.00     0.062 A 
ATOM      3  C2  UNL d   1      -0.902   1.561   1.745  0.00  0.00     0.162 A 
ATOM      4  C3  UNL d   1      -1.097   2.278   0.564  0.00  0.00    -0.034 A 
ATOM      5  C4  UNL d   1      -0.284   3.380   0.295  0.00  0.00     0.162 A 
ATOM      6  C5  UNL d   1       0.709   3.756   1.193  0.00  0.00     0.062 A 
ATOM      7  F   UNL d   1       1.486   4.816   0.925  0.00  0.00    -0.097 F 
ATOM      8  F1  UNL d   1      -0.445   4.091  -0.831  0.00  0.00    -0.096 F 
ATOM      9  I   UNL d   1      -2.584   1.712  -0.777  0.00  0.00    -0.060 I 
ATOM     10  F2  UNL d   1      -1.665   0.498   2.037  0.00  0.00    -0.096 F 
ATOM     11  F3  UNL d   1       0.273   1.247   3.773  0.00  0.00    -0.097 F 
ATOM     12  F4  UNL d   1       1.854   3.403   3.230  0.00  0.00    -0.092 F 
ENDROOT
TORSDOF 0
ENDMDL
