MODEL 1
REMARK minimizedAffinity 10.0309772
REMARK minimizedRMSD -1
REMARK  0 active torsions:
REMARK  status: ('A' for Active; 'I' for Inactive)
ROOT
ATOM      1  C   UNL d   1       1.084   3.541   2.014  0.00  0.00     0.124 A 
ATOM      2  C1  UNL d   1       1.086   3.701   0.635  0.00  0.00     0.062 A 
ATOM      3  C2  UNL d   1       0.115   3.078  -0.143  0.00  0.00     0.162 A 
ATOM      4  C3  UNL d   1      -0.868   2.289   0.455  0.00  0.00    -0.034 A 
ATOM      5  C4  UNL d   1      -0.863   2.132   1.842  0.00  0.00     0.162 A 
ATOM      6  C5  UNL d   1       0.110   2.757   2.616  0.00  0.00     0.062 A 
ATOM      7  F   UNL d   1       0.106   2.601   3.948  0.00  0.00    -0.097 F 
ATOM      8  F1  UNL d   1      -1.793   1.381   2.450  0.00  0.00    -0.096 F 
ATOM      9  I   UNL d   1      -2.321   1.356  -0.705  0.00  0.00    -0.060 I 
ATOM     10  F2  UNL d   1       0.142   3.250  -1.473  0.00  0.00    -0.096 F 
ATOM     11  F3  UNL d   1       2.027   4.457   0.051  0.00  0.00    -0.097 F 
ATOM     12  F4  UNL d   1       2.020   4.140   2.761  0.00  0.00    -0.092 F 
ENDROOT
TORSDOF 0
ENDMDL
