MODEL 1
REMARK minimizedAffinity 11.7248125
REMARK minimizedRMSD -1
REMARK  0 active torsions:
REMARK  status: ('A' for Active; 'I' for Inactive)
ROOT
ATOM      1  C   UNL d   1       0.507   3.977   0.617  0.00  0.00     0.124 A 
ATOM      2  C1  UNL d   1      -0.305   3.720  -0.479  0.00  0.00     0.062 A 
ATOM      3  C2  UNL d   1      -1.264   2.713  -0.420  0.00  0.00     0.162 A 
ATOM      4  C3  UNL d   1      -1.417   1.955   0.741  0.00  0.00    -0.034 A 
ATOM      5  C4  UNL d   1      -0.596   2.218   1.839  0.00  0.00     0.162 A 
ATOM      6  C5  UNL d   1       0.360   3.226   1.775  0.00  0.00     0.062 A 
ATOM      7  F   UNL d   1       1.143   3.473   2.835  0.00  0.00    -0.097 F 
ATOM      8  F1  UNL d   1      -0.717   1.509   2.971  0.00  0.00    -0.096 F 
ATOM      9  I   UNL d   1      -2.849   0.448   0.834  0.00  0.00    -0.060 I 
ATOM     10  F2  UNL d   1      -2.034   2.486  -1.494  0.00  0.00    -0.096 F 
ATOM     11  F3  UNL d   1      -0.165   4.443  -1.600  0.00  0.00    -0.097 F 
ATOM     12  F4  UNL d   1       1.429   4.946   0.557  0.00  0.00    -0.092 F 
ENDROOT
TORSDOF 0
ENDMDL
