MODEL 1
REMARK minimizedAffinity 4.19884872
REMARK minimizedRMSD -1
REMARK  0 active torsions:
REMARK  status: ('A' for Active; 'I' for Inactive)
ROOT
ATOM      1  C   UNL d   1       1.423  -0.244  -5.982  0.00  0.00    -0.002 A 
ATOM      2  C1  UNL d   1       0.218  -0.932  -6.000  0.00  0.00     0.010 A 
ATOM      3  C2  UNL d   1      -0.085  -1.858  -5.000  0.00  0.00     0.041 A 
ATOM      4  C3  UNL d   1       0.851  -2.083  -3.972  0.00  0.00    -0.075 A 
ATOM      5  S   UNL d   1       0.695  -3.170  -2.643  0.00  0.00     0.015 SA
ATOM      6  C4  UNL d   1       2.224  -2.746  -2.020  0.00  0.00     0.022 A 
ATOM      7  C5  UNL d   1       2.852  -1.800  -2.795  0.00  0.00     0.026 A 
ATOM      8  C6  UNL d   1       2.071  -1.401  -3.932  0.00  0.00    -0.082 A 
ATOM      9  C7  UNL d   1       2.350  -0.469  -4.960  0.00  0.00     0.045 A 
ENDROOT
TORSDOF 0
ENDMDL
