MODEL 1
REMARK minimizedAffinity 10.4144392
REMARK minimizedRMSD -1
REMARK  0 active torsions:
REMARK  status: ('A' for Active; 'I' for Inactive)
ROOT
ATOM      1  C   UNL d   1       1.989  -1.297   3.952  0.00  0.00    -0.002 A 
ATOM      2  C1  UNL d   1       2.286  -1.654   2.644  0.00  0.00     0.010 A 
ATOM      3  C2  UNL d   1       1.265  -1.941   1.736  0.00  0.00     0.041 A 
ATOM      4  C3  UNL d   1      -0.074  -1.859   2.169  0.00  0.00    -0.075 A 
ATOM      5  S   UNL d   1      -1.489  -2.164   1.232  0.00  0.00     0.015 SA
ATOM      6  C4  UNL d   1      -2.521  -1.826   2.545  0.00  0.00     0.022 A 
ATOM      7  C5  UNL d   1      -1.820  -1.487   3.678  0.00  0.00     0.026 A 
ATOM      8  C6  UNL d   1      -0.398  -1.500   3.480  0.00  0.00    -0.082 A 
ATOM      9  C7  UNL d   1       0.660  -1.217   4.377  0.00  0.00     0.045 A 
ENDROOT
TORSDOF 0
ENDMDL
