MODEL 1
REMARK minimizedAffinity 7.0817132
REMARK minimizedRMSD -1
REMARK  0 active torsions:
REMARK  status: ('A' for Active; 'I' for Inactive)
ROOT
ATOM      1  C   UNL d   1       0.421  -0.545  -5.320  0.00  0.00    -0.002 A 
ATOM      2  C1  UNL d   1       0.619  -1.232  -4.130  0.00  0.00     0.010 A 
ATOM      3  C2  UNL d   1       1.902  -1.372  -3.597  0.00  0.00     0.041 A 
ATOM      4  C3  UNL d   1       2.992  -0.805  -4.285  0.00  0.00    -0.075 A 
ATOM      5  S   UNL d   1       4.652  -0.850  -3.820  0.00  0.00     0.015 SA
ATOM      6  C4  UNL d   1       5.137   0.041  -5.189  0.00  0.00     0.022 A 
ATOM      7  C5  UNL d   1       4.071   0.373  -5.992  0.00  0.00     0.026 A 
ATOM      8  C6  UNL d   1       2.818  -0.108  -5.484  0.00  0.00    -0.082 A 
ATOM      9  C7  UNL d   1       1.505   0.016  -6.000  0.00  0.00     0.045 A 
ENDROOT
TORSDOF 0
ENDMDL
