MODEL 1
REMARK minimizedAffinity -1.56125295
REMARK minimizedRMSD -1
REMARK  0 active torsions:
REMARK  status: ('A' for Active; 'I' for Inactive)
ROOT
ATOM      1  C   UNL d   1      -0.938   0.948   0.579  0.00  0.00    -0.002 A 
ATOM      2  C1  UNL d   1      -1.961   0.107   0.991  0.00  0.00     0.010 A 
ATOM      3  C2  UNL d   1      -1.710  -0.928   1.895  0.00  0.00     0.041 A 
ATOM      4  C3  UNL d   1      -0.401  -1.102   2.384  0.00  0.00    -0.075 A 
ATOM      5  S   UNL d   1       0.141  -2.300   3.499  0.00  0.00     0.015 SA
ATOM      6  C4  UNL d   1       1.744  -1.723   3.456  0.00  0.00     0.022 A 
ATOM      7  C5  UNL d   1       1.880  -0.643   2.616  0.00  0.00     0.026 A 
ATOM      8  C6  UNL d   1       0.646  -0.267   1.985  0.00  0.00    -0.082 A 
ATOM      9  C7  UNL d   1       0.360   0.772   1.067  0.00  0.00     0.045 A 
ENDROOT
TORSDOF 0
ENDMDL
