MODEL 1
REMARK minimizedAffinity 7.67874432
REMARK minimizedRMSD -1
REMARK  0 active torsions:
REMARK  status: ('A' for Active; 'I' for Inactive)
ROOT
ATOM      1  C2' OXE d   1      -5.822   4.604   0.088  0.00  0.00     0.078 C 
ATOM      2  C1' OXE d   1      -5.465   4.854   2.861  0.00  0.00     0.078 C 
ATOM      3  C1  OXE d   1      -4.342   4.243   2.059  0.00  0.00    -0.078 A 
ATOM      4  C2  OXE d   1      -4.544   4.082   0.710  0.00  0.00    -0.078 A 
ATOM      5  C3  OXE d   1      -3.521   3.574  -0.085  0.00  0.00     0.003 A 
ATOM      6  C4  OXE d   1      -2.346   3.084   0.500  0.00  0.00    -0.002 A 
ATOM      7  C5  OXE d   1      -2.136   3.202   1.878  0.00  0.00    -0.002 A 
ATOM      8  C6  OXE d   1      -3.105   3.817   2.664  0.00  0.00     0.003 A 
ENDROOT
TORSDOF 0
ENDMDL
