MODEL 1
REMARK minimizedAffinity 4.01415825
REMARK minimizedRMSD -1
REMARK  0 active torsions:
REMARK  status: ('A' for Active; 'I' for Inactive)
ROOT
ATOM      1  C2' OXE d   1       1.151  -4.624  -0.016  0.00  0.00     0.078 C 
ATOM      2  C1' OXE d   1       1.182  -2.256   1.491  0.00  0.00     0.078 C 
ATOM      3  C1  OXE d   1       1.463  -3.552   2.211  0.00  0.00    -0.078 A 
ATOM      4  C2  OXE d   1       1.400  -4.710   1.474  0.00  0.00    -0.078 A 
ATOM      5  C3  OXE d   1       1.704  -5.928   2.077  0.00  0.00     0.003 A 
ATOM      6  C4  OXE d   1       1.923  -6.000   3.458  0.00  0.00    -0.002 A 
ATOM      7  C5  OXE d   1       1.952  -4.836   4.234  0.00  0.00    -0.002 A 
ATOM      8  C6  OXE d   1       1.767  -3.603   3.619  0.00  0.00     0.003 A 
ENDROOT
TORSDOF 0
ENDMDL
