MODEL 1
REMARK minimizedAffinity 15.6026974
REMARK minimizedRMSD -1
REMARK  0 active torsions:
REMARK  status: ('A' for Active; 'I' for Inactive)
ROOT
ATOM      1  C2' OXE d   1      -1.434  -5.104   0.887  0.00  0.00     0.078 C 
ATOM      2  C1' OXE d   1      -0.160  -5.999  -1.448  0.00  0.00     0.078 C 
ATOM      3  C1  OXE d   1       0.702  -5.703  -0.246  0.00  0.00    -0.078 A 
ATOM      4  C2  OXE d   1       0.075  -5.221   0.878  0.00  0.00    -0.078 A 
ATOM      5  C3  OXE d   1       0.816  -4.983   2.032  0.00  0.00     0.003 A 
ATOM      6  C4  OXE d   1       2.212  -5.084   2.011  0.00  0.00    -0.002 A 
ATOM      7  C5  OXE d   1       2.874  -5.535   0.865  0.00  0.00    -0.002 A 
ATOM      8  C6  OXE d   1       2.132  -5.889  -0.256  0.00  0.00     0.003 A 
ENDROOT
TORSDOF 0
ENDMDL
