MODEL 1
REMARK minimizedAffinity 7.99845171
REMARK minimizedRMSD -1
REMARK  0 active torsions:
REMARK  status: ('A' for Active; 'I' for Inactive)
ROOT
ATOM      1  C2' OXE d   1       2.499  -3.352   2.318  0.00  0.00     0.078 C 
ATOM      2  C1' OXE d   1       4.232  -1.383   1.318  0.00  0.00     0.078 C 
ATOM      3  C1  OXE d   1       2.851  -0.953   1.744  0.00  0.00    -0.078 A 
ATOM      4  C2  OXE d   1       1.994  -1.931   2.189  0.00  0.00    -0.078 A 
ATOM      5  C3  OXE d   1       0.726  -1.581   2.646  0.00  0.00     0.003 A 
ATOM      6  C4  OXE d   1       0.263  -0.266   2.514  0.00  0.00    -0.002 A 
ATOM      7  C5  OXE d   1       1.107   0.738   2.027  0.00  0.00    -0.002 A 
ATOM      8  C6  OXE d   1       2.415   0.420   1.678  0.00  0.00     0.003 A 
ENDROOT
TORSDOF 0
ENDMDL
