MODEL 1
REMARK minimizedAffinity 12.1755972
REMARK minimizedRMSD -1
REMARK  0 active torsions:
REMARK  status: ('A' for Active; 'I' for Inactive)
ROOT
ATOM      1  C2' OXE d   1      -3.988  -0.646  -3.014  0.00  0.00     0.078 C 
ATOM      2  C1' OXE d   1      -4.740   2.035  -3.364  0.00  0.00     0.078 C 
ATOM      3  C1  OXE d   1      -3.879   1.696  -2.174  0.00  0.00    -0.078 A 
ATOM      4  C2  OXE d   1      -3.554   0.375  -1.984  0.00  0.00    -0.078 A 
ATOM      5  C3  OXE d   1      -2.717   0.014  -0.932  0.00  0.00     0.003 A 
ATOM      6  C4  OXE d   1      -2.328   0.963   0.021  0.00  0.00    -0.002 A 
ATOM      7  C5  OXE d   1      -2.680   2.308  -0.131  0.00  0.00    -0.002 A 
ATOM      8  C6  OXE d   1      -3.418   2.698  -1.244  0.00  0.00     0.003 A 
ENDROOT
TORSDOF 0
ENDMDL
