MODEL 1
REMARK minimizedAffinity 12.820796
REMARK minimizedRMSD -1
REMARK  0 active torsions:
REMARK  status: ('A' for Active; 'I' for Inactive)
ROOT
ATOM      1  C2' OXE d   1       3.096   2.284   1.221  0.00  0.00     0.078 C 
ATOM      2  C1' OXE d   1       4.498   0.107   0.136  0.00  0.00     0.078 C 
ATOM      3  C1  OXE d   1       3.268  -0.187   0.958  0.00  0.00    -0.078 A 
ATOM      4  C2  OXE d   1       2.615   0.881   1.523  0.00  0.00    -0.078 A 
ATOM      5  C3  OXE d   1       1.443   0.670   2.245  0.00  0.00     0.003 A 
ATOM      6  C4  OXE d   1       1.010  -0.631   2.529  0.00  0.00    -0.002 A 
ATOM      7  C5  OXE d   1       1.683  -1.735   1.995  0.00  0.00    -0.002 A 
ATOM      8  C6  OXE d   1       2.787  -1.529   1.174  0.00  0.00     0.003 A 
ENDROOT
TORSDOF 0
ENDMDL
