MODEL 1
REMARK minimizedAffinity -1.11469293
REMARK minimizedRMSD -1
REMARK  0 active torsions:
REMARK  status: ('A' for Active; 'I' for Inactive)
ROOT
ATOM      1  C2' OXE d   1       3.753   4.125  -0.956  0.00  0.00     0.078 C 
ATOM      2  C1' OXE d   1       5.842   6.000  -0.991  0.00  0.00     0.078 C 
ATOM      3  C1  OXE d   1       5.404   5.410  -2.308  0.00  0.00    -0.078 A 
ATOM      4  C2  OXE d   1       4.413   4.458  -2.276  0.00  0.00    -0.078 A 
ATOM      5  C3  OXE d   1       3.933   3.922  -3.468  0.00  0.00     0.003 A 
ATOM      6  C4  OXE d   1       4.556   4.228  -4.684  0.00  0.00    -0.002 A 
ATOM      7  C5  OXE d   1       5.594   5.165  -4.734  0.00  0.00    -0.002 A 
ATOM      8  C6  OXE d   1       6.000   5.795  -3.563  0.00  0.00     0.003 A 
ENDROOT
TORSDOF 0
ENDMDL
