MODEL 1
REMARK minimizedAffinity 7.21824217
REMARK minimizedRMSD -1
REMARK  2 active torsions:
REMARK  status: ('A' for Active; 'I' for Inactive)
REMARK    1  A    between atoms: C2'_3  and  C1'_4 
REMARK    2  A    between atoms: C1'_4  and  C1_5 
ROOT
ATOM      1  C1  I4B d   1       0.257   3.898   0.579  0.00  0.00    -0.075 A 
ATOM      2  C2  I4B d   1      -0.857   3.226   1.015  0.00  0.00     0.003 A 
ATOM      3  C3  I4B d   1      -0.813   2.477   2.216  0.00  0.00     0.002 A 
ATOM      4  C4  I4B d   1       0.372   2.387   2.918  0.00  0.00    -0.004 A 
ATOM      5  C5  I4B d   1       1.494   3.089   2.486  0.00  0.00     0.002 A 
ATOM      6  C6  I4B d   1       1.433   3.859   1.316  0.00  0.00     0.003 A 
ENDROOT
BRANCH   1   7
ATOM      7  C1' I4B d   1       0.184   4.653  -0.711  0.00  0.00     0.060 C 
BRANCH   7   8
ATOM      8  C2' I4B d   1      -0.608   5.921  -0.466  0.00  0.00    -0.013 C 
ATOM      9  C4' I4B d   1      -1.806   5.999  -1.375  0.00  0.00     0.013 C 
ATOM     10  C3' I4B d   1      -1.021   5.938   0.976  0.00  0.00     0.013 C 
ENDBRANCH   7   8
ENDBRANCH   1   7
TORSDOF 2
ENDMDL
