MODEL 1
REMARK minimizedAffinity 10.9193096
REMARK minimizedRMSD -1
REMARK  2 active torsions:
REMARK  status: ('A' for Active; 'I' for Inactive)
REMARK    1  A    between atoms: C2'_3  and  C1'_4 
REMARK    2  A    between atoms: C1'_4  and  C1_5 
ROOT
ATOM      1  C1  I4B d   1      -0.002   3.323   0.239  0.00  0.00    -0.075 A 
ATOM      2  C2  I4B d   1       1.239   3.772  -0.138  0.00  0.00     0.003 A 
ATOM      3  C3  I4B d   1       1.369   4.977  -0.871  0.00  0.00     0.002 A 
ATOM      4  C4  I4B d   1       0.235   5.668  -1.247  0.00  0.00    -0.004 A 
ATOM      5  C5  I4B d   1      -1.021   5.223  -0.845  0.00  0.00     0.002 A 
ATOM      6  C6  I4B d   1      -1.140   4.050  -0.087  0.00  0.00     0.003 A 
ENDROOT
BRANCH   1   7
ATOM      7  C1' I4B d   1      -0.105   2.030   0.984  0.00  0.00     0.060 C 
BRANCH   7   8
ATOM      8  C2' I4B d   1      -0.303   2.351   2.451  0.00  0.00    -0.013 C 
ATOM      9  C4' I4B d   1      -1.567   1.727   2.980  0.00  0.00     0.013 C 
ATOM     10  C3' I4B d   1       0.899   1.856   3.199  0.00  0.00     0.013 C 
ENDBRANCH   7   8
ENDBRANCH   1   7
TORSDOF 2
ENDMDL
