MODEL 1
REMARK minimizedAffinity 10.8716183
REMARK minimizedRMSD -1
REMARK  2 active torsions:
REMARK  status: ('A' for Active; 'I' for Inactive)
REMARK    1  A    between atoms: C2'_3  and  C1'_4 
REMARK    2  A    between atoms: C1'_4  and  C1_5 
ROOT
ATOM      1  C1  I4B d   1      -0.034   3.255   0.353  0.00  0.00    -0.075 A 
ATOM      2  C2  I4B d   1      -0.014   3.735  -0.933  0.00  0.00     0.003 A 
ATOM      3  C3  I4B d   1      -0.060   5.129  -1.174  0.00  0.00     0.002 A 
ATOM      4  C4  I4B d   1      -0.175   6.000  -0.109  0.00  0.00    -0.004 A 
ATOM      5  C5  I4B d   1      -0.172   5.513   1.195  0.00  0.00     0.002 A 
ATOM      6  C6  I4B d   1      -0.089   4.132   1.428  0.00  0.00     0.003 A 
ENDROOT
BRANCH   1   7
ATOM      7  C1' I4B d   1      -0.018   1.775   0.570  0.00  0.00     0.060 C 
BRANCH   7   8
ATOM      8  C2' I4B d   1      -0.243   1.104  -0.769  0.00  0.00    -0.013 C 
ATOM      9  C4' I4B d   1       0.876   0.152  -1.098  0.00  0.00     0.013 C 
ATOM     10  C3' I4B d   1      -1.562   0.391  -0.714  0.00  0.00     0.013 C 
ENDBRANCH   7   8
ENDBRANCH   1   7
TORSDOF 2
ENDMDL
