MODEL 1
REMARK minimizedAffinity 13.8523331
REMARK minimizedRMSD -1
REMARK  2 active torsions:
REMARK  status: ('A' for Active; 'I' for Inactive)
REMARK    1  A    between atoms: C2'_3  and  C1'_4 
REMARK    2  A    between atoms: C1'_4  and  C1_5 
ROOT
ATOM      1  C1  I4B d   1      -1.216   2.453   2.725  0.00  0.00    -0.075 A 
ATOM      2  C2  I4B d   1      -0.096   1.977   3.360  0.00  0.00     0.003 A 
ATOM      3  C3  I4B d   1       1.192   2.378   2.930  0.00  0.00     0.002 A 
ATOM      4  C4  I4B d   1       1.315   3.211   1.837  0.00  0.00    -0.004 A 
ATOM      5  C5  I4B d   1       0.178   3.712   1.209  0.00  0.00     0.002 A 
ATOM      6  C6  I4B d   1      -1.096   3.340   1.663  0.00  0.00     0.003 A 
ENDROOT
BRANCH   1   7
ATOM      7  C1' I4B d   1      -2.560   1.983   3.185  0.00  0.00     0.060 C 
BRANCH   7   8
ATOM      8  C2' I4B d   1      -2.833   0.643   2.534  0.00  0.00    -0.013 C 
ATOM      9  C4' I4B d   1      -3.970  -0.072   3.215  0.00  0.00     0.013 C 
ATOM     10  C3' I4B d   1      -3.135   0.884   1.085  0.00  0.00     0.013 C 
ENDBRANCH   7   8
ENDBRANCH   1   7
TORSDOF 2
ENDMDL
