MODEL 1
REMARK minimizedAffinity 16.0369797
REMARK minimizedRMSD -1
REMARK  2 active torsions:
REMARK  status: ('A' for Active; 'I' for Inactive)
REMARK    1  A    between atoms: C2'_3  and  C1'_4 
REMARK    2  A    between atoms: C1'_4  and  C1_5 
ROOT
ATOM      1  C1  I4B d   1       5.163  -2.938  -1.105  0.00  0.00    -0.075 A 
ATOM      2  C2  I4B d   1       4.799  -3.639   0.018  0.00  0.00     0.003 A 
ATOM      3  C3  I4B d   1       4.038  -3.012   1.034  0.00  0.00     0.002 A 
ATOM      4  C4  I4B d   1       3.708  -1.678   0.911  0.00  0.00    -0.004 A 
ATOM      5  C5  I4B d   1       4.058  -0.975  -0.238  0.00  0.00     0.002 A 
ATOM      6  C6  I4B d   1       4.779  -1.612  -1.259  0.00  0.00     0.003 A 
ENDROOT
BRANCH   1   7
ATOM      7  C1' I4B d   1       5.994  -3.621  -2.144  0.00  0.00     0.060 C 
BRANCH   7   8
ATOM      8  C2' I4B d   1       5.251  -3.545  -3.462  0.00  0.00    -0.013 C 
ATOM      9  C4' I4B d   1       5.661  -2.328  -4.249  0.00  0.00     0.013 C 
ATOM     10  C3' I4B d   1       5.531  -4.804  -4.226  0.00  0.00     0.013 C 
ENDBRANCH   7   8
ENDBRANCH   1   7
TORSDOF 2
ENDMDL
