MODEL 1
REMARK minimizedAffinity 6.56668949
REMARK minimizedRMSD -1
REMARK  2 active torsions:
REMARK  status: ('A' for Active; 'I' for Inactive)
REMARK    1  A    between atoms: C2'_3  and  C1'_4 
REMARK    2  A    between atoms: C1'_4  and  C1_5 
ROOT
ATOM      1  C1  I4B d   1       0.071   3.697   0.199  0.00  0.00    -0.075 A 
ATOM      2  C2  I4B d   1       1.081   4.609   0.376  0.00  0.00     0.003 A 
ATOM      3  C3  I4B d   1       1.117   5.792  -0.401  0.00  0.00     0.002 A 
ATOM      4  C4  I4B d   1       0.158   5.998  -1.372  0.00  0.00    -0.004 A 
ATOM      5  C5  I4B d   1      -0.878   5.083  -1.534  0.00  0.00     0.002 A 
ATOM      6  C6  I4B d   1      -0.929   3.931  -0.736  0.00  0.00     0.003 A 
ENDROOT
BRANCH   1   7
ATOM      7  C1' I4B d   1       0.081   2.442   1.013  0.00  0.00     0.060 C 
BRANCH   7   8
ATOM      8  C2' I4B d   1       0.134   2.835   2.475  0.00  0.00    -0.013 C 
ATOM      9  C4' I4B d   1      -1.016   2.238   3.243  0.00  0.00     0.013 C 
ATOM     10  C3' I4B d   1       1.451   2.379   3.030  0.00  0.00     0.013 C 
ENDBRANCH   7   8
ENDBRANCH   1   7
TORSDOF 2
ENDMDL
