MODEL 1
REMARK minimizedAffinity 9.01057339
REMARK minimizedRMSD -1
REMARK  2 active torsions:
REMARK  status: ('A' for Active; 'I' for Inactive)
REMARK    1  A    between atoms: C2'_3  and  C1'_4 
REMARK    2  A    between atoms: C1'_4  and  C1_5 
ROOT
ATOM      1  C1  I4B d   1       0.607   5.597  -2.496  0.00  0.00    -0.075 A 
ATOM      2  C2  I4B d   1       1.745   5.743  -3.249  0.00  0.00     0.003 A 
ATOM      3  C3  I4B d   1       1.653   5.973  -4.643  0.00  0.00     0.002 A 
ATOM      4  C4  I4B d   1       0.412   5.999  -5.247  0.00  0.00    -0.004 A 
ATOM      5  C5  I4B d   1      -0.742   5.874  -4.478  0.00  0.00     0.002 A 
ATOM      6  C6  I4B d   1      -0.644   5.684  -3.092  0.00  0.00     0.003 A 
ENDROOT
BRANCH   1   7
ATOM      7  C1' I4B d   1       0.742   5.323  -1.032  0.00  0.00     0.060 C 
BRANCH   7   8
ATOM      8  C2' I4B d   1      -0.460   4.511  -0.596  0.00  0.00    -0.013 C 
ATOM      9  C4' I4B d   1      -0.045   3.320   0.228  0.00  0.00     0.013 C 
ATOM     10  C3' I4B d   1      -1.373   5.414   0.179  0.00  0.00     0.013 C 
ENDBRANCH   7   8
ENDBRANCH   1   7
TORSDOF 2
ENDMDL
