MODEL 1
REMARK minimizedAffinity 10.0218143
REMARK minimizedRMSD -1
REMARK  2 active torsions:
REMARK  status: ('A' for Active; 'I' for Inactive)
REMARK    1  A    between atoms: C2'_3  and  C1'_4 
REMARK    2  A    between atoms: C1'_4  and  C1_5 
ROOT
ATOM      1  C1  I4B d   1       0.165   1.257   4.051  0.00  0.00    -0.075 A 
ATOM      2  C2  I4B d   1      -1.010   1.937   3.852  0.00  0.00     0.003 A 
ATOM      3  C3  I4B d   1      -1.159   2.792   2.733  0.00  0.00     0.002 A 
ATOM      4  C4  I4B d   1      -0.097   2.975   1.872  0.00  0.00    -0.004 A 
ATOM      5  C5  I4B d   1       1.086   2.267   2.062  0.00  0.00     0.002 A 
ATOM      6  C6  I4B d   1       1.214   1.393   3.151  0.00  0.00     0.003 A 
ENDROOT
BRANCH   1   7
ATOM      7  C1' I4B d   1       0.300   0.388   5.261  0.00  0.00     0.060 C 
BRANCH   7   8
ATOM      8  C2' I4B d   1       0.125  -1.052   4.824  0.00  0.00    -0.013 C 
ATOM      9  C4' I4B d   1       1.452  -1.758   4.729  0.00  0.00     0.013 C 
ATOM     10  C3' I4B d   1      -0.779  -1.729   5.810  0.00  0.00     0.013 C 
ENDBRANCH   7   8
ENDBRANCH   1   7
TORSDOF 2
ENDMDL
