MODEL 1
REMARK minimizedAffinity -3.20276093
REMARK minimizedRMSD -1
REMARK  0 active torsions:
REMARK  status: ('A' for Active; 'I' for Inactive)
ROOT
ATOM      1  C2' OXE d   1      -1.323   1.160   1.763  0.00  0.00     0.078 C 
ATOM      2  C1' OXE d   1       0.727   3.034   1.353  0.00  0.00     0.078 C 
ATOM      3  C1  OXE d   1       0.883   1.671   0.725  0.00  0.00    -0.078 A 
ATOM      4  C2  OXE d   1      -0.103   0.746   0.969  0.00  0.00    -0.078 A 
ATOM      5  C3  OXE d   1      -0.035  -0.508   0.369  0.00  0.00     0.003 A 
ATOM      6  C4  OXE d   1       1.102  -0.887  -0.355  0.00  0.00    -0.002 A 
ATOM      7  C5  OXE d   1       2.136   0.027  -0.583  0.00  0.00    -0.002 A 
ATOM      8  C6  OXE d   1       2.022   1.321  -0.087  0.00  0.00     0.003 A 
ENDROOT
TORSDOF 0
ENDMDL
