MODEL 1
REMARK minimizedAffinity -2.04082942
REMARK minimizedRMSD -1
REMARK  0 active torsions:
REMARK  status: ('A' for Active; 'I' for Inactive)
ROOT
ATOM      1  C2' OXE d   1      -1.479  -0.322  -1.506  0.00  0.00     0.078 C 
ATOM      2  C1' OXE d   1      -0.497  -1.375   0.903  0.00  0.00     0.078 C 
ATOM      3  C1  OXE d   1      -0.058   0.013   0.512  0.00  0.00    -0.078 A 
ATOM      4  C2  OXE d   1      -0.506   0.503  -0.692  0.00  0.00    -0.078 A 
ATOM      5  C3  OXE d   1      -0.175   1.799  -1.075  0.00  0.00     0.003 A 
ATOM      6  C4  OXE d   1       0.734   2.551  -0.321  0.00  0.00    -0.002 A 
ATOM      7  C5  OXE d   1       1.233   2.056   0.889  0.00  0.00    -0.002 A 
ATOM      8  C6  OXE d   1       0.815   0.809   1.339  0.00  0.00     0.003 A 
ENDROOT
TORSDOF 0
ENDMDL
