MODEL 1
REMARK minimizedAffinity 0.100175492
REMARK minimizedRMSD -1
REMARK  0 active torsions:
REMARK  status: ('A' for Active; 'I' for Inactive)
ROOT
ATOM      1  C2' OXE d   1      -0.524  -0.929  -0.501  0.00  0.00     0.078 C 
ATOM      2  C1' OXE d   1      -1.196  -1.279   2.202  0.00  0.00     0.078 C 
ATOM      3  C1  OXE d   1      -0.448  -0.026   1.820  0.00  0.00    -0.078 A 
ATOM      4  C2  OXE d   1      -0.083   0.114   0.502  0.00  0.00    -0.078 A 
ATOM      5  C3  OXE d   1       0.560   1.276   0.086  0.00  0.00     0.003 A 
ATOM      6  C4  OXE d   1       0.973   2.232   1.022  0.00  0.00    -0.002 A 
ATOM      7  C5  OXE d   1       0.646   2.089   2.374  0.00  0.00    -0.002 A 
ATOM      8  C6  OXE d   1      -0.100   0.989   2.782  0.00  0.00     0.003 A 
ENDROOT
TORSDOF 0
ENDMDL
