MODEL 1
REMARK minimizedAffinity 4.26733351
REMARK minimizedRMSD -1
REMARK  0 active torsions:
REMARK  status: ('A' for Active; 'I' for Inactive)
ROOT
ATOM      1  C2' OXE d   1      -0.696   0.124   0.652  0.00  0.00     0.078 C 
ATOM      2  C1' OXE d   1       1.284   1.943   1.457  0.00  0.00     0.078 C 
ATOM      3  C1  OXE d   1       1.627   0.972   0.355  0.00  0.00    -0.078 A 
ATOM      4  C2  OXE d   1       0.668   0.054   0.000  0.00  0.00    -0.078 A 
ATOM      5  C3  OXE d   1       0.913  -0.829  -1.047  0.00  0.00     0.003 A 
ATOM      6  C4  OXE d   1       2.181  -0.893  -1.638  0.00  0.00    -0.002 A 
ATOM      7  C5  OXE d   1       3.185   0.006  -1.264  0.00  0.00    -0.002 A 
ATOM      8  C6  OXE d   1       2.911   0.970  -0.301  0.00  0.00     0.003 A 
ENDROOT
TORSDOF 0
ENDMDL
