MODEL 1
REMARK minimizedAffinity -0.772003114
REMARK minimizedRMSD -1
REMARK  0 active torsions:
REMARK  status: ('A' for Active; 'I' for Inactive)
ROOT
ATOM      1  C2' OXE d   1       1.854   2.622   1.083  0.00  0.00     0.078 C 
ATOM      2  C1' OXE d   1       3.319   0.806  -0.478  0.00  0.00     0.078 C 
ATOM      3  C1  OXE d   1       1.899   0.443  -0.122  0.00  0.00    -0.078 A 
ATOM      4  C2  OXE d   1       1.205   1.315   0.681  0.00  0.00    -0.078 A 
ATOM      5  C3  OXE d   1      -0.126   1.054   0.995  0.00  0.00     0.003 A 
ATOM      6  C4  OXE d   1      -0.715  -0.161   0.627  0.00  0.00    -0.002 A 
ATOM      7  C5  OXE d   1      -0.013  -1.082  -0.158  0.00  0.00    -0.002 A 
ATOM      8  C6  OXE d   1       1.277  -0.777  -0.576  0.00  0.00     0.003 A 
ENDROOT
TORSDOF 0
ENDMDL
