MODEL 1
REMARK minimizedAffinity -5.41378307
REMARK minimizedRMSD -1
REMARK  0 active torsions:
REMARK  status: ('A' for Active; 'I' for Inactive)
ROOT
ATOM      1  C2' OXE d   1       1.790  -0.935  -0.298  0.00  0.00     0.078 C 
ATOM      2  C1' OXE d   1      -0.401  -1.087   1.451  0.00  0.00     0.078 C 
ATOM      3  C1  OXE d   1       0.147   0.280   1.127  0.00  0.00    -0.078 A 
ATOM      4  C2  OXE d   1       1.248   0.342   0.307  0.00  0.00    -0.078 A 
ATOM      5  C3  OXE d   1       1.760   1.582  -0.067  0.00  0.00     0.003 A 
ATOM      6  C4  OXE d   1       1.260   2.757   0.506  0.00  0.00    -0.002 A 
ATOM      7  C5  OXE d   1       0.164   2.714   1.374  0.00  0.00    -0.002 A 
ATOM      8  C6  OXE d   1      -0.429   1.489   1.661  0.00  0.00     0.003 A 
ENDROOT
TORSDOF 0
ENDMDL
