MODEL 1
REMARK minimizedAffinity 3.10251546
REMARK minimizedRMSD -1
REMARK  0 active torsions:
REMARK  status: ('A' for Active; 'I' for Inactive)
ROOT
ATOM      1  C2' OXE d   1       0.373   1.074   3.167  0.00  0.00     0.078 C 
ATOM      2  C1' OXE d   1       1.433   3.037   1.464  0.00  0.00     0.078 C 
ATOM      3  C1  OXE d   1       1.163   1.673   0.882  0.00  0.00    -0.078 A 
ATOM      4  C2  OXE d   1       0.688   0.705   1.734  0.00  0.00    -0.078 A 
ATOM      5  C3  OXE d   1       0.371  -0.556   1.236  0.00  0.00     0.003 A 
ATOM      6  C4  OXE d   1       0.675  -0.893  -0.089  0.00  0.00    -0.002 A 
ATOM      7  C5  OXE d   1       1.197   0.067  -0.963  0.00  0.00    -0.002 A 
ATOM      8  C6  OXE d   1       1.406   1.363  -0.506  0.00  0.00     0.003 A 
ENDROOT
TORSDOF 0
ENDMDL
