MODEL 1
REMARK minimizedAffinity -3.84142756
REMARK minimizedRMSD -1
REMARK  0 active torsions:
REMARK  status: ('A' for Active; 'I' for Inactive)
ROOT
ATOM      1  C2' OXE d   1      -1.029  -0.873   1.920  0.00  0.00     0.078 C 
ATOM      2  C1' OXE d   1      -0.396  -0.441  -0.781  0.00  0.00     0.078 C 
ATOM      3  C1  OXE d   1       0.091   0.570   0.227  0.00  0.00    -0.078 A 
ATOM      4  C2  OXE d   1      -0.263   0.375   1.540  0.00  0.00    -0.078 A 
ATOM      5  C3  OXE d   1       0.207   1.248   2.517  0.00  0.00     0.003 A 
ATOM      6  C4  OXE d   1       0.906   2.406   2.157  0.00  0.00    -0.002 A 
ATOM      7  C5  OXE d   1       1.244   2.644   0.820  0.00  0.00    -0.002 A 
ATOM      8  C6  OXE d   1       0.881   1.716  -0.150  0.00  0.00     0.003 A 
ENDROOT
TORSDOF 0
ENDMDL
