MODEL 1
REMARK minimizedAffinity -4.52302313
REMARK minimizedRMSD -1
REMARK  0 active torsions:
REMARK  status: ('A' for Active; 'I' for Inactive)
ROOT
ATOM      1  C2' OXE d   1       1.259   2.709   1.422  0.00  0.00     0.078 C 
ATOM      2  C1' OXE d   1      -1.044   1.181   1.910  0.00  0.00     0.078 C 
ATOM      3  C1  OXE d   1      -0.083   0.688   0.857  0.00  0.00    -0.078 A 
ATOM      4  C2  OXE d   1       1.018   1.467   0.592  0.00  0.00    -0.078 A 
ATOM      5  C3  OXE d   1       1.964   1.031  -0.331  0.00  0.00     0.003 A 
ATOM      6  C4  OXE d   1       1.728  -0.114  -1.101  0.00  0.00    -0.002 A 
ATOM      7  C5  OXE d   1       0.593  -0.901  -0.875  0.00  0.00    -0.002 A 
ATOM      8  C6  OXE d   1      -0.299  -0.537   0.128  0.00  0.00     0.003 A 
ENDROOT
TORSDOF 0
ENDMDL
