MODEL 1
REMARK minimizedAffinity 6.9688549
REMARK minimizedRMSD -1
REMARK  0 active torsions:
REMARK  status: ('A' for Active; 'I' for Inactive)
ROOT
ATOM      1  C2' OXE d   1       2.797   4.127  -5.999  0.00  0.00     0.078 C 
ATOM      2  C1' OXE d   1       1.763   3.758  -3.416  0.00  0.00     0.078 C 
ATOM      3  C1  OXE d   1       3.258   3.660  -3.596  0.00  0.00    -0.078 A 
ATOM      4  C2  OXE d   1       3.751   3.796  -4.871  0.00  0.00    -0.078 A 
ATOM      5  C3  OXE d   1       5.126   3.769  -5.085  0.00  0.00     0.003 A 
ATOM      6  C4  OXE d   1       6.000   3.452  -4.038  0.00  0.00    -0.002 A 
ATOM      7  C5  OXE d   1       5.515   3.271  -2.739  0.00  0.00    -0.002 A 
ATOM      8  C6  OXE d   1       4.154   3.414  -2.493  0.00  0.00     0.003 A 
ENDROOT
TORSDOF 0
ENDMDL
