MODEL 1
REMARK minimizedAffinity -2.8420918
REMARK minimizedRMSD -1
REMARK  0 active torsions:
REMARK  status: ('A' for Active; 'I' for Inactive)
ROOT
ATOM      1  C2' OXE d   1       1.130   6.000  -6.000  0.00  0.00     0.078 C 
ATOM      2  C1' OXE d   1       0.547   5.712  -3.269  0.00  0.00     0.078 C 
ATOM      3  C1  OXE d   1       1.871   5.187  -3.765  0.00  0.00    -0.078 A 
ATOM      4  C2  OXE d   1       2.129   5.290  -5.111  0.00  0.00    -0.078 A 
ATOM      5  C3  OXE d   1       3.358   4.872  -5.612  0.00  0.00     0.003 A 
ATOM      6  C4  OXE d   1       4.272   4.208  -4.785  0.00  0.00    -0.002 A 
ATOM      7  C5  OXE d   1       4.012   4.056  -3.418  0.00  0.00    -0.002 A 
ATOM      8  C6  OXE d   1       2.838   4.577  -2.886  0.00  0.00     0.003 A 
ENDROOT
TORSDOF 0
ENDMDL
