MODEL 1
REMARK minimizedAffinity -3.32658434
REMARK minimizedRMSD -1
REMARK  0 active torsions:
REMARK  status: ('A' for Active; 'I' for Inactive)
ROOT
ATOM      1  C2' OXE d   1       3.712   1.193   1.584  0.00  0.00     0.078 C 
ATOM      2  C1' OXE d   1       0.981   1.259   0.938  0.00  0.00     0.078 C 
ATOM      3  C1  OXE d   1       1.360   1.299   2.398  0.00  0.00    -0.078 A 
ATOM      4  C2  OXE d   1       2.697   1.220   2.706  0.00  0.00    -0.078 A 
ATOM      5  C3  OXE d   1       3.104   1.308   4.034  0.00  0.00     0.003 A 
ATOM      6  C4  OXE d   1       2.158   1.322   5.066  0.00  0.00    -0.002 A 
ATOM      7  C5  OXE d   1       0.791   1.363   4.775  0.00  0.00    -0.002 A 
ATOM      8  C6  OXE d   1       0.377   1.395   3.448  0.00  0.00     0.003 A 
ENDROOT
TORSDOF 0
ENDMDL
