MODEL 1
REMARK minimizedAffinity -1.26635194
REMARK minimizedRMSD -1
REMARK  0 active torsions:
REMARK  status: ('A' for Active; 'I' for Inactive)
ROOT
ATOM      1  C2' OXE d   1       0.281  -0.260   0.078  0.00  0.00     0.078 C 
ATOM      2  C1' OXE d   1      -1.341  -0.648   2.336  0.00  0.00     0.078 C 
ATOM      3  C1  OXE d   1      -0.138   0.251   2.480  0.00  0.00    -0.078 A 
ATOM      4  C2  OXE d   1       0.676   0.398   1.383  0.00  0.00    -0.078 A 
ATOM      5  C3  OXE d   1       1.768   1.258   1.445  0.00  0.00     0.003 A 
ATOM      6  C4  OXE d   1       2.132   1.855   2.659  0.00  0.00    -0.002 A 
ATOM      7  C5  OXE d   1       1.339   1.686   3.799  0.00  0.00    -0.002 A 
ATOM      8  C6  OXE d   1       0.180   0.924   3.716  0.00  0.00     0.003 A 
ENDROOT
TORSDOF 0
ENDMDL
