MODEL 1
REMARK minimizedAffinity 2.72796154
REMARK minimizedRMSD -1
REMARK  0 active torsions:
REMARK  status: ('A' for Active; 'I' for Inactive)
ROOT
ATOM      1  C2' OXE d   1       1.745   3.154  -2.053  0.00  0.00     0.078 C 
ATOM      2  C1' OXE d   1       0.747   1.000  -3.551  0.00  0.00     0.078 C 
ATOM      3  C1  OXE d   1       0.603   0.940  -2.050  0.00  0.00    -0.078 A 
ATOM      4  C2  OXE d   1       1.136   1.976  -1.322  0.00  0.00    -0.078 A 
ATOM      5  C3  OXE d   1       0.982   1.997   0.061  0.00  0.00     0.003 A 
ATOM      6  C4  OXE d   1       0.427   0.900   0.729  0.00  0.00    -0.002 A 
ATOM      7  C5  OXE d   1      -0.087  -0.184   0.010  0.00  0.00    -0.002 A 
ATOM      8  C6  OXE d   1      -0.045  -0.161  -1.380  0.00  0.00     0.003 A 
ENDROOT
TORSDOF 0
ENDMDL
