MODEL 1
REMARK minimizedAffinity 7.21958876
REMARK minimizedRMSD -1
REMARK  0 active torsions:
REMARK  status: ('A' for Active; 'I' for Inactive)
ROOT
ATOM      1  C2' OXE d   1       1.273  -1.087  -1.960  0.00  0.00     0.078 C 
ATOM      2  C1' OXE d   1       1.978   1.410  -3.031  0.00  0.00     0.078 C 
ATOM      3  C1  OXE d   1       0.965   0.583  -3.782  0.00  0.00    -0.078 A 
ATOM      4  C2  OXE d   1       0.661  -0.657  -3.276  0.00  0.00    -0.078 A 
ATOM      5  C3  OXE d   1      -0.308  -1.438  -3.901  0.00  0.00     0.003 A 
ATOM      6  C4  OXE d   1      -0.862  -1.037  -5.122  0.00  0.00    -0.002 A 
ATOM      7  C5  OXE d   1      -0.536   0.205  -5.676  0.00  0.00    -0.002 A 
ATOM      8  C6  OXE d   1       0.341   1.044  -4.998  0.00  0.00     0.003 A 
ENDROOT
TORSDOF 0
ENDMDL
