MODEL 1
REMARK minimizedAffinity -2.00494266
REMARK minimizedRMSD -1
REMARK  0 active torsions:
REMARK  status: ('A' for Active; 'I' for Inactive)
ROOT
ATOM      1  C2' OXE d   1       1.444   5.627  -3.576  0.00  0.00     0.078 C 
ATOM      2  C1' OXE d   1       0.076   6.000  -5.999  0.00  0.00     0.078 C 
ATOM      3  C1  OXE d   1      -0.744   5.892  -4.738  0.00  0.00    -0.078 A 
ATOM      4  C2  OXE d   1      -0.069   5.663  -3.562  0.00  0.00    -0.078 A 
ATOM      5  C3  OXE d   1      -0.773   5.610  -2.363  0.00  0.00     0.003 A 
ATOM      6  C4  OXE d   1      -2.173   5.634  -2.361  0.00  0.00    -0.002 A 
ATOM      7  C5  OXE d   1      -2.882   5.827  -3.551  0.00  0.00    -0.002 A 
ATOM      8  C6  OXE d   1      -2.182   6.000  -4.740  0.00  0.00     0.003 A 
ENDROOT
TORSDOF 0
ENDMDL
