MODEL 1
REMARK minimizedAffinity 5.12534761
REMARK minimizedRMSD -1
REMARK  0 active torsions:
REMARK  status: ('A' for Active; 'I' for Inactive)
ROOT
ATOM      1  C4' PXY d   1       5.492   5.691  -0.449  0.00  0.00     0.077 C 
ATOM      2  C1' PXY d   1       3.711   5.657  -5.948  0.00  0.00     0.077 C 
ATOM      3  C1  PXY d   1       4.188   5.658  -4.509  0.00  0.00    -0.082 A 
ATOM      4  C2  PXY d   1       3.329   5.913  -3.535  0.00  0.00     0.003 A 
ATOM      5  C3  PXY d   1       3.750   5.950  -2.231  0.00  0.00     0.003 A 
ATOM      6  C4  PXY d   1       5.053   5.670  -1.915  0.00  0.00    -0.082 A 
ATOM      7  C5  PXY d   1       5.933   5.399  -2.902  0.00  0.00     0.003 A 
ATOM      8  C6  PXY d   1       5.495   5.407  -4.223  0.00  0.00     0.003 A 
ENDROOT
TORSDOF 0
ENDMDL
