MODEL 1
REMARK minimizedAffinity 2.31328034
REMARK minimizedRMSD -1
REMARK  0 active torsions:
REMARK  status: ('A' for Active; 'I' for Inactive)
ROOT
ATOM      1  C4' PXY d   1       5.999   5.198  -5.106  0.00  0.00     0.077 C 
ATOM      2  C1' PXY d   1       2.304   4.934  -0.669  0.00  0.00     0.077 C 
ATOM      3  C1  PXY d   1       3.280   5.013  -1.826  0.00  0.00    -0.082 A 
ATOM      4  C2  PXY d   1       2.891   4.645  -3.036  0.00  0.00     0.003 A 
ATOM      5  C3  PXY d   1       3.770   4.679  -4.088  0.00  0.00     0.003 A 
ATOM      6  C4  PXY d   1       5.045   5.145  -3.910  0.00  0.00    -0.082 A 
ATOM      7  C5  PXY d   1       5.447   5.532  -2.681  0.00  0.00     0.003 A 
ATOM      8  C6  PXY d   1       4.552   5.450  -1.618  0.00  0.00     0.003 A 
ENDROOT
TORSDOF 0
ENDMDL
