MODEL 1
REMARK minimizedAffinity 4.85500097
REMARK minimizedRMSD -1
REMARK  0 active torsions:
REMARK  status: ('A' for Active; 'I' for Inactive)
ROOT
ATOM      1  C4' PXY d   1       6.000   4.876  -0.362  0.00  0.00     0.077 C 
ATOM      2  C1' PXY d   1       3.913   5.159  -5.746  0.00  0.00     0.077 C 
ATOM      3  C1  PXY d   1       4.457   5.097  -4.332  0.00  0.00    -0.082 A 
ATOM      4  C2  PXY d   1       5.330   4.157  -4.008  0.00  0.00     0.003 A 
ATOM      5  C3  PXY d   1       5.809   4.068  -2.726  0.00  0.00     0.003 A 
ATOM      6  C4  PXY d   1       5.431   4.982  -1.780  0.00  0.00    -0.082 A 
ATOM      7  C5  PXY d   1       4.548   5.950  -2.106  0.00  0.00     0.003 A 
ATOM      8  C6  PXY d   1       4.043   5.999  -3.402  0.00  0.00     0.003 A 
ENDROOT
TORSDOF 0
ENDMDL
