MODEL 1
REMARK minimizedAffinity 17.9324112
REMARK minimizedRMSD -1
REMARK  0 active torsions:
REMARK  status: ('A' for Active; 'I' for Inactive)
ROOT
ATOM      1  C4' PXY d   1       2.705  -2.251  -3.356  0.00  0.00     0.077 C 
ATOM      2  C1' PXY d   1      -1.985  -1.812  -0.006  0.00  0.00     0.077 C 
ATOM      3  C1  PXY d   1      -0.762  -1.923  -0.895  0.00  0.00    -0.082 A 
ATOM      4  C2  PXY d   1       0.232  -2.722  -0.543  0.00  0.00     0.003 A 
ATOM      5  C3  PXY d   1       1.359  -2.811  -1.319  0.00  0.00     0.003 A 
ATOM      6  C4  PXY d   1       1.447  -2.114  -2.494  0.00  0.00    -0.082 A 
ATOM      7  C5  PXY d   1       0.433  -1.305  -2.866  0.00  0.00     0.003 A 
ATOM      8  C6  PXY d   1      -0.685  -1.198  -2.043  0.00  0.00     0.003 A 
ENDROOT
TORSDOF 0
ENDMDL
