MODEL 1
REMARK minimizedAffinity 9.94019794
REMARK minimizedRMSD -1
REMARK  0 active torsions:
REMARK  status: ('A' for Active; 'I' for Inactive)
ROOT
ATOM      1  C4' PXY d   1       2.368  -2.457  -3.414  0.00  0.00     0.077 C 
ATOM      2  C1' PXY d   1      -2.142  -1.721   0.127  0.00  0.00     0.077 C 
ATOM      3  C1  PXY d   1      -0.967  -1.912  -0.812  0.00  0.00    -0.082 A 
ATOM      4  C2  PXY d   1       0.104  -2.568  -0.395  0.00  0.00     0.003 A 
ATOM      5  C3  PXY d   1       1.188  -2.723  -1.220  0.00  0.00     0.003 A 
ATOM      6  C4  PXY d   1       1.155  -2.247  -2.504  0.00  0.00    -0.082 A 
ATOM      7  C5  PXY d   1       0.061  -1.587  -2.940  0.00  0.00     0.003 A 
ATOM      8  C6  PXY d   1      -1.012  -1.404  -2.073  0.00  0.00     0.003 A 
ENDROOT
TORSDOF 0
ENDMDL
