MODEL 1
REMARK minimizedAffinity 7.06357288
REMARK minimizedRMSD -1
REMARK  0 active torsions:
REMARK  status: ('A' for Active; 'I' for Inactive)
ROOT
ATOM      1  C4' PXY d   1       2.897  -2.170  -3.664  0.00  0.00     0.077 C 
ATOM      2  C1' PXY d   1      -1.896  -1.653  -0.474  0.00  0.00     0.077 C 
ATOM      3  C1  PXY d   1      -0.646  -1.786  -1.321  0.00  0.00    -0.082 A 
ATOM      4  C2  PXY d   1       0.391  -2.464  -0.855  0.00  0.00     0.003 A 
ATOM      5  C3  PXY d   1       1.541  -2.567  -1.595  0.00  0.00     0.003 A 
ATOM      6  C4  PXY d   1       1.611  -2.017  -2.847  0.00  0.00    -0.082 A 
ATOM      7  C5  PXY d   1       0.553  -1.334  -3.334  0.00  0.00     0.003 A 
ATOM      8  C6  PXY d   1      -0.590  -1.205  -2.550  0.00  0.00     0.003 A 
ENDROOT
TORSDOF 0
ENDMDL
