MODEL 1
REMARK minimizedAffinity 23.187891
REMARK minimizedRMSD -1
REMARK  0 active torsions:
REMARK  status: ('A' for Active; 'I' for Inactive)
ROOT
ATOM      1  C4' PXY d   1      -0.376  -1.726  -6.000  0.00  0.00     0.077 C 
ATOM      2  C1' PXY d   1      -0.159  -2.274  -0.249  0.00  0.00     0.077 C 
ATOM      3  C1  PXY d   1      -0.224  -2.141  -1.758  0.00  0.00    -0.082 A 
ATOM      4  C2  PXY d   1       0.749  -1.516  -2.402  0.00  0.00     0.003 A 
ATOM      5  C3  PXY d   1       0.690  -1.359  -3.763  0.00  0.00     0.003 A 
ATOM      6  C4  PXY d   1      -0.348  -1.893  -4.478  0.00  0.00    -0.082 A 
ATOM      7  C5  PXY d   1      -1.338  -2.541  -3.830  0.00  0.00     0.003 A 
ATOM      8  C6  PXY d   1      -1.281  -2.654  -2.444  0.00  0.00     0.003 A 
ENDROOT
TORSDOF 0
ENDMDL
