MODEL 1
REMARK minimizedAffinity 1.01280904
REMARK minimizedRMSD -1
REMARK  0 active torsions:
REMARK  status: ('A' for Active; 'I' for Inactive)
ROOT
ATOM      1  C4' PXY d   1       1.909  -2.436  -2.640  0.00  0.00     0.077 C 
ATOM      2  C1' PXY d   1      -3.516  -2.085  -0.674  0.00  0.00     0.077 C 
ATOM      3  C1  PXY d   1      -2.098  -2.181  -1.201  0.00  0.00    -0.082 A 
ATOM      4  C2  PXY d   1      -1.096  -2.357  -0.355  0.00  0.00     0.003 A 
ATOM      5  C3  PXY d   1       0.196  -2.414  -0.812  0.00  0.00     0.003 A 
ATOM      6  C4  PXY d   1       0.460  -2.343  -2.153  0.00  0.00    -0.082 A 
ATOM      7  C5  PXY d   1      -0.558  -2.173  -3.024  0.00  0.00     0.003 A 
ATOM      8  C6  PXY d   1      -1.858  -2.076  -2.536  0.00  0.00     0.003 A 
ENDROOT
TORSDOF 0
ENDMDL
