MODEL 1
REMARK minimizedAffinity 11.4477701
REMARK minimizedRMSD -1
REMARK  0 active torsions:
REMARK  status: ('A' for Active; 'I' for Inactive)
ROOT
ATOM      1  C4' PXY d   1       1.840  -3.290  -3.769  0.00  0.00     0.077 C 
ATOM      2  C1' PXY d   1      -2.105  -1.374  -0.004  0.00  0.00     0.077 C 
ATOM      3  C1  PXY d   1      -1.062  -1.878  -0.981  0.00  0.00    -0.082 A 
ATOM      4  C2  PXY d   1      -1.123  -1.509  -2.251  0.00  0.00     0.003 A 
ATOM      5  C3  PXY d   1      -0.206  -1.982  -3.155  0.00  0.00     0.003 A 
ATOM      6  C4  PXY d   1       0.814  -2.798  -2.745  0.00  0.00    -0.082 A 
ATOM      7  C5  PXY d   1       0.889  -3.170  -1.449  0.00  0.00     0.003 A 
ATOM      8  C6  PXY d   1      -0.076  -2.713  -0.556  0.00  0.00     0.003 A 
ENDROOT
TORSDOF 0
ENDMDL
