MODEL 1
REMARK minimizedAffinity 6.1594162
REMARK minimizedRMSD -1
REMARK  0 active torsions:
REMARK  status: ('A' for Active; 'I' for Inactive)
ROOT
ATOM      1  C4' PXY d   1      -2.568  -2.646  -4.061  0.00  0.00     0.077 C 
ATOM      2  C1' PXY d   1       0.817  -2.021   0.583  0.00  0.00     0.077 C 
ATOM      3  C1  PXY d   1      -0.081  -2.182  -0.628  0.00  0.00    -0.082 A 
ATOM      4  C2  PXY d   1       0.304  -2.955  -1.630  0.00  0.00     0.003 A 
ATOM      5  C3  PXY d   1      -0.481  -3.086  -2.747  0.00  0.00     0.003 A 
ATOM      6  C4  PXY d   1      -1.698  -2.462  -2.815  0.00  0.00    -0.082 A 
ATOM      7  C5  PXY d   1      -2.103  -1.680  -1.792  0.00  0.00     0.003 A 
ATOM      8  C6  PXY d   1      -1.272  -1.527  -0.685  0.00  0.00     0.003 A 
ENDROOT
TORSDOF 0
ENDMDL
