MODEL 1
REMARK minimizedAffinity 17.3930092
REMARK minimizedRMSD -1
REMARK  0 active torsions:
REMARK  status: ('A' for Active; 'I' for Inactive)
ROOT
ATOM      1  C4' PXY d   1      -1.428  -2.305  -4.914  0.00  0.00     0.077 C 
ATOM      2  C1' PXY d   1       0.813  -2.421   0.413  0.00  0.00     0.077 C 
ATOM      3  C1  PXY d   1       0.214  -2.386  -0.980  0.00  0.00    -0.082 A 
ATOM      4  C2  PXY d   1       0.720  -3.157  -1.929  0.00  0.00     0.003 A 
ATOM      5  C3  PXY d   1       0.211  -3.115  -3.201  0.00  0.00     0.003 A 
ATOM      6  C4  PXY d   1      -0.861  -2.314  -3.492  0.00  0.00    -0.082 A 
ATOM      7  C5  PXY d   1      -1.389  -1.532  -2.527  0.00  0.00     0.003 A 
ATOM      8  C6  PXY d   1      -0.832  -1.560  -1.252  0.00  0.00     0.003 A 
ENDROOT
TORSDOF 0
ENDMDL
