MODEL 1
REMARK minimizedAffinity 10.3104181
REMARK minimizedRMSD -1
REMARK  0 active torsions:
REMARK  status: ('A' for Active; 'I' for Inactive)
ROOT
ATOM      1  C4' PXY d   1      -1.693   6.000   0.112  0.00  0.00     0.077 C 
ATOM      2  C1' PXY d   1       3.644   3.794  -0.150  0.00  0.00     0.077 C 
ATOM      3  C1  PXY d   1       2.247   4.380  -0.092  0.00  0.00    -0.082 A 
ATOM      4  C2  PXY d   1       1.580   4.370   1.051  0.00  0.00     0.003 A 
ATOM      5  C3  PXY d   1       0.304   4.866   1.115  0.00  0.00     0.003 A 
ATOM      6  C4  PXY d   1      -0.277   5.428   0.009  0.00  0.00    -0.082 A 
ATOM      7  C5  PXY d   1       0.401   5.452  -1.158  0.00  0.00     0.003 A 
ATOM      8  C6  PXY d   1       1.680   4.905  -1.211  0.00  0.00     0.003 A 
ENDROOT
TORSDOF 0
ENDMDL
