MODEL 1
REMARK minimizedAffinity 12.5163784
REMARK minimizedRMSD -1
REMARK  0 active torsions:
REMARK  status: ('A' for Active; 'I' for Inactive)
ROOT
ATOM      1  C4' PXY d   1       2.190  -3.363  -4.127  0.00  0.00     0.077 C 
ATOM      2  C1' PXY d   1       5.999   0.979  -4.355  0.00  0.00     0.077 C 
ATOM      3  C1  PXY d   1       5.009  -0.168  -4.292  0.00  0.00    -0.082 A 
ATOM      4  C2  PXY d   1       3.890  -0.105  -4.994  0.00  0.00     0.003 A 
ATOM      5  C3  PXY d   1       2.969  -1.119  -4.924  0.00  0.00     0.003 A 
ATOM      6  C4  PXY d   1       3.222  -2.232  -4.168  0.00  0.00    -0.082 A 
ATOM      7  C5  PXY d   1       4.366  -2.309  -3.457  0.00  0.00     0.003 A 
ATOM      8  C6  PXY d   1       5.269  -1.250  -3.509  0.00  0.00     0.003 A 
ENDROOT
TORSDOF 0
ENDMDL
