MODEL 1
REMARK minimizedAffinity 12.0958958
REMARK minimizedRMSD -1
REMARK  0 active torsions:
REMARK  status: ('A' for Active; 'I' for Inactive)
ROOT
ATOM      1  C4' PXY d   1      -2.560  -3.457  -4.305  0.00  0.00     0.077 C 
ATOM      2  C1' PXY d   1       0.822  -2.075   0.175  0.00  0.00     0.077 C 
ATOM      3  C1  PXY d   1      -0.056  -2.445  -1.004  0.00  0.00    -0.082 A 
ATOM      4  C2  PXY d   1      -1.011  -1.617  -1.394  0.00  0.00     0.003 A 
ATOM      5  C3  PXY d   1      -1.835  -1.951  -2.439  0.00  0.00     0.003 A 
ATOM      6  C4  PXY d   1      -1.644  -3.120  -3.125  0.00  0.00    -0.082 A 
ATOM      7  C5  PXY d   1      -0.665  -3.965  -2.740  0.00  0.00     0.003 A 
ATOM      8  C6  PXY d   1       0.134  -3.627  -1.652  0.00  0.00     0.003 A 
ENDROOT
TORSDOF 0
ENDMDL
