MODEL 1
REMARK minimizedAffinity 12.7119322
REMARK minimizedRMSD -1
REMARK  0 active torsions:
REMARK  status: ('A' for Active; 'I' for Inactive)
ROOT
ATOM      1  C4' PXY d   1       0.546  -5.285  -0.769  0.00  0.00     0.077 C 
ATOM      2  C1' PXY d   1      -0.988   0.205  -1.731  0.00  0.00     0.077 C 
ATOM      3  C1  PXY d   1      -0.592  -1.239  -1.489  0.00  0.00    -0.082 A 
ATOM      4  C2  PXY d   1      -0.313  -1.644  -0.261  0.00  0.00     0.003 A 
ATOM      5  C3  PXY d   1       0.078  -2.938  -0.030  0.00  0.00     0.003 A 
ATOM      6  C4  PXY d   1       0.132  -3.840  -1.058  0.00  0.00    -0.082 A 
ATOM      7  C5  PXY d   1      -0.161  -3.437  -2.313  0.00  0.00     0.003 A 
ATOM      8  C6  PXY d   1      -0.516  -2.109  -2.533  0.00  0.00     0.003 A 
ENDROOT
TORSDOF 0
ENDMDL
