MODEL 1
REMARK minimizedAffinity 10.1651278
REMARK minimizedRMSD -1
REMARK  0 active torsions:
REMARK  status: ('A' for Active; 'I' for Inactive)
ROOT
ATOM      1  C4' PXY d   1       1.435  -4.005  -3.745  0.00  0.00     0.077 C 
ATOM      2  C1' PXY d   1      -1.873  -1.096  -0.003  0.00  0.00     0.077 C 
ATOM      3  C1  PXY d   1      -1.016  -1.859  -0.993  0.00  0.00    -0.082 A 
ATOM      4  C2  PXY d   1       0.003  -2.581  -0.556  0.00  0.00     0.003 A 
ATOM      5  C3  PXY d   1       0.808  -3.252  -1.440  0.00  0.00     0.003 A 
ATOM      6  C4  PXY d   1       0.536  -3.226  -2.781  0.00  0.00    -0.082 A 
ATOM      7  C5  PXY d   1      -0.508  -2.500  -3.235  0.00  0.00     0.003 A 
ATOM      8  C6  PXY d   1      -1.288  -1.793  -2.325  0.00  0.00     0.003 A 
ENDROOT
TORSDOF 0
ENDMDL
