MODEL 1
REMARK minimizedAffinity 6.82701683
REMARK minimizedRMSD -1
REMARK  0 active torsions:
REMARK  status: ('A' for Active; 'I' for Inactive)
ROOT
ATOM      1  C4' PXY d   1       0.679  -4.644  -5.043  0.00  0.00     0.077 C 
ATOM      2  C1' PXY d   1      -0.716  -2.708   0.222  0.00  0.00     0.077 C 
ATOM      3  C1  PXY d   1      -0.343  -3.225  -1.153  0.00  0.00    -0.082 A 
ATOM      4  C2  PXY d   1      -0.401  -2.412  -2.196  0.00  0.00     0.003 A 
ATOM      5  C3  PXY d   1      -0.097  -2.871  -3.452  0.00  0.00     0.003 A 
ATOM      6  C4  PXY d   1       0.321  -4.162  -3.634  0.00  0.00    -0.082 A 
ATOM      7  C5  PXY d   1       0.393  -4.995  -2.574  0.00  0.00     0.003 A 
ATOM      8  C6  PXY d   1       0.041  -4.520  -1.314  0.00  0.00     0.003 A 
ENDROOT
TORSDOF 0
ENDMDL
