MODEL 1
REMARK minimizedAffinity 13.0596113
REMARK minimizedRMSD -1
REMARK  0 active torsions:
REMARK  status: ('A' for Active; 'I' for Inactive)
ROOT
ATOM      1  C4' PXY d   1      -2.044  -4.021  -4.894  0.00  0.00     0.077 C 
ATOM      2  C1' PXY d   1       0.827  -1.375  -0.631  0.00  0.00     0.077 C 
ATOM      3  C1  PXY d   1       0.062  -2.064  -1.744  0.00  0.00    -0.082 A 
ATOM      4  C2  PXY d   1       0.589  -3.120  -2.343  0.00  0.00     0.003 A 
ATOM      5  C3  PXY d   1      -0.074  -3.736  -3.373  0.00  0.00     0.003 A 
ATOM      6  C4  PXY d   1      -1.313  -3.299  -3.759  0.00  0.00    -0.082 A 
ATOM      7  C5  PXY d   1      -1.862  -2.229  -3.146  0.00  0.00     0.003 A 
ATOM      8  C6  PXY d   1      -1.154  -1.592  -2.130  0.00  0.00     0.003 A 
ENDROOT
TORSDOF 0
ENDMDL
