MODEL 1
REMARK minimizedAffinity 1.77327681
REMARK minimizedRMSD -1
REMARK  0 active torsions:
REMARK  status: ('A' for Active; 'I' for Inactive)
ROOT
ATOM      1  C4' PXY d   1      -0.555  -1.875  -0.358  0.00  0.00     0.077 C 
ATOM      2  C1' PXY d   1       0.005  -3.000  -6.000  0.00  0.00     0.077 C 
ATOM      3  C1  PXY d   1      -0.132  -2.714  -4.517  0.00  0.00    -0.082 A 
ATOM      4  C2  PXY d   1      -1.276  -2.246  -4.045  0.00  0.00     0.003 A 
ATOM      5  C3  PXY d   1      -1.407  -1.951  -2.712  0.00  0.00     0.003 A 
ATOM      6  C4  PXY d   1      -0.374  -2.187  -1.845  0.00  0.00    -0.082 A 
ATOM      7  C5  PXY d   1       0.793  -2.675  -2.318  0.00  0.00     0.003 A 
ATOM      8  C6  PXY d   1       0.919  -2.929  -3.681  0.00  0.00     0.003 A 
ENDROOT
TORSDOF 0
ENDMDL
