MODEL 1
REMARK minimizedAffinity 15.182972
REMARK minimizedRMSD -1
REMARK  0 active torsions:
REMARK  status: ('A' for Active; 'I' for Inactive)
ROOT
ATOM      1  C4' PXY d   1       4.462  -4.482  -3.919  0.00  0.00     0.077 C 
ATOM      2  C1' PXY d   1       5.230   1.118  -5.130  0.00  0.00     0.077 C 
ATOM      3  C1  PXY d   1       5.034  -0.349  -4.801  0.00  0.00    -0.082 A 
ATOM      4  C2  PXY d   1       4.924  -1.230  -5.781  0.00  0.00     0.003 A 
ATOM      5  C3  PXY d   1       4.714  -2.556  -5.502  0.00  0.00     0.003 A 
ATOM      6  C4  PXY d   1       4.670  -2.992  -4.204  0.00  0.00    -0.082 A 
ATOM      7  C5  PXY d   1       4.793  -2.100  -3.198  0.00  0.00     0.003 A 
ATOM      8  C6  PXY d   1       4.964  -0.753  -3.503  0.00  0.00     0.003 A 
ENDROOT
TORSDOF 0
ENDMDL
