MODEL 1
REMARK minimizedAffinity 3.33887362
REMARK minimizedRMSD -1
REMARK  0 active torsions:
REMARK  status: ('A' for Active; 'I' for Inactive)
ROOT
ATOM      1  N1  IND d   1       1.246  -1.230   2.556  0.00  0.00    -0.196 N 
ATOM      2  C2  IND d   1       0.985  -1.394   3.887  0.00  0.00     0.054 A 
ATOM      3  C3  IND d   1      -0.299  -1.069   4.158  0.00  0.00    -0.031 A 
ATOM      4  C4  IND d   1      -2.176  -0.341   2.553  0.00  0.00     0.051 A 
ATOM      5  C5  IND d   1      -2.409  -0.014   1.246  0.00  0.00    -0.031 A 
ATOM      6  C6  IND d   1      -1.416  -0.079   0.290  0.00  0.00     0.015 A 
ATOM      7  C7  IND d   1      -0.151  -0.487   0.603  0.00  0.00    -0.016 A 
ATOM      8  C8  IND d   1       0.092  -0.813   1.930  0.00  0.00    -0.047 A 
ATOM      9  C9  IND d   1      -0.901  -0.708   2.913  0.00  0.00    -0.096 A 
ATOM     10  HN1 IND d   1       2.004  -1.364   2.173  0.00  0.00     0.298 HD
ENDROOT
TORSDOF 0
ENDMDL
