MODEL 1
REMARK minimizedAffinity 0.0621038266
REMARK minimizedRMSD -1
REMARK  0 active torsions:
REMARK  status: ('A' for Active; 'I' for Inactive)
ROOT
ATOM      1  N1  IND d   1       2.268  -1.416   3.351  0.00  0.00    -0.196 N 
ATOM      2  C2  IND d   1       1.972  -1.541   4.679  0.00  0.00     0.054 A 
ATOM      3  C3  IND d   1       0.737  -1.053   4.934  0.00  0.00    -0.031 A 
ATOM      4  C4  IND d   1      -1.012  -0.097   3.305  0.00  0.00     0.051 A 
ATOM      5  C5  IND d   1      -1.186   0.253   1.995  0.00  0.00    -0.031 A 
ATOM      6  C6  IND d   1      -0.199   0.058   1.051  0.00  0.00     0.015 A 
ATOM      7  C7  IND d   1       1.000  -0.507   1.380  0.00  0.00    -0.016 A 
ATOM      8  C8  IND d   1       1.184  -0.857   2.711  0.00  0.00    -0.047 A 
ATOM      9  C9  IND d   1       0.202  -0.623   3.682  0.00  0.00    -0.096 A 
ATOM     10  HN1 IND d   1       3.007  -1.647   2.977  0.00  0.00     0.298 HD
ENDROOT
TORSDOF 0
ENDMDL
