MODEL 1
REMARK minimizedAffinity -1.97758782
REMARK minimizedRMSD -1
REMARK  0 active torsions:
REMARK  status: ('A' for Active; 'I' for Inactive)
ROOT
ATOM      1  N1  IND d   1       1.937  -1.372   2.865  0.00  0.00    -0.196 N 
ATOM      2  C2  IND d   1       1.926  -1.791   4.166  0.00  0.00     0.054 A 
ATOM      3  C3  IND d   1       0.697  -1.621   4.705  0.00  0.00    -0.031 A 
ATOM      4  C4  IND d   1      -1.467  -0.767   3.603  0.00  0.00     0.051 A 
ATOM      5  C5  IND d   1      -1.945  -0.230   2.441  0.00  0.00    -0.031 A 
ATOM      6  C6  IND d   1      -1.137  -0.046   1.337  0.00  0.00     0.015 A 
ATOM      7  C7  IND d   1       0.181  -0.403   1.351  0.00  0.00    -0.016 A 
ATOM      8  C8  IND d   1       0.672  -0.942   2.532  0.00  0.00    -0.047 A 
ATOM      9  C9  IND d   1      -0.133  -1.091   3.670  0.00  0.00    -0.096 A 
ATOM     10  HN1 IND d   1       2.620  -1.376   2.343  0.00  0.00     0.298 HD
ENDROOT
TORSDOF 0
ENDMDL
