MODEL 1
REMARK minimizedAffinity 8.62255287
REMARK minimizedRMSD -1
REMARK  0 active torsions:
REMARK  status: ('A' for Active; 'I' for Inactive)
ROOT
ATOM      1  N1  IND d   1       2.236  -1.164   3.214  0.00  0.00    -0.196 N 
ATOM      2  C2  IND d   1       2.016  -1.424   4.538  0.00  0.00     0.054 A 
ATOM      3  C3  IND d   1       0.723  -1.187   4.855  0.00  0.00    -0.031 A 
ATOM      4  C4  IND d   1      -1.228  -0.467   3.338  0.00  0.00     0.051 A 
ATOM      5  C5  IND d   1      -1.511  -0.074   2.060  0.00  0.00    -0.031 A 
ATOM      6  C6  IND d   1      -0.540  -0.026   1.081  0.00  0.00     0.015 A 
ATOM      7  C7  IND d   1       0.754  -0.382   1.342  0.00  0.00    -0.016 A 
ATOM      8  C8  IND d   1       1.045  -0.774   2.640  0.00  0.00    -0.047 A 
ATOM      9  C9  IND d   1       0.073  -0.784   3.649  0.00  0.00    -0.096 A 
ATOM     10  HN1 IND d   1       2.990  -1.233   2.808  0.00  0.00     0.298 HD
ENDROOT
TORSDOF 0
ENDMDL
