MODEL 1
REMARK minimizedAffinity 10.9081888
REMARK minimizedRMSD -1
REMARK  0 active torsions:
REMARK  status: ('A' for Active; 'I' for Inactive)
ROOT
ATOM      1  N1  IND d   1       2.167  -0.415   0.946  0.00  0.00    -0.196 N 
ATOM      2  C2  IND d   1       2.106   0.488  -0.078  0.00  0.00     0.054 A 
ATOM      3  C3  IND d   1       2.930   1.532   0.166  0.00  0.00    -0.031 A 
ATOM      4  C4  IND d   1       4.547   1.914   2.132  0.00  0.00     0.051 A 
ATOM      5  C5  IND d   1       4.928   1.383   3.332  0.00  0.00    -0.031 A 
ATOM      6  C6  IND d   1       4.400   0.200   3.807  0.00  0.00     0.015 A 
ATOM      7  C7  IND d   1       3.474  -0.505   3.090  0.00  0.00    -0.016 A 
ATOM      8  C8  IND d   1       3.080   0.035   1.874  0.00  0.00    -0.047 A 
ATOM      9  C9  IND d   1       3.581   1.257   1.407  0.00  0.00    -0.096 A 
ATOM     10  HN1 IND d   1       1.711  -1.142   1.002  0.00  0.00     0.298 HD
ENDROOT
TORSDOF 0
ENDMDL
