MODEL 1
REMARK minimizedAffinity 5.7367692
REMARK minimizedRMSD -1
REMARK  0 active torsions:
REMARK  status: ('A' for Active; 'I' for Inactive)
ROOT
ATOM      1  N1  IND d   1       1.708  -1.106   3.105  0.00  0.00    -0.196 N 
ATOM      2  C2  IND d   1       1.311  -1.468   4.362  0.00  0.00     0.054 A 
ATOM      3  C3  IND d   1      -0.015  -1.253   4.517  0.00  0.00    -0.031 A 
ATOM      4  C4  IND d   1      -1.746  -0.410   2.808  0.00  0.00     0.051 A 
ATOM      5  C5  IND d   1      -1.854   0.083   1.538  0.00  0.00    -0.031 A 
ATOM      6  C6  IND d   1      -0.758   0.204   0.707  0.00  0.00     0.015 A 
ATOM      7  C7  IND d   1       0.490  -0.175   1.114  0.00  0.00    -0.016 A 
ATOM      8  C8  IND d   1       0.604  -0.669   2.406  0.00  0.00    -0.047 A 
ATOM      9  C9  IND d   1      -0.497  -0.755   3.268  0.00  0.00    -0.096 A 
ATOM     10  HN1 IND d   1       2.511  -1.145   2.802  0.00  0.00     0.298 HD
ENDROOT
TORSDOF 0
ENDMDL
