MODEL 1
REMARK minimizedAffinity 2.37954164
REMARK minimizedRMSD -1
REMARK  0 active torsions:
REMARK  status: ('A' for Active; 'I' for Inactive)
ROOT
ATOM      1  C1  BNZ d   1       1.015   1.275  -3.569  0.00  0.00     0.000 A 
ATOM      2  C2  BNZ d   1       0.968   2.610  -3.268  0.00  0.00     0.000 A 
ATOM      3  C3  BNZ d   1       1.720   3.124  -2.248  0.00  0.00     0.000 A 
ATOM      4  C4  BNZ d   1       2.485   2.297  -1.507  0.00  0.00     0.000 A 
ATOM      5  C5  BNZ d   1       2.536   0.948  -1.792  0.00  0.00     0.000 A 
ATOM      6  C6  BNZ d   1       1.808   0.440  -2.844  0.00  0.00     0.000 A 
ENDROOT
TORSDOF 0
ENDMDL
