MODEL 1
REMARK minimizedAffinity -1.62059128
REMARK minimizedRMSD -1
REMARK  0 active torsions:
REMARK  status: ('A' for Active; 'I' for Inactive)
ROOT
ATOM      1  C1  BNZ d   1       1.603   1.946  -1.127  0.00  0.00     0.000 A 
ATOM      2  C2  BNZ d   1       1.709   0.741  -0.485  0.00  0.00     0.000 A 
ATOM      3  C3  BNZ d   1       2.149  -0.370  -1.149  0.00  0.00     0.000 A 
ATOM      4  C4  BNZ d   1       2.444  -0.284  -2.463  0.00  0.00     0.000 A 
ATOM      5  C5  BNZ d   1       2.333   0.922  -3.126  0.00  0.00     0.000 A 
ATOM      6  C6  BNZ d   1       1.927   2.046  -2.445  0.00  0.00     0.000 A 
ENDROOT
TORSDOF 0
ENDMDL
