MODEL 1
REMARK minimizedAffinity -0.208831295
REMARK minimizedRMSD -1
REMARK  0 active torsions:
REMARK  status: ('A' for Active; 'I' for Inactive)
ROOT
ATOM      1  C1  BNZ d   1       4.053   0.015  -0.050  0.00  0.00     0.000 A 
ATOM      2  C2  BNZ d   1       3.744  -0.752   1.042  0.00  0.00     0.000 A 
ATOM      3  C3  BNZ d   1       2.760  -1.698   0.976  0.00  0.00     0.000 A 
ATOM      4  C4  BNZ d   1       2.059  -1.849  -0.167  0.00  0.00     0.000 A 
ATOM      5  C5  BNZ d   1       2.353  -1.077  -1.273  0.00  0.00     0.000 A 
ATOM      6  C6  BNZ d   1       3.370  -0.152  -1.215  0.00  0.00     0.000 A 
ENDROOT
TORSDOF 0
ENDMDL
