MODEL 1
REMARK minimizedAffinity -1.92773223
REMARK minimizedRMSD -1
REMARK  0 active torsions:
REMARK  status: ('A' for Active; 'I' for Inactive)
ROOT
ATOM      1  C   UNL d   1       0.040  -0.405  -0.538  0.00  0.00     0.172 C 
ATOM      2  N   UNL d   1       0.395   0.041  -1.865  0.00  0.00    -0.070 N 
ATOM      3  C1  UNL d   1      -0.268  -0.281  -3.019  0.00  0.00    -0.004 A 
ATOM      4  C2  UNL d   1       0.381   0.340  -4.065  0.00  0.00    -0.047 A 
ATOM      5  C3  UNL d   1       1.472   1.058  -3.520  0.00  0.00    -0.047 A 
ATOM      6  C4  UNL d   1       1.457   0.856  -2.156  0.00  0.00    -0.004 A 
ENDROOT
TORSDOF 0
ENDMDL
