MODEL 1
REMARK minimizedAffinity -3.90036821
REMARK minimizedRMSD -1
REMARK  0 active torsions:
REMARK  status: ('A' for Active; 'I' for Inactive)
ROOT
ATOM      1  C   UNL d   1       0.668  -0.528  -1.054  0.00  0.00     0.172 C 
ATOM      2  N   UNL d   1       0.074   0.123   0.090  0.00  0.00    -0.070 N 
ATOM      3  C1  UNL d   1       0.761   0.712   1.118  0.00  0.00    -0.004 A 
ATOM      4  C2  UNL d   1      -0.163   1.218   2.007  0.00  0.00    -0.047 A 
ATOM      5  C3  UNL d   1      -1.449   0.922   1.496  0.00  0.00    -0.047 A 
ATOM      6  C4  UNL d   1      -1.273   0.244   0.308  0.00  0.00    -0.004 A 
ENDROOT
TORSDOF 0
ENDMDL
