MODEL 1
REMARK minimizedAffinity -1.72885787
REMARK minimizedRMSD -1
REMARK  0 active torsions:
REMARK  status: ('A' for Active; 'I' for Inactive)
ROOT
ATOM      1  C   UNL d   1       0.821  -0.859  -1.366  0.00  0.00     0.172 C 
ATOM      2  N   UNL d   1       1.073  -0.265  -2.658  0.00  0.00    -0.070 N 
ATOM      3  C1  UNL d   1       2.054   0.649  -2.939  0.00  0.00    -0.004 A 
ATOM      4  C2  UNL d   1       1.964   0.966  -4.277  0.00  0.00    -0.047 A 
ATOM      5  C3  UNL d   1       0.892   0.218  -4.819  0.00  0.00    -0.047 A 
ATOM      6  C4  UNL d   1       0.358  -0.535  -3.795  0.00  0.00    -0.004 A 
ENDROOT
TORSDOF 0
ENDMDL
