MODEL 1
REMARK minimizedAffinity -2.87028098
REMARK minimizedRMSD -1
REMARK  0 active torsions:
REMARK  status: ('A' for Active; 'I' for Inactive)
ROOT
ATOM      1  C   UNL d   1       0.468  -0.577  -0.711  0.00  0.00     0.172 C 
ATOM      2  N   UNL d   1      -0.199   0.067   0.395  0.00  0.00    -0.070 N 
ATOM      3  C1  UNL d   1      -1.541   0.325   0.478  0.00  0.00    -0.004 A 
ATOM      4  C2  UNL d   1      -1.779   0.947   1.684  0.00  0.00    -0.047 A 
ATOM      5  C3  UNL d   1      -0.536   1.068   2.350  0.00  0.00    -0.047 A 
ATOM      6  C4  UNL d   1       0.425   0.515   1.530  0.00  0.00    -0.004 A 
ENDROOT
TORSDOF 0
ENDMDL
