MODEL 1
REMARK minimizedAffinity -3.07430887
REMARK minimizedRMSD -1
REMARK  0 active torsions:
REMARK  status: ('A' for Active; 'I' for Inactive)
ROOT
ATOM      1  C   UNL d   1       0.771  -1.136  -0.746  0.00  0.00     0.172 C 
ATOM      2  N   UNL d   1       0.375  -0.402   0.433  0.00  0.00    -0.070 N 
ATOM      3  C1  UNL d   1       1.211   0.000   1.441  0.00  0.00    -0.004 A 
ATOM      4  C2  UNL d   1       0.452   0.669   2.377  0.00  0.00    -0.047 A 
ATOM      5  C3  UNL d   1      -0.886   0.668   1.917  0.00  0.00    -0.047 A 
ATOM      6  C4  UNL d   1      -0.905  -0.001   0.711  0.00  0.00    -0.004 A 
ENDROOT
TORSDOF 0
ENDMDL
