MODEL 1
REMARK minimizedAffinity -3.25082493
REMARK minimizedRMSD -1
REMARK  0 active torsions:
REMARK  status: ('A' for Active; 'I' for Inactive)
ROOT
ATOM      1  C   UNL d   1      -1.015   1.277   2.574  0.00  0.00     0.172 C 
ATOM      2  N   UNL d   1      -0.593   0.638   1.350  0.00  0.00    -0.070 N 
ATOM      3  C1  UNL d   1       0.559  -0.082   1.181  0.00  0.00    -0.004 A 
ATOM      4  C2  UNL d   1       0.594  -0.524  -0.124  0.00  0.00    -0.047 A 
ATOM      5  C3  UNL d   1      -0.579  -0.053  -0.762  0.00  0.00    -0.047 A 
ATOM      6  C4  UNL d   1      -1.295   0.663   0.173  0.00  0.00    -0.004 A 
ENDROOT
TORSDOF 0
ENDMDL
