MODEL 1
REMARK minimizedAffinity -3.27992916
REMARK minimizedRMSD -1
REMARK  0 active torsions:
REMARK  status: ('A' for Active; 'I' for Inactive)
ROOT
ATOM      1  C   UNL d   1       0.487  -0.833  -1.478  0.00  0.00     0.172 C 
ATOM      2  N   UNL d   1       0.023  -0.150  -0.293  0.00  0.00    -0.070 N 
ATOM      3  C1  UNL d   1       0.817   0.330   0.714  0.00  0.00    -0.004 A 
ATOM      4  C2  UNL d   1      -0.003   0.911   1.657  0.00  0.00    -0.047 A 
ATOM      5  C3  UNL d   1      -1.336   0.775   1.201  0.00  0.00    -0.047 A 
ATOM      6  C4  UNL d   1      -1.291   0.114  -0.008  0.00  0.00    -0.004 A 
ENDROOT
TORSDOF 0
ENDMDL
