MODEL 1
REMARK minimizedAffinity -4.94286299
REMARK minimizedRMSD -1
REMARK  0 active torsions:
REMARK  status: ('A' for Active; 'I' for Inactive)
ROOT
ATOM      1  C1  DEN d   1       0.391   0.165   3.840  0.00  0.00     0.130 A 
ATOM      2  C2  DEN d   1       1.779  -0.213   3.590  0.00  0.00    -0.031 A 
ATOM      3  C3  DEN d   1       1.978  -0.281   2.128  0.00  0.00     0.027 A 
ATOM      4  C4  DEN d   1       0.281   0.165   0.238  0.00  0.00     0.027 A 
ATOM      5  C5  DEN d   1      -1.024   0.504  -0.042  0.00  0.00    -0.003 A 
ATOM      6  C6  DEN d   1      -1.950   0.719   0.944  0.00  0.00     0.001 A 
ATOM      7  C7  DEN d   1      -1.572   0.642   2.258  0.00  0.00     0.017 A 
ATOM      8  C8  DEN d   1      -0.260   0.293   2.548  0.00  0.00    -0.094 A 
ATOM      9  C9  DEN d   1       0.665   0.091   1.538  0.00  0.00    -0.072 A 
ENDROOT
TORSDOF 0
ENDMDL
