MODEL 1
REMARK minimizedAffinity -0.670523882
REMARK minimizedRMSD -1
REMARK  0 active torsions:
REMARK  status: ('A' for Active; 'I' for Inactive)
ROOT
ATOM      1  C1  DEN d   1      -0.269   0.020  -0.241  0.00  0.00     0.130 A 
ATOM      2  C2  DEN d   1       1.029  -0.500  -0.663  0.00  0.00    -0.031 A 
ATOM      3  C3  DEN d   1       1.849  -0.715   0.546  0.00  0.00     0.027 A 
ATOM      4  C4  DEN d   1       1.236  -0.301   3.017  0.00  0.00     0.027 A 
ATOM      5  C5  DEN d   1       0.251   0.146   3.870  0.00  0.00    -0.003 A 
ATOM      6  C6  DEN d   1      -0.954   0.611   3.414  0.00  0.00     0.001 A 
ATOM      7  C7  DEN d   1      -1.222   0.596   2.071  0.00  0.00     0.017 A 
ATOM      8  C8  DEN d   1      -0.231   0.154   1.204  0.00  0.00    -0.094 A 
ATOM      9  C9  DEN d   1       0.976  -0.323   1.686  0.00  0.00    -0.072 A 
ENDROOT
TORSDOF 0
ENDMDL
