MODEL 1
REMARK minimizedAffinity -5.52421856
REMARK minimizedRMSD -1
REMARK  0 active torsions:
REMARK  status: ('A' for Active; 'I' for Inactive)
ROOT
ATOM      1  C1  DEN d   1       0.925  -0.452  -0.611  0.00  0.00     0.130 A 
ATOM      2  C2  DEN d   1      -0.311  -0.085  -1.297  0.00  0.00    -0.031 A 
ATOM      3  C3  DEN d   1      -1.266   0.406  -0.284  0.00  0.00     0.027 A 
ATOM      4  C4  DEN d   1      -0.952   0.639   2.265  0.00  0.00     0.027 A 
ATOM      5  C5  DEN d   1      -0.076   0.443   3.311  0.00  0.00    -0.003 A 
ATOM      6  C6  DEN d   1       1.171  -0.092   3.128  0.00  0.00     0.001 A 
ATOM      7  C7  DEN d   1       1.596  -0.408   1.865  0.00  0.00     0.017 A 
ATOM      8  C8  DEN d   1       0.716  -0.220   0.806  0.00  0.00    -0.094 A 
ATOM      9  C9  DEN d   1      -0.536   0.333   1.010  0.00  0.00    -0.072 A 
ENDROOT
TORSDOF 0
ENDMDL
