MODEL 1
REMARK minimizedAffinity -3.77254677
REMARK minimizedRMSD -1
REMARK  0 active torsions:
REMARK  status: ('A' for Active; 'I' for Inactive)
ROOT
ATOM      1  C1  DEN d   1       1.904  -1.061   0.308  0.00  0.00     0.130 A 
ATOM      2  C2  DEN d   1       0.948  -0.859  -0.777  0.00  0.00    -0.031 A 
ATOM      3  C3  DEN d   1      -0.276  -0.266  -0.202  0.00  0.00     0.027 A 
ATOM      4  C4  DEN d   1      -0.780   0.358   2.249  0.00  0.00     0.027 A 
ATOM      5  C5  DEN d   1      -0.279   0.362   3.532  0.00  0.00    -0.003 A 
ATOM      6  C6  DEN d   1       0.961  -0.136   3.833  0.00  0.00     0.001 A 
ATOM      7  C7  DEN d   1       1.761  -0.617   2.831  0.00  0.00     0.017 A 
ATOM      8  C8  DEN d   1       1.260  -0.631   1.535  0.00  0.00    -0.094 A 
ATOM      9  C9  DEN d   1       0.009  -0.112   1.250  0.00  0.00    -0.072 A 
ENDROOT
TORSDOF 0
ENDMDL
