MODEL 1
REMARK minimizedAffinity -3.78858733
REMARK minimizedRMSD -1
REMARK  0 active torsions:
REMARK  status: ('A' for Active; 'I' for Inactive)
ROOT
ATOM      1  C1  DEN d   1       0.069   1.128   3.126  0.00  0.00     0.130 A 
ATOM      2  C2  DEN d   1      -1.327   1.298   3.521  0.00  0.00    -0.031 A 
ATOM      3  C3  DEN d   1      -2.176   0.743   2.448  0.00  0.00     0.027 A 
ATOM      4  C4  DEN d   1      -1.469  -0.362   0.227  0.00  0.00     0.027 A 
ATOM      5  C5  DEN d   1      -0.394  -0.720  -0.556  0.00  0.00    -0.003 A 
ATOM      6  C6  DEN d   1       0.898  -0.460  -0.186  0.00  0.00     0.001 A 
ATOM      7  C7  DEN d   1       1.151   0.138   1.021  0.00  0.00     0.017 A 
ATOM      8  C8  DEN d   1       0.072   0.509   1.812  0.00  0.00    -0.094 A 
ATOM      9  C9  DEN d   1      -1.227   0.226   1.426  0.00  0.00    -0.072 A 
ENDROOT
TORSDOF 0
ENDMDL
