MODEL 1
REMARK minimizedAffinity -3.72469926
REMARK minimizedRMSD -1
REMARK  0 active torsions:
REMARK  status: ('A' for Active; 'I' for Inactive)
ROOT
ATOM      1  C1  DEN d   1       1.450   0.940   0.048  0.00  0.00     0.130 A 
ATOM      2  C2  DEN d   1       0.970   0.146  -1.080  0.00  0.00    -0.031 A 
ATOM      3  C3  DEN d   1      -0.355  -0.399  -0.724  0.00  0.00     0.027 A 
ATOM      4  C4  DEN d   1      -1.707  -0.089   1.450  0.00  0.00     0.027 A 
ATOM      5  C5  DEN d   1      -1.705   0.491   2.700  0.00  0.00    -0.003 A 
ATOM      6  C6  DEN d   1      -0.647   1.227   3.162  0.00  0.00     0.001 A 
ATOM      7  C7  DEN d   1       0.437   1.440   2.352  0.00  0.00     0.017 A 
ATOM      8  C8  DEN d   1       0.446   0.852   1.094  0.00  0.00    -0.094 A 
ATOM      9  C9  DEN d   1      -0.639   0.122   0.640  0.00  0.00    -0.072 A 
ENDROOT
TORSDOF 0
ENDMDL
