MODEL 1
REMARK minimizedAffinity -0.898254812
REMARK minimizedRMSD -1
REMARK  0 active torsions:
REMARK  status: ('A' for Active; 'I' for Inactive)
ROOT
ATOM      1  C1  DEN d   1      -1.170   0.405   2.279  0.00  0.00     0.130 A 
ATOM      2  C2  DEN d   1      -2.303   0.647   1.391  0.00  0.00    -0.031 A 
ATOM      3  C3  DEN d   1      -1.960   0.113   0.058  0.00  0.00     0.027 A 
ATOM      4  C4  DEN d   1       0.203  -1.063  -0.712  0.00  0.00     0.027 A 
ATOM      5  C5  DEN d   1       1.452  -1.485  -0.316  0.00  0.00    -0.003 A 
ATOM      6  C6  DEN d   1       1.925  -1.279   0.953  0.00  0.00     0.001 A 
ATOM      7  C7  DEN d   1       1.125  -0.672   1.885  0.00  0.00     0.017 A 
ATOM      8  C8  DEN d   1      -0.133  -0.237   1.491  0.00  0.00    -0.094 A 
ATOM      9  C9  DEN d   1      -0.598  -0.466   0.207  0.00  0.00    -0.072 A 
ENDROOT
TORSDOF 0
ENDMDL
