MODEL 1
REMARK minimizedAffinity -1.06145704
REMARK minimizedRMSD -1
REMARK  0 active torsions:
REMARK  status: ('A' for Active; 'I' for Inactive)
ROOT
ATOM      1  C1  DEN d   1      -1.241   0.516  -5.497  0.00  0.00     0.130 A 
ATOM      2  C2  DEN d   1      -2.313  -0.408  -5.139  0.00  0.00    -0.031 A 
ATOM      3  C3  DEN d   1      -1.925  -1.096  -3.891  0.00  0.00     0.027 A 
ATOM      4  C4  DEN d   1       0.220  -0.818  -2.485  0.00  0.00     0.027 A 
ATOM      5  C5  DEN d   1       1.426  -0.160  -2.396  0.00  0.00    -0.003 A 
ATOM      6  C6  DEN d   1       1.840   0.738  -3.344  0.00  0.00     0.001 A 
ATOM      7  C7  DEN d   1       1.020   1.035  -4.400  0.00  0.00     0.017 A 
ATOM      8  C8  DEN d   1      -0.194   0.370  -4.501  0.00  0.00    -0.094 A 
ATOM      9  C9  DEN d   1      -0.600  -0.525  -3.526  0.00  0.00    -0.072 A 
ENDROOT
TORSDOF 0
ENDMDL
