MODEL 1
REMARK minimizedAffinity -2.62398839
REMARK minimizedRMSD -1
REMARK  0 active torsions:
REMARK  status: ('A' for Active; 'I' for Inactive)
ROOT
ATOM      1  C1  DEN d   1       1.609  -1.518   1.112  0.00  0.00     0.130 A 
ATOM      2  C2  DEN d   1       2.875  -0.813   1.290  0.00  0.00    -0.031 A 
ATOM      3  C3  DEN d   1       2.574   0.556   1.755  0.00  0.00     0.027 A 
ATOM      4  C4  DEN d   1       0.282   1.645   2.219  0.00  0.00     0.027 A 
ATOM      5  C5  DEN d   1      -1.080   1.444   2.200  0.00  0.00    -0.003 A 
ATOM      6  C6  DEN d   1      -1.639   0.263   1.789  0.00  0.00     0.001 A 
ATOM      7  C7  DEN d   1      -0.829  -0.779   1.422  0.00  0.00     0.017 A 
ATOM      8  C8  DEN d   1       0.546  -0.582   1.431  0.00  0.00    -0.094 A 
ATOM      9  C9  DEN d   1       1.091   0.616   1.862  0.00  0.00    -0.072 A 
ENDROOT
TORSDOF 0
ENDMDL
