MODEL 1
REMARK minimizedAffinity -3.03426504
REMARK minimizedRMSD -1
REMARK  0 active torsions:
REMARK  status: ('A' for Active; 'I' for Inactive)
ROOT
ATOM      1  C1  DEN d   1      -2.159   0.114   1.194  0.00  0.00     0.130 A 
ATOM      2  C2  DEN d   1      -1.910  -0.765   0.054  0.00  0.00    -0.031 A 
ATOM      3  C3  DEN d   1      -0.448  -0.906  -0.102  0.00  0.00     0.027 A 
ATOM      4  C4  DEN d   1       1.443   0.141   1.305  0.00  0.00     0.027 A 
ATOM      5  C5  DEN d   1       1.724   0.969   2.370  0.00  0.00    -0.003 A 
ATOM      6  C6  DEN d   1       0.739   1.591   3.090  0.00  0.00     0.001 A 
ATOM      7  C7  DEN d   1      -0.576   1.360   2.783  0.00  0.00     0.017 A 
ATOM      8  C8  DEN d   1      -0.867   0.533   1.706  0.00  0.00    -0.094 A 
ATOM      9  C9  DEN d   1       0.143  -0.097   0.998  0.00  0.00    -0.072 A 
ENDROOT
TORSDOF 0
ENDMDL
