MODEL 1
REMARK minimizedAffinity -4.63288927
REMARK minimizedRMSD -1
REMARK  1 active torsions:
REMARK  status: ('A' for Active; 'I' for Inactive)
REMARK    1  A    between atoms: C1_2  and  C2_3 
ROOT
ATOM      1  C2  UNL d   1      -0.302   0.231   0.748  0.00  0.00    -0.073 A 
ATOM      2  C3  UNL d   1      -1.022   0.623   1.882  0.00  0.00    -0.002 A 
ATOM      3  C4  UNL d   1      -0.451   0.519   3.151  0.00  0.00     0.004 A 
ATOM      4  C5  UNL d   1       0.846   0.028   3.299  0.00  0.00    -0.004 A 
ATOM      5  C6  UNL d   1       1.586  -0.358   2.177  0.00  0.00    -0.075 A 
ATOM      6  C7  UNL d   1       2.982  -0.890   2.319  0.00  0.00     0.076 C 
ATOM      7  C8  UNL d   1       1.005  -0.253   0.906  0.00  0.00     0.001 A 
ENDROOT
BRANCH   1   8
ATOM      8  C1  UNL d   1      -0.912   0.347  -0.625  0.00  0.00     0.053 C 
ATOM      9  C   UNL d   1       0.122   0.165  -1.725  0.00  0.00     0.018 C 
ENDBRANCH   1   8
TORSDOF 1
ENDMDL
