MODEL 1
REMARK minimizedAffinity -5.52683544
REMARK minimizedRMSD -1
REMARK  1 active torsions:
REMARK  status: ('A' for Active; 'I' for Inactive)
REMARK    1  A    between atoms: C1_2  and  C2_3 
ROOT
ATOM      1  C2  UNL d   1       0.726  -0.298   0.062  0.00  0.00    -0.073 A 
ATOM      2  C3  UNL d   1       1.871  -0.756   0.724  0.00  0.00    -0.002 A 
ATOM      3  C4  UNL d   1       2.103  -0.406   2.055  0.00  0.00     0.004 A 
ATOM      4  C5  UNL d   1       1.191   0.398   2.739  0.00  0.00    -0.004 A 
ATOM      5  C6  UNL d   1       0.035   0.856   2.098  0.00  0.00    -0.075 A 
ATOM      6  C7  UNL d   1      -0.954   1.723   2.819  0.00  0.00     0.076 C 
ATOM      7  C8  UNL d   1      -0.189   0.503   0.761  0.00  0.00     0.001 A 
ENDROOT
BRANCH   1   8
ATOM      8  C1  UNL d   1       0.468  -0.678  -1.373  0.00  0.00     0.053 C 
ATOM      9  C   UNL d   1       1.080   0.318  -2.345  0.00  0.00     0.018 C 
ENDBRANCH   1   8
TORSDOF 1
ENDMDL
