MODEL 1
REMARK minimizedAffinity -2.10461879
REMARK minimizedRMSD -1
REMARK  1 active torsions:
REMARK  status: ('A' for Active; 'I' for Inactive)
REMARK    1  A    between atoms: C1_2  and  C2_3 
ROOT
ATOM      1  C2  UNL d   1      -0.232  -0.539  -0.381  0.00  0.00    -0.073 A 
ATOM      2  C3  UNL d   1      -1.502  -0.089  -0.759  0.00  0.00    -0.002 A 
ATOM      3  C4  UNL d   1      -2.324   0.559   0.164  0.00  0.00     0.004 A 
ATOM      4  C5  UNL d   1      -1.883   0.771   1.470  0.00  0.00    -0.004 A 
ATOM      5  C6  UNL d   1      -0.612   0.339   1.864  0.00  0.00    -0.075 A 
ATOM      6  C7  UNL d   1      -0.124   0.556   3.266  0.00  0.00     0.076 C 
ATOM      7  C8  UNL d   1       0.206  -0.314   0.932  0.00  0.00     0.001 A 
ENDROOT
BRANCH   1   8
ATOM      8  C1  UNL d   1       0.661  -1.234  -1.376  0.00  0.00     0.053 C 
ATOM      9  C   UNL d   1       0.290  -0.894  -2.810  0.00  0.00     0.018 C 
ENDBRANCH   1   8
TORSDOF 1
ENDMDL
