MODEL 1
REMARK minimizedAffinity -1.72780073
REMARK minimizedRMSD -1
REMARK  1 active torsions:
REMARK  status: ('A' for Active; 'I' for Inactive)
REMARK    1  A    between atoms: C1_2  and  C2_3 
ROOT
ATOM      1  C2  UNL d   1       0.204  -0.413  -1.191  0.00  0.00    -0.073 A 
ATOM      2  C3  UNL d   1      -1.090  -0.119  -0.748  0.00  0.00    -0.002 A 
ATOM      3  C4  UNL d   1      -1.366  -0.038   0.618  0.00  0.00     0.004 A 
ATOM      4  C5  UNL d   1      -0.351  -0.243   1.552  0.00  0.00    -0.004 A 
ATOM      5  C6  UNL d   1       0.951  -0.527   1.128  0.00  0.00    -0.075 A 
ATOM      6  C7  UNL d   1       2.054  -0.753   2.121  0.00  0.00     0.076 C 
ATOM      7  C8  UNL d   1       1.220  -0.609  -0.245  0.00  0.00     0.001 A 
ENDROOT
BRANCH   1   8
ATOM      8  C1  UNL d   1       0.507  -0.496  -2.665  0.00  0.00     0.053 C 
ATOM      9  C   UNL d   1       1.513   0.559  -3.099  0.00  0.00     0.018 C 
ENDBRANCH   1   8
TORSDOF 1
ENDMDL
