MODEL 1
REMARK minimizedAffinity -5.77562237
REMARK minimizedRMSD -1
REMARK  1 active torsions:
REMARK  status: ('A' for Active; 'I' for Inactive)
REMARK    1  A    between atoms: C1_2  and  C2_3 
ROOT
ATOM      1  C2  UNL d   1      -0.123   0.346   2.168  0.00  0.00    -0.073 A 
ATOM      2  C3  UNL d   1      -1.504   0.576   2.165  0.00  0.00    -0.002 A 
ATOM      3  C4  UNL d   1      -2.227   0.507   0.974  0.00  0.00     0.004 A 
ATOM      4  C5  UNL d   1      -1.581   0.202  -0.223  0.00  0.00    -0.004 A 
ATOM      5  C6  UNL d   1      -0.204  -0.042  -0.239  0.00  0.00    -0.075 A 
ATOM      6  C7  UNL d   1       0.507  -0.370  -1.520  0.00  0.00     0.076 C 
ATOM      7  C8  UNL d   1       0.516   0.031   0.960  0.00  0.00     0.001 A 
ENDROOT
BRANCH   1   8
ATOM      8  C1  UNL d   1       0.661   0.412   3.453  0.00  0.00     0.053 C 
ATOM      9  C   UNL d   1       1.868  -0.513   3.432  0.00  0.00     0.018 C 
ENDBRANCH   1   8
TORSDOF 1
ENDMDL
