MODEL 1
REMARK minimizedAffinity -2.45435429
REMARK minimizedRMSD -1
REMARK  1 active torsions:
REMARK  status: ('A' for Active; 'I' for Inactive)
REMARK    1  A    between atoms: C1_2  and  C2_3 
ROOT
ATOM      1  C2  UNL d   1      -0.058   0.680  -0.121  0.00  0.00    -0.073 A 
ATOM      2  C3  UNL d   1      -1.056  -0.287  -0.284  0.00  0.00    -0.002 A 
ATOM      3  C4  UNL d   1      -1.824  -0.699   0.806  0.00  0.00     0.004 A 
ATOM      4  C5  UNL d   1      -1.606  -0.144   2.068  0.00  0.00    -0.004 A 
ATOM      5  C6  UNL d   1      -0.620   0.832   2.248  0.00  0.00    -0.075 A 
ATOM      6  C7  UNL d   1      -0.372   1.437   3.599  0.00  0.00     0.076 C 
ATOM      7  C8  UNL d   1       0.148   1.238   1.149  0.00  0.00     0.001 A 
ENDROOT
BRANCH   1   8
ATOM      8  C1  UNL d   1       0.769   1.132  -1.297  0.00  0.00     0.053 C 
ATOM      9  C   UNL d   1       0.134   0.744  -2.623  0.00  0.00     0.018 C 
ENDBRANCH   1   8
TORSDOF 1
ENDMDL
