MODEL 1
REMARK minimizedAffinity -4.47128677
REMARK minimizedRMSD -1
REMARK  1 active torsions:
REMARK  status: ('A' for Active; 'I' for Inactive)
REMARK    1  A    between atoms: C1_2  and  C2_3 
ROOT
ATOM      1  C2  UNL d   1       0.561  -1.087  -1.081  0.00  0.00    -0.073 A 
ATOM      2  C3  UNL d   1       1.699  -1.649  -0.492  0.00  0.00    -0.002 A 
ATOM      3  C4  UNL d   1       1.830  -1.683   0.897  0.00  0.00     0.004 A 
ATOM      4  C5  UNL d   1       0.823  -1.164   1.710  0.00  0.00    -0.004 A 
ATOM      5  C6  UNL d   1      -0.328  -0.609   1.140  0.00  0.00    -0.075 A 
ATOM      6  C7  UNL d   1      -1.419  -0.044   2.001  0.00  0.00     0.076 C 
ATOM      7  C8  UNL d   1      -0.451  -0.575  -0.255  0.00  0.00     0.001 A 
ENDROOT
BRANCH   1   8
ATOM      8  C1  UNL d   1       0.412  -1.053  -2.580  0.00  0.00     0.053 C 
ATOM      9  C   UNL d   1       1.302   0.002  -3.218  0.00  0.00     0.018 C 
ENDBRANCH   1   8
TORSDOF 1
ENDMDL
