MODEL 1
REMARK minimizedAffinity 9.60344028
REMARK minimizedRMSD -1
REMARK  0 active torsions:
REMARK  status: ('A' for Active; 'I' for Inactive)
ROOT
ATOM      1  C   UNL d   1       2.430  -0.933  -1.870  0.00  0.00     0.020 A 
ATOM      2  C1  UNL d   1       3.200  -1.695  -0.993  0.00  0.00     0.020 A 
ATOM      3  C2  UNL d   1       2.578  -2.527  -0.059  0.00  0.00     0.034 A 
ATOM      4  C3  UNL d   1       1.182  -2.597  -0.000  0.00  0.00     0.017 A 
ATOM      5  C4  UNL d   1       0.409  -1.832  -0.881  0.00  0.00     0.017 A 
ATOM      6  C5  UNL d   1       1.037  -1.001  -1.814  0.00  0.00     0.034 A 
ATOM      7 Cl   UNL d   1      -1.319  -1.866  -0.869  0.00  0.00    -0.070 Cl
ATOM      8 Cl1  UNL d   1       0.479  -3.647   1.179  0.00  0.00    -0.070 Cl
ENDROOT
TORSDOF 0
ENDMDL
