MODEL 1
REMARK minimizedAffinity 6.03700686
REMARK minimizedRMSD -1
REMARK  0 active torsions:
REMARK  status: ('A' for Active; 'I' for Inactive)
ROOT
ATOM      1  C   UNL d   1       0.589   1.369  -1.487  0.00  0.00     0.020 A 
ATOM      2  C1  UNL d   1       1.312   2.300  -2.231  0.00  0.00     0.020 A 
ATOM      3  C2  UNL d   1       2.576   1.970  -2.724  0.00  0.00     0.034 A 
ATOM      4  C3  UNL d   1       3.121   0.705  -2.474  0.00  0.00     0.017 A 
ATOM      5  C4  UNL d   1       2.394  -0.229  -1.727  0.00  0.00     0.017 A 
ATOM      6  C5  UNL d   1       1.129   0.107  -1.236  0.00  0.00     0.034 A 
ATOM      7 Cl   UNL d   1       3.000  -1.810  -1.378  0.00  0.00    -0.070 Cl
ATOM      8 Cl1  UNL d   1       4.689   0.365  -3.115  0.00  0.00    -0.070 Cl
ENDROOT
TORSDOF 0
ENDMDL
