MODEL 1
REMARK minimizedAffinity 1.57403266
REMARK minimizedRMSD -1
REMARK  0 active torsions:
REMARK  status: ('A' for Active; 'I' for Inactive)
ROOT
ATOM      1  C   UNL d   1       3.423  -0.575  -1.371  0.00  0.00     0.020 A 
ATOM      2  C1  UNL d   1       4.184   0.293  -2.153  0.00  0.00     0.020 A 
ATOM      3  C2  UNL d   1       3.630   1.494  -2.603  0.00  0.00     0.034 A 
ATOM      4  C3  UNL d   1       2.312   1.829  -2.272  0.00  0.00     0.017 A 
ATOM      5  C4  UNL d   1       1.550   0.957  -1.487  0.00  0.00     0.017 A 
ATOM      6  C5  UNL d   1       2.109  -0.244  -1.039  0.00  0.00     0.034 A 
ATOM      7 Cl   UNL d   1      -0.083   1.302  -1.038  0.00  0.00    -0.070 Cl
ATOM      8 Cl1  UNL d   1       1.692   3.330  -2.863  0.00  0.00    -0.070 Cl
ENDROOT
TORSDOF 0
ENDMDL
