MODEL 1
REMARK minimizedAffinity 10.9280882
REMARK minimizedRMSD -1
REMARK  0 active torsions:
REMARK  status: ('A' for Active; 'I' for Inactive)
ROOT
ATOM      1  C   UNL d   1       2.628  -1.149  -1.136  0.00  0.00     0.020 A 
ATOM      2  C1  UNL d   1       1.833  -2.286  -1.001  0.00  0.00     0.020 A 
ATOM      3  C2  UNL d   1       0.441  -2.169  -1.003  0.00  0.00     0.034 A 
ATOM      4  C3  UNL d   1      -0.160  -0.913  -1.139  0.00  0.00     0.017 A 
ATOM      5  C4  UNL d   1       0.639   0.228  -1.274  0.00  0.00     0.017 A 
ATOM      6  C5  UNL d   1       2.032   0.106  -1.272  0.00  0.00     0.034 A 
ATOM      7 Cl   UNL d   1      -0.029   1.813  -1.447  0.00  0.00    -0.070 Cl
ATOM      8 Cl1  UNL d   1      -1.886  -0.842  -1.134  0.00  0.00    -0.070 Cl
ENDROOT
TORSDOF 0
ENDMDL
