MODEL 1
REMARK minimizedAffinity 1.95315373
REMARK minimizedRMSD -1
REMARK  0 active torsions:
REMARK  status: ('A' for Active; 'I' for Inactive)
ROOT
ATOM      1  C   UNL d   1      -5.970   0.182   5.997  0.00  0.00     0.020 A 
ATOM      2  C1  UNL d   1      -5.009  -0.827   5.958  0.00  0.00     0.020 A 
ATOM      3  C2  UNL d   1      -4.076  -0.863   4.920  0.00  0.00     0.034 A 
ATOM      4  C3  UNL d   1      -4.102   0.112   3.916  0.00  0.00     0.017 A 
ATOM      5  C4  UNL d   1      -5.067   1.125   3.956  0.00  0.00     0.017 A 
ATOM      6  C5  UNL d   1      -5.999   1.156   4.998  0.00  0.00     0.034 A 
ATOM      7 Cl   UNL d   1      -5.162   2.363   2.754  0.00  0.00    -0.070 Cl
ATOM      8 Cl1  UNL d   1      -2.918   0.006   2.662  0.00  0.00    -0.070 Cl
ENDROOT
TORSDOF 0
ENDMDL
