MODEL 1
REMARK minimizedAffinity 6.67206955
REMARK minimizedRMSD -1
REMARK  0 active torsions:
REMARK  status: ('A' for Active; 'I' for Inactive)
ROOT
ATOM      1  C   UNL d   1       1.467   2.815  -3.369  0.00  0.00     0.020 A 
ATOM      2  C1  UNL d   1       2.354   1.839  -3.821  0.00  0.00     0.020 A 
ATOM      3  C2  UNL d   1       2.511   0.652  -3.103  0.00  0.00     0.034 A 
ATOM      4  C3  UNL d   1       1.780   0.438  -1.928  0.00  0.00     0.017 A 
ATOM      5  C4  UNL d   1       0.890   1.418  -1.475  0.00  0.00     0.017 A 
ATOM      6  C5  UNL d   1       0.737   2.605  -2.199  0.00  0.00     0.034 A 
ATOM      7 Cl   UNL d   1      -0.046   1.226  -0.036  0.00  0.00    -0.070 Cl
ATOM      8 Cl1  UNL d   1       2.024  -1.054  -1.091  0.00  0.00    -0.070 Cl
ENDROOT
TORSDOF 0
ENDMDL
