MODEL 1
REMARK minimizedAffinity 3.68002796
REMARK minimizedRMSD -1
REMARK  0 active torsions:
REMARK  status: ('A' for Active; 'I' for Inactive)
ROOT
ATOM      1  C   UNL d   1       1.332   0.513  -3.801  0.00  0.00     0.020 A 
ATOM      2  C1  UNL d   1       1.037   0.961  -2.513  0.00  0.00     0.020 A 
ATOM      3  C2  UNL d   1       0.686   0.045  -1.519  0.00  0.00     0.034 A 
ATOM      4  C3  UNL d   1       0.627  -1.323  -1.810  0.00  0.00     0.017 A 
ATOM      5  C4  UNL d   1       0.923  -1.771  -3.103  0.00  0.00     0.017 A 
ATOM      6  C5  UNL d   1       1.275  -0.850  -4.095  0.00  0.00     0.034 A 
ATOM      7 Cl   UNL d   1       0.873  -3.443  -3.538  0.00  0.00    -0.070 Cl
ATOM      8 Cl1  UNL d   1       0.185  -2.398  -0.532  0.00  0.00    -0.070 Cl
ENDROOT
TORSDOF 0
ENDMDL
