MODEL 1
REMARK minimizedAffinity 2.19880962
REMARK minimizedRMSD -1
REMARK  0 active torsions:
REMARK  status: ('A' for Active; 'I' for Inactive)
ROOT
ATOM      1  C   UNL d   1       1.043   0.275  -4.128  0.00  0.00     0.020 A 
ATOM      2  C1  UNL d   1       0.995   0.991  -2.933  0.00  0.00     0.020 A 
ATOM      3  C2  UNL d   1       0.900   0.313  -1.716  0.00  0.00     0.034 A 
ATOM      4  C3  UNL d   1       0.852  -1.086  -1.691  0.00  0.00     0.017 A 
ATOM      5  C4  UNL d   1       0.900  -1.804  -2.892  0.00  0.00     0.017 A 
ATOM      6  C5  UNL d   1       0.995  -1.120  -4.107  0.00  0.00     0.034 A 
ATOM      7 Cl   UNL d   1       0.845  -3.531  -2.941  0.00  0.00    -0.070 Cl
ATOM      8 Cl1  UNL d   1       0.734  -1.859  -0.150  0.00  0.00    -0.070 Cl
ENDROOT
TORSDOF 0
ENDMDL
