MODEL 1
REMARK minimizedAffinity -1.95764077
REMARK minimizedRMSD -1
REMARK  0 active torsions:
REMARK  status: ('A' for Active; 'I' for Inactive)
ROOT
ATOM      1  C   UNL d   1       3.289  -0.041  -2.553  0.00  0.00     0.020 A 
ATOM      2  C1  UNL d   1       2.613   1.174  -2.656  0.00  0.00     0.020 A 
ATOM      3  C2  UNL d   1       1.398   1.355  -1.992  0.00  0.00     0.034 A 
ATOM      4  C3  UNL d   1       0.855   0.320  -1.223  0.00  0.00     0.017 A 
ATOM      5  C4  UNL d   1       1.535  -0.899  -1.120  0.00  0.00     0.017 A 
ATOM      6  C5  UNL d   1       2.752  -1.075  -1.786  0.00  0.00     0.034 A 
ATOM      7 Cl   UNL d   1       0.929  -2.223  -0.188  0.00  0.00    -0.070 Cl
ATOM      8 Cl1  UNL d   1      -0.651   0.613  -0.429  0.00  0.00    -0.070 Cl
ENDROOT
TORSDOF 0
ENDMDL
