MODEL 1
REMARK minimizedAffinity 6.60114765
REMARK minimizedRMSD -1
REMARK  0 active torsions:
REMARK  status: ('A' for Active; 'I' for Inactive)
ROOT
ATOM      1  C   UNL d   1       2.615   1.471  -2.311  0.00  0.00     0.020 A 
ATOM      2  C1  UNL d   1       2.736   0.460  -1.360  0.00  0.00     0.020 A 
ATOM      3  C2  UNL d   1       2.130  -0.780  -1.577  0.00  0.00     0.034 A 
ATOM      4  C3  UNL d   1       1.401  -1.010  -2.749  0.00  0.00     0.017 A 
ATOM      5  C4  UNL d   1       1.280   0.006  -3.704  0.00  0.00     0.017 A 
ATOM      6  C5  UNL d   1       1.889   1.245  -3.481  0.00  0.00     0.034 A 
ATOM      7 Cl   UNL d   1       0.396  -0.204  -5.174  0.00  0.00    -0.070 Cl
ATOM      8 Cl1  UNL d   1       0.678  -2.567  -2.953  0.00  0.00    -0.070 Cl
ENDROOT
TORSDOF 0
ENDMDL
