MODEL 1
REMARK minimizedAffinity 4.78761959
REMARK minimizedRMSD -1
REMARK  0 active torsions:
REMARK  status: ('A' for Active; 'I' for Inactive)
ROOT
ATOM      1  C   UNL d   1       2.224  -3.216  -0.169  0.00  0.00     0.020 A 
ATOM      2  C1  UNL d   1       3.070  -2.144   0.110  0.00  0.00     0.020 A 
ATOM      3  C2  UNL d   1       3.097  -1.036  -0.740  0.00  0.00     0.034 A 
ATOM      4  C3  UNL d   1       2.276  -0.999  -1.873  0.00  0.00     0.017 A 
ATOM      5  C4  UNL d   1       1.428  -2.076  -2.153  0.00  0.00     0.017 A 
ATOM      6  C5  UNL d   1       1.405  -3.183  -1.298  0.00  0.00     0.034 A 
ATOM      7 Cl   UNL d   1       0.387  -2.103  -3.532  0.00  0.00    -0.070 Cl
ATOM      8 Cl1  UNL d   1       2.361   0.402  -2.881  0.00  0.00    -0.070 Cl
ENDROOT
TORSDOF 0
ENDMDL
