MODEL 1
REMARK minimizedAffinity 2.88678885
REMARK minimizedRMSD -1
REMARK  0 active torsions:
REMARK  status: ('A' for Active; 'I' for Inactive)
ROOT
ATOM      1  C   UNL d   1       1.290   1.063  -3.892  0.00  0.00     0.020 A 
ATOM      2  C1  UNL d   1       1.660   1.467  -2.610  0.00  0.00     0.020 A 
ATOM      3  C2  UNL d   1       1.952   2.809  -2.358  0.00  0.00     0.034 A 
ATOM      4  C3  UNL d   1       1.875   3.752  -3.389  0.00  0.00     0.017 A 
ATOM      5  C4  UNL d   1       1.504   3.346  -4.676  0.00  0.00     0.017 A 
ATOM      6  C5  UNL d   1       1.212   2.001  -4.923  0.00  0.00     0.034 A 
ATOM      7 Cl   UNL d   1       1.387   4.451  -6.000  0.00  0.00    -0.070 Cl
ATOM      8 Cl1  UNL d   1       2.251   5.395  -3.006  0.00  0.00    -0.070 Cl
ENDROOT
TORSDOF 0
ENDMDL
