MODEL 1
REMARK minimizedAffinity -0.500358462
REMARK minimizedRMSD -1
REMARK  0 active torsions:
REMARK  status: ('A' for Active; 'I' for Inactive)
ROOT
ATOM      1  C   UNL d   1      -0.203   2.385  -0.303  0.00  0.00     0.020 A 
ATOM      2  C1  UNL d   1       0.916   1.990   0.430  0.00  0.00     0.020 A 
ATOM      3  C2  UNL d   1       2.096   1.644  -0.231  0.00  0.00     0.034 A 
ATOM      4  C3  UNL d   1       2.161   1.690  -1.628  0.00  0.00     0.017 A 
ATOM      5  C4  UNL d   1       1.037   2.086  -2.363  0.00  0.00     0.017 A 
ATOM      6  C5  UNL d   1      -0.142   2.432  -1.696  0.00  0.00     0.034 A 
ATOM      7 Cl   UNL d   1       1.040   2.169  -4.089  0.00  0.00    -0.070 Cl
ATOM      8 Cl1  UNL d   1       3.653   1.248  -2.379  0.00  0.00    -0.070 Cl
ENDROOT
TORSDOF 0
ENDMDL
