MODEL 1
REMARK minimizedAffinity 6.47926855
REMARK minimizedRMSD -1
REMARK  0 active torsions:
REMARK  status: ('A' for Active; 'I' for Inactive)
ROOT
ATOM      1  C   UNL d   1      -1.357   2.089  -0.801  0.00  0.00     0.020 A 
ATOM      2  C1  UNL d   1      -1.242   2.535   0.515  0.00  0.00     0.020 A 
ATOM      3  C2  UNL d   1      -0.005   2.493   1.161  0.00  0.00     0.034 A 
ATOM      4  C3  UNL d   1       1.123   2.003   0.492  0.00  0.00     0.017 A 
ATOM      5  C4  UNL d   1       1.006   1.556  -0.829  0.00  0.00     0.017 A 
ATOM      6  C5  UNL d   1      -0.235   1.600  -1.471  0.00  0.00     0.034 A 
ATOM      7 Cl   UNL d   1       2.352   0.938  -1.721  0.00  0.00    -0.070 Cl
ATOM      8 Cl1  UNL d   1       2.621   1.980   1.352  0.00  0.00    -0.070 Cl
ENDROOT
TORSDOF 0
ENDMDL
