MODEL 1
REMARK minimizedAffinity 3.23198318
REMARK minimizedRMSD -1
REMARK  0 active torsions:
REMARK  status: ('A' for Active; 'I' for Inactive)
ROOT
ATOM      1  C   UNL d   1       2.095   0.782  -2.179  0.00  0.00     0.020 A 
ATOM      2  C1  UNL d   1       0.756   0.905  -2.548  0.00  0.00     0.020 A 
ATOM      3  C2  UNL d   1      -0.167   1.455  -1.656  0.00  0.00     0.034 A 
ATOM      4  C3  UNL d   1       0.248   1.885  -0.391  0.00  0.00     0.017 A 
ATOM      5  C4  UNL d   1       1.593   1.762  -0.021  0.00  0.00     0.017 A 
ATOM      6  C5  UNL d   1       2.512   1.210  -0.918  0.00  0.00     0.034 A 
ATOM      7 Cl   UNL d   1       2.180   2.270   1.523  0.00  0.00    -0.070 Cl
ATOM      8 Cl1  UNL d   1      -0.946   2.557   0.662  0.00  0.00    -0.070 Cl
ENDROOT
TORSDOF 0
ENDMDL
