MODEL 1
REMARK minimizedAffinity 8.02998066
REMARK minimizedRMSD -1
REMARK  0 active torsions:
REMARK  status: ('A' for Active; 'I' for Inactive)
ROOT
ATOM      1  C   UNL d   1       2.968   0.426  -1.800  0.00  0.00     0.020 A 
ATOM      2  C1  UNL d   1       2.214   0.643  -2.953  0.00  0.00     0.020 A 
ATOM      3  C2  UNL d   1       1.320  -0.334  -3.395  0.00  0.00     0.034 A 
ATOM      4  C3  UNL d   1       1.177  -1.532  -2.685  0.00  0.00     0.017 A 
ATOM      5  C4  UNL d   1       1.934  -1.748  -1.528  0.00  0.00     0.017 A 
ATOM      6  C5  UNL d   1       2.828  -0.766  -1.089  0.00  0.00     0.034 A 
ATOM      7 Cl   UNL d   1       1.813  -3.200  -0.599  0.00  0.00    -0.070 Cl
ATOM      8 Cl1  UNL d   1       0.052  -2.696  -3.290  0.00  0.00    -0.070 Cl
ENDROOT
TORSDOF 0
ENDMDL
