MODEL 1
REMARK minimizedAffinity 6.3249445
REMARK minimizedRMSD -1
REMARK  0 active torsions:
REMARK  status: ('A' for Active; 'I' for Inactive)
ROOT
ATOM      1  C   UNL d   1       0.966  -1.801  -1.041  0.00  0.00     0.020 A 
ATOM      2  C1  UNL d   1       2.254  -1.516  -1.491  0.00  0.00     0.020 A 
ATOM      3  C2  UNL d   1       2.564  -0.237  -1.958  0.00  0.00     0.034 A 
ATOM      4  C3  UNL d   1       1.584   0.762  -1.977  0.00  0.00     0.017 A 
ATOM      5  C4  UNL d   1       0.291   0.475  -1.525  0.00  0.00     0.017 A 
ATOM      6  C5  UNL d   1      -0.014  -0.807  -1.059  0.00  0.00     0.034 A 
ATOM      7 Cl   UNL d   1      -0.972   1.656  -1.518  0.00  0.00    -0.070 Cl
ATOM      8 Cl1  UNL d   1       2.037   2.321  -2.567  0.00  0.00    -0.070 Cl
ENDROOT
TORSDOF 0
ENDMDL
