MODEL 1
REMARK minimizedAffinity 2.634444
REMARK minimizedRMSD -1
REMARK  0 active torsions:
REMARK  status: ('A' for Active; 'I' for Inactive)
ROOT
ATOM      1  C   UNL d   1       0.546   2.026  -1.775  0.00  0.00     0.020 A 
ATOM      2  C1  UNL d   1       1.388   2.821  -2.552  0.00  0.00     0.020 A 
ATOM      3  C2  UNL d   1       2.601   2.307  -3.017  0.00  0.00     0.034 A 
ATOM      4  C3  UNL d   1       2.975   0.995  -2.705  0.00  0.00     0.017 A 
ATOM      5  C4  UNL d   1       2.129   0.198  -1.925  0.00  0.00     0.017 A 
ATOM      6  C5  UNL d   1       0.916   0.717  -1.463  0.00  0.00     0.034 A 
ATOM      7 Cl   UNL d   1       2.522  -1.431  -1.499  0.00  0.00    -0.070 Cl
ATOM      8 Cl1  UNL d   1       4.488   0.425  -3.313  0.00  0.00    -0.070 Cl
ENDROOT
TORSDOF 0
ENDMDL
