MODEL 1
REMARK minimizedAffinity 6.59179163
REMARK minimizedRMSD -1
REMARK  0 active torsions:
REMARK  status: ('A' for Active; 'I' for Inactive)
ROOT
ATOM      1  C   UNL d   1       2.959  -0.663  -0.656  0.00  0.00     0.020 A 
ATOM      2  C1  UNL d   1       2.093  -0.052  -1.562  0.00  0.00     0.020 A 
ATOM      3  C2  UNL d   1       0.836  -0.608  -1.808  0.00  0.00     0.034 A 
ATOM      4  C3  UNL d   1       0.442  -1.778  -1.149  0.00  0.00     0.017 A 
ATOM      5  C4  UNL d   1       1.312  -2.390  -0.240  0.00  0.00     0.017 A 
ATOM      6  C5  UNL d   1       2.570  -1.829   0.004  0.00  0.00     0.034 A 
ATOM      7 Cl   UNL d   1       0.896  -3.835   0.612  0.00  0.00    -0.070 Cl
ATOM      8 Cl1  UNL d   1      -1.127  -2.409  -1.502  0.00  0.00    -0.070 Cl
ENDROOT
TORSDOF 0
ENDMDL
