MODEL 1
REMARK minimizedAffinity 4.55583954
REMARK minimizedRMSD -1
REMARK  0 active torsions:
REMARK  status: ('A' for Active; 'I' for Inactive)
ROOT
ATOM      1  C   UNL d   1       1.869   0.621  -2.666  0.00  0.00     0.020 A 
ATOM      2  C1  UNL d   1       1.510   0.215  -1.381  0.00  0.00     0.020 A 
ATOM      3  C2  UNL d   1       0.691   1.029  -0.595  0.00  0.00     0.034 A 
ATOM      4  C3  UNL d   1       0.229   2.253  -1.092  0.00  0.00     0.017 A 
ATOM      5  C4  UNL d   1       0.590   2.659  -2.382  0.00  0.00     0.017 A 
ATOM      6  C5  UNL d   1       1.410   1.841  -3.165  0.00  0.00     0.034 A 
ATOM      7 Cl   UNL d   1       0.058   4.156  -3.064  0.00  0.00    -0.070 Cl
ATOM      8 Cl1  UNL d   1      -0.780   3.208  -0.065  0.00  0.00    -0.070 Cl
ENDROOT
TORSDOF 0
ENDMDL
