MODEL 1
REMARK minimizedAffinity -4.24852991
REMARK minimizedRMSD -1
REMARK  0 active torsions:
REMARK  status: ('A' for Active; 'I' for Inactive)
ROOT
ATOM      1  N1  IND d   1       1.698  -2.088  -0.433  0.00  0.00    -0.196 N 
ATOM      2  C2  IND d   1       1.384  -1.273  -1.485  0.00  0.00     0.054 A 
ATOM      3  C3  IND d   1       0.334  -0.482  -1.170  0.00  0.00    -0.031 A 
ATOM      4  C4  IND d   1      -0.959  -0.284   1.047  0.00  0.00     0.051 A 
ATOM      5  C5  IND d   1      -1.062  -0.849   2.288  0.00  0.00    -0.031 A 
ATOM      6  C6  IND d   1      -0.233  -1.874   2.694  0.00  0.00     0.015 A 
ATOM      7  C7  IND d   1       0.743  -2.367   1.875  0.00  0.00    -0.016 A 
ATOM      8  C8  IND d   1       0.847  -1.801   0.612  0.00  0.00    -0.047 A 
ATOM      9  C9  IND d   1      -0.020  -0.790   0.179  0.00  0.00    -0.096 A 
ATOM     10  HN1 IND d   1       2.321  -2.679  -0.425  0.00  0.00     0.298 HD
ENDROOT
TORSDOF 0
ENDMDL
