MODEL 1
REMARK minimizedAffinity 0.0510090142
REMARK minimizedRMSD -1
REMARK  0 active torsions:
REMARK  status: ('A' for Active; 'I' for Inactive)
ROOT
ATOM      1  N1  IND d   1       1.080  -1.631  -0.258  0.00  0.00    -0.196 N 
ATOM      2  C2  IND d   1       0.554  -0.996  -1.349  0.00  0.00     0.054 A 
ATOM      3  C3  IND d   1      -0.615  -0.399  -1.027  0.00  0.00    -0.031 A 
ATOM      4  C4  IND d   1      -1.802  -0.250   1.253  0.00  0.00     0.051 A 
ATOM      5  C5  IND d   1      -1.725  -0.705   2.540  0.00  0.00    -0.031 A 
ATOM      6  C6  IND d   1      -0.686  -1.505   2.969  0.00  0.00     0.015 A 
ATOM      7  C7  IND d   1       0.325  -1.873   2.126  0.00  0.00    -0.016 A 
ATOM      8  C8  IND d   1       0.246  -1.419   0.817  0.00  0.00    -0.047 A 
ATOM      9  C9  IND d   1      -0.829  -0.642   0.365  0.00  0.00    -0.096 A 
ATOM     10  HN1 IND d   1       1.809  -2.086  -0.246  0.00  0.00     0.298 HD
ENDROOT
TORSDOF 0
ENDMDL
