MODEL 1
REMARK minimizedAffinity -2.30991197
REMARK minimizedRMSD -1
REMARK  0 active torsions:
REMARK  status: ('A' for Active; 'I' for Inactive)
ROOT
ATOM      1  N1  IND d   1       1.780  -3.526   0.054  0.00  0.00    -0.196 N 
ATOM      2  C2  IND d   1       1.952  -4.408   1.084  0.00  0.00     0.054 A 
ATOM      3  C3  IND d   1       1.318  -3.965   2.193  0.00  0.00    -0.031 A 
ATOM      4  C4  IND d   1      -0.144  -1.871   2.515  0.00  0.00     0.051 A 
ATOM      5  C5  IND d   1      -0.564  -0.741   1.870  0.00  0.00    -0.031 A 
ATOM      6  C6  IND d   1      -0.220  -0.478   0.560  0.00  0.00     0.015 A 
ATOM      7  C7  IND d   1       0.552  -1.344  -0.161  0.00  0.00    -0.016 A 
ATOM      8  C8  IND d   1       0.986  -2.489   0.492  0.00  0.00    -0.047 A 
ATOM      9  C9  IND d   1       0.675  -2.740   1.835  0.00  0.00    -0.096 A 
ATOM     10  HN1 IND d   1       2.113  -3.605  -0.735  0.00  0.00     0.298 HD
ENDROOT
TORSDOF 0
ENDMDL
