MODEL 1
REMARK minimizedAffinity -4.00954628
REMARK minimizedRMSD -1
REMARK  0 active torsions:
REMARK  status: ('A' for Active; 'I' for Inactive)
ROOT
ATOM      1  N1  IND d   1       1.054  -2.157   0.551  0.00  0.00    -0.196 N 
ATOM      2  C2  IND d   1       1.255  -1.819  -0.758  0.00  0.00     0.054 A 
ATOM      3  C3  IND d   1       0.166  -1.190  -1.254  0.00  0.00    -0.031 A 
ATOM      4  C4  IND d   1      -2.018  -0.521  -0.067  0.00  0.00     0.051 A 
ATOM      5  C5  IND d   1      -2.681  -0.647   1.122  0.00  0.00    -0.031 A 
ATOM      6  C6  IND d   1      -2.119  -1.294   2.204  0.00  0.00     0.015 A 
ATOM      7  C7  IND d   1      -0.865  -1.831   2.141  0.00  0.00    -0.016 A 
ATOM      8  C8  IND d   1      -0.192  -1.711   0.933  0.00  0.00    -0.047 A 
ATOM      9  C9  IND d   1      -0.773  -1.093  -0.182  0.00  0.00    -0.096 A 
ATOM     10  HN1 IND d   1       1.612  -2.578   1.052  0.00  0.00     0.298 HD
ENDROOT
TORSDOF 0
ENDMDL
