MODEL 1
REMARK minimizedAffinity -3.48356271
REMARK minimizedRMSD -1
REMARK  0 active torsions:
REMARK  status: ('A' for Active; 'I' for Inactive)
ROOT
ATOM      1  N1  IND d   1       1.645  -2.592   0.226  0.00  0.00    -0.196 N 
ATOM      2  C2  IND d   1       2.032  -3.793   0.750  0.00  0.00     0.054 A 
ATOM      3  C3  IND d   1       1.379  -4.034   1.909  0.00  0.00    -0.031 A 
ATOM      4  C4  IND d   1      -0.442  -2.641   3.080  0.00  0.00     0.051 A 
ATOM      5  C5  IND d   1      -1.102  -1.447   3.001  0.00  0.00    -0.031 A 
ATOM      6  C6  IND d   1      -0.878  -0.557   1.970  0.00  0.00     0.015 A 
ATOM      7  C7  IND d   1       0.010  -0.834   0.970  0.00  0.00    -0.016 A 
ATOM      8  C8  IND d   1       0.688  -2.042   1.051  0.00  0.00    -0.047 A 
ATOM      9  C9  IND d   1       0.496  -2.930   2.117  0.00  0.00    -0.096 A 
ATOM     10  HN1 IND d   1       1.947  -2.238  -0.497  0.00  0.00     0.298 HD
ENDROOT
TORSDOF 0
ENDMDL
