MODEL 1
REMARK minimizedAffinity 1.48545527
REMARK minimizedRMSD -1
REMARK  0 active torsions:
REMARK  status: ('A' for Active; 'I' for Inactive)
ROOT
ATOM      1  N1  IND d   1      -3.551  -1.578   1.588  0.00  0.00    -0.196 N 
ATOM      2  C2  IND d   1      -3.875  -0.917   0.436  0.00  0.00     0.054 A 
ATOM      3  C3  IND d   1      -2.758  -0.458  -0.173  0.00  0.00    -0.031 A 
ATOM      4  C4  IND d   1      -0.290  -0.765   0.490  0.00  0.00     0.051 A 
ATOM      5  C5  IND d   1       0.504  -1.266   1.483  0.00  0.00    -0.031 A 
ATOM      6  C6  IND d   1      -0.023  -1.911   2.583  0.00  0.00     0.015 A 
ATOM      7  C7  IND d   1      -1.370  -2.091   2.725  0.00  0.00    -0.016 A 
ATOM      8  C8  IND d   1      -2.180  -1.578   1.722  0.00  0.00    -0.047 A 
ATOM      9  C9  IND d   1      -1.653  -0.885   0.625  0.00  0.00    -0.096 A 
ATOM     10  HN1 IND d   1      -4.109  -1.934   2.136  0.00  0.00     0.298 HD
ENDROOT
TORSDOF 0
ENDMDL
