MODEL 1
REMARK minimizedAffinity 1.49257612
REMARK minimizedRMSD -1
REMARK  0 active torsions:
REMARK  status: ('A' for Active; 'I' for Inactive)
ROOT
ATOM      1  N1  IND d   1      -0.411  -0.411   0.533  0.00  0.00    -0.196 N 
ATOM      2  C2  IND d   1      -0.938   0.502  -0.338  0.00  0.00     0.054 A 
ATOM      3  C3  IND d   1      -2.040   1.077   0.194  0.00  0.00    -0.031 A 
ATOM      4  C4  IND d   1      -3.098   0.745   2.517  0.00  0.00     0.051 A 
ATOM      5  C5  IND d   1      -2.994  -0.012   3.651  0.00  0.00    -0.031 A 
ATOM      6  C6  IND d   1      -2.001  -0.958   3.807  0.00  0.00     0.015 A 
ATOM      7  C7  IND d   1      -1.065  -1.175   2.835  0.00  0.00    -0.016 A 
ATOM      8  C8  IND d   1      -1.172  -0.413   1.680  0.00  0.00    -0.047 A 
ATOM      9  C9  IND d   1      -2.203   0.518   1.499  0.00  0.00    -0.096 A 
ATOM     10  HN1 IND d   1       0.280  -0.901   0.387  0.00  0.00     0.298 HD
ENDROOT
TORSDOF 0
ENDMDL
