MODEL 1
REMARK minimizedAffinity -2.83512998
REMARK minimizedRMSD -1
REMARK  0 active torsions:
REMARK  status: ('A' for Active; 'I' for Inactive)
ROOT
ATOM      1  N1  IND d   1       2.030  -0.712  -2.472  0.00  0.00    -0.196 N 
ATOM      2  C2  IND d   1       3.119  -0.306  -1.751  0.00  0.00     0.054 A 
ATOM      3  C3  IND d   1       2.748   0.052  -0.501  0.00  0.00    -0.031 A 
ATOM      4  C4  IND d   1       0.426  -0.044   0.608  0.00  0.00     0.051 A 
ATOM      5  C5  IND d   1      -0.886  -0.311   0.337  0.00  0.00    -0.031 A 
ATOM      6  C6  IND d   1      -1.302  -0.736  -0.909  0.00  0.00     0.015 A 
ATOM      7  C7  IND d   1      -0.415  -0.922  -1.931  0.00  0.00    -0.016 A 
ATOM      8  C8  IND d   1       0.918  -0.646  -1.661  0.00  0.00    -0.047 A 
ATOM      9  C9  IND d   1       1.340  -0.173  -0.412  0.00  0.00    -0.096 A 
ATOM     10  HN1 IND d   1       2.039  -0.965  -3.293  0.00  0.00     0.298 HD
ENDROOT
TORSDOF 0
ENDMDL
