MODEL 1
REMARK minimizedAffinity 0.41466099
REMARK minimizedRMSD -1
REMARK  2 active torsions:
REMARK  status: ('A' for Active; 'I' for Inactive)
REMARK    1  A    between atoms: C2'_3  and  C1'_4 
REMARK    2  A    between atoms: C1'_4  and  C1_5 
ROOT
ATOM      1  C1  I4B d   1       2.916  -5.627  -3.025  0.00  0.00    -0.075 A 
ATOM      2  C2  I4B d   1       3.018  -5.671  -1.657  0.00  0.00     0.003 A 
ATOM      3  C3  I4B d   1       1.865  -5.886  -0.863  0.00  0.00     0.002 A 
ATOM      4  C4  I4B d   1       0.632  -5.999  -1.471  0.00  0.00    -0.004 A 
ATOM      5  C5  I4B d   1       0.534  -5.976  -2.860  0.00  0.00     0.002 A 
ATOM      6  C6  I4B d   1       1.685  -5.801  -3.642  0.00  0.00     0.003 A 
ENDROOT
BRANCH   1   7
ATOM      7  C1' I4B d   1       4.149  -5.366  -3.831  0.00  0.00     0.060 C 
BRANCH   7   8
ATOM      8  C2' I4B d   1       3.912  -5.896  -5.230  0.00  0.00    -0.013 C 
ATOM      9  C4' I4B d   1       2.884  -5.072  -5.959  0.00  0.00     0.013 C 
ATOM     10  C3' I4B d   1       5.225  -5.890  -5.956  0.00  0.00     0.013 C 
ENDBRANCH   7   8
ENDBRANCH   1   7
TORSDOF 2
ENDMDL
