MODEL 1
REMARK minimizedAffinity 7.492414
REMARK minimizedRMSD -1
REMARK  2 active torsions:
REMARK  status: ('A' for Active; 'I' for Inactive)
REMARK    1  A    between atoms: C2'_3  and  C1'_4 
REMARK    2  A    between atoms: C1'_4  and  C1_5 
ROOT
ATOM      1  C1  I4B d   1       3.000   0.538   2.191  0.00  0.00    -0.075 A 
ATOM      2  C2  I4B d   1       3.510   0.552   0.917  0.00  0.00     0.003 A 
ATOM      3  C3  I4B d   1       3.302   1.675   0.079  0.00  0.00     0.002 A 
ATOM      4  C4  I4B d   1       2.541   2.732   0.535  0.00  0.00    -0.004 A 
ATOM      5  C5  I4B d   1       2.045   2.725   1.835  0.00  0.00     0.002 A 
ATOM      6  C6  I4B d   1       2.286   1.627   2.673  0.00  0.00     0.003 A 
ENDROOT
BRANCH   1   7
ATOM      7  C1' I4B d   1       3.211  -0.677   3.038  0.00  0.00     0.060 C 
BRANCH   7   8
ATOM      8  C2' I4B d   1       1.849  -1.221   3.420  0.00  0.00    -0.013 C 
ATOM      9  C4' I4B d   1       1.093  -1.699   2.209  0.00  0.00     0.013 C 
ATOM     10  C3' I4B d   1       2.055  -2.334   4.404  0.00  0.00     0.013 C 
ENDBRANCH   7   8
ENDBRANCH   1   7
TORSDOF 2
ENDMDL
