MODEL 1
REMARK minimizedAffinity 10.5014725
REMARK minimizedRMSD -1
REMARK  2 active torsions:
REMARK  status: ('A' for Active; 'I' for Inactive)
REMARK    1  A    between atoms: C2'_3  and  C1'_4 
REMARK    2  A    between atoms: C1'_4  and  C1_5 
ROOT
ATOM      1  C1  I4B d   1      -2.735   2.025  -1.431  0.00  0.00    -0.075 A 
ATOM      2  C2  I4B d   1      -3.549   1.908  -2.530  0.00  0.00     0.003 A 
ATOM      3  C3  I4B d   1      -3.564   0.709  -3.282  0.00  0.00     0.002 A 
ATOM      4  C4  I4B d   1      -2.716  -0.323  -2.932  0.00  0.00    -0.004 A 
ATOM      5  C5  I4B d   1      -1.908  -0.211  -1.805  0.00  0.00     0.002 A 
ATOM      6  C6  I4B d   1      -1.926   0.965  -1.042  0.00  0.00     0.003 A 
ENDROOT
BRANCH   1   7
ATOM      7  C1' I4B d   1      -2.721   3.318  -0.678  0.00  0.00     0.060 C 
BRANCH   7   8
ATOM      8  C2' I4B d   1      -3.134   3.031   0.751  0.00  0.00    -0.013 C 
ATOM      9  C4' I4B d   1      -2.101   3.528   1.727  0.00  0.00     0.013 C 
ATOM     10  C3' I4B d   1      -4.462   3.685   0.989  0.00  0.00     0.013 C 
ENDBRANCH   7   8
ENDBRANCH   1   7
TORSDOF 2
ENDMDL
