MODEL 1
REMARK minimizedAffinity 9.92537785
REMARK minimizedRMSD -1
REMARK  0 active torsions:
REMARK  status: ('A' for Active; 'I' for Inactive)
ROOT
ATOM      1  C4' PXY d   1      -5.990   3.989  -4.115  0.00  0.00     0.077 C 
ATOM      2  C1' PXY d   1      -4.042  -1.031  -2.014  0.00  0.00     0.077 C 
ATOM      3  C1  PXY d   1      -4.542   0.287  -2.571  0.00  0.00    -0.082 A 
ATOM      4  C2  PXY d   1      -5.497   0.946  -1.935  0.00  0.00     0.003 A 
ATOM      5  C3  PXY d   1      -5.983   2.124  -2.443  0.00  0.00     0.003 A 
ATOM      6  C4  PXY d   1      -5.448   2.659  -3.584  0.00  0.00    -0.082 A 
ATOM      7  C5  PXY d   1      -4.466   1.998  -4.232  0.00  0.00     0.003 A 
ATOM      8  C6  PXY d   1      -4.015   0.784  -3.724  0.00  0.00     0.003 A 
ENDROOT
TORSDOF 0
ENDMDL
