MODEL 1
REMARK minimizedAffinity 6.36337423
REMARK minimizedRMSD -1
REMARK  0 active torsions:
REMARK  status: ('A' for Active; 'I' for Inactive)
ROOT
ATOM      1  C4' PXY d   1      -4.504  -0.823  -3.619  0.00  0.00     0.077 C 
ATOM      2  C1' PXY d   1      -6.000  -5.947  -5.836  0.00  0.00     0.077 C 
ATOM      3  C1  PXY d   1      -5.597  -4.603  -5.263  0.00  0.00    -0.082 A 
ATOM      4  C2  PXY d   1      -5.993  -4.266  -4.046  0.00  0.00     0.003 A 
ATOM      5  C3  PXY d   1      -5.665  -3.041  -3.524  0.00  0.00     0.003 A 
ATOM      6  C4  PXY d   1      -4.879  -2.174  -4.234  0.00  0.00    -0.082 A 
ATOM      7  C5  PXY d   1      -4.462  -2.515  -5.472  0.00  0.00     0.003 A 
ATOM      8  C6  PXY d   1      -4.840  -3.746  -6.000  0.00  0.00     0.003 A 
ENDROOT
TORSDOF 0
ENDMDL
