MODEL 1
REMARK minimizedAffinity 1.20673084
REMARK minimizedRMSD -1
REMARK  0 active torsions:
REMARK  status: ('A' for Active; 'I' for Inactive)
ROOT
ATOM      1  C4' PXY d   1       0.639  -5.872   5.201  0.00  0.00     0.077 C 
ATOM      2  C1' PXY d   1       2.409  -1.132   2.406  0.00  0.00     0.077 C 
ATOM      3  C1  PXY d   1       1.946  -2.382   3.128  0.00  0.00    -0.082 A 
ATOM      4  C2  PXY d   1       1.224  -2.271   4.231  0.00  0.00     0.003 A 
ATOM      5  C3  PXY d   1       0.824  -3.390   4.914  0.00  0.00     0.003 A 
ATOM      6  C4  PXY d   1       1.121  -4.638   4.434  0.00  0.00    -0.082 A 
ATOM      7  C5  PXY d   1       1.848  -4.760   3.303  0.00  0.00     0.003 A 
ATOM      8  C6  PXY d   1       2.280  -3.610   2.647  0.00  0.00     0.003 A 
ENDROOT
TORSDOF 0
ENDMDL
