MODEL 1
REMARK minimizedAffinity 0.843301713
REMARK minimizedRMSD -1
REMARK  0 active torsions:
REMARK  status: ('A' for Active; 'I' for Inactive)
ROOT
ATOM      1  C4' PXY d   1       2.516   2.231   2.933  0.00  0.00     0.077 C 
ATOM      2  C1' PXY d   1       1.213  -3.383   3.388  0.00  0.00     0.077 C 
ATOM      3  C1  PXY d   1       1.564  -1.914   3.260  0.00  0.00    -0.082 A 
ATOM      4  C2  PXY d   1       1.232  -1.075   4.229  0.00  0.00     0.003 A 
ATOM      5  C3  PXY d   1       1.514   0.262   4.115  0.00  0.00     0.003 A 
ATOM      6  C4  PXY d   1       2.189   0.737   3.023  0.00  0.00    -0.082 A 
ATOM      7  C5  PXY d   1       2.541  -0.113   2.036  0.00  0.00     0.003 A 
ATOM      8  C6  PXY d   1       2.209  -1.460   2.151  0.00  0.00     0.003 A 
ENDROOT
TORSDOF 0
ENDMDL
