MODEL 1
REMARK minimizedAffinity 1.49265981
REMARK minimizedRMSD -1
REMARK  0 active torsions:
REMARK  status: ('A' for Active; 'I' for Inactive)
ROOT
ATOM      1  C4' PXY d   1       5.922  -5.932  -5.666  0.00  0.00     0.077 C 
ATOM      2  C1' PXY d   1       2.046  -5.932  -1.378  0.00  0.00     0.077 C 
ATOM      3  C1  PXY d   1       3.072  -5.928  -2.494  0.00  0.00    -0.082 A 
ATOM      4  C2  PXY d   1       2.668  -5.862  -3.753  0.00  0.00     0.003 A 
ATOM      5  C3  PXY d   1       3.581  -5.889  -4.776  0.00  0.00     0.003 A 
ATOM      6  C4  PXY d   1       4.923  -5.930  -4.507  0.00  0.00    -0.082 A 
ATOM      7  C5  PXY d   1       5.343  -5.987  -3.225  0.00  0.00     0.003 A 
ATOM      8  C6  PXY d   1       4.399  -6.000  -2.202  0.00  0.00     0.003 A 
ENDROOT
TORSDOF 0
ENDMDL
