MODEL 1
REMARK minimizedAffinity 2.24053001
REMARK minimizedRMSD -1
REMARK  0 active torsions:
REMARK  status: ('A' for Active; 'I' for Inactive)
ROOT
ATOM      1  C4' PXY d   1       1.732  -6.000  -6.000  0.00  0.00     0.077 C 
ATOM      2  C1' PXY d   1       4.365  -5.963  -0.854  0.00  0.00     0.077 C 
ATOM      3  C1  PXY d   1       3.685  -5.967  -2.209  0.00  0.00    -0.082 A 
ATOM      4  C2  PXY d   1       2.364  -5.948  -2.278  0.00  0.00     0.003 A 
ATOM      5  C3  PXY d   1       1.732  -5.984  -3.495  0.00  0.00     0.003 A 
ATOM      6  C4  PXY d   1       2.461  -5.986  -4.654  0.00  0.00    -0.082 A 
ATOM      7  C5  PXY d   1       3.810  -5.995  -4.592  0.00  0.00     0.003 A 
ATOM      8  C6  PXY d   1       4.431  -6.000  -3.346  0.00  0.00     0.003 A 
ENDROOT
TORSDOF 0
ENDMDL
