MODEL 1
REMARK minimizedAffinity 2.03645825
REMARK minimizedRMSD -1
REMARK  0 active torsions:
REMARK  status: ('A' for Active; 'I' for Inactive)
ROOT
ATOM      1  C4' PXY d   1       2.050  -5.937  -6.000  0.00  0.00     0.077 C 
ATOM      2  C1' PXY d   1       4.310  -5.958  -0.679  0.00  0.00     0.077 C 
ATOM      3  C1  PXY d   1       3.728  -5.947  -2.079  0.00  0.00    -0.082 A 
ATOM      4  C2  PXY d   1       2.415  -5.977  -2.242  0.00  0.00     0.003 A 
ATOM      5  C3  PXY d   1       1.873  -6.000  -3.502  0.00  0.00     0.003 A 
ATOM      6  C4  PXY d   1       2.681  -5.937  -4.605  0.00  0.00    -0.082 A 
ATOM      7  C5  PXY d   1       4.021  -5.896  -4.447  0.00  0.00     0.003 A 
ATOM      8  C6  PXY d   1       4.553  -5.915  -3.161  0.00  0.00     0.003 A 
ENDROOT
TORSDOF 0
ENDMDL
