MODEL 1
REMARK minimizedAffinity 6.44500017
REMARK minimizedRMSD -1
REMARK  0 active torsions:
REMARK  status: ('A' for Active; 'I' for Inactive)
ROOT
ATOM      1  C4' PXY d   1       1.541  -1.337   2.350  0.00  0.00     0.077 C 
ATOM      2  C1' PXY d   1       4.051  -5.084   5.967  0.00  0.00     0.077 C 
ATOM      3  C1  PXY d   1       3.392  -4.111   5.009  0.00  0.00    -0.082 A 
ATOM      4  C2  PXY d   1       3.588  -2.811   5.160  0.00  0.00     0.003 A 
ATOM      5  C3  PXY d   1       2.974  -1.915   4.323  0.00  0.00     0.003 A 
ATOM      6  C4  PXY d   1       2.194  -2.357   3.288  0.00  0.00    -0.082 A 
ATOM      7  C5  PXY d   1       1.997  -3.682   3.121  0.00  0.00     0.003 A 
ATOM      8  C6  PXY d   1       2.596  -4.573   4.007  0.00  0.00     0.003 A 
ENDROOT
TORSDOF 0
ENDMDL
