MODEL 1
REMARK minimizedAffinity 7.1278491
REMARK minimizedRMSD -1
REMARK  0 active torsions:
REMARK  status: ('A' for Active; 'I' for Inactive)
ROOT
ATOM      1  C4' PXY d   1      -6.000  -4.536  -6.000  0.00  0.00     0.077 C 
ATOM      2  C1' PXY d   1      -3.476  -1.521  -1.763  0.00  0.00     0.077 C 
ATOM      3  C1  PXY d   1      -4.145  -2.318  -2.865  0.00  0.00    -0.082 A 
ATOM      4  C2  PXY d   1      -3.518  -2.495  -4.017  0.00  0.00     0.003 A 
ATOM      5  C3  PXY d   1      -4.122  -3.186  -5.036  0.00  0.00     0.003 A 
ATOM      6  C4  PXY d   1      -5.359  -3.747  -4.856  0.00  0.00    -0.082 A 
ATOM      7  C5  PXY d   1      -6.000  -3.579  -3.680  0.00  0.00     0.003 A 
ATOM      8  C6  PXY d   1      -5.387  -2.839  -2.672  0.00  0.00     0.003 A 
ENDROOT
TORSDOF 0
ENDMDL
