MODEL 1
REMARK minimizedAffinity 14.4291811
REMARK minimizedRMSD -1
REMARK  0 active torsions:
REMARK  status: ('A' for Active; 'I' for Inactive)
ROOT
ATOM      1  C4' PXY d   1       2.323  -4.918   2.381  0.00  0.00     0.077 C 
ATOM      2  C1' PXY d   1       4.926  -5.998  -2.665  0.00  0.00     0.077 C 
ATOM      3  C1  PXY d   1       4.251  -5.724  -1.336  0.00  0.00    -0.082 A 
ATOM      4  C2  PXY d   1       3.033  -5.208  -1.315  0.00  0.00     0.003 A 
ATOM      5  C3  PXY d   1       2.420  -4.924  -0.122  0.00  0.00     0.003 A 
ATOM      6  C4  PXY d   1       3.039  -5.220   1.062  0.00  0.00    -0.082 A 
ATOM      7  C5  PXY d   1       4.278  -5.757   1.050  0.00  0.00     0.003 A 
ATOM      8  C6  PXY d   1       4.899  -5.999  -0.172  0.00  0.00     0.003 A 
ENDROOT
TORSDOF 0
ENDMDL
