MODEL 1
REMARK minimizedAffinity 7.45368719
REMARK minimizedRMSD -1
REMARK  0 active torsions:
REMARK  status: ('A' for Active; 'I' for Inactive)
ROOT
ATOM      1  C4' PXY d   1       1.686  -0.194   2.204  0.00  0.00     0.077 C 
ATOM      2  C1' PXY d   1       2.598  -5.251   4.852  0.00  0.00     0.077 C 
ATOM      3  C1  PXY d   1       2.353  -3.931   4.148  0.00  0.00    -0.082 A 
ATOM      4  C2  PXY d   1       3.136  -2.896   4.406  0.00  0.00     0.003 A 
ATOM      5  C3  PXY d   1       2.909  -1.687   3.802  0.00  0.00     0.003 A 
ATOM      6  C4  PXY d   1       1.903  -1.549   2.884  0.00  0.00    -0.082 A 
ATOM      7  C5  PXY d   1       1.106  -2.602   2.607  0.00  0.00     0.003 A 
ATOM      8  C6  PXY d   1       1.327  -3.811   3.262  0.00  0.00     0.003 A 
ENDROOT
TORSDOF 0
ENDMDL
