MODEL 1
REMARK minimizedAffinity -0.15116626
REMARK minimizedRMSD -1
REMARK  0 active torsions:
REMARK  status: ('A' for Active; 'I' for Inactive)
ROOT
ATOM      1  C4' PXY d   1       3.287  -3.440   5.517  0.00  0.00     0.077 C 
ATOM      2  C1' PXY d   1       1.428  -1.349   0.459  0.00  0.00     0.077 C 
ATOM      3  C1  PXY d   1       1.928  -1.897   1.781  0.00  0.00    -0.082 A 
ATOM      4  C2  PXY d   1       1.121  -2.626   2.535  0.00  0.00     0.003 A 
ATOM      5  C3  PXY d   1       1.546  -3.102   3.748  0.00  0.00     0.003 A 
ATOM      6  C4  PXY d   1       2.828  -2.875   4.171  0.00  0.00    -0.082 A 
ATOM      7  C5  PXY d   1       3.662  -2.141   3.403  0.00  0.00     0.003 A 
ATOM      8  C6  PXY d   1       3.197  -1.632   2.194  0.00  0.00     0.003 A 
ENDROOT
TORSDOF 0
ENDMDL
