MODEL 1
REMARK minimizedAffinity 18.7965488
REMARK minimizedRMSD -1
REMARK  0 active torsions:
REMARK  status: ('A' for Active; 'I' for Inactive)
ROOT
ATOM      1  C   UNL d   1       0.440   2.640  -1.451  0.00  0.00     0.020 A 
ATOM      2  C1  UNL d   1       0.387   2.795  -0.067  0.00  0.00     0.020 A 
ATOM      3  C2  UNL d   1       1.460   2.379   0.724  0.00  0.00     0.034 A 
ATOM      4  C3  UNL d   1       2.591   1.807   0.131  0.00  0.00     0.017 A 
ATOM      5  C4  UNL d   1       2.643   1.652  -1.259  0.00  0.00     0.017 A 
ATOM      6  C5  UNL d   1       1.566   2.069  -2.046  0.00  0.00     0.034 A 
ATOM      7 Cl   UNL d   1       4.005   0.954  -2.063  0.00  0.00    -0.070 Cl
ATOM      8 Cl1  UNL d   1       3.882   1.316   1.169  0.00  0.00    -0.070 Cl
ENDROOT
TORSDOF 0
ENDMDL
