MODEL 1
REMARK minimizedAffinity 11.4482431
REMARK minimizedRMSD -1
REMARK  0 active torsions:
REMARK  status: ('A' for Active; 'I' for Inactive)
ROOT
ATOM      1  C   UNL d   1       2.294  -0.561   1.017  0.00  0.00     0.020 A 
ATOM      2  C1  UNL d   1       1.338  -0.470   2.028  0.00  0.00     0.020 A 
ATOM      3  C2  UNL d   1       0.581  -1.591   2.375  0.00  0.00     0.034 A 
ATOM      4  C3  UNL d   1       0.778  -2.807   1.711  0.00  0.00     0.017 A 
ATOM      5  C4  UNL d   1       1.738  -2.897   0.696  0.00  0.00     0.017 A 
ATOM      6  C5  UNL d   1       2.494  -1.771   0.353  0.00  0.00     0.034 A 
ATOM      7 Cl   UNL d   1       2.038  -4.363  -0.168  0.00  0.00    -0.070 Cl
ATOM      8 Cl1  UNL d   1      -0.193  -4.152   2.192  0.00  0.00    -0.070 Cl
ENDROOT
TORSDOF 0
ENDMDL
