MODEL 1
REMARK minimizedAffinity 11.1300392
REMARK minimizedRMSD -1
REMARK  0 active torsions:
REMARK  status: ('A' for Active; 'I' for Inactive)
ROOT
ATOM      1  C   UNL d   1       0.835  -5.840   1.853  0.00  0.00     0.020 A 
ATOM      2  C1  UNL d   1       2.002  -5.087   1.732  0.00  0.00     0.020 A 
ATOM      3  C2  UNL d   1       1.925  -3.717   1.474  0.00  0.00     0.034 A 
ATOM      4  C3  UNL d   1       0.679  -3.095   1.336  0.00  0.00     0.017 A 
ATOM      5  C4  UNL d   1      -0.492  -3.852   1.458  0.00  0.00     0.017 A 
ATOM      6  C5  UNL d   1      -0.410  -5.223   1.716  0.00  0.00     0.034 A 
ATOM      7 Cl   UNL d   1      -2.066  -3.155   1.301  0.00  0.00    -0.070 Cl
ATOM      8 Cl1  UNL d   1       0.659  -1.397   1.018  0.00  0.00    -0.070 Cl
ENDROOT
TORSDOF 0
ENDMDL
