MODEL 1
REMARK minimizedAffinity 8.13684273
REMARK minimizedRMSD -1
REMARK  0 active torsions:
REMARK  status: ('A' for Active; 'I' for Inactive)
ROOT
ATOM      1  C   UNL d   1      -0.013  -2.710   2.723  0.00  0.00     0.020 A 
ATOM      2  C1  UNL d   1      -0.819  -1.574   2.670  0.00  0.00     0.020 A 
ATOM      3  C2  UNL d   1      -0.378  -0.436   1.991  0.00  0.00     0.034 A 
ATOM      4  C3  UNL d   1       0.872  -0.432   1.362  0.00  0.00     0.017 A 
ATOM      5  C4  UNL d   1       1.681  -1.573   1.416  0.00  0.00     0.017 A 
ATOM      6  C5  UNL d   1       1.234  -2.710   2.097  0.00  0.00     0.034 A 
ATOM      7 Cl   UNL d   1       3.235  -1.643   0.664  0.00  0.00    -0.070 Cl
ATOM      8 Cl1  UNL d   1       1.354   1.010   0.541  0.00  0.00    -0.070 Cl
ENDROOT
TORSDOF 0
ENDMDL
