MODEL 1
REMARK minimizedAffinity 3.08468771
REMARK minimizedRMSD -1
REMARK  0 active torsions:
REMARK  status: ('A' for Active; 'I' for Inactive)
ROOT
ATOM      1  C   UNL d   1      -4.988  -5.630   1.041  0.00  0.00     0.020 A 
ATOM      2  C1  UNL d   1      -5.923  -6.000   2.007  0.00  0.00     0.020 A 
ATOM      3  C2  UNL d   1      -6.000  -5.296   3.210  0.00  0.00     0.034 A 
ATOM      4  C3  UNL d   1      -5.140  -4.218   3.451  0.00  0.00     0.017 A 
ATOM      5  C4  UNL d   1      -4.202  -3.847   2.481  0.00  0.00     0.017 A 
ATOM      6  C5  UNL d   1      -4.130  -4.556   1.277  0.00  0.00     0.034 A 
ATOM      7 Cl   UNL d   1      -3.107  -2.529   2.706  0.00  0.00    -0.070 Cl
ATOM      8 Cl1  UNL d   1      -5.290  -3.392   4.961  0.00  0.00    -0.070 Cl
ENDROOT
TORSDOF 0
ENDMDL
