MODEL 1
REMARK minimizedAffinity 7.66478586
REMARK minimizedRMSD -1
REMARK  0 active torsions:
REMARK  status: ('A' for Active; 'I' for Inactive)
ROOT
ATOM      1  C   UNL d   1      -5.258  -5.811   1.854  0.00  0.00     0.020 A 
ATOM      2  C1  UNL d   1      -6.000  -6.000   3.019  0.00  0.00     0.020 A 
ATOM      3  C2  UNL d   1      -5.820  -5.143   4.108  0.00  0.00     0.034 A 
ATOM      4  C3  UNL d   1      -4.896  -4.095   4.033  0.00  0.00     0.017 A 
ATOM      5  C4  UNL d   1      -4.152  -3.906   2.862  0.00  0.00     0.017 A 
ATOM      6  C5  UNL d   1      -4.337  -4.767   1.775  0.00  0.00     0.034 A 
ATOM      7 Cl   UNL d   1      -2.994  -2.634   2.695  0.00  0.00    -0.070 Cl
ATOM      8 Cl1  UNL d   1      -4.725  -3.074   5.416  0.00  0.00    -0.070 Cl
ENDROOT
TORSDOF 0
ENDMDL
