MODEL 1
REMARK minimizedAffinity 4.41187429
REMARK minimizedRMSD -1
REMARK  0 active torsions:
REMARK  status: ('A' for Active; 'I' for Inactive)
ROOT
ATOM      1  C   UNL d   1      -5.206  -3.387   5.998  0.00  0.00     0.020 A 
ATOM      2  C1  UNL d   1      -6.000  -4.531   5.941  0.00  0.00     0.020 A 
ATOM      3  C2  UNL d   1      -6.000  -5.324   4.791  0.00  0.00     0.034 A 
ATOM      4  C3  UNL d   1      -5.204  -4.973   3.695  0.00  0.00     0.017 A 
ATOM      5  C4  UNL d   1      -4.408  -3.824   3.753  0.00  0.00     0.017 A 
ATOM      6  C5  UNL d   1      -4.412  -3.034   4.907  0.00  0.00     0.034 A 
ATOM      7 Cl   UNL d   1      -3.400  -3.327   2.440  0.00  0.00    -0.070 Cl
ATOM      8 Cl1  UNL d   1      -5.253  -6.000   2.306  0.00  0.00    -0.070 Cl
ENDROOT
TORSDOF 0
ENDMDL
