MODEL 1
REMARK minimizedAffinity 6.96542978
REMARK minimizedRMSD -1
REMARK  0 active torsions:
REMARK  status: ('A' for Active; 'I' for Inactive)
ROOT
ATOM      1  C   UNL d   1       1.651  -1.733   1.017  0.00  0.00     0.020 A 
ATOM      2  C1  UNL d   1       2.111  -0.780   1.925  0.00  0.00     0.020 A 
ATOM      3  C2  UNL d   1       1.330  -0.435   3.030  0.00  0.00     0.034 A 
ATOM      4  C3  UNL d   1       0.085  -1.044   3.230  0.00  0.00     0.017 A 
ATOM      5  C4  UNL d   1      -0.375  -2.001   2.318  0.00  0.00     0.017 A 
ATOM      6  C5  UNL d   1       0.411  -2.342   1.213  0.00  0.00     0.034 A 
ATOM      7 Cl   UNL d   1      -1.899  -2.795   2.498  0.00  0.00    -0.070 Cl
ATOM      8 Cl1  UNL d   1      -0.827  -0.569   4.618  0.00  0.00    -0.070 Cl
ENDROOT
TORSDOF 0
ENDMDL
