MODEL 1
REMARK minimizedAffinity 15.4954042
REMARK minimizedRMSD -1
REMARK  0 active torsions:
REMARK  status: ('A' for Active; 'I' for Inactive)
ROOT
ATOM      1  C   UNL d   1       1.854   0.057   1.596  0.00  0.00     0.020 A 
ATOM      2  C1  UNL d   1       0.770  -0.748   1.944  0.00  0.00     0.020 A 
ATOM      3  C2  UNL d   1       0.669  -2.043   1.432  0.00  0.00     0.034 A 
ATOM      4  C3  UNL d   1       1.653  -2.538   0.569  0.00  0.00     0.017 A 
ATOM      5  C4  UNL d   1       2.741  -1.729   0.220  0.00  0.00     0.017 A 
ATOM      6  C5  UNL d   1       2.837  -0.433   0.735  0.00  0.00     0.034 A 
ATOM      7 Cl   UNL d   1       3.995  -2.270  -0.840  0.00  0.00    -0.070 Cl
ATOM      8 Cl1  UNL d   1       1.464  -4.149  -0.026  0.00  0.00    -0.070 Cl
ENDROOT
TORSDOF 0
ENDMDL
