MODEL 1
REMARK minimizedAffinity 13.2579451
REMARK minimizedRMSD -1
REMARK  0 active torsions:
REMARK  status: ('A' for Active; 'I' for Inactive)
ROOT
ATOM      1  C   UNL d   1      -2.940   2.673  -3.218  0.00  0.00     0.020 A 
ATOM      2  C1  UNL d   1      -3.245   2.673  -4.579  0.00  0.00     0.020 A 
ATOM      3  C2  UNL d   1      -2.790   3.710  -5.396  0.00  0.00     0.034 A 
ATOM      4  C3  UNL d   1      -2.027   4.750  -4.853  0.00  0.00     0.017 A 
ATOM      5  C4  UNL d   1      -1.722   4.749  -3.488  0.00  0.00     0.017 A 
ATOM      6  C5  UNL d   1      -2.180   3.708  -2.674  0.00  0.00     0.034 A 
ATOM      7 Cl   UNL d   1      -0.785   5.999  -2.746  0.00  0.00    -0.070 Cl
ATOM      8 Cl1  UNL d   1      -1.497   6.000  -5.923  0.00  0.00    -0.070 Cl
ENDROOT
TORSDOF 0
ENDMDL
