MODEL 1
REMARK minimizedAffinity 9.8318882
REMARK minimizedRMSD -1
REMARK  0 active torsions:
REMARK  status: ('A' for Active; 'I' for Inactive)
ROOT
ATOM      1  C   UNL d   1      -2.016  -4.126   0.018  0.00  0.00     0.020 A 
ATOM      2  C1  UNL d   1      -2.308  -5.443  -0.336  0.00  0.00     0.020 A 
ATOM      3  C2  UNL d   1      -3.542  -6.000   0.004  0.00  0.00     0.034 A 
ATOM      4  C3  UNL d   1      -4.490  -5.240   0.700  0.00  0.00     0.017 A 
ATOM      5  C4  UNL d   1      -4.196  -3.918   1.054  0.00  0.00     0.017 A 
ATOM      6  C5  UNL d   1      -2.959  -3.365   0.711  0.00  0.00     0.034 A 
ATOM      7 Cl   UNL d   1      -5.315  -2.919   1.913  0.00  0.00    -0.070 Cl
ATOM      8 Cl1  UNL d   1      -5.996  -5.993   1.088  0.00  0.00    -0.070 Cl
ENDROOT
TORSDOF 0
ENDMDL
