MODEL 1
REMARK minimizedAffinity 11.9967709
REMARK minimizedRMSD -1
REMARK  0 active torsions:
REMARK  status: ('A' for Active; 'I' for Inactive)
ROOT
ATOM      1  C   UNL d   1      -5.482  -4.834   4.503  0.00  0.00     0.020 A 
ATOM      2  C1  UNL d   1      -6.000  -5.601   3.460  0.00  0.00     0.020 A 
ATOM      3  C2  UNL d   1      -5.536  -5.410   2.157  0.00  0.00     0.034 A 
ATOM      4  C3  UNL d   1      -4.551  -4.451   1.893  0.00  0.00     0.017 A 
ATOM      5  C4  UNL d   1      -4.032  -3.682   2.941  0.00  0.00     0.017 A 
ATOM      6  C5  UNL d   1      -4.500  -3.877   4.244  0.00  0.00     0.034 A 
ATOM      7 Cl   UNL d   1      -2.815  -2.480   2.693  0.00  0.00    -0.070 Cl
ATOM      8 Cl1  UNL d   1      -4.024  -4.269   0.257  0.00  0.00    -0.070 Cl
ENDROOT
TORSDOF 0
ENDMDL
