MODEL 1
REMARK minimizedAffinity 5.1380949
REMARK minimizedRMSD -1
REMARK  0 active torsions:
REMARK  status: ('A' for Active; 'I' for Inactive)
ROOT
ATOM      1  C   UNL d   1      -5.117  -5.074   3.039  0.00  0.00     0.020 A 
ATOM      2  C1  UNL d   1      -5.546  -5.995   2.084  0.00  0.00     0.020 A 
ATOM      3  C2  UNL d   1      -4.970  -6.000   0.811  0.00  0.00     0.034 A 
ATOM      4  C3  UNL d   1      -3.963  -5.083   0.491  0.00  0.00     0.017 A 
ATOM      5  C4  UNL d   1      -3.533  -4.159   1.451  0.00  0.00     0.017 A 
ATOM      6  C5  UNL d   1      -4.113  -4.159   2.723  0.00  0.00     0.034 A 
ATOM      7 Cl   UNL d   1      -2.294  -2.997   1.130  0.00  0.00    -0.070 Cl
ATOM      8 Cl1  UNL d   1      -3.295  -5.146  -1.101  0.00  0.00    -0.070 Cl
ENDROOT
TORSDOF 0
ENDMDL
