MODEL 1
REMARK minimizedAffinity 11.4389887
REMARK minimizedRMSD -1
REMARK  0 active torsions:
REMARK  status: ('A' for Active; 'I' for Inactive)
ROOT
ATOM      1  C   UNL d   1      -1.877   3.754  -3.761  0.00  0.00     0.020 A 
ATOM      2  C1  UNL d   1      -1.990   4.807  -2.854  0.00  0.00     0.020 A 
ATOM      3  C2  UNL d   1      -3.031   4.819  -1.924  0.00  0.00     0.034 A 
ATOM      4  C3  UNL d   1      -3.965   3.776  -1.899  0.00  0.00     0.017 A 
ATOM      5  C4  UNL d   1      -3.851   2.720  -2.810  0.00  0.00     0.017 A 
ATOM      6  C5  UNL d   1      -2.806   2.713  -3.739  0.00  0.00     0.034 A 
ATOM      7 Cl   UNL d   1      -4.964   1.398  -2.840  0.00  0.00    -0.070 Cl
ATOM      8 Cl1  UNL d   1      -5.227   3.856  -0.722  0.00  0.00    -0.070 Cl
ENDROOT
TORSDOF 0
ENDMDL
