MODEL 1
REMARK minimizedAffinity 17.4196148
REMARK minimizedRMSD -1
REMARK  0 active torsions:
REMARK  status: ('A' for Active; 'I' for Inactive)
ROOT
ATOM      1  C   UNL d   1       4.559  -5.399  -5.982  0.00  0.00     0.020 A 
ATOM      2  C1  UNL d   1       4.683  -4.019  -5.821  0.00  0.00     0.020 A 
ATOM      3  C2  UNL d   1       3.541  -3.228  -5.677  0.00  0.00     0.034 A 
ATOM      4  C3  UNL d   1       2.271  -3.815  -5.694  0.00  0.00     0.017 A 
ATOM      5  C4  UNL d   1       2.147  -5.200  -5.856  0.00  0.00     0.017 A 
ATOM      6  C5  UNL d   1       3.294  -5.987  -6.000  0.00  0.00     0.034 A 
ATOM      7 Cl   UNL d   1       0.614  -5.996  -5.887  0.00  0.00    -0.070 Cl
ATOM      8 Cl1  UNL d   1       0.903  -2.776  -5.510  0.00  0.00    -0.070 Cl
ENDROOT
TORSDOF 0
ENDMDL
