MODEL 1
REMARK minimizedAffinity 6.58835411
REMARK minimizedRMSD -1
REMARK  0 active torsions:
REMARK  status: ('A' for Active; 'I' for Inactive)
ROOT
ATOM      1  C   UNL d   1       3.979  -1.179   1.340  0.00  0.00     0.020 A 
ATOM      2  C1  UNL d   1       2.851  -0.475   1.757  0.00  0.00     0.020 A 
ATOM      3  C2  UNL d   1       1.576  -0.949   1.441  0.00  0.00     0.034 A 
ATOM      4  C3  UNL d   1       1.426  -2.129   0.704  0.00  0.00     0.017 A 
ATOM      5  C4  UNL d   1       2.560  -2.835   0.286  0.00  0.00     0.017 A 
ATOM      6  C5  UNL d   1       3.834  -2.357   0.606  0.00  0.00     0.034 A 
ATOM      7 Cl   UNL d   1       2.455  -4.300  -0.626  0.00  0.00    -0.070 Cl
ATOM      8 Cl1  UNL d   1      -0.180  -2.657   0.348  0.00  0.00    -0.070 Cl
ENDROOT
TORSDOF 0
ENDMDL
