MODEL 1
REMARK minimizedAffinity 3.83871222
REMARK minimizedRMSD -1
REMARK  0 active torsions:
REMARK  status: ('A' for Active; 'I' for Inactive)
ROOT
ATOM      1  C   UNL d   1      -5.581  -5.115   2.885  0.00  0.00     0.020 A 
ATOM      2  C1  UNL d   1      -5.989  -5.996   1.884  0.00  0.00     0.020 A 
ATOM      3  C2  UNL d   1      -5.339  -5.996   0.648  0.00  0.00     0.034 A 
ATOM      4  C3  UNL d   1      -4.278  -5.115   0.410  0.00  0.00     0.017 A 
ATOM      5  C4  UNL d   1      -3.869  -4.232   1.416  0.00  0.00     0.017 A 
ATOM      6  C5  UNL d   1      -4.523  -4.236   2.652  0.00  0.00     0.034 A 
ATOM      7 Cl   UNL d   1      -2.568  -3.116   1.197  0.00  0.00    -0.070 Cl
ATOM      8 Cl1  UNL d   1      -3.520  -5.171  -1.142  0.00  0.00    -0.070 Cl
ENDROOT
TORSDOF 0
ENDMDL
