MODEL 1
REMARK minimizedAffinity -1.82754552
REMARK minimizedRMSD -1
REMARK  0 active torsions:
REMARK  status: ('A' for Active; 'I' for Inactive)
ROOT
ATOM      1  C   UNL d   1       5.999  -0.661   5.888  0.00  0.00     0.172 C 
ATOM      2  N   UNL d   1       5.984   0.222   4.746  0.00  0.00    -0.070 N 
ATOM      3  C1  UNL d   1       5.952  -0.169   3.434  0.00  0.00    -0.004 A 
ATOM      4  C2  UNL d   1       5.947   0.968   2.654  0.00  0.00    -0.047 A 
ATOM      5  C3  UNL d   1       5.977   2.080   3.528  0.00  0.00    -0.047 A 
ATOM      6  C4  UNL d   1       6.000   1.590   4.817  0.00  0.00    -0.004 A 
ENDROOT
TORSDOF 0
ENDMDL
