MODEL 1
REMARK minimizedAffinity -0.479339719
REMARK minimizedRMSD -1
REMARK  0 active torsions:
REMARK  status: ('A' for Active; 'I' for Inactive)
ROOT
ATOM      1  C   UNL d   1       5.242   1.544   3.295  0.00  0.00     0.172 C 
ATOM      2  N   UNL d   1       5.549   0.440   4.174  0.00  0.00    -0.070 N 
ATOM      3  C1  UNL d   1       5.722   0.524   5.530  0.00  0.00    -0.004 A 
ATOM      4  C2  UNL d   1       6.000  -0.741   5.999  0.00  0.00    -0.047 A 
ATOM      5  C3  UNL d   1       5.995  -1.616   4.886  0.00  0.00    -0.047 A 
ATOM      6  C4  UNL d   1       5.713  -0.858   3.769  0.00  0.00    -0.004 A 
ENDROOT
TORSDOF 0
ENDMDL
