MODEL 1
REMARK minimizedAffinity -2.64703822
REMARK minimizedRMSD -1
REMARK  0 active torsions:
REMARK  status: ('A' for Active; 'I' for Inactive)
ROOT
ATOM      1  C   UNL d   1       5.403  -0.449   5.046  0.00  0.00     0.172 C 
ATOM      2  N   UNL d   1       5.549   0.952   4.727  0.00  0.00    -0.070 N 
ATOM      3  C1  UNL d   1       5.499   1.984   5.625  0.00  0.00    -0.004 A 
ATOM      4  C2  UNL d   1       5.682   3.159   4.928  0.00  0.00    -0.047 A 
ATOM      5  C3  UNL d   1       5.846   2.821   3.564  0.00  0.00    -0.047 A 
ATOM      6  C4  UNL d   1       5.759   1.449   3.468  0.00  0.00    -0.004 A 
ENDROOT
TORSDOF 0
ENDMDL
