MODEL 1
REMARK minimizedAffinity -2.59128284
REMARK minimizedRMSD -1
REMARK  0 active torsions:
REMARK  status: ('A' for Active; 'I' for Inactive)
ROOT
ATOM      1  C   UNL d   1       5.600   3.162   4.161  0.00  0.00     0.172 C 
ATOM      2  N   UNL d   1       5.532   1.761   4.503  0.00  0.00    -0.070 N 
ATOM      3  C1  UNL d   1       5.635   1.242   5.766  0.00  0.00    -0.004 A 
ATOM      4  C2  UNL d   1       5.520  -0.128   5.670  0.00  0.00    -0.047 A 
ATOM      5  C3  UNL d   1       5.342  -0.443   4.302  0.00  0.00    -0.047 A 
ATOM      6  C4  UNL d   1       5.354   0.745   3.602  0.00  0.00    -0.004 A 
ENDROOT
TORSDOF 0
ENDMDL
