MODEL 1
REMARK minimizedAffinity -2.40902352
REMARK minimizedRMSD -1
REMARK  0 active torsions:
REMARK  status: ('A' for Active; 'I' for Inactive)
ROOT
ATOM      1  C   UNL d   1       5.997  -0.991   5.203  0.00  0.00     0.172 C 
ATOM      2  N   UNL d   1       5.997   0.335   4.633  0.00  0.00    -0.070 N 
ATOM      3  C1  UNL d   1       5.993   1.508   5.340  0.00  0.00    -0.004 A 
ATOM      4  C2  UNL d   1       5.995   2.547   4.434  0.00  0.00    -0.047 A 
ATOM      5  C3  UNL d   1       5.999   1.979   3.138  0.00  0.00    -0.047 A 
ATOM      6  C4  UNL d   1       6.000   0.609   3.290  0.00  0.00    -0.004 A 
ENDROOT
TORSDOF 0
ENDMDL
