MODEL 1
REMARK minimizedAffinity 2.40348959
REMARK minimizedRMSD -1
REMARK  0 active torsions:
REMARK  status: ('A' for Active; 'I' for Inactive)
ROOT
ATOM      1  C   UNL d   1       5.915   1.761   2.801  0.00  0.00     0.172 C 
ATOM      2  N   UNL d   1       5.949   3.181   3.063  0.00  0.00    -0.070 N 
ATOM      3  C1  UNL d   1       5.966   3.764   4.302  0.00  0.00    -0.004 A 
ATOM      4  C2  UNL d   1       5.999   5.130   4.124  0.00  0.00    -0.047 A 
ATOM      5  C3  UNL d   1       6.000   5.377   2.731  0.00  0.00    -0.047 A 
ATOM      6  C4  UNL d   1       5.969   4.152   2.097  0.00  0.00    -0.004 A 
ENDROOT
TORSDOF 0
ENDMDL
