MODEL 1
REMARK minimizedAffinity -1.32823145
REMARK minimizedRMSD -1
REMARK  0 active torsions:
REMARK  status: ('A' for Active; 'I' for Inactive)
ROOT
ATOM      1  C   UNL d   1       5.998  -1.073   5.582  0.00  0.00     0.172 C 
ATOM      2  N   UNL d   1       5.998   0.125   4.775  0.00  0.00    -0.070 N 
ATOM      3  C1  UNL d   1       5.999   1.408   5.252  0.00  0.00    -0.004 A 
ATOM      4  C2  UNL d   1       5.999   2.261   4.170  0.00  0.00    -0.047 A 
ATOM      5  C3  UNL d   1       5.997   1.462   3.002  0.00  0.00    -0.047 A 
ATOM      6  C4  UNL d   1       5.996   0.144   3.405  0.00  0.00    -0.004 A 
ENDROOT
TORSDOF 0
ENDMDL
