MODEL 1
REMARK minimizedAffinity 5.46079016
REMARK minimizedRMSD -1
REMARK  0 active torsions:
REMARK  status: ('A' for Active; 'I' for Inactive)
ROOT
ATOM      1  C   UNL d   1       6.000   4.444   3.943  0.00  0.00     0.172 C 
ATOM      2  N   UNL d   1       5.642   3.161   3.385  0.00  0.00    -0.070 N 
ATOM      3  C1  UNL d   1       4.898   2.198   4.012  0.00  0.00    -0.004 A 
ATOM      4  C2  UNL d   1       4.779   1.129   3.150  0.00  0.00    -0.047 A 
ATOM      5  C3  UNL d   1       5.475   1.462   1.964  0.00  0.00    -0.047 A 
ATOM      6  C4  UNL d   1       6.000   2.725   2.137  0.00  0.00    -0.004 A 
ENDROOT
TORSDOF 0
ENDMDL
