MODEL 1
REMARK minimizedAffinity -2.4644959
REMARK minimizedRMSD -1
REMARK  0 active torsions:
REMARK  status: ('A' for Active; 'I' for Inactive)
ROOT
ATOM      1  C   UNL d   1       5.238  -0.247   4.498  0.00  0.00     0.172 C 
ATOM      2  N   UNL d   1       5.269   1.144   4.108  0.00  0.00    -0.070 N 
ATOM      3  C1  UNL d   1       4.582   2.159   4.718  0.00  0.00    -0.004 A 
ATOM      4  C2  UNL d   1       4.879   3.329   4.052  0.00  0.00    -0.047 A 
ATOM      5  C3  UNL d   1       5.774   3.005   3.005  0.00  0.00    -0.047 A 
ATOM      6  C4  UNL d   1       5.999   1.645   3.063  0.00  0.00    -0.004 A 
ENDROOT
TORSDOF 0
ENDMDL
