MODEL 1
REMARK minimizedAffinity -2.90968633
REMARK minimizedRMSD -1
REMARK  0 active torsions:
REMARK  status: ('A' for Active; 'I' for Inactive)
ROOT
ATOM      1  C   UNL d   1       5.683   2.883   3.065  0.00  0.00     0.172 C 
ATOM      2  N   UNL d   1       5.487   1.536   3.547  0.00  0.00    -0.070 N 
ATOM      3  C1  UNL d   1       5.261   0.434   2.766  0.00  0.00    -0.004 A 
ATOM      4  C2  UNL d   1       5.127  -0.654   3.601  0.00  0.00    -0.047 A 
ATOM      5  C3  UNL d   1       5.276  -0.190   4.929  0.00  0.00    -0.047 A 
ATOM      6  C4  UNL d   1       5.498   1.169   4.867  0.00  0.00    -0.004 A 
ENDROOT
TORSDOF 0
ENDMDL
