MODEL 1
REMARK minimizedAffinity -2.12429047
REMARK minimizedRMSD -1
REMARK  0 active torsions:
REMARK  status: ('A' for Active; 'I' for Inactive)
ROOT
ATOM      1  C   UNL d   1       5.997  -1.325   4.876  0.00  0.00     0.172 C 
ATOM      2  N   UNL d   1       5.993   0.040   4.404  0.00  0.00    -0.070 N 
ATOM      3  C1  UNL d   1       5.982   0.431   3.092  0.00  0.00    -0.004 A 
ATOM      4  C2  UNL d   1       5.981   1.809   3.062  0.00  0.00    -0.047 A 
ATOM      5  C3  UNL d   1       5.992   2.262   4.403  0.00  0.00    -0.047 A 
ATOM      6  C4  UNL d   1       5.999   1.146   5.213  0.00  0.00    -0.004 A 
ENDROOT
TORSDOF 0
ENDMDL
