MODEL 1
REMARK minimizedAffinity -1.32803214
REMARK minimizedRMSD -1
REMARK  0 active torsions:
REMARK  status: ('A' for Active; 'I' for Inactive)
ROOT
ATOM      1  C   UNL d   1       5.391   5.999  -0.321  0.00  0.00     0.172 C 
ATOM      2  N   UNL d   1       5.554   5.388   0.977  0.00  0.00    -0.070 N 
ATOM      3  C1  UNL d   1       5.327   6.000   2.182  0.00  0.00    -0.004 A 
ATOM      4  C2  UNL d   1       5.596   5.085   3.177  0.00  0.00    -0.047 A 
ATOM      5  C3  UNL d   1       6.000   3.882   2.549  0.00  0.00    -0.047 A 
ATOM      6  C4  UNL d   1       5.965   4.098   1.188  0.00  0.00    -0.004 A 
ENDROOT
TORSDOF 0
ENDMDL
