MODEL 1
REMARK minimizedAffinity -2.19579148
REMARK minimizedRMSD -1
REMARK  0 active torsions:
REMARK  status: ('A' for Active; 'I' for Inactive)
ROOT
ATOM      1  C   UNL d   1       5.976   1.031   3.088  0.00  0.00     0.172 C 
ATOM      2  N   UNL d   1       5.985  -0.044   4.053  0.00  0.00    -0.070 N 
ATOM      3  C1  UNL d   1       5.990  -1.381   3.759  0.00  0.00    -0.004 A 
ATOM      4  C2  UNL d   1       5.999  -2.075   4.949  0.00  0.00    -0.047 A 
ATOM      5  C3  UNL d   1       5.999  -1.121   5.995  0.00  0.00    -0.047 A 
ATOM      6  C4  UNL d   1       5.990   0.128   5.412  0.00  0.00    -0.004 A 
ENDROOT
TORSDOF 0
ENDMDL
