MODEL 1
REMARK minimizedAffinity -2.80717182
REMARK minimizedRMSD -1
REMARK  0 active torsions:
REMARK  status: ('A' for Active; 'I' for Inactive)
ROOT
ATOM      1  C   UNL d   1       5.497  -1.569   5.217  0.00  0.00     0.172 C 
ATOM      2  N   UNL d   1       5.641  -0.174   4.871  0.00  0.00    -0.070 N 
ATOM      3  C1  UNL d   1       5.752   0.862   5.759  0.00  0.00    -0.004 A 
ATOM      4  C2  UNL d   1       5.872   2.028   5.035  0.00  0.00    -0.047 A 
ATOM      5  C3  UNL d   1       5.831   1.681   3.664  0.00  0.00    -0.047 A 
ATOM      6  C4  UNL d   1       5.687   0.312   3.591  0.00  0.00    -0.004 A 
ENDROOT
TORSDOF 0
ENDMDL
