MODEL 1
REMARK minimizedAffinity -0.697459757
REMARK minimizedRMSD -1
REMARK  0 active torsions:
REMARK  status: ('A' for Active; 'I' for Inactive)
ROOT
ATOM      1  C   UNL d   1       5.850   2.315   5.682  0.00  0.00     0.172 C 
ATOM      2  N   UNL d   1       5.837   0.952   5.206  0.00  0.00    -0.070 N 
ATOM      3  C1  UNL d   1       6.000   0.559   3.905  0.00  0.00    -0.004 A 
ATOM      4  C2  UNL d   1       5.923  -0.817   3.866  0.00  0.00    -0.047 A 
ATOM      5  C3  UNL d   1       5.705  -1.266   5.191  0.00  0.00    -0.047 A 
ATOM      6  C4  UNL d   1       5.656  -0.150   6.000  0.00  0.00    -0.004 A 
ENDROOT
TORSDOF 0
ENDMDL
