MODEL 1
REMARK minimizedAffinity -2.3747375
REMARK minimizedRMSD -1
REMARK  0 active torsions:
REMARK  status: ('A' for Active; 'I' for Inactive)
ROOT
ATOM      1  C   UNL d   1       5.886  -0.976   4.946  0.00  0.00     0.172 C 
ATOM      2  N   UNL d   1       5.926   0.378   4.444  0.00  0.00    -0.070 N 
ATOM      3  C1  UNL d   1       5.975   0.739   3.124  0.00  0.00    -0.004 A 
ATOM      4  C2  UNL d   1       6.000   2.116   3.064  0.00  0.00    -0.047 A 
ATOM      5  C3  UNL d   1       5.966   2.599   4.394  0.00  0.00    -0.047 A 
ATOM      6  C4  UNL d   1       5.920   1.501   5.228  0.00  0.00    -0.004 A 
ENDROOT
TORSDOF 0
ENDMDL
