MODEL 1
REMARK minimizedAffinity -1.89039552
REMARK minimizedRMSD -1
REMARK  0 active torsions:
REMARK  status: ('A' for Active; 'I' for Inactive)
ROOT
ATOM      1  C   UNL d   1       6.000   2.999   4.935  0.00  0.00     0.172 C 
ATOM      2  N   UNL d   1       5.946   4.001   3.897  0.00  0.00    -0.070 N 
ATOM      3  C1  UNL d   1       6.000   3.759   2.550  0.00  0.00    -0.004 A 
ATOM      4  C2  UNL d   1       5.919   4.972   1.900  0.00  0.00    -0.047 A 
ATOM      5  C3  UNL d   1       5.813   5.977   2.890  0.00  0.00    -0.047 A 
ATOM      6  C4  UNL d   1       5.832   5.349   4.117  0.00  0.00    -0.004 A 
ENDROOT
TORSDOF 0
ENDMDL
