MODEL 1
REMARK minimizedAffinity -2.86948252
REMARK minimizedRMSD -1
REMARK  1 active torsions:
REMARK  status: ('A' for Active; 'I' for Inactive)
REMARK    1  A    between atoms: C1_2  and  C2_3 
ROOT
ATOM      1  C2  UNL d   1       1.111   0.483  -0.482  0.00  0.00    -0.073 A 
ATOM      2  C3  UNL d   1       0.038   0.673  -1.360  0.00  0.00    -0.002 A 
ATOM      3  C4  UNL d   1      -1.190   0.056  -1.116  0.00  0.00     0.004 A 
ATOM      4  C5  UNL d   1      -1.359  -0.751   0.009  0.00  0.00    -0.004 A 
ATOM      5  C6  UNL d   1      -0.302  -0.944   0.904  0.00  0.00    -0.075 A 
ATOM      6  C7  UNL d   1      -0.467  -1.811   2.117  0.00  0.00     0.076 C 
ATOM      7  C8  UNL d   1       0.929  -0.323   0.651  0.00  0.00     0.001 A 
ENDROOT
BRANCH   1   8
ATOM      8  C1  UNL d   1       2.437   1.152  -0.737  0.00  0.00     0.053 C 
ATOM      9  C   UNL d   1       2.750   2.213   0.306  0.00  0.00     0.018 C 
ENDBRANCH   1   8
TORSDOF 1
ENDMDL
