MODEL 1
REMARK minimizedAffinity -4.14829445
REMARK minimizedRMSD -1
REMARK  1 active torsions:
REMARK  status: ('A' for Active; 'I' for Inactive)
REMARK    1  A    between atoms: C1_2  and  C2_3 
ROOT
ATOM      1  C2  UNL d   1      -0.947  -0.217  -0.160  0.00  0.00    -0.073 A 
ATOM      2  C3  UNL d   1      -1.939  -0.026   0.809  0.00  0.00    -0.002 A 
ATOM      3  C4  UNL d   1      -3.234  -0.498   0.594  0.00  0.00     0.004 A 
ATOM      4  C5  UNL d   1      -3.550  -1.171  -0.586  0.00  0.00    -0.004 A 
ATOM      5  C6  UNL d   1      -2.570  -1.382  -1.561  0.00  0.00    -0.075 A 
ATOM      6  C7  UNL d   1      -2.895  -2.102  -2.837  0.00  0.00     0.076 C 
ATOM      7  C8  UNL d   1      -1.272  -0.903  -1.340  0.00  0.00     0.001 A 
ENDROOT
BRANCH   1   8
ATOM      8  C1  UNL d   1       0.455   0.285   0.069  0.00  0.00     0.053 C 
ATOM      9  C   UNL d   1       1.199  -0.553   1.097  0.00  0.00     0.018 C 
ENDBRANCH   1   8
TORSDOF 1
ENDMDL
