MODEL 1
REMARK minimizedAffinity -1.68407023
REMARK minimizedRMSD -1
REMARK  1 active torsions:
REMARK  status: ('A' for Active; 'I' for Inactive)
REMARK    1  A    between atoms: C1_2  and  C2_3 
ROOT
ATOM      1  C2  UNL d   1       0.640   0.004   0.330  0.00  0.00    -0.073 A 
ATOM      2  C3  UNL d   1       0.980  -1.022   1.218  0.00  0.00    -0.002 A 
ATOM      3  C4  UNL d   1       0.006  -1.914   1.671  0.00  0.00     0.004 A 
ATOM      4  C5  UNL d   1      -1.313  -1.793   1.235  0.00  0.00    -0.004 A 
ATOM      5  C6  UNL d   1      -1.670  -0.780   0.339  0.00  0.00    -0.075 A 
ATOM      6  C7  UNL d   1      -3.086  -0.635  -0.138  0.00  0.00     0.076 C 
ATOM      7  C8  UNL d   1      -0.687   0.113  -0.109  0.00  0.00     0.001 A 
ENDROOT
BRANCH   1   8
ATOM      8  C1  UNL d   1       1.689   0.965  -0.166  0.00  0.00     0.053 C 
ATOM      9  C   UNL d   1       2.304   1.773   0.966  0.00  0.00     0.018 C 
ENDBRANCH   1   8
TORSDOF 1
ENDMDL
