MODEL 1
REMARK minimizedAffinity -3.98441505
REMARK minimizedRMSD -1
REMARK  1 active torsions:
REMARK  status: ('A' for Active; 'I' for Inactive)
REMARK    1  A    between atoms: C1_2  and  C2_3 
ROOT
ATOM      1  C2  UNL d   1       0.451  -0.040  -0.059  0.00  0.00    -0.073 A 
ATOM      2  C3  UNL d   1       0.574   0.039  -1.451  0.00  0.00    -0.002 A 
ATOM      3  C4  UNL d   1      -0.549  -0.105  -2.267  0.00  0.00     0.004 A 
ATOM      4  C5  UNL d   1      -1.805  -0.322  -1.701  0.00  0.00    -0.004 A 
ATOM      5  C6  UNL d   1      -1.950  -0.392  -0.311  0.00  0.00    -0.075 A 
ATOM      6  C7  UNL d   1      -3.294  -0.628   0.313  0.00  0.00     0.076 C 
ATOM      7  C8  UNL d   1      -0.817  -0.249   0.501  0.00  0.00     0.001 A 
ENDROOT
BRANCH   1   8
ATOM      8  C1  UNL d   1       1.660   0.122   0.826  0.00  0.00     0.053 C 
ATOM      9  C   UNL d   1       2.220   1.534   0.774  0.00  0.00     0.018 C 
ENDBRANCH   1   8
TORSDOF 1
ENDMDL
