MODEL 1
REMARK minimizedAffinity -6.22203684
REMARK minimizedRMSD -1
REMARK  1 active torsions:
REMARK  status: ('A' for Active; 'I' for Inactive)
REMARK    1  A    between atoms: C1_2  and  C2_3 
ROOT
ATOM      1  C2  UNL d   1       3.801   3.284  -1.810  0.00  0.00    -0.073 A 
ATOM      2  C3  UNL d   1       3.881   4.334  -0.887  0.00  0.00    -0.002 A 
ATOM      3  C4  UNL d   1       3.247   4.233   0.352  0.00  0.00     0.004 A 
ATOM      4  C5  UNL d   1       2.533   3.082   0.684  0.00  0.00    -0.004 A 
ATOM      5  C6  UNL d   1       2.451   2.018  -0.220  0.00  0.00    -0.075 A 
ATOM      6  C7  UNL d   1       1.685   0.773   0.120  0.00  0.00     0.076 C 
ATOM      7  C8  UNL d   1       3.088   2.127  -1.464  0.00  0.00     0.001 A 
ENDROOT
BRANCH   1   8
ATOM      8  C1  UNL d   1       4.489   3.386  -3.147  0.00  0.00     0.053 C 
ATOM      9  C   UNL d   1       5.999   3.485  -3.004  0.00  0.00     0.018 C 
ENDBRANCH   1   8
TORSDOF 1
ENDMDL
