MODEL 1
REMARK minimizedAffinity -3.14473486
REMARK minimizedRMSD -1
REMARK  1 active torsions:
REMARK  status: ('A' for Active; 'I' for Inactive)
REMARK    1  A    between atoms: C1_2  and  C2_3 
ROOT
ATOM      1  C2  UNL d   1       1.377   0.149   0.311  0.00  0.00    -0.073 A 
ATOM      2  C3  UNL d   1       1.377  -0.797   1.343  0.00  0.00    -0.002 A 
ATOM      3  C4  UNL d   1       0.241  -1.568   1.591  0.00  0.00     0.004 A 
ATOM      4  C5  UNL d   1      -0.902  -1.407   0.808  0.00  0.00    -0.004 A 
ATOM      5  C6  UNL d   1      -0.917  -0.476  -0.235  0.00  0.00    -0.075 A 
ATOM      6  C7  UNL d   1      -2.139  -0.289  -1.086  0.00  0.00     0.076 C 
ATOM      7  C8  UNL d   1       0.227   0.297  -0.477  0.00  0.00     0.001 A 
ENDROOT
BRANCH   1   8
ATOM      8  C1  UNL d   1       2.604   0.980   0.035  0.00  0.00     0.053 C 
ATOM      9  C   UNL d   1       2.789   2.082   1.066  0.00  0.00     0.018 C 
ENDBRANCH   1   8
TORSDOF 1
ENDMDL
