MODEL 1
REMARK minimizedAffinity -2.68406606
REMARK minimizedRMSD -1
REMARK  1 active torsions:
REMARK  status: ('A' for Active; 'I' for Inactive)
REMARK    1  A    between atoms: C1_2  and  C2_3 
ROOT
ATOM      1  C2  UNL d   1       0.583   0.329  -0.294  0.00  0.00    -0.073 A 
ATOM      2  C3  UNL d   1       0.542   1.009  -1.516  0.00  0.00    -0.002 A 
ATOM      3  C4  UNL d   1      -0.640   1.058  -2.256  0.00  0.00     0.004 A 
ATOM      4  C5  UNL d   1      -1.793   0.435  -1.779  0.00  0.00    -0.004 A 
ATOM      5  C6  UNL d   1      -1.775  -0.239  -0.554  0.00  0.00    -0.075 A 
ATOM      6  C7  UNL d   1      -3.006  -0.917  -0.027  0.00  0.00     0.076 C 
ATOM      7  C8  UNL d   1      -0.583  -0.286   0.182  0.00  0.00     0.001 A 
ENDROOT
BRANCH   1   8
ATOM      8  C1  UNL d   1       1.856   0.279   0.512  0.00  0.00     0.053 C 
ATOM      9  C   UNL d   1       2.550   1.631   0.565  0.00  0.00     0.018 C 
ENDBRANCH   1   8
TORSDOF 1
ENDMDL
