MODEL 1
REMARK minimizedAffinity -4.78520107
REMARK minimizedRMSD -1
REMARK  1 active torsions:
REMARK  status: ('A' for Active; 'I' for Inactive)
REMARK    1  A    between atoms: C1_2  and  C2_3 
ROOT
ATOM      1  C2  UNL d   1      -1.415  -0.846   0.163  0.00  0.00    -0.073 A 
ATOM      2  C3  UNL d   1      -2.628  -0.714  -0.522  0.00  0.00    -0.002 A 
ATOM      3  C4  UNL d   1      -3.697  -1.563  -0.234  0.00  0.00     0.004 A 
ATOM      4  C5  UNL d   1      -3.567  -2.547   0.745  0.00  0.00    -0.004 A 
ATOM      5  C6  UNL d   1      -2.367  -2.688   1.450  0.00  0.00    -0.075 A 
ATOM      6  C7  UNL d   1      -2.211  -3.743   2.505  0.00  0.00     0.076 C 
ATOM      7  C8  UNL d   1      -1.297  -1.832   1.153  0.00  0.00     0.001 A 
ENDROOT
BRANCH   1   8
ATOM      8  C1  UNL d   1      -0.260   0.073  -0.140  0.00  0.00     0.053 C 
ATOM      9  C   UNL d   1      -0.332   0.633  -1.552  0.00  0.00     0.018 C 
ENDBRANCH   1   8
TORSDOF 1
ENDMDL
