MODEL 1
REMARK minimizedAffinity -1.87503791
REMARK minimizedRMSD -1
REMARK  1 active torsions:
REMARK  status: ('A' for Active; 'I' for Inactive)
REMARK    1  A    between atoms: C1_2  and  C2_3 
ROOT
ATOM      1  C2  UNL d   1       0.857   0.204   0.027  0.00  0.00    -0.073 A 
ATOM      2  C3  UNL d   1       1.281  -0.750   0.959  0.00  0.00    -0.002 A 
ATOM      3  C4  UNL d   1       0.406  -1.745   1.397  0.00  0.00     0.004 A 
ATOM      4  C5  UNL d   1      -0.897  -1.801   0.904  0.00  0.00    -0.004 A 
ATOM      5  C6  UNL d   1      -1.336  -0.864  -0.037  0.00  0.00    -0.075 A 
ATOM      6  C7  UNL d   1      -2.736  -0.910  -0.576  0.00  0.00     0.076 C 
ATOM      7  C8  UNL d   1      -0.453   0.134  -0.470  0.00  0.00     0.001 A 
ENDROOT
BRANCH   1   8
ATOM      8  C1  UNL d   1       1.799   1.277  -0.454  0.00  0.00     0.053 C 
ATOM      9  C   UNL d   1       2.611   1.874   0.684  0.00  0.00     0.018 C 
ENDBRANCH   1   8
TORSDOF 1
ENDMDL
