MODEL 1
REMARK minimizedAffinity 4.83445215
REMARK minimizedRMSD -1
REMARK  0 active torsions:
REMARK  status: ('A' for Active; 'I' for Inactive)
ROOT
ATOM      1  C   UNL d   1       2.810  -0.066   0.371  0.00  0.00     0.124 A 
ATOM      2  C1  UNL d   1       1.653  -0.078   1.137  0.00  0.00     0.062 A 
ATOM      3  C2  UNL d   1       0.432  -0.408   0.556  0.00  0.00     0.162 A 
ATOM      4  C3  UNL d   1       0.362  -0.730  -0.800  0.00  0.00    -0.034 A 
ATOM      5  C4  UNL d   1       1.530  -0.715  -1.564  0.00  0.00     0.162 A 
ATOM      6  C5  UNL d   1       2.748  -0.384  -0.978  0.00  0.00     0.062 A 
ATOM      7  F   UNL d   1       3.865  -0.372  -1.720  0.00  0.00    -0.097 F 
ATOM      8  F1  UNL d   1       1.499  -1.019  -2.870  0.00  0.00    -0.096 F 
ATOM      9  I   UNL d   1      -1.461  -1.224  -1.673  0.00  0.00    -0.060 I 
ATOM     10  F2  UNL d   1      -0.670  -0.412   1.320  0.00  0.00    -0.096 F 
ATOM     11  F3  UNL d   1       1.710   0.230   2.441  0.00  0.00    -0.097 F 
ATOM     12  F4  UNL d   1       3.983   0.253   0.932  0.00  0.00    -0.092 F 
ENDROOT
TORSDOF 0
ENDMDL
