MODEL 1
REMARK minimizedAffinity 2.09300852
REMARK minimizedRMSD -1
REMARK  0 active torsions:
REMARK  status: ('A' for Active; 'I' for Inactive)
ROOT
ATOM      1  C   UNL d   1       2.100  -0.041  -4.252  0.00  0.00     0.124 A 
ATOM      2  C1  UNL d   1       0.999   0.444  -3.559  0.00  0.00     0.062 A 
ATOM      3  C2  UNL d   1       0.857   0.184  -2.199  0.00  0.00     0.162 A 
ATOM      4  C3  UNL d   1       1.820  -0.565  -1.522  0.00  0.00    -0.034 A 
ATOM      5  C4  UNL d   1       2.924  -1.050  -2.225  0.00  0.00     0.162 A 
ATOM      6  C5  UNL d   1       3.061  -0.788  -3.584  0.00  0.00     0.062 A 
ATOM      7  F   UNL d   1       4.125  -1.257  -4.251  0.00  0.00    -0.097 F 
ATOM      8  F1  UNL d   1       3.868  -1.773  -1.605  0.00  0.00    -0.096 F 
ATOM      9  I   UNL d   1       1.611  -0.956   0.512  0.00  0.00    -0.060 I 
ATOM     10  F2  UNL d   1      -0.217   0.665  -1.556  0.00  0.00    -0.096 F 
ATOM     11  F3  UNL d   1       0.069   1.164  -4.202  0.00  0.00    -0.097 F 
ATOM     12  F4  UNL d   1       2.234   0.209  -5.560  0.00  0.00    -0.092 F 
ENDROOT
TORSDOF 0
ENDMDL
