MODEL 1
REMARK minimizedAffinity 8.01511002
REMARK minimizedRMSD -1
REMARK  0 active torsions:
REMARK  status: ('A' for Active; 'I' for Inactive)
ROOT
ATOM      1  C   UNL d   1      -1.095  -4.352  -2.852  0.00  0.00     0.124 A 
ATOM      2  C1  UNL d   1      -1.389  -3.019  -2.604  0.00  0.00     0.062 A 
ATOM      3  C2  UNL d   1      -0.986  -2.034  -3.501  0.00  0.00     0.162 A 
ATOM      4  C3  UNL d   1      -0.284  -2.379  -4.656  0.00  0.00    -0.034 A 
ATOM      5  C4  UNL d   1       0.010  -3.722  -4.899  0.00  0.00     0.162 A 
ATOM      6  C5  UNL d   1      -0.396  -4.703  -3.999  0.00  0.00     0.062 A 
ATOM      7  F   UNL d   1      -0.111  -5.991  -4.241  0.00  0.00    -0.097 F 
ATOM      8  F1  UNL d   1       0.683  -4.089  -5.999  0.00  0.00    -0.096 F 
ATOM      9  I   UNL d   1       0.321  -0.909  -6.000  0.00  0.00    -0.060 I 
ATOM     10  F2  UNL d   1      -1.284  -0.754  -3.235  0.00  0.00    -0.096 F 
ATOM     11  F3  UNL d   1      -2.063  -2.678  -1.496  0.00  0.00    -0.097 F 
ATOM     12  F4  UNL d   1      -1.483  -5.298  -1.987  0.00  0.00    -0.092 F 
ENDROOT
TORSDOF 0
ENDMDL
