MODEL 1
REMARK minimizedAffinity 10.7347345
REMARK minimizedRMSD -1
REMARK  0 active torsions:
REMARK  status: ('A' for Active; 'I' for Inactive)
ROOT
ATOM      1  C   UNL d   1      -1.574   0.534   3.233  0.00  0.00     0.124 A 
ATOM      2  C1  UNL d   1      -2.127  -0.725   3.045  0.00  0.00     0.062 A 
ATOM      3  C2  UNL d   1      -2.732  -1.051   1.835  0.00  0.00     0.162 A 
ATOM      4  C3  UNL d   1      -2.785  -0.116   0.801  0.00  0.00    -0.034 A 
ATOM      5  C4  UNL d   1      -2.227   1.149   0.997  0.00  0.00     0.162 A 
ATOM      6  C5  UNL d   1      -1.624   1.469   2.209  0.00  0.00     0.062 A 
ATOM      7  F   UNL d   1      -1.090   2.686   2.388  0.00  0.00    -0.097 F 
ATOM      8  F1  UNL d   1      -2.262   2.072   0.024  0.00  0.00    -0.096 F 
ATOM      9  I   UNL d   1      -3.688  -0.599  -1.011  0.00  0.00    -0.060 I 
ATOM     10  F2  UNL d   1      -3.258  -2.275   1.681  0.00  0.00    -0.096 F 
ATOM     11  F3  UNL d   1      -2.080  -1.630   4.033  0.00  0.00    -0.097 F 
ATOM     12  F4  UNL d   1      -0.993   0.845   4.399  0.00  0.00    -0.092 F 
ENDROOT
TORSDOF 0
ENDMDL
