MODEL 1
REMARK minimizedAffinity 12.305788
REMARK minimizedRMSD -1
REMARK  0 active torsions:
REMARK  status: ('A' for Active; 'I' for Inactive)
ROOT
ATOM      1  C   UNL d   1      -1.295   0.219   2.792  0.00  0.00     0.124 A 
ATOM      2  C1  UNL d   1      -2.152  -0.864   2.654  0.00  0.00     0.062 A 
ATOM      3  C2  UNL d   1      -3.093  -0.885   1.628  0.00  0.00     0.162 A 
ATOM      4  C3  UNL d   1      -3.182   0.180   0.733  0.00  0.00    -0.034 A 
ATOM      5  C4  UNL d   1      -2.317   1.267   0.879  0.00  0.00     0.162 A 
ATOM      6  C5  UNL d   1      -1.378   1.283   1.906  0.00  0.00     0.062 A 
ATOM      7  F   UNL d   1      -0.551   2.330   2.038  0.00  0.00    -0.097 F 
ATOM      8  F1  UNL d   1      -2.375   2.308   0.036  0.00  0.00    -0.096 F 
ATOM      9  I   UNL d   1      -4.588   0.153  -0.801  0.00  0.00    -0.060 I 
ATOM     10  F2  UNL d   1      -3.908  -1.945   1.518  0.00  0.00    -0.096 F 
ATOM     11  F3  UNL d   1      -2.074  -1.893   3.510  0.00  0.00    -0.097 F 
ATOM     12  F4  UNL d   1      -0.391   0.237   3.780  0.00  0.00    -0.092 F 
ENDROOT
TORSDOF 0
ENDMDL
