MODEL 1
REMARK minimizedAffinity 4.82402611
REMARK minimizedRMSD -1
REMARK  0 active torsions:
REMARK  status: ('A' for Active; 'I' for Inactive)
ROOT
ATOM      1  C   UNL d   1      -0.741  -4.884  -3.800  0.00  0.00     0.124 A 
ATOM      2  C1  UNL d   1       0.312  -4.888  -2.895  0.00  0.00     0.062 A 
ATOM      3  C2  UNL d   1       1.079  -3.741  -2.708  0.00  0.00     0.162 A 
ATOM      4  C3  UNL d   1       0.795  -2.580  -3.427  0.00  0.00    -0.034 A 
ATOM      5  C4  UNL d   1      -0.265  -2.584  -4.335  0.00  0.00     0.162 A 
ATOM      6  C5  UNL d   1      -1.028  -3.732  -4.519  0.00  0.00     0.062 A 
ATOM      7  F   UNL d   1      -2.045  -3.726  -5.393  0.00  0.00    -0.097 F 
ATOM      8  F1  UNL d   1      -0.565  -1.484  -5.043  0.00  0.00    -0.096 F 
ATOM      9  I   UNL d   1       1.939  -0.863  -3.150  0.00  0.00    -0.060 I 
ATOM     10  F2  UNL d   1       2.090  -3.774  -1.828  0.00  0.00    -0.096 F 
ATOM     11  F3  UNL d   1       0.593  -5.999  -2.200  0.00  0.00    -0.097 F 
ATOM     12  F4  UNL d   1      -1.476  -5.988  -3.978  0.00  0.00    -0.092 F 
ENDROOT
TORSDOF 0
ENDMDL
