MODEL 1
REMARK minimizedAffinity 17.3125324
REMARK minimizedRMSD -1
REMARK  0 active torsions:
REMARK  status: ('A' for Active; 'I' for Inactive)
ROOT
ATOM      1  C   UNL d   1      -1.200   0.416   2.822  0.00  0.00     0.124 A 
ATOM      2  C1  UNL d   1      -1.459  -0.875   2.383  0.00  0.00     0.062 A 
ATOM      3  C2  UNL d   1      -2.291  -1.089   1.288  0.00  0.00     0.162 A 
ATOM      4  C3  UNL d   1      -2.870  -0.008   0.623  0.00  0.00    -0.034 A 
ATOM      5  C4  UNL d   1      -2.605   1.287   1.070  0.00  0.00     0.162 A 
ATOM      6  C5  UNL d   1      -1.773   1.496   2.165  0.00  0.00     0.062 A 
ATOM      7  F   UNL d   1      -1.524   2.744   2.587  0.00  0.00    -0.097 F 
ATOM      8  F1  UNL d   1      -3.146   2.349   0.454  0.00  0.00    -0.096 F 
ATOM      9  I   UNL d   1      -4.115  -0.324  -1.015  0.00  0.00    -0.060 I 
ATOM     10  F2  UNL d   1      -2.524  -2.347   0.887  0.00  0.00    -0.096 F 
ATOM     11  F3  UNL d   1      -0.907  -1.920   3.017  0.00  0.00    -0.097 F 
ATOM     12  F4  UNL d   1      -0.400   0.618   3.877  0.00  0.00    -0.092 F 
ENDROOT
TORSDOF 0
ENDMDL
