MODEL 1
REMARK minimizedAffinity 17.3744373
REMARK minimizedRMSD -1
REMARK  0 active torsions:
REMARK  status: ('A' for Active; 'I' for Inactive)
ROOT
ATOM      1  C   UNL d   1      -2.064  -0.827   1.537  0.00  0.00     0.124 A 
ATOM      2  C1  UNL d   1      -2.971  -0.967   0.496  0.00  0.00     0.062 A 
ATOM      3  C2  UNL d   1      -3.619   0.150  -0.023  0.00  0.00     0.162 A 
ATOM      4  C3  UNL d   1      -3.362   1.418   0.497  0.00  0.00    -0.034 A 
ATOM      5  C4  UNL d   1      -2.449   1.551   1.545  0.00  0.00     0.162 A 
ATOM      6  C5  UNL d   1      -1.804   0.432   2.061  0.00  0.00     0.062 A 
ATOM      7  F   UNL d   1      -0.928   0.569   3.067  0.00  0.00    -0.097 F 
ATOM      8  F1  UNL d   1      -2.178   2.756   2.069  0.00  0.00    -0.096 F 
ATOM      9  I   UNL d   1      -4.328   3.091  -0.277  0.00  0.00    -0.060 I 
ATOM     10  F2  UNL d   1      -4.490  -0.015  -1.030  0.00  0.00    -0.096 F 
ATOM     11  F3  UNL d   1      -3.225  -2.182  -0.011  0.00  0.00    -0.097 F 
ATOM     12  F4  UNL d   1      -1.443  -1.903   2.035  0.00  0.00    -0.092 F 
ENDROOT
TORSDOF 0
ENDMDL
