MODEL 1
REMARK minimizedAffinity 8.53550911
REMARK minimizedRMSD -1
REMARK  0 active torsions:
REMARK  status: ('A' for Active; 'I' for Inactive)
ROOT
ATOM      1  C   UNL d   1      -1.103  -4.004  -5.233  0.00  0.00     0.124 A 
ATOM      2  C1  UNL d   1      -1.823  -2.862  -4.913  0.00  0.00     0.062 A 
ATOM      3  C2  UNL d   1      -1.211  -1.613  -4.957  0.00  0.00     0.162 A 
ATOM      4  C3  UNL d   1       0.130  -1.499  -5.323  0.00  0.00    -0.034 A 
ATOM      5  C4  UNL d   1       0.848  -2.652  -5.643  0.00  0.00     0.162 A 
ATOM      6  C5  UNL d   1       0.232  -3.898  -5.598  0.00  0.00     0.062 A 
ATOM      7  F   UNL d   1       0.930  -5.000  -5.908  0.00  0.00    -0.097 F 
ATOM      8  F1  UNL d   1       2.139  -2.578  -6.000  0.00  0.00    -0.096 F 
ATOM      9  I   UNL d   1       1.049   0.368  -5.390  0.00  0.00    -0.060 I 
ATOM     10  F2  UNL d   1      -1.932  -0.526  -4.642  0.00  0.00    -0.096 F 
ATOM     11  F3  UNL d   1      -3.113  -2.962  -4.560  0.00  0.00    -0.097 F 
ATOM     12  F4  UNL d   1      -1.694  -5.205  -5.190  0.00  0.00    -0.092 F 
ENDROOT
TORSDOF 0
ENDMDL
