MODEL 1
REMARK minimizedAffinity -0.20825544
REMARK minimizedRMSD -1
REMARK  0 active torsions:
REMARK  status: ('A' for Active; 'I' for Inactive)
ROOT
ATOM      1  C   UNL d   1      -2.922   0.101  -0.592  0.00  0.00     0.124 A 
ATOM      2  C1  UNL d   1      -1.879  -0.812  -0.671  0.00  0.00     0.062 A 
ATOM      3  C2  UNL d   1      -0.943  -0.894   0.356  0.00  0.00     0.162 A 
ATOM      4  C3  UNL d   1      -1.046  -0.063   1.471  0.00  0.00    -0.034 A 
ATOM      5  C4  UNL d   1      -2.097   0.853   1.542  0.00  0.00     0.162 A 
ATOM      6  C5  UNL d   1      -3.030   0.932   0.514  0.00  0.00     0.062 A 
ATOM      7  F   UNL d   1      -4.037   1.814   0.591  0.00  0.00    -0.097 F 
ATOM      8  F1  UNL d   1      -2.226   1.667   2.600  0.00  0.00    -0.096 F 
ATOM      9  I   UNL d   1       0.352  -0.184   3.008  0.00  0.00    -0.060 I 
ATOM     10  F2  UNL d   1       0.055  -1.785   0.254  0.00  0.00    -0.096 F 
ATOM     11  F3  UNL d   1      -1.772  -1.615  -1.739  0.00  0.00    -0.097 F 
ATOM     12  F4  UNL d   1      -3.821   0.179  -1.582  0.00  0.00    -0.092 F 
ENDROOT
TORSDOF 0
ENDMDL
