MODEL 1
REMARK minimizedAffinity 5.11614275
REMARK minimizedRMSD -1
REMARK  0 active torsions:
REMARK  status: ('A' for Active; 'I' for Inactive)
ROOT
ATOM      1  O1  BZF d   1      -1.360  -3.125   0.988  0.00  0.00    -0.204 OA
ATOM      2  C2  BZF d   1      -1.776  -1.938   1.561  0.00  0.00     0.174 A 
ATOM      3  C3  BZF d   1      -0.736  -1.093   1.719  0.00  0.00    -0.012 A 
ATOM      4  C3A BZF d   1       0.384  -1.760   1.128  0.00  0.00    -0.107 A 
ATOM      5  C4  BZF d   1       1.696  -1.421   0.960  0.00  0.00     0.055 A 
ATOM      6  C5  BZF d   1       2.546  -2.327   0.409  0.00  0.00    -0.016 A 
ATOM      7  C6  BZF d   1       2.120  -3.580   0.021  0.00  0.00     0.022 A 
ATOM      8  C7  BZF d   1       0.827  -3.960   0.164  0.00  0.00     0.029 A 
ATOM      9  C7A BZF d   1      -0.041  -3.035   0.690  0.00  0.00     0.058 A 
ENDROOT
TORSDOF 0
ENDMDL
