MODEL 1
REMARK minimizedAffinity 5.95698738
REMARK minimizedRMSD -1
REMARK  0 active torsions:
REMARK  status: ('A' for Active; 'I' for Inactive)
ROOT
ATOM      1  O1  BZF d   1       3.260  -1.969  -0.140  0.00  0.00    -0.204 OA
ATOM      2  C2  BZF d   1       3.740  -0.753   0.304  0.00  0.00     0.174 A 
ATOM      3  C3  BZF d   1       2.733   0.026   0.749  0.00  0.00    -0.012 A 
ATOM      4  C3A BZF d   1       1.560  -0.787   0.656  0.00  0.00    -0.107 A 
ATOM      5  C4  BZF d   1       0.246  -0.579   0.966  0.00  0.00     0.055 A 
ATOM      6  C5  BZF d   1      -0.661  -1.552   0.687  0.00  0.00    -0.016 A 
ATOM      7  C6  BZF d   1      -0.290  -2.742   0.095  0.00  0.00     0.022 A 
ATOM      8  C7  BZF d   1       1.002  -2.996  -0.225  0.00  0.00     0.029 A 
ATOM      9  C7A BZF d   1       1.925  -2.028   0.086  0.00  0.00     0.058 A 
ENDROOT
TORSDOF 0
ENDMDL
