MODEL 1
REMARK minimizedAffinity -0.944054782
REMARK minimizedRMSD -1
REMARK  0 active torsions:
REMARK  status: ('A' for Active; 'I' for Inactive)
ROOT
ATOM      1  O1  BZF d   1       2.105  -1.098   1.211  0.00  0.00    -0.204 OA
ATOM      2  C2  BZF d   1       1.301  -0.017   1.519  0.00  0.00     0.174 A 
ATOM      3  C3  BZF d   1       0.067  -0.175   0.998  0.00  0.00    -0.012 A 
ATOM      4  C3A BZF d   1       0.074  -1.476   0.401  0.00  0.00    -0.107 A 
ATOM      5  C4  BZF d   1      -0.867  -2.210  -0.262  0.00  0.00     0.055 A 
ATOM      6  C5  BZF d   1      -0.518  -3.415  -0.784  0.00  0.00    -0.016 A 
ATOM      7  C6  BZF d   1       0.762  -3.914  -0.666  0.00  0.00     0.022 A 
ATOM      8  C7  BZF d   1       1.729  -3.224  -0.013  0.00  0.00     0.029 A 
ATOM      9  C7A BZF d   1       1.371  -2.021   0.544  0.00  0.00     0.058 A 
ENDROOT
TORSDOF 0
ENDMDL
