MODEL 1
REMARK minimizedAffinity 5.12745857
REMARK minimizedRMSD -1
REMARK  0 active torsions:
REMARK  status: ('A' for Active; 'I' for Inactive)
ROOT
ATOM      1  O1  BZF d   1       0.620  -3.311  -0.579  0.00  0.00    -0.204 OA
ATOM      2  C2  BZF d   1       1.966  -3.621  -0.553  0.00  0.00     0.174 A 
ATOM      3  C3  BZF d   1       2.659  -2.686   0.129  0.00  0.00    -0.012 A 
ATOM      4  C3A BZF d   1       1.672  -1.781   0.635  0.00  0.00    -0.107 A 
ATOM      5  C4  BZF d   1       1.738  -0.654   1.403  0.00  0.00     0.055 A 
ATOM      6  C5  BZF d   1       0.597   0.039   1.659  0.00  0.00    -0.016 A 
ATOM      7  C6  BZF d   1      -0.624  -0.364   1.159  0.00  0.00     0.022 A 
ATOM      8  C7  BZF d   1      -0.740  -1.478   0.396  0.00  0.00     0.029 A 
ATOM      9  C7A BZF d   1       0.406  -2.198   0.163  0.00  0.00     0.058 A 
ENDROOT
TORSDOF 0
ENDMDL
