MODEL 1
REMARK minimizedAffinity 2.76365447
REMARK minimizedRMSD -1
REMARK  0 active torsions:
REMARK  status: ('A' for Active; 'I' for Inactive)
ROOT
ATOM      1  O1  BZF d   1      -1.494  -2.407   0.930  0.00  0.00    -0.204 OA
ATOM      2  C2  BZF d   1      -1.887  -1.214   1.504  0.00  0.00     0.174 A 
ATOM      3  C3  BZF d   1      -0.838  -0.376   1.632  0.00  0.00    -0.012 A 
ATOM      4  C3A BZF d   1       0.263  -1.056   1.021  0.00  0.00    -0.107 A 
ATOM      5  C4  BZF d   1       1.573  -0.728   0.821  0.00  0.00     0.055 A 
ATOM      6  C5  BZF d   1       2.404  -1.645   0.257  0.00  0.00    -0.016 A 
ATOM      7  C6  BZF d   1       1.960  -2.897  -0.112  0.00  0.00     0.022 A 
ATOM      8  C7  BZF d   1       0.667  -3.265   0.062  0.00  0.00     0.029 A 
ATOM      9  C7A BZF d   1      -0.182  -2.330   0.601  0.00  0.00     0.058 A 
ENDROOT
TORSDOF 0
ENDMDL
