MODEL 1
REMARK minimizedAffinity -2.10575199
REMARK minimizedRMSD -1
REMARK  0 active torsions:
REMARK  status: ('A' for Active; 'I' for Inactive)
ROOT
ATOM      1  O1  BZF d   1       2.877  -1.393  -0.059  0.00  0.00    -0.204 OA
ATOM      2  C2  BZF d   1       3.007  -2.613  -0.695  0.00  0.00     0.174 A 
ATOM      3  C3  BZF d   1       1.840  -3.289  -0.675  0.00  0.00    -0.012 A 
ATOM      4  C3A BZF d   1       0.900  -2.400  -0.065  0.00  0.00    -0.107 A 
ATOM      5  C4  BZF d   1      -0.432  -2.495   0.222  0.00  0.00     0.055 A 
ATOM      6  C5  BZF d   1      -1.038  -1.477   0.887  0.00  0.00    -0.016 A 
ATOM      7  C6  BZF d   1      -0.343  -0.354   1.286  0.00  0.00     0.022 A 
ATOM      8  C7  BZF d   1       0.979  -0.212   1.019  0.00  0.00     0.029 A 
ATOM      9  C7A BZF d   1       1.587  -1.225   0.318  0.00  0.00     0.058 A 
ENDROOT
TORSDOF 0
ENDMDL
