MODEL 1
REMARK minimizedAffinity -2.23934984
REMARK minimizedRMSD -1
REMARK  0 active torsions:
REMARK  status: ('A' for Active; 'I' for Inactive)
ROOT
ATOM      1  O1  BZF d   1       2.248  -2.870  -0.097  0.00  0.00    -0.204 OA
ATOM      2  C2  BZF d   1       3.057  -1.812   0.271  0.00  0.00     0.174 A 
ATOM      3  C3  BZF d   1       2.315  -0.751   0.650  0.00  0.00    -0.012 A 
ATOM      4  C3A BZF d   1       0.958  -1.203   0.597  0.00  0.00    -0.107 A 
ATOM      5  C4  BZF d   1      -0.240  -0.611   0.875  0.00  0.00     0.055 A 
ATOM      6  C5  BZF d   1      -1.387  -1.304   0.650  0.00  0.00    -0.016 A 
ATOM      7  C6  BZF d   1      -1.373  -2.587   0.144  0.00  0.00     0.022 A 
ATOM      8  C7  BZF d   1      -0.209  -3.218  -0.142  0.00  0.00     0.029 A 
ATOM      9  C7A BZF d   1       0.954  -2.533   0.115  0.00  0.00     0.058 A 
ENDROOT
TORSDOF 0
ENDMDL
