MODEL 1
REMARK minimizedAffinity 0.327223688
REMARK minimizedRMSD -1
REMARK  0 active torsions:
REMARK  status: ('A' for Active; 'I' for Inactive)
ROOT
ATOM      1  O1  BZF d   1       2.761  -1.217   0.693  0.00  0.00    -0.204 OA
ATOM      2  C2  BZF d   1       2.912  -0.282   1.699  0.00  0.00     0.174 A 
ATOM      3  C3  BZF d   1       1.717   0.228   2.062  0.00  0.00    -0.012 A 
ATOM      4  C3A BZF d   1       0.751  -0.496   1.295  0.00  0.00    -0.107 A 
ATOM      5  C4  BZF d   1      -0.613  -0.456   1.224  0.00  0.00     0.055 A 
ATOM      6  C5  BZF d   1      -1.250  -1.245   0.319  0.00  0.00    -0.016 A 
ATOM      7  C6  BZF d   1      -0.557  -2.080  -0.532  0.00  0.00     0.022 A 
ATOM      8  C7  BZF d   1       0.795  -2.158  -0.495  0.00  0.00     0.029 A 
ATOM      9  C7A BZF d   1       1.441  -1.387   0.440  0.00  0.00     0.058 A 
ENDROOT
TORSDOF 0
ENDMDL
