MODEL 1
REMARK minimizedAffinity 4.94334841
REMARK minimizedRMSD -1
REMARK  0 active torsions:
REMARK  status: ('A' for Active; 'I' for Inactive)
ROOT
ATOM      1  O1  BZF d   1      -2.079  -0.440   0.417  0.00  0.00    -0.204 OA
ATOM      2  C2  BZF d   1      -2.366   0.560   1.327  0.00  0.00     0.174 A 
ATOM      3  C3  BZF d   1      -1.274   0.873   2.054  0.00  0.00    -0.012 A 
ATOM      4  C3A BZF d   1      -0.217   0.080   1.506  0.00  0.00    -0.107 A 
ATOM      5  C4  BZF d   1       1.112  -0.042   1.795  0.00  0.00     0.055 A 
ATOM      6  C5  BZF d   1       1.853  -0.960   1.121  0.00  0.00    -0.016 A 
ATOM      7  C6  BZF d   1       1.298  -1.775   0.157  0.00  0.00     0.022 A 
ATOM      8  C7  BZF d   1      -0.015  -1.688  -0.168  0.00  0.00     0.029 A 
ATOM      9  C7A BZF d   1      -0.760  -0.739   0.488  0.00  0.00     0.058 A 
ENDROOT
TORSDOF 0
ENDMDL
