MODEL 1
REMARK minimizedAffinity 1.06660926
REMARK minimizedRMSD -1
REMARK  0 active torsions:
REMARK  status: ('A' for Active; 'I' for Inactive)
ROOT
ATOM      1  O1  BZF d   1       0.524  -3.735  -0.277  0.00  0.00    -0.204 OA
ATOM      2  C2  BZF d   1       1.780  -3.755  -0.853  0.00  0.00     0.174 A 
ATOM      3  C3  BZF d   1       2.426  -2.592  -0.633  0.00  0.00    -0.012 A 
ATOM      4  C3A BZF d   1       1.553  -1.830   0.206  0.00  0.00    -0.107 A 
ATOM      5  C4  BZF d   1       1.644  -0.593   0.778  0.00  0.00     0.055 A 
ATOM      6  C5  BZF d   1       0.585  -0.111   1.482  0.00  0.00    -0.016 A 
ATOM      7  C6  BZF d   1      -0.579  -0.836   1.629  0.00  0.00     0.022 A 
ATOM      8  C7  BZF d   1      -0.714  -2.070   1.084  0.00  0.00     0.029 A 
ATOM      9  C7A BZF d   1       0.366  -2.573   0.401  0.00  0.00     0.058 A 
ENDROOT
TORSDOF 0
ENDMDL
