MODEL 1
REMARK minimizedAffinity 3.9393754
REMARK minimizedRMSD -1
REMARK  0 active torsions:
REMARK  status: ('A' for Active; 'I' for Inactive)
ROOT
ATOM      1  O1  BZF d   1       3.070  -1.904   0.109  0.00  0.00    -0.204 OA
ATOM      2  C2  BZF d   1       3.135  -3.046  -0.665  0.00  0.00     0.174 A 
ATOM      3  C3  BZF d   1       1.942  -3.674  -0.693  0.00  0.00    -0.012 A 
ATOM      4  C3A BZF d   1       1.053  -2.825   0.039  0.00  0.00    -0.107 A 
ATOM      5  C4  BZF d   1      -0.275  -2.900   0.348  0.00  0.00     0.055 A 
ATOM      6  C5  BZF d   1      -0.824  -1.942   1.141  0.00  0.00    -0.016 A 
ATOM      7  C6  BZF d   1      -0.073  -0.901   1.647  0.00  0.00     0.022 A 
ATOM      8  C7  BZF d   1       1.247  -0.782   1.365  0.00  0.00     0.029 A 
ATOM      9  C7A BZF d   1       1.797  -1.730   0.536  0.00  0.00     0.058 A 
ENDROOT
TORSDOF 0
ENDMDL
