MODEL 1
REMARK minimizedAffinity 2.8315599
REMARK minimizedRMSD -1
REMARK  0 active torsions:
REMARK  status: ('A' for Active; 'I' for Inactive)
ROOT
ATOM      1  O1  BZF d   1       0.062  -1.877   3.060  0.00  0.00    -0.204 OA
ATOM      2  C2  BZF d   1       0.923  -0.980   3.663  0.00  0.00     0.174 A 
ATOM      3  C3  BZF d   1       1.758  -0.434   2.756  0.00  0.00    -0.012 A 
ATOM      4  C3A BZF d   1       1.336  -0.958   1.493  0.00  0.00    -0.107 A 
ATOM      5  C4  BZF d   1       1.766  -0.775   0.209  0.00  0.00     0.055 A 
ATOM      6  C5  BZF d   1       1.187  -1.492  -0.790  0.00  0.00    -0.016 A 
ATOM      7  C6  BZF d   1       0.180  -2.401  -0.541  0.00  0.00     0.022 A 
ATOM      8  C7  BZF d   1      -0.283  -2.613   0.715  0.00  0.00     0.029 A 
ATOM      9  C7A BZF d   1       0.277  -1.867   1.722  0.00  0.00     0.058 A 
ENDROOT
TORSDOF 0
ENDMDL
