MODEL 1
REMARK minimizedAffinity 5.53137779
REMARK minimizedRMSD -1
REMARK  0 active torsions:
REMARK  status: ('A' for Active; 'I' for Inactive)
ROOT
ATOM      1  O1  BZF d   1       0.687  -3.734  -0.102  0.00  0.00    -0.204 OA
ATOM      2  C2  BZF d   1       1.976  -3.675  -0.595  0.00  0.00     0.174 A 
ATOM      3  C3  BZF d   1       2.440  -2.409  -0.573  0.00  0.00    -0.012 A 
ATOM      4  C3A BZF d   1       1.407  -1.641   0.053  0.00  0.00    -0.107 A 
ATOM      5  C4  BZF d   1       1.284  -0.320   0.375  0.00  0.00     0.055 A 
ATOM      6  C5  BZF d   1       0.117   0.123   0.914  0.00  0.00    -0.016 A 
ATOM      7  C6  BZF d   1      -0.947  -0.726   1.138  0.00  0.00     0.022 A 
ATOM      8  C7  BZF d   1      -0.870  -2.045   0.839  0.00  0.00     0.029 A 
ATOM      9  C7A BZF d   1       0.319  -2.502   0.326  0.00  0.00     0.058 A 
ENDROOT
TORSDOF 0
ENDMDL
