MODEL 1
REMARK minimizedAffinity 2.54435539
REMARK minimizedRMSD -1
REMARK  0 active torsions:
REMARK  status: ('A' for Active; 'I' for Inactive)
ROOT
ATOM      1  O1  BZF d   1      -5.939  -6.000   4.351  0.00  0.00    -0.204 OA
ATOM      2  C2  BZF d   1      -5.786  -5.836   5.714  0.00  0.00     0.174 A 
ATOM      3  C3  BZF d   1      -5.335  -4.597   5.999  0.00  0.00    -0.012 A 
ATOM      4  C3A BZF d   1      -5.287  -3.916   4.742  0.00  0.00    -0.107 A 
ATOM      5  C4  BZF d   1      -4.935  -2.649   4.374  0.00  0.00     0.055 A 
ATOM      6  C5  BZF d   1      -4.928  -2.322   3.055  0.00  0.00    -0.016 A 
ATOM      7  C6  BZF d   1      -5.261  -3.237   2.079  0.00  0.00     0.022 A 
ATOM      8  C7  BZF d   1      -5.622  -4.505   2.395  0.00  0.00     0.029 A 
ATOM      9  C7A BZF d   1      -5.662  -4.828   3.729  0.00  0.00     0.058 A 
ENDROOT
TORSDOF 0
ENDMDL
