MODEL 1
REMARK minimizedAffinity 3.60526109
REMARK minimizedRMSD -1
REMARK  0 active torsions:
REMARK  status: ('A' for Active; 'I' for Inactive)
ROOT
ATOM      1  O1  BZF d   1       0.366  -3.628  -0.549  0.00  0.00    -0.204 OA
ATOM      2  C2  BZF d   1       1.708  -3.955  -0.568  0.00  0.00     0.174 A 
ATOM      3  C3  BZF d   1       2.454  -2.942  -0.083  0.00  0.00    -0.012 A 
ATOM      4  C3A BZF d   1       1.513  -1.954   0.347  0.00  0.00    -0.107 A 
ATOM      5  C4  BZF d   1       1.642  -0.726   0.931  0.00  0.00     0.055 A 
ATOM      6  C5  BZF d   1       0.527   0.018   1.156  0.00  0.00    -0.016 A 
ATOM      7  C6  BZF d   1      -0.729  -0.431   0.806  0.00  0.00     0.022 A 
ATOM      8  C7  BZF d   1      -0.907  -1.644   0.229  0.00  0.00     0.029 A 
ATOM      9  C7A BZF d   1       0.214  -2.413   0.030  0.00  0.00     0.058 A 
ENDROOT
TORSDOF 0
ENDMDL
