MODEL 1
REMARK minimizedAffinity -4.21671581
REMARK minimizedRMSD -1
REMARK  0 active torsions:
REMARK  status: ('A' for Active; 'I' for Inactive)
ROOT
ATOM      1  C4' PXY d   1       0.361   0.367  -3.178  0.00  0.00     0.077 C 
ATOM      2  C1' PXY d   1      -1.646  -1.387   1.952  0.00  0.00     0.077 C 
ATOM      3  C1  PXY d   1      -1.130  -0.932   0.601  0.00  0.00    -0.082 A 
ATOM      4  C2  PXY d   1       0.164  -0.711   0.436  0.00  0.00     0.003 A 
ATOM      5  C3  PXY d   1       0.643  -0.269  -0.770  0.00  0.00     0.003 A 
ATOM      6  C4  PXY d   1      -0.203  -0.102  -1.834  0.00  0.00    -0.082 A 
ATOM      7  C5  PXY d   1      -1.523  -0.336  -1.676  0.00  0.00     0.003 A 
ATOM      8  C6  PXY d   1      -1.996  -0.745  -0.432  0.00  0.00     0.003 A 
ENDROOT
TORSDOF 0
ENDMDL
