MODEL 1
REMARK minimizedAffinity -5.48281145
REMARK minimizedRMSD -1
REMARK  0 active torsions:
REMARK  status: ('A' for Active; 'I' for Inactive)
ROOT
ATOM      1  C4' PXY d   1      -0.541  -2.304   2.003  0.00  0.00     0.077 C 
ATOM      2  C1' PXY d   1      -1.472   1.066  -2.601  0.00  0.00     0.077 C 
ATOM      3  C1  PXY d   1      -1.216   0.179  -1.398  0.00  0.00    -0.082 A 
ATOM      4  C2  PXY d   1      -2.237  -0.373  -0.763  0.00  0.00     0.003 A 
ATOM      5  C3  PXY d   1      -2.025  -1.151   0.346  0.00  0.00     0.003 A 
ATOM      6  C4  PXY d   1      -0.752  -1.410   0.778  0.00  0.00    -0.082 A 
ATOM      7  C5  PXY d   1       0.296  -0.859   0.129  0.00  0.00     0.003 A 
ATOM      8  C6  PXY d   1       0.057  -0.038  -0.970  0.00  0.00     0.003 A 
ENDROOT
TORSDOF 0
ENDMDL
