MODEL 1
REMARK minimizedAffinity -4.27336168
REMARK minimizedRMSD -1
REMARK  0 active torsions:
REMARK  status: ('A' for Active; 'I' for Inactive)
ROOT
ATOM      1  C4' PXY d   1      -3.587  -0.690   0.086  0.00  0.00     0.077 C 
ATOM      2  C1' PXY d   1       2.150  -0.513  -0.598  0.00  0.00     0.077 C 
ATOM      3  C1  PXY d   1       0.644  -0.551  -0.428  0.00  0.00    -0.082 A 
ATOM      4  C2  PXY d   1       0.126  -0.904   0.737  0.00  0.00     0.003 A 
ATOM      5  C3  PXY d   1      -1.234  -0.975   0.898  0.00  0.00     0.003 A 
ATOM      6  C4  PXY d   1      -2.072  -0.628  -0.128  0.00  0.00    -0.082 A 
ATOM      7  C5  PXY d   1      -1.551  -0.256  -1.316  0.00  0.00     0.003 A 
ATOM      8  C6  PXY d   1      -0.168  -0.231  -1.472  0.00  0.00     0.003 A 
ENDROOT
TORSDOF 0
ENDMDL
