MODEL 1
REMARK minimizedAffinity -2.57103229
REMARK minimizedRMSD -1
REMARK  0 active torsions:
REMARK  status: ('A' for Active; 'I' for Inactive)
ROOT
ATOM      1  C4' PXY d   1       1.890   0.371  -0.089  0.00  0.00     0.077 C 
ATOM      2  C1' PXY d   1      -3.725  -1.005  -0.056  0.00  0.00     0.077 C 
ATOM      3  C1  PXY d   1      -2.252  -0.646  -0.078  0.00  0.00    -0.082 A 
ATOM      4  C2  PXY d   1      -1.521  -0.817   1.012  0.00  0.00     0.003 A 
ATOM      5  C3  PXY d   1      -0.195  -0.467   1.019  0.00  0.00     0.003 A 
ATOM      6  C4  PXY d   1       0.401   0.013  -0.116  0.00  0.00    -0.082 A 
ATOM      7  C5  PXY d   1      -0.335   0.180  -1.235  0.00  0.00     0.003 A 
ATOM      8  C6  PXY d   1      -1.689  -0.142  -1.209  0.00  0.00     0.003 A 
ENDROOT
TORSDOF 0
ENDMDL
