MODEL 1
REMARK minimizedAffinity -3.12649083
REMARK minimizedRMSD -1
REMARK  0 active torsions:
REMARK  status: ('A' for Active; 'I' for Inactive)
ROOT
ATOM      1  C4' PXY d   1       5.935   3.714  -3.245  0.00  0.00     0.077 C 
ATOM      2  C1' PXY d   1       2.155   2.623   0.990  0.00  0.00     0.077 C 
ATOM      3  C1  PXY d   1       3.138   2.917  -0.126  0.00  0.00    -0.082 A 
ATOM      4  C2  PXY d   1       4.092   2.044  -0.404  0.00  0.00     0.003 A 
ATOM      5  C3  PXY d   1       5.009   2.309  -1.389  0.00  0.00     0.003 A 
ATOM      6  C4  PXY d   1       4.915   3.454  -2.133  0.00  0.00    -0.082 A 
ATOM      7  C5  PXY d   1       3.938   4.345  -1.863  0.00  0.00     0.003 A 
ATOM      8  C6  PXY d   1       3.042   4.077  -0.831  0.00  0.00     0.003 A 
ENDROOT
TORSDOF 0
ENDMDL
