MODEL 1
REMARK minimizedAffinity -5.62461185
REMARK minimizedRMSD -1
REMARK  0 active torsions:
REMARK  status: ('A' for Active; 'I' for Inactive)
ROOT
ATOM      1  C4' PXY d   1      -3.514  -0.392  -0.019  0.00  0.00     0.077 C 
ATOM      2  C1' PXY d   1       2.190  -1.162   0.512  0.00  0.00     0.077 C 
ATOM      3  C1  PXY d   1       0.692  -0.973   0.376  0.00  0.00    -0.082 A 
ATOM      4  C2  PXY d   1       0.223  -0.010  -0.401  0.00  0.00     0.003 A 
ATOM      5  C3  PXY d   1      -1.129   0.195  -0.510  0.00  0.00     0.003 A 
ATOM      6  C4  PXY d   1      -2.009  -0.626   0.141  0.00  0.00    -0.082 A 
ATOM      7  C5  PXY d   1      -1.538  -1.617   0.927  0.00  0.00     0.003 A 
ATOM      8  C6  PXY d   1      -0.162  -1.784   1.057  0.00  0.00     0.003 A 
ENDROOT
TORSDOF 0
ENDMDL
