MODEL 1
REMARK minimizedAffinity -4.10966635
REMARK minimizedRMSD -1
REMARK  0 active torsions:
REMARK  status: ('A' for Active; 'I' for Inactive)
ROOT
ATOM      1  C4' PXY d   1       2.367   1.214   0.529  0.00  0.00     0.077 C 
ATOM      2  C1' PXY d   1      -2.811  -0.658  -1.231  0.00  0.00     0.077 C 
ATOM      3  C1  PXY d   1      -1.449  -0.166  -0.782  0.00  0.00    -0.082 A 
ATOM      4  C2  PXY d   1      -1.000  -0.492   0.419  0.00  0.00     0.003 A 
ATOM      5  C3  PXY d   1       0.216  -0.029   0.853  0.00  0.00     0.003 A 
ATOM      6  C4  PXY d   1       1.002   0.731   0.030  0.00  0.00    -0.082 A 
ATOM      7  C5  PXY d   1       0.555   1.059  -1.201  0.00  0.00     0.003 A 
ATOM      8  C6  PXY d   1      -0.699   0.613  -1.607  0.00  0.00     0.003 A 
ENDROOT
TORSDOF 0
ENDMDL
