MODEL 1
REMARK minimizedAffinity -3.87913871
REMARK minimizedRMSD -1
REMARK  0 active torsions:
REMARK  status: ('A' for Active; 'I' for Inactive)
ROOT
ATOM      1  C4' PXY d   1      -3.378  -0.773  -0.610  0.00  0.00     0.077 C 
ATOM      2  C1' PXY d   1       2.169   0.632   0.207  0.00  0.00     0.077 C 
ATOM      3  C1  PXY d   1       0.713   0.273  -0.016  0.00  0.00    -0.082 A 
ATOM      4  C2  PXY d   1       0.036  -0.339   0.942  0.00  0.00     0.003 A 
ATOM      5  C3  PXY d   1      -1.272  -0.699   0.745  0.00  0.00     0.003 A 
ATOM      6  C4  PXY d   1      -1.909  -0.383  -0.425  0.00  0.00    -0.082 A 
ATOM      7  C5  PXY d   1      -1.228   0.251  -1.403  0.00  0.00     0.003 A 
ATOM      8  C6  PXY d   1       0.111   0.571  -1.199  0.00  0.00     0.003 A 
ENDROOT
TORSDOF 0
ENDMDL
