MODEL 1
REMARK minimizedAffinity -3.93448162
REMARK minimizedRMSD -1
REMARK  0 active torsions:
REMARK  status: ('A' for Active; 'I' for Inactive)
ROOT
ATOM      1  C4' PXY d   1       4.818   3.513  -3.705  0.00  0.00     0.077 C 
ATOM      2  C1' PXY d   1       2.835   2.916   1.692  0.00  0.00     0.077 C 
ATOM      3  C1  PXY d   1       3.349   3.084   0.276  0.00  0.00    -0.082 A 
ATOM      4  C2  PXY d   1       3.654   2.014  -0.441  0.00  0.00     0.003 A 
ATOM      5  C3  PXY d   1       4.151   2.149  -1.712  0.00  0.00     0.003 A 
ATOM      6  C4  PXY d   1       4.286   3.390  -2.274  0.00  0.00    -0.082 A 
ATOM      7  C5  PXY d   1       3.967   4.486  -1.553  0.00  0.00     0.003 A 
ATOM      8  C6  PXY d   1       3.504   4.329  -0.250  0.00  0.00     0.003 A 
ENDROOT
TORSDOF 0
ENDMDL
