MODEL 1
REMARK minimizedAffinity -0.248104587
REMARK minimizedRMSD -1
REMARK  0 active torsions:
REMARK  status: ('A' for Active; 'I' for Inactive)
ROOT
ATOM      1  C4' PXY d   1      -0.733  -1.131   0.898  0.00  0.00     0.077 C 
ATOM      2  C1' PXY d   1       2.985   3.278   0.504  0.00  0.00     0.077 C 
ATOM      3  C1  PXY d   1       2.007   2.123   0.595  0.00  0.00    -0.082 A 
ATOM      4  C2  PXY d   1       1.481   1.802   1.766  0.00  0.00     0.003 A 
ATOM      5  C3  PXY d   1       0.619   0.740   1.871  0.00  0.00     0.003 A 
ATOM      6  C4  PXY d   1       0.251   0.033   0.758  0.00  0.00    -0.082 A 
ATOM      7  C5  PXY d   1       0.775   0.362  -0.442  0.00  0.00     0.003 A 
ATOM      8  C6  PXY d   1       1.680   1.417  -0.521  0.00  0.00     0.003 A 
ENDROOT
TORSDOF 0
ENDMDL
