MODEL 1
REMARK minimizedAffinity -3.02809215
REMARK minimizedRMSD -1
REMARK  0 active torsions:
REMARK  status: ('A' for Active; 'I' for Inactive)
ROOT
ATOM      1  C4' PXY d   1       3.151   2.213   0.740  0.00  0.00     0.077 C 
ATOM      2  C1' PXY d   1      -1.376  -0.979  -0.912  0.00  0.00     0.077 C 
ATOM      3  C1  PXY d   1      -0.184  -0.152  -0.471  0.00  0.00    -0.082 A 
ATOM      4  C2  PXY d   1      -0.249   1.169  -0.524  0.00  0.00     0.003 A 
ATOM      5  C3  PXY d   1       0.830   1.932  -0.159  0.00  0.00     0.003 A 
ATOM      6  C4  PXY d   1       1.969   1.338   0.314  0.00  0.00    -0.082 A 
ATOM      7  C5  PXY d   1       2.040  -0.008   0.381  0.00  0.00     0.003 A 
ATOM      8  C6  PXY d   1       0.948  -0.766  -0.033  0.00  0.00     0.003 A 
ENDROOT
TORSDOF 0
ENDMDL
