MODEL 1
REMARK minimizedAffinity -3.93840146
REMARK minimizedRMSD -1
REMARK  0 active torsions:
REMARK  status: ('A' for Active; 'I' for Inactive)
ROOT
ATOM      1  C4' PXY d   1       2.680   1.337   0.073  0.00  0.00     0.077 C 
ATOM      2  C1' PXY d   1      -2.621  -0.813  -0.763  0.00  0.00     0.077 C 
ATOM      3  C1  PXY d   1      -1.231  -0.254  -0.532  0.00  0.00    -0.082 A 
ATOM      4  C2  PXY d   1      -0.806   0.766  -1.260  0.00  0.00     0.003 A 
ATOM      5  C3  PXY d   1       0.459   1.263  -1.086  0.00  0.00     0.003 A 
ATOM      6  C4  PXY d   1       1.280   0.746  -0.120  0.00  0.00    -0.082 A 
ATOM      7  C5  PXY d   1       0.851  -0.288   0.634  0.00  0.00     0.003 A 
ATOM      8  C6  PXY d   1      -0.422  -0.805   0.414  0.00  0.00     0.003 A 
ENDROOT
TORSDOF 0
ENDMDL
