MODEL 1
REMARK minimizedAffinity -1.99893343
REMARK minimizedRMSD -1
REMARK  0 active torsions:
REMARK  status: ('A' for Active; 'I' for Inactive)
ROOT
ATOM      1  C4' PXY d   1       2.560   1.321   0.057  0.00  0.00     0.077 C 
ATOM      2  C1' PXY d   1      -2.574  -1.210  -0.752  0.00  0.00     0.077 C 
ATOM      3  C1  PXY d   1      -1.225  -0.548  -0.553  0.00  0.00    -0.082 A 
ATOM      4  C2  PXY d   1      -0.672  -0.539   0.649  0.00  0.00     0.003 A 
ATOM      5  C3  PXY d   1       0.533   0.083   0.854  0.00  0.00     0.003 A 
ATOM      6  C4  PXY d   1       1.204   0.656  -0.193  0.00  0.00    -0.082 A 
ATOM      7  C5  PXY d   1       0.652   0.641  -1.425  0.00  0.00     0.003 A 
ATOM      8  C6  PXY d   1      -0.591   0.040  -1.604  0.00  0.00     0.003 A 
ENDROOT
TORSDOF 0
ENDMDL
