MODEL 1
REMARK minimizedAffinity -4.34570599
REMARK minimizedRMSD -1
REMARK  0 active torsions:
REMARK  status: ('A' for Active; 'I' for Inactive)
ROOT
ATOM      1  C4' PXY d   1      -3.654  -0.966   0.043  0.00  0.00     0.077 C 
ATOM      2  C1' PXY d   1       1.782   0.860  -0.686  0.00  0.00     0.077 C 
ATOM      3  C1  PXY d   1       0.361   0.373  -0.486  0.00  0.00    -0.082 A 
ATOM      4  C2  PXY d   1      -0.514   0.486  -1.471  0.00  0.00     0.003 A 
ATOM      5  C3  PXY d   1      -1.812   0.080  -1.296  0.00  0.00     0.003 A 
ATOM      6  C4  PXY d   1      -2.205  -0.496  -0.118  0.00  0.00    -0.082 A 
ATOM      7  C5  PXY d   1      -1.315  -0.625   0.889  0.00  0.00     0.003 A 
ATOM      8  C6  PXY d   1      -0.013  -0.169   0.705  0.00  0.00     0.003 A 
ENDROOT
TORSDOF 0
ENDMDL
