MODEL 1
REMARK minimizedAffinity -2.77331829
REMARK minimizedRMSD -1
REMARK  0 active torsions:
REMARK  status: ('A' for Active; 'I' for Inactive)
ROOT
ATOM      1  C4' PXY d   1      -3.236  -0.745  -0.285  0.00  0.00     0.077 C 
ATOM      2  C1' PXY d   1       2.325   0.830  -0.310  0.00  0.00     0.077 C 
ATOM      3  C1  PXY d   1       0.865   0.424  -0.314  0.00  0.00    -0.082 A 
ATOM      4  C2  PXY d   1       0.308  -0.025   0.799  0.00  0.00     0.003 A 
ATOM      5  C3  PXY d   1      -1.003  -0.426   0.806  0.00  0.00     0.003 A 
ATOM      6  C4  PXY d   1      -1.767  -0.316  -0.325  0.00  0.00    -0.082 A 
ATOM      7  C5  PXY d   1      -1.209   0.152  -1.462  0.00  0.00     0.003 A 
ATOM      8  C6  PXY d   1       0.134   0.515  -1.458  0.00  0.00     0.003 A 
ENDROOT
TORSDOF 0
ENDMDL
