MODEL 1
REMARK minimizedAffinity -4.30616856
REMARK minimizedRMSD -1
REMARK  0 active torsions:
REMARK  status: ('A' for Active; 'I' for Inactive)
ROOT
ATOM      1  C4' PXY d   1       2.021   0.257   0.375  0.00  0.00     0.077 C 
ATOM      2  C1' PXY d   1      -3.641  -0.817  -0.081  0.00  0.00     0.077 C 
ATOM      3  C1  PXY d   1      -2.155  -0.535   0.026  0.00  0.00    -0.082 A 
ATOM      4  C2  PXY d   1      -1.497  -0.899   1.114  0.00  0.00     0.003 A 
ATOM      5  C3  PXY d   1      -0.160  -0.623   1.241  0.00  0.00     0.003 A 
ATOM      6  C4  PXY d   1       0.522  -0.016   0.220  0.00  0.00    -0.082 A 
ATOM      7  C5  PXY d   1      -0.140   0.349  -0.898  0.00  0.00     0.003 A 
ATOM      8  C6  PXY d   1      -1.506   0.097  -0.989  0.00  0.00     0.003 A 
ENDROOT
TORSDOF 0
ENDMDL
