MODEL 1
REMARK minimizedAffinity -4.0274806
REMARK minimizedRMSD -1
REMARK  0 active torsions:
REMARK  status: ('A' for Active; 'I' for Inactive)
ROOT
ATOM      1  C4' PXY d   1       2.088   0.828   0.358  0.00  0.00     0.077 C 
ATOM      2  C1' PXY d   1      -3.331  -0.941  -0.599  0.00  0.00     0.077 C 
ATOM      3  C1  PXY d   1      -1.907  -0.477  -0.361  0.00  0.00    -0.082 A 
ATOM      4  C2  PXY d   1      -1.329  -0.715   0.805  0.00  0.00     0.003 A 
ATOM      5  C3  PXY d   1      -0.053  -0.274   1.049  0.00  0.00     0.003 A 
ATOM      6  C4  PXY d   1       0.656   0.370   0.070  0.00  0.00    -0.082 A 
ATOM      7  C5  PXY d   1       0.076   0.607  -1.125  0.00  0.00     0.003 A 
ATOM      8  C6  PXY d   1      -1.234   0.188  -1.339  0.00  0.00     0.003 A 
ENDROOT
TORSDOF 0
ENDMDL
