MODEL 1
REMARK minimizedAffinity -2.97611046
REMARK minimizedRMSD -1
REMARK  0 active torsions:
REMARK  status: ('A' for Active; 'I' for Inactive)
ROOT
ATOM      1  C4' PXY d   1      -0.675  -0.778   0.861  0.00  0.00     0.077 C 
ATOM      2  C1' PXY d   1       3.450   3.271   0.864  0.00  0.00     0.077 C 
ATOM      3  C1  PXY d   1       2.366   2.211   0.850  0.00  0.00    -0.082 A 
ATOM      4  C2  PXY d   1       1.739   1.903   1.974  0.00  0.00     0.003 A 
ATOM      5  C3  PXY d   1       0.779   0.924   1.986  0.00  0.00     0.003 A 
ATOM      6  C4  PXY d   1       0.419   0.292   0.826  0.00  0.00    -0.082 A 
ATOM      7  C5  PXY d   1       1.048   0.608  -0.327  0.00  0.00     0.003 A 
ATOM      8  C6  PXY d   1       2.048   1.576  -0.310  0.00  0.00     0.003 A 
ENDROOT
TORSDOF 0
ENDMDL
