MODEL 1
REMARK minimizedAffinity -4.70108175
REMARK minimizedRMSD -1
REMARK  0 active torsions:
REMARK  status: ('A' for Active; 'I' for Inactive)
ROOT
ATOM      1  C4' PXY d   1       2.465   0.900   0.510  0.00  0.00     0.077 C 
ATOM      2  C1' PXY d   1      -2.843  -0.840  -0.977  0.00  0.00     0.077 C 
ATOM      3  C1  PXY d   1      -1.454  -0.386  -0.575  0.00  0.00    -0.082 A 
ATOM      4  C2  PXY d   1      -0.775   0.425  -1.370  0.00  0.00     0.003 A 
ATOM      5  C3  PXY d   1       0.495   0.820  -1.037  0.00  0.00     0.003 A 
ATOM      6  C4  PXY d   1       1.055   0.423   0.148  0.00  0.00    -0.082 A 
ATOM      7  C5  PXY d   1       0.365  -0.395   0.970  0.00  0.00     0.003 A 
ATOM      8  C6  PXY d   1      -0.907  -0.817   0.594  0.00  0.00     0.003 A 
ENDROOT
TORSDOF 0
ENDMDL
