MODEL 1
REMARK minimizedAffinity -2.34398603
REMARK minimizedRMSD -1
REMARK  0 active torsions:
REMARK  status: ('A' for Active; 'I' for Inactive)
ROOT
ATOM      1  C4' PXY d   1       1.664   0.361  -0.695  0.00  0.00     0.077 C 
ATOM      2  C1' PXY d   1      -3.938  -0.893  -0.017  0.00  0.00     0.077 C 
ATOM      3  C1  PXY d   1      -2.468  -0.560  -0.182  0.00  0.00    -0.082 A 
ATOM      4  C2  PXY d   1      -1.991  -0.283  -1.385  0.00  0.00     0.003 A 
ATOM      5  C3  PXY d   1      -0.658  -0.011  -1.557  0.00  0.00     0.003 A 
ATOM      6  C4  PXY d   1       0.185   0.029  -0.480  0.00  0.00    -0.082 A 
ATOM      7  C5  PXY d   1      -0.296  -0.242   0.752  0.00  0.00     0.003 A 
ATOM      8  C6  PXY d   1      -1.644  -0.556   0.900  0.00  0.00     0.003 A 
ENDROOT
TORSDOF 0
ENDMDL
