MODEL 1
REMARK minimizedAffinity -2.81540084
REMARK minimizedRMSD -1
REMARK  0 active torsions:
REMARK  status: ('A' for Active; 'I' for Inactive)
ROOT
ATOM      1  C   UNL d   1       5.711  -1.651  -0.928  0.00  0.00     0.172 C 
ATOM      2  N   UNL d   1       4.370  -1.283  -1.318  0.00  0.00    -0.070 N 
ATOM      3  C1  UNL d   1       3.219  -1.892  -0.894  0.00  0.00    -0.004 A 
ATOM      4  C2  UNL d   1       2.157  -1.248  -1.491  0.00  0.00    -0.047 A 
ATOM      5  C3  UNL d   1       2.687  -0.217  -2.302  0.00  0.00    -0.047 A 
ATOM      6  C4  UNL d   1       4.060  -0.261  -2.177  0.00  0.00    -0.004 A 
ENDROOT
TORSDOF 0
ENDMDL
