MODEL 1
REMARK minimizedAffinity 0.57438308
REMARK minimizedRMSD -1
REMARK  0 active torsions:
REMARK  status: ('A' for Active; 'I' for Inactive)
ROOT
ATOM      1  C   UNL d   1      -5.913   4.851  -5.995  0.00  0.00     0.172 C 
ATOM      2  N   UNL d   1      -4.534   4.421  -5.996  0.00  0.00    -0.070 N 
ATOM      3  C1  UNL d   1      -3.441   5.245  -5.999  0.00  0.00    -0.004 A 
ATOM      4  C2  UNL d   1      -2.314   4.451  -5.999  0.00  0.00    -0.047 A 
ATOM      5  C3  UNL d   1      -2.746   3.103  -5.996  0.00  0.00    -0.047 A 
ATOM      6  C4  UNL d   1      -4.124   3.113  -5.995  0.00  0.00    -0.004 A 
ENDROOT
TORSDOF 0
ENDMDL
