MODEL 1
REMARK minimizedAffinity 3.01981473
REMARK minimizedRMSD -1
REMARK  0 active torsions:
REMARK  status: ('A' for Active; 'I' for Inactive)
ROOT
ATOM      1  C   UNL d   1       1.451   3.831   0.249  0.00  0.00     0.172 C 
ATOM      2  N   UNL d   1       1.822   2.625  -0.452  0.00  0.00    -0.070 N 
ATOM      3  C1  UNL d   1       1.761   2.438  -1.807  0.00  0.00    -0.004 A 
ATOM      4  C2  UNL d   1       2.200   1.159  -2.077  0.00  0.00    -0.047 A 
ATOM      5  C3  UNL d   1       2.536   0.557  -0.842  0.00  0.00    -0.047 A 
ATOM      6  C4  UNL d   1       2.292   1.486   0.148  0.00  0.00    -0.004 A 
ENDROOT
TORSDOF 0
ENDMDL
