MODEL 1
REMARK minimizedAffinity 11.8763666
REMARK minimizedRMSD -1
REMARK  0 active torsions:
REMARK  status: ('A' for Active; 'I' for Inactive)
ROOT
ATOM      1  C   UNL d   1      -4.974   3.868   4.743  0.00  0.00     0.172 C 
ATOM      2  N   UNL d   1      -4.212   2.794   4.150  0.00  0.00    -0.070 N 
ATOM      3  C1  UNL d   1      -2.847   2.742   4.055  0.00  0.00    -0.004 A 
ATOM      4  C2  UNL d   1      -2.512   1.561   3.428  0.00  0.00    -0.047 A 
ATOM      5  C3  UNL d   1      -3.718   0.880   3.137  0.00  0.00    -0.047 A 
ATOM      6  C4  UNL d   1      -4.754   1.666   3.594  0.00  0.00    -0.004 A 
ENDROOT
TORSDOF 0
ENDMDL
