MODEL 1
REMARK minimizedAffinity 6.7311039
REMARK minimizedRMSD -1
REMARK  0 active torsions:
REMARK  status: ('A' for Active; 'I' for Inactive)
ROOT
ATOM      1  C   UNL d   1      -4.773  -1.125   4.121  0.00  0.00     0.172 C 
ATOM      2  N   UNL d   1      -4.129   0.108   4.508  0.00  0.00    -0.070 N 
ATOM      3  C1  UNL d   1      -3.841   1.155   3.673  0.00  0.00    -0.004 A 
ATOM      4  C2  UNL d   1      -3.231   2.137   4.423  0.00  0.00    -0.047 A 
ATOM      5  C3  UNL d   1      -3.148   1.664   5.754  0.00  0.00    -0.047 A 
ATOM      6  C4  UNL d   1      -3.711   0.406   5.778  0.00  0.00    -0.004 A 
ENDROOT
TORSDOF 0
ENDMDL
