MODEL 1
REMARK minimizedAffinity 9.32258129
REMARK minimizedRMSD -1
REMARK  0 active torsions:
REMARK  status: ('A' for Active; 'I' for Inactive)
ROOT
ATOM      1  C   UNL d   1       0.428  -2.096  -1.098  0.00  0.00     0.172 C 
ATOM      2  N   UNL d   1      -0.063  -3.052  -2.063  0.00  0.00    -0.070 N 
ATOM      3  C1  UNL d   1       0.118  -2.983  -3.418  0.00  0.00    -0.004 A 
ATOM      4  C2  UNL d   1      -0.500  -4.078  -3.983  0.00  0.00    -0.047 A 
ATOM      5  C3  UNL d   1      -1.073  -4.830  -2.931  0.00  0.00    -0.047 A 
ATOM      6  C4  UNL d   1      -0.787  -4.173  -1.753  0.00  0.00    -0.004 A 
ENDROOT
TORSDOF 0
ENDMDL
