MODEL 1
REMARK minimizedAffinity 1.71119714
REMARK minimizedRMSD -1
REMARK  0 active torsions:
REMARK  status: ('A' for Active; 'I' for Inactive)
ROOT
ATOM      1  C   UNL d   1      -1.110  -3.344  -1.929  0.00  0.00     0.172 C 
ATOM      2  N   UNL d   1      -0.787  -2.831  -0.619  0.00  0.00    -0.070 N 
ATOM      3  C1  UNL d   1      -0.036  -1.715  -0.361  0.00  0.00    -0.004 A 
ATOM      4  C2  UNL d   1       0.039  -1.564   1.007  0.00  0.00    -0.047 A 
ATOM      5  C3  UNL d   1      -0.690  -2.627   1.591  0.00  0.00    -0.047 A 
ATOM      6  C4  UNL d   1      -1.191  -3.396   0.562  0.00  0.00    -0.004 A 
ENDROOT
TORSDOF 0
ENDMDL
