MODEL 1
REMARK minimizedAffinity 9.80705929
REMARK minimizedRMSD -1
REMARK  0 active torsions:
REMARK  status: ('A' for Active; 'I' for Inactive)
ROOT
ATOM      1  C   UNL d   1       3.980   0.531  -0.148  0.00  0.00     0.172 C 
ATOM      2  N   UNL d   1       2.946   0.526  -1.156  0.00  0.00    -0.070 N 
ATOM      3  C1  UNL d   1       2.420  -0.587  -1.755  0.00  0.00    -0.004 A 
ATOM      4  C2  UNL d   1       1.462  -0.171  -2.654  0.00  0.00    -0.047 A 
ATOM      5  C3  UNL d   1       1.411   1.242  -2.594  0.00  0.00    -0.047 A 
ATOM      6  C4  UNL d   1       2.340   1.647  -1.659  0.00  0.00    -0.004 A 
ENDROOT
TORSDOF 0
ENDMDL
