MODEL 1
REMARK minimizedAffinity 5.43975592
REMARK minimizedRMSD -1
REMARK  0 active torsions:
REMARK  status: ('A' for Active; 'I' for Inactive)
ROOT
ATOM      1  C   UNL d   1       2.068   1.486   2.647  0.00  0.00     0.172 C 
ATOM      2  N   UNL d   1       1.355   1.726   3.879  0.00  0.00    -0.070 N 
ATOM      3  C1  UNL d   1       1.592   1.100   5.074  0.00  0.00    -0.004 A 
ATOM      4  C2  UNL d   1       0.705   1.606   5.999  0.00  0.00    -0.047 A 
ATOM      5  C3  UNL d   1      -0.094   2.568   5.337  0.00  0.00    -0.047 A 
ATOM      6  C4  UNL d   1       0.330   2.622   4.026  0.00  0.00    -0.004 A 
ENDROOT
TORSDOF 0
ENDMDL
