MODEL 1
REMARK minimizedAffinity 5.19264698
REMARK minimizedRMSD -1
REMARK  0 active torsions:
REMARK  status: ('A' for Active; 'I' for Inactive)
ROOT
ATOM      1  C   UNL d   1      -1.853  -3.281  -2.250  0.00  0.00     0.172 C 
ATOM      2  N   UNL d   1      -1.208  -2.732  -1.080  0.00  0.00    -0.070 N 
ATOM      3  C1  UNL d   1      -1.447  -3.111   0.214  0.00  0.00    -0.004 A 
ATOM      4  C2  UNL d   1      -0.636  -2.355   1.032  0.00  0.00    -0.047 A 
ATOM      5  C3  UNL d   1       0.115  -1.490   0.200  0.00  0.00    -0.047 A 
ATOM      6  C4  UNL d   1      -0.259  -1.745  -1.102  0.00  0.00    -0.004 A 
ENDROOT
TORSDOF 0
ENDMDL
