MODEL 1
REMARK minimizedAffinity 13.1496477
REMARK minimizedRMSD -1
REMARK  0 active torsions:
REMARK  status: ('A' for Active; 'I' for Inactive)
ROOT
ATOM      1  C   UNL d   1       0.345  -1.753   0.003  0.00  0.00     0.172 C 
ATOM      2  N   UNL d   1       1.189  -0.820  -0.706  0.00  0.00    -0.070 N 
ATOM      3  C1  UNL d   1       2.430  -0.402  -0.305  0.00  0.00    -0.004 A 
ATOM      4  C2  UNL d   1       2.903   0.482  -1.250  0.00  0.00    -0.047 A 
ATOM      5  C3  UNL d   1       1.913   0.600  -2.254  0.00  0.00    -0.047 A 
ATOM      6  C4  UNL d   1       0.862  -0.217  -1.892  0.00  0.00    -0.004 A 
ENDROOT
TORSDOF 0
ENDMDL
