MODEL 1
REMARK minimizedAffinity 5.94365215
REMARK minimizedRMSD -1
REMARK  0 active torsions:
REMARK  status: ('A' for Active; 'I' for Inactive)
ROOT
ATOM      1  C   UNL d   1       1.495   2.703  -1.499  0.00  0.00     0.172 C 
ATOM      2  N   UNL d   1       1.391   3.894  -0.690  0.00  0.00    -0.070 N 
ATOM      3  C1  UNL d   1       1.045   5.139  -1.143  0.00  0.00    -0.004 A 
ATOM      4  C2  UNL d   1       1.060   5.999  -0.067  0.00  0.00    -0.047 A 
ATOM      5  C3  UNL d   1       1.429   5.246   1.073  0.00  0.00    -0.047 A 
ATOM      6  C4  UNL d   1       1.628   3.946   0.658  0.00  0.00    -0.004 A 
ENDROOT
TORSDOF 0
ENDMDL
