MODEL 1
REMARK minimizedAffinity 12.817297
REMARK minimizedRMSD -1
REMARK  0 active torsions:
REMARK  status: ('A' for Active; 'I' for Inactive)
ROOT
ATOM      1  C   UNL d   1       1.440   5.201  -1.009  0.00  0.00     0.172 C 
ATOM      2  N   UNL d   1       1.600   5.396   0.413  0.00  0.00    -0.070 N 
ATOM      3  C1  UNL d   1       2.670   5.998   1.021  0.00  0.00    -0.004 A 
ATOM      4  C2  UNL d   1       2.443   5.988   2.380  0.00  0.00    -0.047 A 
ATOM      5  C3  UNL d   1       1.195   5.358   2.597  0.00  0.00    -0.047 A 
ATOM      6  C4  UNL d   1       0.695   5.002   1.362  0.00  0.00    -0.004 A 
ENDROOT
TORSDOF 0
ENDMDL
