MODEL 1
REMARK minimizedAffinity -2.8620379
REMARK minimizedRMSD -1
REMARK  0 active torsions:
REMARK  status: ('A' for Active; 'I' for Inactive)
ROOT
ATOM      1  C   UNL d   1      -0.435  -0.263   1.051  0.00  0.00     0.172 C 
ATOM      2  N   UNL d   1       0.601   0.110   0.117  0.00  0.00    -0.070 N 
ATOM      3  C1  UNL d   1       1.307   1.284   0.136  0.00  0.00    -0.004 A 
ATOM      4  C2  UNL d   1       2.198   1.256  -0.915  0.00  0.00    -0.047 A 
ATOM      5  C3  UNL d   1       2.020   0.025  -1.589  0.00  0.00    -0.047 A 
ATOM      6  C4  UNL d   1       1.026  -0.665  -0.929  0.00  0.00    -0.004 A 
ENDROOT
TORSDOF 0
ENDMDL
