MODEL 1
REMARK minimizedAffinity -3.44499373
REMARK minimizedRMSD -1
REMARK  0 active torsions:
REMARK  status: ('A' for Active; 'I' for Inactive)
ROOT
ATOM      1  C   UNL d   1       2.323   1.971  -1.240  0.00  0.00     0.172 C 
ATOM      2  N   UNL d   1       1.571   0.775  -1.542  0.00  0.00    -0.070 N 
ATOM      3  C1  UNL d   1       1.690   0.023  -2.680  0.00  0.00    -0.004 A 
ATOM      4  C2  UNL d   1       0.805  -1.028  -2.585  0.00  0.00    -0.047 A 
ATOM      5  C3  UNL d   1       0.130  -0.904  -1.348  0.00  0.00    -0.047 A 
ATOM      6  C4  UNL d   1       0.624   0.221  -0.722  0.00  0.00    -0.004 A 
ENDROOT
TORSDOF 0
ENDMDL
