MODEL 1
REMARK minimizedAffinity -1.28106701
REMARK minimizedRMSD -1
REMARK  0 active torsions:
REMARK  status: ('A' for Active; 'I' for Inactive)
ROOT
ATOM      1  C   UNL d   1      -5.926   0.831  -6.000  0.00  0.00     0.172 C 
ATOM      2  N   UNL d   1      -5.318   2.138  -5.904  0.00  0.00    -0.070 N 
ATOM      3  C1  UNL d   1      -3.985   2.387  -5.715  0.00  0.00    -0.004 A 
ATOM      4  C2  UNL d   1      -3.812   3.753  -5.680  0.00  0.00    -0.047 A 
ATOM      5  C3  UNL d   1      -5.085   4.346  -5.852  0.00  0.00    -0.047 A 
ATOM      6  C4  UNL d   1      -6.000   3.323  -5.989  0.00  0.00    -0.004 A 
ENDROOT
TORSDOF 0
ENDMDL
