MODEL 1
REMARK minimizedAffinity -3.12379003
REMARK minimizedRMSD -1
REMARK  0 active torsions:
REMARK  status: ('A' for Active; 'I' for Inactive)
ROOT
ATOM      1  C   UNL d   1       0.635  -0.818   1.096  0.00  0.00     0.172 C 
ATOM      2  N   UNL d   1      -0.724  -1.214   0.808  0.00  0.00    -0.070 N 
ATOM      3  C1  UNL d   1      -1.637  -1.661   1.726  0.00  0.00    -0.004 A 
ATOM      4  C2  UNL d   1      -2.810  -1.933   1.055  0.00  0.00    -0.047 A 
ATOM      5  C3  UNL d   1      -2.594  -1.640  -0.312  0.00  0.00    -0.047 A 
ATOM      6  C4  UNL d   1      -1.294  -1.197  -0.437  0.00  0.00    -0.004 A 
ENDROOT
TORSDOF 0
ENDMDL
