MODEL 1
REMARK minimizedAffinity -4.29764223
REMARK minimizedRMSD -1
REMARK  0 active torsions:
REMARK  status: ('A' for Active; 'I' for Inactive)
ROOT
ATOM      1  C   UNL d   1       0.008  -0.008  -0.000  0.00  0.00     0.172 C 
ATOM      2  N   UNL d   1       0.766  -0.611  -1.071  0.00  0.00    -0.070 N 
ATOM      3  C1  UNL d   1       1.391   0.064  -2.086  0.00  0.00    -0.004 A 
ATOM      4  C2  UNL d   1       2.002  -0.866  -2.898  0.00  0.00    -0.047 A 
ATOM      5  C3  UNL d   1       1.734  -2.145  -2.354  0.00  0.00    -0.047 A 
ATOM      6  C4  UNL d   1       0.967  -1.957  -1.224  0.00  0.00    -0.004 A 
ENDROOT
TORSDOF 0
ENDMDL
