MODEL 1
REMARK minimizedAffinity 3.98564529
REMARK minimizedRMSD -1
REMARK  0 active torsions:
REMARK  status: ('A' for Active; 'I' for Inactive)
ROOT
ATOM      1  C   UNL d   1       1.134   2.142   0.779  0.00  0.00     0.078 C 
ATOM      2  C1  UNL d   1       0.992   3.484   0.125  0.00  0.00    -0.077 A 
ATOM      3  C2  UNL d   1       2.109   4.299  -0.096  0.00  0.00    -0.001 A 
ATOM      4  C3  UNL d   1       1.961   5.551  -0.696  0.00  0.00     0.003 A 
ATOM      5  C4  UNL d   1       0.698   5.999  -1.079  0.00  0.00    -0.005 A 
ATOM      6  C5  UNL d   1      -0.419   5.195  -0.860  0.00  0.00     0.003 A 
ATOM      7  C6  UNL d   1      -0.273   3.943  -0.260  0.00  0.00    -0.001 A 
ENDROOT
TORSDOF 0
ENDMDL
