MODEL 1
REMARK minimizedAffinity -1.54327416
REMARK minimizedRMSD -1
REMARK  0 active torsions:
REMARK  status: ('A' for Active; 'I' for Inactive)
ROOT
ATOM      1  C   UNL d   1       1.444  -2.991  -5.439  0.00  0.00     0.078 C 
ATOM      2  C1  UNL d   1       0.223  -2.146  -5.228  0.00  0.00    -0.077 A 
ATOM      3  C2  UNL d   1      -1.047  -2.611  -5.587  0.00  0.00    -0.001 A 
ATOM      4  C3  UNL d   1      -2.173  -1.809  -5.393  0.00  0.00     0.003 A 
ATOM      5  C4  UNL d   1      -2.040  -0.537  -4.841  0.00  0.00    -0.005 A 
ATOM      6  C5  UNL d   1      -0.779  -0.064  -4.483  0.00  0.00     0.003 A 
ATOM      7  C6  UNL d   1       0.348  -0.865  -4.676  0.00  0.00    -0.001 A 
ENDROOT
TORSDOF 0
ENDMDL
