MODEL 1
REMARK minimizedAffinity 5.00463486
REMARK minimizedRMSD -1
REMARK  0 active torsions:
REMARK  status: ('A' for Active; 'I' for Inactive)
ROOT
ATOM      1  C   UNL d   1      -5.443   1.721  -3.019  0.00  0.00     0.078 C 
ATOM      2  C1  UNL d   1      -5.155   2.966  -3.804  0.00  0.00    -0.077 A 
ATOM      3  C2  UNL d   1      -5.999   3.375  -4.843  0.00  0.00    -0.001 A 
ATOM      4  C3  UNL d   1      -5.713   4.531  -5.572  0.00  0.00     0.003 A 
ATOM      5  C4  UNL d   1      -4.582   5.286  -5.270  0.00  0.00    -0.005 A 
ATOM      6  C5  UNL d   1      -3.734   4.886  -4.239  0.00  0.00     0.003 A 
ATOM      7  C6  UNL d   1      -4.019   3.730  -3.509  0.00  0.00    -0.001 A 
ENDROOT
TORSDOF 0
ENDMDL
