MODEL 1
REMARK minimizedAffinity 4.68168116
REMARK minimizedRMSD -1
REMARK  0 active torsions:
REMARK  status: ('A' for Active; 'I' for Inactive)
ROOT
ATOM      1  C   UNL d   1       0.073   0.174  -3.948  0.00  0.00     0.078 C 
ATOM      2  C1  UNL d   1      -0.090   0.999  -2.707  0.00  0.00    -0.077 A 
ATOM      3  C2  UNL d   1       0.932   1.074  -1.751  0.00  0.00    -0.001 A 
ATOM      4  C3  UNL d   1       0.763   1.839  -0.596  0.00  0.00     0.003 A 
ATOM      5  C4  UNL d   1      -0.427   2.534  -0.384  0.00  0.00    -0.005 A 
ATOM      6  C5  UNL d   1      -1.449   2.463  -1.328  0.00  0.00     0.003 A 
ATOM      7  C6  UNL d   1      -1.282   1.699  -2.484  0.00  0.00    -0.001 A 
ENDROOT
TORSDOF 0
ENDMDL
