MODEL 1
REMARK minimizedAffinity 3.10526276
REMARK minimizedRMSD -1
REMARK  0 active torsions:
REMARK  status: ('A' for Active; 'I' for Inactive)
ROOT
ATOM      1  C   UNL d   1       2.317   6.000  -1.854  0.00  0.00     0.078 C 
ATOM      2  C1  UNL d   1       1.441   5.109  -1.024  0.00  0.00    -0.077 A 
ATOM      3  C2  UNL d   1       0.050   5.267  -1.019  0.00  0.00    -0.001 A 
ATOM      4  C3  UNL d   1      -0.752   4.437  -0.234  0.00  0.00     0.003 A 
ATOM      5  C4  UNL d   1      -0.171   3.444   0.553  0.00  0.00    -0.005 A 
ATOM      6  C5  UNL d   1       1.212   3.281   0.556  0.00  0.00     0.003 A 
ATOM      7  C6  UNL d   1       2.016   4.110  -0.228  0.00  0.00    -0.001 A 
ENDROOT
TORSDOF 0
ENDMDL
