MODEL 1
REMARK minimizedAffinity 8.42977047
REMARK minimizedRMSD -1
REMARK  0 active torsions:
REMARK  status: ('A' for Active; 'I' for Inactive)
ROOT
ATOM      1  C   UNL d   1       5.250  -5.653   1.103  0.00  0.00     0.078 C 
ATOM      2  C1  UNL d   1       5.010  -4.341   0.419  0.00  0.00    -0.077 A 
ATOM      3  C2  UNL d   1       6.000  -3.749  -0.375  0.00  0.00    -0.001 A 
ATOM      4  C3  UNL d   1       5.766  -2.523  -0.998  0.00  0.00     0.003 A 
ATOM      5  C4  UNL d   1       4.542  -1.876  -0.833  0.00  0.00    -0.005 A 
ATOM      6  C5  UNL d   1       3.552  -2.456  -0.043  0.00  0.00     0.003 A 
ATOM      7  C6  UNL d   1       3.784  -3.683   0.581  0.00  0.00    -0.001 A 
ENDROOT
TORSDOF 0
ENDMDL
