MODEL 1
REMARK minimizedAffinity 1.23718214
REMARK minimizedRMSD -1
REMARK  0 active torsions:
REMARK  status: ('A' for Active; 'I' for Inactive)
ROOT
ATOM      1  C   UNL d   1       5.113  -6.000   0.322  0.00  0.00     0.078 C 
ATOM      2  C1  UNL d   1       5.136  -5.120  -0.892  0.00  0.00    -0.077 A 
ATOM      3  C2  UNL d   1       4.671  -5.584  -2.129  0.00  0.00    -0.001 A 
ATOM      4  C3  UNL d   1       4.707  -4.757  -3.252  0.00  0.00     0.003 A 
ATOM      5  C4  UNL d   1       5.210  -3.461  -3.151  0.00  0.00    -0.005 A 
ATOM      6  C5  UNL d   1       5.677  -2.991  -1.925  0.00  0.00     0.003 A 
ATOM      7  C6  UNL d   1       5.641  -3.817  -0.801  0.00  0.00    -0.001 A 
ENDROOT
TORSDOF 0
ENDMDL
