MODEL 1
REMARK minimizedAffinity 5.42860889
REMARK minimizedRMSD -1
REMARK  0 active torsions:
REMARK  status: ('A' for Active; 'I' for Inactive)
ROOT
ATOM      1  C   UNL d   1       1.868   5.704  -1.345  0.00  0.00     0.078 C 
ATOM      2  C1  UNL d   1       1.368   4.429  -0.733  0.00  0.00    -0.077 A 
ATOM      3  C2  UNL d   1       0.660   3.492  -1.496  0.00  0.00    -0.001 A 
ATOM      4  C3  UNL d   1       0.192   2.315  -0.911  0.00  0.00     0.003 A 
ATOM      5  C4  UNL d   1       0.426   2.063   0.439  0.00  0.00    -0.005 A 
ATOM      6  C5  UNL d   1       1.128   2.990   1.207  0.00  0.00     0.003 A 
ATOM      7  C6  UNL d   1       1.597   4.168   0.623  0.00  0.00    -0.001 A 
ENDROOT
TORSDOF 0
ENDMDL
