MODEL 1
REMARK minimizedAffinity 13.1868467
REMARK minimizedRMSD -1
REMARK  0 active torsions:
REMARK  status: ('A' for Active; 'I' for Inactive)
ROOT
ATOM      1  C   UNL d   1       0.134  -1.888  -0.841  0.00  0.00     0.078 C 
ATOM      2  C1  UNL d   1      -1.086  -2.456  -0.179  0.00  0.00    -0.077 A 
ATOM      3  C2  UNL d   1      -1.013  -3.033   1.094  0.00  0.00    -0.001 A 
ATOM      4  C3  UNL d   1      -2.155  -3.567   1.694  0.00  0.00     0.003 A 
ATOM      5  C4  UNL d   1      -3.378  -3.528   1.027  0.00  0.00    -0.005 A 
ATOM      6  C5  UNL d   1      -3.460  -2.957  -0.241  0.00  0.00     0.003 A 
ATOM      7  C6  UNL d   1      -2.319  -2.424  -0.842  0.00  0.00    -0.001 A 
ENDROOT
TORSDOF 0
ENDMDL
