MODEL 1
REMARK minimizedAffinity 5.0816021
REMARK minimizedRMSD -1
REMARK  0 active torsions:
REMARK  status: ('A' for Active; 'I' for Inactive)
ROOT
ATOM      1  C   UNL d   1      -2.549   0.485   4.517  0.00  0.00     0.078 C 
ATOM      2  C1  UNL d   1      -3.750   1.313   4.865  0.00  0.00    -0.077 A 
ATOM      3  C2  UNL d   1      -3.867   2.637   4.423  0.00  0.00    -0.001 A 
ATOM      4  C3  UNL d   1      -4.986   3.398   4.762  0.00  0.00     0.003 A 
ATOM      5  C4  UNL d   1      -5.997   2.846   5.546  0.00  0.00    -0.005 A 
ATOM      6  C5  UNL d   1      -5.889   1.530   5.992  0.00  0.00     0.003 A 
ATOM      7  C6  UNL d   1      -4.770   0.767   5.654  0.00  0.00    -0.001 A 
ENDROOT
TORSDOF 0
ENDMDL
