MODEL 1
REMARK minimizedAffinity 6.45573187
REMARK minimizedRMSD -1
REMARK  0 active torsions:
REMARK  status: ('A' for Active; 'I' for Inactive)
ROOT
ATOM      1  C   UNL d   1      -4.772  -3.894   5.991  0.00  0.00     0.078 C 
ATOM      2  C1  UNL d   1      -4.209  -2.504   5.980  0.00  0.00    -0.077 A 
ATOM      3  C2  UNL d   1      -2.826  -2.286   5.964  0.00  0.00    -0.001 A 
ATOM      4  C3  UNL d   1      -2.317  -0.987   5.964  0.00  0.00     0.003 A 
ATOM      5  C4  UNL d   1      -3.183   0.105   5.981  0.00  0.00    -0.005 A 
ATOM      6  C5  UNL d   1      -4.561  -0.102   6.000  0.00  0.00     0.003 A 
ATOM      7  C6  UNL d   1      -5.072  -1.401   6.000  0.00  0.00    -0.001 A 
ENDROOT
TORSDOF 0
ENDMDL
