MODEL 1
REMARK minimizedAffinity 10.3168182
REMARK minimizedRMSD -1
REMARK  0 active torsions:
REMARK  status: ('A' for Active; 'I' for Inactive)
ROOT
ATOM      1  C   UNL d   1      -4.121  -3.310   6.000  0.00  0.00     0.078 C 
ATOM      2  C1  UNL d   1      -3.394  -2.270   5.200  0.00  0.00    -0.077 A 
ATOM      3  C2  UNL d   1      -3.248  -0.963   5.680  0.00  0.00    -0.001 A 
ATOM      4  C3  UNL d   1      -2.577  -0.003   4.920  0.00  0.00     0.003 A 
ATOM      5  C4  UNL d   1      -2.049  -0.340   3.675  0.00  0.00    -0.005 A 
ATOM      6  C5  UNL d   1      -2.192  -1.637   3.188  0.00  0.00     0.003 A 
ATOM      7  C6  UNL d   1      -2.862  -2.599   3.947  0.00  0.00    -0.001 A 
ENDROOT
TORSDOF 0
ENDMDL
