MODEL 1
REMARK minimizedAffinity 5.75090742
REMARK minimizedRMSD -1
REMARK  0 active torsions:
REMARK  status: ('A' for Active; 'I' for Inactive)
ROOT
ATOM      1  C   UNL d   1       6.000  -5.173  -5.963  0.00  0.00     0.078 C 
ATOM      2  C1  UNL d   1       5.311  -4.097  -5.177  0.00  0.00    -0.077 A 
ATOM      3  C2  UNL d   1       3.986  -3.739  -5.454  0.00  0.00    -0.001 A 
ATOM      4  C3  UNL d   1       3.360  -2.729  -4.721  0.00  0.00     0.003 A 
ATOM      5  C4  UNL d   1       4.052  -2.069  -3.708  0.00  0.00    -0.005 A 
ATOM      6  C5  UNL d   1       5.371  -2.417  -3.427  0.00  0.00     0.003 A 
ATOM      7  C6  UNL d   1       5.999  -3.426  -4.159  0.00  0.00    -0.001 A 
ENDROOT
TORSDOF 0
ENDMDL
