MODEL 1
REMARK minimizedAffinity 4.18932581
REMARK minimizedRMSD -1
REMARK  0 active torsions:
REMARK  status: ('A' for Active; 'I' for Inactive)
ROOT
ATOM      1  C   UNL d   1      -5.021   1.209   5.996  0.00  0.00     0.078 C 
ATOM      2  C1  UNL d   1      -3.993   0.175   5.643  0.00  0.00    -0.077 A 
ATOM      3  C2  UNL d   1      -4.170  -1.168   5.998  0.00  0.00    -0.001 A 
ATOM      4  C3  UNL d   1      -3.200  -2.118   5.672  0.00  0.00     0.003 A 
ATOM      5  C4  UNL d   1      -2.047  -1.735   4.990  0.00  0.00    -0.005 A 
ATOM      6  C5  UNL d   1      -1.861  -0.400   4.635  0.00  0.00     0.003 A 
ATOM      7  C6  UNL d   1      -2.830   0.551   4.960  0.00  0.00    -0.001 A 
ENDROOT
TORSDOF 0
ENDMDL
