MODEL 1
REMARK minimizedAffinity 4.16956329
REMARK minimizedRMSD -1
REMARK  0 active torsions:
REMARK  status: ('A' for Active; 'I' for Inactive)
ROOT
ATOM      1  C   UNL d   1       4.892  -0.641   4.318  0.00  0.00     0.078 C 
ATOM      2  C1  UNL d   1       4.549  -1.982   4.895  0.00  0.00    -0.077 A 
ATOM      3  C2  UNL d   1       3.228  -2.448   4.900  0.00  0.00    -0.001 A 
ATOM      4  C3  UNL d   1       2.922  -3.694   5.449  0.00  0.00     0.003 A 
ATOM      5  C4  UNL d   1       3.930  -4.484   5.998  0.00  0.00    -0.005 A 
ATOM      6  C5  UNL d   1       5.246  -4.028   6.000  0.00  0.00     0.003 A 
ATOM      7  C6  UNL d   1       5.555  -2.782   5.451  0.00  0.00    -0.001 A 
ENDROOT
TORSDOF 0
ENDMDL
