MODEL 1
REMARK minimizedAffinity 5.88198376
REMARK minimizedRMSD -1
REMARK  0 active torsions:
REMARK  status: ('A' for Active; 'I' for Inactive)
ROOT
ATOM      1  C   UNL d   1       5.983  -4.749   5.997  0.00  0.00     0.078 C 
ATOM      2  C1  UNL d   1       4.986  -3.642   5.818  0.00  0.00    -0.077 A 
ATOM      3  C2  UNL d   1       3.661  -3.916   5.457  0.00  0.00    -0.001 A 
ATOM      4  C3  UNL d   1       2.748  -2.875   5.284  0.00  0.00     0.003 A 
ATOM      5  C4  UNL d   1       3.149  -1.554   5.470  0.00  0.00    -0.005 A 
ATOM      6  C5  UNL d   1       4.466  -1.271   5.827  0.00  0.00     0.003 A 
ATOM      7  C6  UNL d   1       5.381  -2.311   6.000  0.00  0.00    -0.001 A 
ENDROOT
TORSDOF 0
ENDMDL
