MODEL 1
REMARK minimizedAffinity -1.11433566
REMARK minimizedRMSD -1
REMARK  0 active torsions:
REMARK  status: ('A' for Active; 'I' for Inactive)
ROOT
ATOM      1  C   UNL d   1       5.060  -1.609  -3.004  0.00  0.00     0.078 C 
ATOM      2  C1  UNL d   1       5.061  -2.721  -4.010  0.00  0.00    -0.077 A 
ATOM      3  C2  UNL d   1       6.000  -3.758  -3.939  0.00  0.00    -0.001 A 
ATOM      4  C3  UNL d   1       5.995  -4.781  -4.888  0.00  0.00     0.003 A 
ATOM      5  C4  UNL d   1       5.055  -4.777  -5.917  0.00  0.00    -0.005 A 
ATOM      6  C5  UNL d   1       4.118  -3.749  -5.997  0.00  0.00     0.003 A 
ATOM      7  C6  UNL d   1       4.121  -2.725  -5.049  0.00  0.00    -0.001 A 
ENDROOT
TORSDOF 0
ENDMDL
