MODEL 1
REMARK minimizedAffinity -3.15213537
REMARK minimizedRMSD -1
REMARK  0 active torsions:
REMARK  status: ('A' for Active; 'I' for Inactive)
ROOT
ATOM      1  C   UNL d   1       2.263  -2.268   5.986  0.00  0.00     0.078 C 
ATOM      2  C1  UNL d   1       3.567  -2.745   5.420  0.00  0.00    -0.077 A 
ATOM      3  C2  UNL d   1       4.140  -2.121   4.305  0.00  0.00    -0.001 A 
ATOM      4  C3  UNL d   1       5.350  -2.582   3.782  0.00  0.00     0.003 A 
ATOM      5  C4  UNL d   1       5.996  -3.669   4.367  0.00  0.00    -0.005 A 
ATOM      6  C5  UNL d   1       5.432  -4.298   5.475  0.00  0.00     0.003 A 
ATOM      7  C6  UNL d   1       4.223  -3.839   5.999  0.00  0.00    -0.001 A 
ENDROOT
TORSDOF 0
ENDMDL
