MODEL 1
REMARK minimizedAffinity 5.32536411
REMARK minimizedRMSD -1
REMARK  0 active torsions:
REMARK  status: ('A' for Active; 'I' for Inactive)
ROOT
ATOM      1  C   UNL d   1       4.604  -3.903  -6.000  0.00  0.00     0.078 C 
ATOM      2  C1  UNL d   1       4.881  -2.844  -4.975  0.00  0.00    -0.077 A 
ATOM      3  C2  UNL d   1       4.316  -1.568  -5.086  0.00  0.00    -0.001 A 
ATOM      4  C3  UNL d   1       4.590  -0.589  -4.130  0.00  0.00     0.003 A 
ATOM      5  C4  UNL d   1       5.431  -0.875  -3.057  0.00  0.00    -0.005 A 
ATOM      6  C5  UNL d   1       6.000  -2.141  -2.939  0.00  0.00     0.003 A 
ATOM      7  C6  UNL d   1       5.727  -3.122  -3.894  0.00  0.00    -0.001 A 
ENDROOT
TORSDOF 0
ENDMDL
