MODEL 1
REMARK minimizedAffinity 18.1976624
REMARK minimizedRMSD -1
REMARK  0 active torsions:
REMARK  status: ('A' for Active; 'I' for Inactive)
ROOT
ATOM      1  C   UNL d   1      -3.676  -3.904   5.625  0.00  0.00     0.078 C 
ATOM      2  C1  UNL d   1      -3.066  -2.541   5.493  0.00  0.00    -0.077 A 
ATOM      3  C2  UNL d   1      -1.789  -2.270   6.000  0.00  0.00    -0.001 A 
ATOM      4  C3  UNL d   1      -1.237  -0.994   5.879  0.00  0.00     0.003 A 
ATOM      5  C4  UNL d   1      -1.956   0.023   5.252  0.00  0.00    -0.005 A 
ATOM      6  C5  UNL d   1      -3.228  -0.237   4.747  0.00  0.00     0.003 A 
ATOM      7  C6  UNL d   1      -3.781  -1.512   4.867  0.00  0.00    -0.001 A 
ENDROOT
TORSDOF 0
ENDMDL
