MODEL 1
REMARK minimizedAffinity 2.75515985
REMARK minimizedRMSD -1
REMARK  0 active torsions:
REMARK  status: ('A' for Active; 'I' for Inactive)
ROOT
ATOM      1  C   UNL d   1       5.999  -5.643   6.000  0.00  0.00     0.078 C 
ATOM      2  C1  UNL d   1       5.224  -4.486   5.444  0.00  0.00    -0.077 A 
ATOM      3  C2  UNL d   1       5.813  -3.224   5.303  0.00  0.00    -0.001 A 
ATOM      4  C3  UNL d   1       5.076  -2.154   4.793  0.00  0.00     0.003 A 
ATOM      5  C4  UNL d   1       3.745  -2.335   4.421  0.00  0.00    -0.005 A 
ATOM      6  C5  UNL d   1       3.150  -3.587   4.560  0.00  0.00     0.003 A 
ATOM      7  C6  UNL d   1       3.885  -4.658   5.070  0.00  0.00    -0.001 A 
ENDROOT
TORSDOF 0
ENDMDL
