MODEL 1
REMARK minimizedAffinity -0.807718337
REMARK minimizedRMSD -1
REMARK  0 active torsions:
REMARK  status: ('A' for Active; 'I' for Inactive)
ROOT
ATOM      1  C   UNL d   1       5.516  -1.498  -3.170  0.00  0.00     0.078 C 
ATOM      2  C1  UNL d   1       5.080  -2.539  -4.157  0.00  0.00    -0.077 A 
ATOM      3  C2  UNL d   1       3.764  -3.017  -4.166  0.00  0.00    -0.001 A 
ATOM      4  C3  UNL d   1       3.375  -3.994  -5.084  0.00  0.00     0.003 A 
ATOM      5  C4  UNL d   1       4.295  -4.500  -6.000  0.00  0.00    -0.005 A 
ATOM      6  C5  UNL d   1       5.607  -4.032  -5.997  0.00  0.00     0.003 A 
ATOM      7  C6  UNL d   1       5.999  -3.055  -5.079  0.00  0.00    -0.001 A 
ENDROOT
TORSDOF 0
ENDMDL
