MODEL 1
REMARK minimizedAffinity -1.99729347
REMARK minimizedRMSD -1
REMARK  0 active torsions:
REMARK  status: ('A' for Active; 'I' for Inactive)
ROOT
ATOM      1  C   UNL d   1       1.869   5.638  -3.058  0.00  0.00     0.078 C 
ATOM      2  C1  UNL d   1       3.303   5.199  -3.065  0.00  0.00    -0.077 A 
ATOM      3  C2  UNL d   1       3.687   4.002  -3.681  0.00  0.00    -0.001 A 
ATOM      4  C3  UNL d   1       5.024   3.601  -3.672  0.00  0.00     0.003 A 
ATOM      5  C4  UNL d   1       5.987   4.391  -3.047  0.00  0.00    -0.005 A 
ATOM      6  C5  UNL d   1       5.614   5.583  -2.430  0.00  0.00     0.003 A 
ATOM      7  C6  UNL d   1       4.277   5.985  -2.438  0.00  0.00    -0.001 A 
ENDROOT
TORSDOF 0
ENDMDL
