MODEL 1
REMARK minimizedAffinity -1.66102397
REMARK minimizedRMSD -1
REMARK  0 active torsions:
REMARK  status: ('A' for Active; 'I' for Inactive)
ROOT
ATOM      1  C   UNL d   1       5.998   5.999  -1.521  0.00  0.00     0.078 C 
ATOM      2  C1  UNL d   1       5.301   5.174  -2.561  0.00  0.00    -0.077 A 
ATOM      3  C2  UNL d   1       5.998   4.221  -3.313  0.00  0.00    -0.001 A 
ATOM      4  C3  UNL d   1       5.338   3.466  -4.284  0.00  0.00     0.003 A 
ATOM      5  C4  UNL d   1       3.977   3.659  -4.514  0.00  0.00    -0.005 A 
ATOM      6  C5  UNL d   1       3.275   4.607  -3.773  0.00  0.00     0.003 A 
ATOM      7  C6  UNL d   1       3.934   5.362  -2.801  0.00  0.00    -0.001 A 
ENDROOT
TORSDOF 0
ENDMDL
