MODEL 1
REMARK minimizedAffinity 0.384926617
REMARK minimizedRMSD -1
REMARK  0 active torsions:
REMARK  status: ('A' for Active; 'I' for Inactive)
ROOT
ATOM      1  C   UNL d   1       0.328  -2.601  -2.833  0.00  0.00     0.078 C 
ATOM      2  C1  UNL d   1      -0.664  -2.651  -1.710  0.00  0.00    -0.077 A 
ATOM      3  C2  UNL d   1      -0.242  -2.653  -0.375  0.00  0.00    -0.001 A 
ATOM      4  C3  UNL d   1      -1.177  -2.710   0.660  0.00  0.00     0.003 A 
ATOM      5  C4  UNL d   1      -2.539  -2.767   0.371  0.00  0.00    -0.005 A 
ATOM      6  C5  UNL d   1      -2.968  -2.768  -0.955  0.00  0.00     0.003 A 
ATOM      7  C6  UNL d   1      -2.035  -2.711  -1.991  0.00  0.00    -0.001 A 
ENDROOT
TORSDOF 0
ENDMDL
