MODEL 1
REMARK minimizedAffinity -2.26366735
REMARK minimizedRMSD -1
REMARK  0 active torsions:
REMARK  status: ('A' for Active; 'I' for Inactive)
ROOT
ATOM      1  C   UNL d   1       1.448   1.154  -1.928  0.00  0.00     0.078 C 
ATOM      2  C1  UNL d   1       0.469   0.695  -0.889  0.00  0.00    -0.077 A 
ATOM      3  C2  UNL d   1       0.555  -0.587  -0.334  0.00  0.00    -0.001 A 
ATOM      4  C3  UNL d   1      -0.370  -1.005   0.625  0.00  0.00     0.003 A 
ATOM      5  C4  UNL d   1      -1.388  -0.146   1.036  0.00  0.00    -0.005 A 
ATOM      6  C5  UNL d   1      -1.483   1.131   0.487  0.00  0.00     0.003 A 
ATOM      7  C6  UNL d   1      -0.559   1.550  -0.472  0.00  0.00    -0.001 A 
ENDROOT
TORSDOF 0
ENDMDL
