MODEL 1
REMARK minimizedAffinity -0.343099713
REMARK minimizedRMSD -1
REMARK  0 active torsions:
REMARK  status: ('A' for Active; 'I' for Inactive)
ROOT
ATOM      1  C   UNL d   1      -2.462  -3.198  -2.487  0.00  0.00     0.078 C 
ATOM      2  C1  UNL d   1      -2.543  -4.061  -3.711  0.00  0.00    -0.077 A 
ATOM      3  C2  UNL d   1      -1.816  -3.747  -4.865  0.00  0.00    -0.001 A 
ATOM      4  C3  UNL d   1      -1.908  -4.554  -6.000  0.00  0.00     0.003 A 
ATOM      5  C4  UNL d   1      -2.729  -5.680  -5.992  0.00  0.00    -0.005 A 
ATOM      6  C5  UNL d   1      -3.459  -6.000  -4.849  0.00  0.00     0.003 A 
ATOM      7  C6  UNL d   1      -3.367  -5.194  -3.713  0.00  0.00    -0.001 A 
ENDROOT
TORSDOF 0
ENDMDL
