MODEL 1
REMARK minimizedAffinity 5.98188925
REMARK minimizedRMSD -1
REMARK  0 active torsions:
REMARK  status: ('A' for Active; 'I' for Inactive)
ROOT
ATOM      1  C1  DEN d   1      -1.102   0.625   0.169  0.00  0.00     0.130 A 
ATOM      2  C2  DEN d   1      -2.405  -0.001   0.378  0.00  0.00    -0.031 A 
ATOM      3  C3  DEN d   1      -2.179  -1.414   0.742  0.00  0.00     0.027 A 
ATOM      4  C4  DEN d   1       0.050  -2.686   1.006  0.00  0.00     0.027 A 
ATOM      5  C5  DEN d   1       1.420  -2.579   0.920  0.00  0.00    -0.003 A 
ATOM      6  C6  DEN d   1       2.040  -1.415   0.548  0.00  0.00     0.001 A 
ATOM      7  C7  DEN d   1       1.289  -0.298   0.291  0.00  0.00     0.017 A 
ATOM      8  C8  DEN d   1      -0.094  -0.401   0.368  0.00  0.00    -0.094 A 
ATOM      9  C9  DEN d   1      -0.701  -1.583   0.759  0.00  0.00    -0.072 A 
ENDROOT
TORSDOF 0
ENDMDL
