MODEL 1
REMARK minimizedAffinity 2.9550457
REMARK minimizedRMSD -1
REMARK  0 active torsions:
REMARK  status: ('A' for Active; 'I' for Inactive)
ROOT
ATOM      1  C1  DEN d   1       0.550  -0.643   1.847  0.00  0.00     0.130 A 
ATOM      2  C2  DEN d   1       1.860  -0.176   1.403  0.00  0.00    -0.031 A 
ATOM      3  C3  DEN d   1       2.525  -1.289   0.696  0.00  0.00     0.027 A 
ATOM      4  C4  DEN d   1       1.655  -3.675   0.243  0.00  0.00     0.027 A 
ATOM      5  C5  DEN d   1       0.602  -4.541   0.437  0.00  0.00    -0.003 A 
ATOM      6  C6  DEN d   1      -0.519  -4.183   1.138  0.00  0.00     0.001 A 
ATOM      7  C7  DEN d   1      -0.632  -2.910   1.632  0.00  0.00     0.017 A 
ATOM      8  C8  DEN d   1       0.429  -2.033   1.447  0.00  0.00    -0.094 A 
ATOM      9  C9  DEN d   1       1.548  -2.411   0.725  0.00  0.00    -0.072 A 
ENDROOT
TORSDOF 0
ENDMDL
