MODEL 1
REMARK minimizedAffinity 4.19886923
REMARK minimizedRMSD -1
REMARK  0 active torsions:
REMARK  status: ('A' for Active; 'I' for Inactive)
ROOT
ATOM      1  C1  DEN d   1       0.456  -3.971  -0.309  0.00  0.00     0.130 A 
ATOM      2  C2  DEN d   1       1.453  -3.293  -1.133  0.00  0.00    -0.031 A 
ATOM      3  C3  DEN d   1       1.126  -1.853  -1.154  0.00  0.00     0.027 A 
ATOM      4  C4  DEN d   1      -0.816  -0.613   0.006  0.00  0.00     0.027 A 
ATOM      5  C5  DEN d   1      -1.928  -0.766   0.805  0.00  0.00    -0.003 A 
ATOM      6  C6  DEN d   1      -2.339  -1.992   1.256  0.00  0.00     0.001 A 
ATOM      7  C7  DEN d   1      -1.608  -3.109   0.950  0.00  0.00     0.017 A 
ATOM      8  C8  DEN d   1      -0.490  -2.964   0.139  0.00  0.00    -0.094 A 
ATOM      9  C9  DEN d   1      -0.083  -1.714  -0.298  0.00  0.00    -0.072 A 
ENDROOT
TORSDOF 0
ENDMDL
