MODEL 1
REMARK minimizedAffinity 11.1016941
REMARK minimizedRMSD -1
REMARK  0 active torsions:
REMARK  status: ('A' for Active; 'I' for Inactive)
ROOT
ATOM      1  C1  DEN d   1       3.935   1.040  -0.436  0.00  0.00     0.130 A 
ATOM      2  C2  DEN d   1       3.580   2.423  -0.739  0.00  0.00    -0.031 A 
ATOM      3  C3  DEN d   1       2.547   2.851   0.227  0.00  0.00     0.027 A 
ATOM      4  C4  DEN d   1       1.474   1.514   2.154  0.00  0.00     0.027 A 
ATOM      5  C5  DEN d   1       1.446   0.295   2.795  0.00  0.00    -0.003 A 
ATOM      6  C6  DEN d   1       2.214  -0.763   2.386  0.00  0.00     0.001 A 
ATOM      7  C7  DEN d   1       3.077  -0.608   1.333  0.00  0.00     0.017 A 
ATOM      8  C8  DEN d   1       3.106   0.615   0.677  0.00  0.00    -0.094 A 
ATOM      9  C9  DEN d   1       2.331   1.676   1.113  0.00  0.00    -0.072 A 
ENDROOT
TORSDOF 0
ENDMDL
