MODEL 1
REMARK minimizedAffinity 7.00966978
REMARK minimizedRMSD -1
REMARK  0 active torsions:
REMARK  status: ('A' for Active; 'I' for Inactive)
ROOT
ATOM      1  C1  DEN d   1       0.602  -1.362   1.753  0.00  0.00     0.130 A 
ATOM      2  C2  DEN d   1       1.432  -2.506   1.387  0.00  0.00    -0.031 A 
ATOM      3  C3  DEN d   1       2.761  -1.998   0.990  0.00  0.00     0.027 A 
ATOM      4  C4  DEN d   1       3.610   0.436   0.912  0.00  0.00     0.027 A 
ATOM      5  C5  DEN d   1       3.264   1.753   1.121  0.00  0.00    -0.003 A 
ATOM      6  C6  DEN d   1       2.007   2.123   1.519  0.00  0.00     0.001 A 
ATOM      7  C7  DEN d   1       1.062   1.162   1.765  0.00  0.00     0.017 A 
ATOM      8  C8  DEN d   1       1.401  -0.167   1.549  0.00  0.00    -0.094 A 
ATOM      9  C9  DEN d   1       2.681  -0.522   1.158  0.00  0.00    -0.072 A 
ENDROOT
TORSDOF 0
ENDMDL
