MODEL 1
REMARK minimizedAffinity -5.40333939
REMARK minimizedRMSD -1
REMARK  0 active torsions:
REMARK  status: ('A' for Active; 'I' for Inactive)
ROOT
ATOM      1  C1  DEN d   1      -4.994  -3.705  -2.198  0.00  0.00     0.130 A 
ATOM      2  C2  DEN d   1      -4.454  -4.877  -1.515  0.00  0.00    -0.031 A 
ATOM      3  C3  DEN d   1      -4.396  -5.986  -2.489  0.00  0.00     0.027 A 
ATOM      4  C4  DEN d   1      -5.082  -6.000  -4.975  0.00  0.00     0.027 A 
ATOM      5  C5  DEN d   1      -5.606  -5.242  -5.999  0.00  0.00    -0.003 A 
ATOM      6  C6  DEN d   1      -5.991  -3.940  -5.821  0.00  0.00     0.001 A 
ATOM      7  C7  DEN d   1      -5.816  -3.341  -4.601  0.00  0.00     0.017 A 
ATOM      8  C8  DEN d   1      -5.295  -4.101  -3.562  0.00  0.00    -0.094 A 
ATOM      9  C9  DEN d   1      -4.901  -5.412  -3.765  0.00  0.00    -0.072 A 
ENDROOT
TORSDOF 0
ENDMDL
