MODEL 1
REMARK minimizedAffinity -2.88872671
REMARK minimizedRMSD -1
REMARK  0 active torsions:
REMARK  status: ('A' for Active; 'I' for Inactive)
ROOT
ATOM      1  C1  BNZ d   1      -0.083  -0.714  -0.227  0.00  0.00     0.000 A 
ATOM      2  C2  BNZ d   1      -1.400  -0.381  -0.051  0.00  0.00     0.000 A 
ATOM      3  C3  BNZ d   1      -1.768   0.552   0.877  0.00  0.00     0.000 A 
ATOM      4  C4  BNZ d   1      -0.825   1.122   1.655  0.00  0.00     0.000 A 
ATOM      5  C5  BNZ d   1       0.506   0.790   1.496  0.00  0.00     0.000 A 
ATOM      6  C6  BNZ d   1       0.877  -0.121   0.534  0.00  0.00     0.000 A 
ENDROOT
TORSDOF 0
ENDMDL
