MODEL 1
REMARK minimizedAffinity -4.5412097
REMARK minimizedRMSD -1
REMARK  0 active torsions:
REMARK  status: ('A' for Active; 'I' for Inactive)
ROOT
ATOM      1  C1  BNZ d   1      -1.173   0.404   1.142  0.00  0.00     0.000 A 
ATOM      2  C2  BNZ d   1      -0.861   1.160   2.241  0.00  0.00     0.000 A 
ATOM      3  C3  BNZ d   1       0.439   1.337   2.623  0.00  0.00     0.000 A 
ATOM      4  C4  BNZ d   1       1.422   0.727   1.931  0.00  0.00     0.000 A 
ATOM      5  C5  BNZ d   1       1.124  -0.045   0.826  0.00  0.00     0.000 A 
ATOM      6  C6  BNZ d   1      -0.183  -0.190   0.421  0.00  0.00     0.000 A 
ENDROOT
TORSDOF 0
ENDMDL
