MODEL 1
REMARK minimizedAffinity -3.62860489
REMARK minimizedRMSD -1
REMARK  0 active torsions:
REMARK  status: ('A' for Active; 'I' for Inactive)
ROOT
ATOM      1  C1  BNZ d   1       1.111   0.251   1.322  0.00  0.00     0.000 A 
ATOM      2  C2  BNZ d   1       1.723  -0.396   0.282  0.00  0.00     0.000 A 
ATOM      3  C3  BNZ d   1       1.034  -0.695  -0.859  0.00  0.00     0.000 A 
ATOM      4  C4  BNZ d   1      -0.276  -0.383  -0.944  0.00  0.00     0.000 A 
ATOM      5  C5  BNZ d   1      -0.910   0.261   0.100  0.00  0.00     0.000 A 
ATOM      6  C6  BNZ d   1      -0.203   0.595   1.232  0.00  0.00     0.000 A 
ENDROOT
TORSDOF 0
ENDMDL
