MODEL 1
REMARK minimizedAffinity -4.20060062
REMARK minimizedRMSD -1
REMARK  0 active torsions:
REMARK  status: ('A' for Active; 'I' for Inactive)
ROOT
ATOM      1  C1  BNZ d   1       0.678  -0.068   0.870  0.00  0.00     0.000 A 
ATOM      2  C2  BNZ d   1       0.463  -0.298  -0.463  0.00  0.00     0.000 A 
ATOM      3  C3  BNZ d   1      -0.764  -0.078  -1.022  0.00  0.00     0.000 A 
ATOM      4  C4  BNZ d   1      -1.785   0.332  -0.241  0.00  0.00     0.000 A 
ATOM      5  C5  BNZ d   1      -1.587   0.559   1.106  0.00  0.00     0.000 A 
ATOM      6  C6  BNZ d   1      -0.340   0.374   1.658  0.00  0.00     0.000 A 
ENDROOT
TORSDOF 0
ENDMDL
