MODEL 1
REMARK minimizedAffinity -0.41042614
REMARK minimizedRMSD -1
REMARK  0 active torsions:
REMARK  status: ('A' for Active; 'I' for Inactive)
ROOT
ATOM      1  C1  BNZ d   1      -2.019   0.191   1.043  0.00  0.00     0.000 A 
ATOM      2  C2  BNZ d   1      -1.255  -0.081  -0.061  0.00  0.00     0.000 A 
ATOM      3  C3  BNZ d   1       0.079  -0.352   0.061  0.00  0.00     0.000 A 
ATOM      4  C4  BNZ d   1       0.655  -0.312   1.279  0.00  0.00     0.000 A 
ATOM      5  C5  BNZ d   1      -0.099  -0.031   2.401  0.00  0.00     0.000 A 
ATOM      6  C6  BNZ d   1      -1.450   0.203   2.279  0.00  0.00     0.000 A 
ENDROOT
TORSDOF 0
ENDMDL
