MODEL 1
REMARK minimizedAffinity -4.2260294
REMARK minimizedRMSD -1
REMARK  0 active torsions:
REMARK  status: ('A' for Active; 'I' for Inactive)
ROOT
ATOM      1  C1  BNZ d   1      -1.496   0.400   1.704  0.00  0.00     0.000 A 
ATOM      2  C2  BNZ d   1      -1.399  -0.372   0.578  0.00  0.00     0.000 A 
ATOM      3  C3  BNZ d   1      -0.497  -0.069  -0.403  0.00  0.00     0.000 A 
ATOM      4  C4  BNZ d   1       0.278   1.027  -0.275  0.00  0.00     0.000 A 
ATOM      5  C5  BNZ d   1       0.186   1.821   0.850  0.00  0.00     0.000 A 
ATOM      6  C6  BNZ d   1      -0.697   1.491   1.853  0.00  0.00     0.000 A 
ENDROOT
TORSDOF 0
ENDMDL
