MODEL 1
REMARK minimizedAffinity -5.13178301
REMARK minimizedRMSD -1
REMARK  0 active torsions:
REMARK  status: ('A' for Active; 'I' for Inactive)
ROOT
ATOM      1  C1  BNZ d   1      -1.349   0.663   2.032  0.00  0.00     0.000 A 
ATOM      2  C2  BNZ d   1      -1.297   0.048   0.809  0.00  0.00     0.000 A 
ATOM      3  C3  BNZ d   1      -0.110  -0.402   0.302  0.00  0.00     0.000 A 
ATOM      4  C4  BNZ d   1       1.027  -0.201   0.999  0.00  0.00     0.000 A 
ATOM      5  C5  BNZ d   1       0.992   0.425   2.229  0.00  0.00     0.000 A 
ATOM      6  C6  BNZ d   1      -0.209   0.842   2.754  0.00  0.00     0.000 A 
ENDROOT
TORSDOF 0
ENDMDL
