MODEL 1
REMARK minimizedAffinity 3.02277207
REMARK minimizedRMSD -1
REMARK  0 active torsions:
REMARK  status: ('A' for Active; 'I' for Inactive)
ROOT
ATOM      1  C1  BNZ d   1      -3.457   0.549   3.475  0.00  0.00     0.000 A 
ATOM      2  C2  BNZ d   1      -3.749  -0.099   2.305  0.00  0.00     0.000 A 
ATOM      3  C3  BNZ d   1      -4.634  -1.141   2.284  0.00  0.00     0.000 A 
ATOM      4  C4  BNZ d   1      -5.193  -1.560   3.437  0.00  0.00     0.000 A 
ATOM      5  C5  BNZ d   1      -4.901  -0.923   4.627  0.00  0.00     0.000 A 
ATOM      6  C6  BNZ d   1      -4.040   0.151   4.638  0.00  0.00     0.000 A 
ENDROOT
TORSDOF 0
ENDMDL
