MODEL 1
REMARK minimizedAffinity -1.57349026
REMARK minimizedRMSD -1
REMARK  0 active torsions:
REMARK  status: ('A' for Active; 'I' for Inactive)
ROOT
ATOM      1  C1  BNZ d   1       0.266   4.882  -3.638  0.00  0.00     0.000 A 
ATOM      2  C2  BNZ d   1      -0.881   5.630  -3.655  0.00  0.00     0.000 A 
ATOM      3  C3  BNZ d   1      -1.459   5.998  -4.837  0.00  0.00     0.000 A 
ATOM      4  C4  BNZ d   1      -0.868   5.654  -6.000  0.00  0.00     0.000 A 
ATOM      5  C5  BNZ d   1       0.294   4.908  -5.999  0.00  0.00     0.000 A 
ATOM      6  C6  BNZ d   1       0.851   4.505  -4.807  0.00  0.00     0.000 A 
ENDROOT
TORSDOF 0
ENDMDL
