MODEL 1
REMARK minimizedAffinity 1.74384129
REMARK minimizedRMSD -1
REMARK  0 active torsions:
REMARK  status: ('A' for Active; 'I' for Inactive)
ROOT
ATOM      1  C1  BNZ d   1      -0.620   5.211  -3.639  0.00  0.00     0.000 A 
ATOM      2  C2  BNZ d   1       0.527   4.462  -3.655  0.00  0.00     0.000 A 
ATOM      3  C3  BNZ d   1       1.125   4.125  -4.837  0.00  0.00     0.000 A 
ATOM      4  C4  BNZ d   1       0.556   4.502  -6.000  0.00  0.00     0.000 A 
ATOM      5  C5  BNZ d   1      -0.605   5.249  -6.000  0.00  0.00     0.000 A 
ATOM      6  C6  BNZ d   1      -1.184   5.620  -4.808  0.00  0.00     0.000 A 
ENDROOT
TORSDOF 0
ENDMDL
