MODEL 1
REMARK minimizedAffinity 1.03428841
REMARK minimizedRMSD -1
REMARK  0 active torsions:
REMARK  status: ('A' for Active; 'I' for Inactive)
ROOT
ATOM      1  C1  BNZ d   1      -0.377  -2.236   1.689  0.00  0.00     0.000 A 
ATOM      2  C2  BNZ d   1      -1.720  -1.981   1.611  0.00  0.00     0.000 A 
ATOM      3  C3  BNZ d   1      -2.512  -2.664   0.731  0.00  0.00     0.000 A 
ATOM      4  C4  BNZ d   1      -1.954  -3.571  -0.097  0.00  0.00     0.000 A 
ATOM      5  C5  BNZ d   1      -0.600  -3.832  -0.037  0.00  0.00     0.000 A 
ATOM      6  C6  BNZ d   1       0.188  -3.171   0.877  0.00  0.00     0.000 A 
ENDROOT
TORSDOF 0
ENDMDL
