MODEL 1
REMARK minimizedAffinity 3.63852596
REMARK minimizedRMSD -1
REMARK  0 active torsions:
REMARK  status: ('A' for Active; 'I' for Inactive)
ROOT
ATOM      1  C1  BNZ d   1       4.416   0.152   1.723  0.00  0.00     0.000 A 
ATOM      2  C2  BNZ d   1       5.677   0.375   2.208  0.00  0.00     0.000 A 
ATOM      3  C3  BNZ d   1       5.998   1.562   2.804  0.00  0.00     0.000 A 
ATOM      4  C4  BNZ d   1       5.071   2.538   2.878  0.00  0.00     0.000 A 
ATOM      5  C5  BNZ d   1       3.798   2.332   2.385  0.00  0.00     0.000 A 
ATOM      6  C6  BNZ d   1       3.467   1.122   1.821  0.00  0.00     0.000 A 
ENDROOT
TORSDOF 0
ENDMDL
