MODEL 1
REMARK minimizedAffinity 2.32247877
REMARK minimizedRMSD -1
REMARK  0 active torsions:
REMARK  status: ('A' for Active; 'I' for Inactive)
ROOT
ATOM      1  C1  BNZ d   1      -2.091  -2.918   0.463  0.00  0.00     0.000 A 
ATOM      2  C2  BNZ d   1      -1.710  -2.191   1.560  0.00  0.00     0.000 A 
ATOM      3  C3  BNZ d   1      -0.399  -2.142   1.946  0.00  0.00     0.000 A 
ATOM      4  C4  BNZ d   1       0.521  -2.850   1.260  0.00  0.00     0.000 A 
ATOM      5  C5  BNZ d   1       0.151  -3.594   0.158  0.00  0.00     0.000 A 
ATOM      6  C6  BNZ d   1      -1.163  -3.611  -0.251  0.00  0.00     0.000 A 
ENDROOT
TORSDOF 0
ENDMDL
