MODEL 1
REMARK minimizedAffinity 2.35726929
REMARK minimizedRMSD -1
REMARK  0 active torsions:
REMARK  status: ('A' for Active; 'I' for Inactive)
ROOT
ATOM      1  C1  BNZ d   1      -1.096   5.992  -3.713  0.00  0.00     0.000 A 
ATOM      2  C2  BNZ d   1       0.235   5.670  -3.724  0.00  0.00     0.000 A 
ATOM      3  C3  BNZ d   1       0.843   5.247  -4.873  0.00  0.00     0.000 A 
ATOM      4  C4  BNZ d   1       0.112   5.106  -5.997  0.00  0.00     0.000 A 
ATOM      5  C5  BNZ d   1      -1.234   5.417  -6.000  0.00  0.00     0.000 A 
ATOM      6  C6  BNZ d   1      -1.834   5.881  -4.851  0.00  0.00     0.000 A 
ENDROOT
TORSDOF 0
ENDMDL
