MODEL 1
REMARK minimizedAffinity 3.54272079
REMARK minimizedRMSD -1
REMARK  0 active torsions:
REMARK  status: ('A' for Active; 'I' for Inactive)
ROOT
ATOM      1  C1  BNZ d   1      -2.087   5.921  -3.636  0.00  0.00     0.000 A 
ATOM      2  C2  BNZ d   1      -0.718   5.920  -3.652  0.00  0.00     0.000 A 
ATOM      3  C3  BNZ d   1      -0.032   5.978  -4.833  0.00  0.00     0.000 A 
ATOM      4  C4  BNZ d   1      -0.715   5.996  -5.996  0.00  0.00     0.000 A 
ATOM      5  C5  BNZ d   1      -2.095   5.988  -5.997  0.00  0.00     0.000 A 
ATOM      6  C6  BNZ d   1      -2.783   5.969  -4.805  0.00  0.00     0.000 A 
ENDROOT
TORSDOF 0
ENDMDL
