MODEL 1
REMARK minimizedAffinity 6.49273491
REMARK minimizedRMSD -1
REMARK  0 active torsions:
REMARK  status: ('A' for Active; 'I' for Inactive)
ROOT
ATOM      1  C1  BNZ d   1       0.495   5.991  -5.998  0.00  0.00     0.000 A 
ATOM      2  C2  BNZ d   1      -0.875   5.993  -6.000  0.00  0.00     0.000 A 
ATOM      3  C3  BNZ d   1      -1.577   5.380  -4.999  0.00  0.00     0.000 A 
ATOM      4  C4  BNZ d   1      -0.910   4.733  -4.022  0.00  0.00     0.000 A 
ATOM      5  C5  BNZ d   1       0.470   4.714  -4.011  0.00  0.00     0.000 A 
ATOM      6  C6  BNZ d   1       1.174   5.365  -4.998  0.00  0.00     0.000 A 
ENDROOT
TORSDOF 0
ENDMDL
