MODEL 1
REMARK minimizedAffinity 8.43884659
REMARK minimizedRMSD -1
REMARK  0 active torsions:
REMARK  status: ('A' for Active; 'I' for Inactive)
ROOT
ATOM      1  C1  BNZ d   1       1.895   3.414  -2.316  0.00  0.00     0.000 A 
ATOM      2  C2  BNZ d   1       1.977   4.653  -1.741  0.00  0.00     0.000 A 
ATOM      3  C3  BNZ d   1       1.982   4.795  -0.381  0.00  0.00     0.000 A 
ATOM      4  C4  BNZ d   1       1.864   3.702   0.400  0.00  0.00     0.000 A 
ATOM      5  C5  BNZ d   1       1.771   2.446  -0.166  0.00  0.00     0.000 A 
ATOM      6  C6  BNZ d   1       1.806   2.304  -1.534  0.00  0.00     0.000 A 
ENDROOT
TORSDOF 0
ENDMDL
