MODEL 1
REMARK minimizedAffinity -0.353572488
REMARK minimizedRMSD -1
REMARK  0 active torsions:
REMARK  status: ('A' for Active; 'I' for Inactive)
ROOT
ATOM      1  C1  BNZ d   1      -4.680   5.503  -3.698  0.00  0.00     0.000 A 
ATOM      2  C2  BNZ d   1      -3.388   5.051  -3.709  0.00  0.00     0.000 A 
ATOM      3  C3  BNZ d   1      -2.641   5.094  -4.853  0.00  0.00     0.000 A 
ATOM      4  C4  BNZ d   1      -3.200   5.550  -5.993  0.00  0.00     0.000 A 
ATOM      5  C5  BNZ d   1      -4.506   6.000  -6.000  0.00  0.00     0.000 A 
ATOM      6  C6  BNZ d   1      -5.241   5.992  -4.837  0.00  0.00     0.000 A 
ENDROOT
TORSDOF 0
ENDMDL
