MODEL 1
REMARK minimizedAffinity 8.08063793
REMARK minimizedRMSD -1
REMARK  0 active torsions:
REMARK  status: ('A' for Active; 'I' for Inactive)
ROOT
ATOM      1  C1  BNZ d   1      -0.019  -3.387   2.451  0.00  0.00     0.000 A 
ATOM      2  C2  BNZ d   1       0.440  -2.785   3.592  0.00  0.00     0.000 A 
ATOM      3  C3  BNZ d   1       0.102  -1.494   3.887  0.00  0.00     0.000 A 
ATOM      4  C4  BNZ d   1      -0.660  -0.794   3.022  0.00  0.00     0.000 A 
ATOM      5  C5  BNZ d   1      -1.124  -1.385   1.863  0.00  0.00     0.000 A 
ATOM      6  C6  BNZ d   1      -0.814  -2.697   1.589  0.00  0.00     0.000 A 
ENDROOT
TORSDOF 0
ENDMDL
