MODEL 1
REMARK minimizedAffinity 4.10611725
REMARK minimizedRMSD -1
REMARK  0 active torsions:
REMARK  status: ('A' for Active; 'I' for Inactive)
ROOT
ATOM      1  C1  BNZ d   1      -1.035   5.983  -3.862  0.00  0.00     0.000 A 
ATOM      2  C2  BNZ d   1      -2.279   5.988  -3.289  0.00  0.00     0.000 A 
ATOM      3  C3  BNZ d   1      -3.406   5.971  -4.062  0.00  0.00     0.000 A 
ATOM      4  C4  BNZ d   1      -3.288   5.990  -5.405  0.00  0.00     0.000 A 
ATOM      5  C5  BNZ d   1      -2.041   5.994  -5.998  0.00  0.00     0.000 A 
ATOM      6  C6  BNZ d   1      -0.909   5.972  -5.217  0.00  0.00     0.000 A 
ENDROOT
TORSDOF 0
ENDMDL
