MODEL 1
REMARK minimizedAffinity 0.507038414
REMARK minimizedRMSD -1
REMARK  0 active torsions:
REMARK  status: ('A' for Active; 'I' for Inactive)
ROOT
ATOM      1  C1  BNZ d   1      -2.783   0.924   1.900  0.00  0.00     0.000 A 
ATOM      2  C2  BNZ d   1      -3.769   1.492   1.139  0.00  0.00     0.000 A 
ATOM      3  C3  BNZ d   1      -4.363   0.791   0.127  0.00  0.00     0.000 A 
ATOM      4  C4  BNZ d   1      -3.943  -0.461  -0.149  0.00  0.00     0.000 A 
ATOM      5  C5  BNZ d   1      -2.943  -1.044   0.604  0.00  0.00     0.000 A 
ATOM      6  C6  BNZ d   1      -2.375  -0.350   1.647  0.00  0.00     0.000 A 
ENDROOT
TORSDOF 0
ENDMDL
