MODEL 1
REMARK minimizedAffinity 0.404972106
REMARK minimizedRMSD -1
REMARK  0 active torsions:
REMARK  status: ('A' for Active; 'I' for Inactive)
ROOT
ATOM      1  C1  BNZ d   1      -1.031  -5.099  -5.245  0.00  0.00     0.000 A 
ATOM      2  C2  BNZ d   1      -1.739  -5.999  -5.996  0.00  0.00     0.000 A 
ATOM      3  C3  BNZ d   1      -3.106  -5.998  -5.985  0.00  0.00     0.000 A 
ATOM      4  C4  BNZ d   1      -3.761  -5.125  -5.192  0.00  0.00     0.000 A 
ATOM      5  C5  BNZ d   1      -3.062  -4.218  -4.422  0.00  0.00     0.000 A 
ATOM      6  C6  BNZ d   1      -1.686  -4.196  -4.466  0.00  0.00     0.000 A 
ENDROOT
TORSDOF 0
ENDMDL
