MODEL 1
REMARK minimizedAffinity 6.86963224
REMARK minimizedRMSD -1
REMARK  0 active torsions:
REMARK  status: ('A' for Active; 'I' for Inactive)
ROOT
ATOM      1  C1  BNZ d   1      -0.147   5.992  -3.646  0.00  0.00     0.000 A 
ATOM      2  C2  BNZ d   1       1.043   5.354  -3.876  0.00  0.00     0.000 A 
ATOM      3  C3  BNZ d   1       1.276   4.716  -5.062  0.00  0.00     0.000 A 
ATOM      4  C4  BNZ d   1       0.307   4.682  -5.999  0.00  0.00     0.000 A 
ATOM      5  C5  BNZ d   1      -0.901   5.312  -5.778  0.00  0.00     0.000 A 
ATOM      6  C6  BNZ d   1      -1.118   5.987  -4.598  0.00  0.00     0.000 A 
ENDROOT
TORSDOF 0
ENDMDL
