MODEL 1
REMARK minimizedAffinity 2.43638039
REMARK minimizedRMSD -1
REMARK  0 active torsions:
REMARK  status: ('A' for Active; 'I' for Inactive)
ROOT
ATOM      1  C1  BNZ d   1      -4.274   1.201  -0.591  0.00  0.00     0.000 A 
ATOM      2  C2  BNZ d   1      -4.031   1.196   0.757  0.00  0.00     0.000 A 
ATOM      3  C3  BNZ d   1      -3.044   0.414   1.287  0.00  0.00     0.000 A 
ATOM      4  C4  BNZ d   1      -2.328  -0.391   0.476  0.00  0.00     0.000 A 
ATOM      5  C5  BNZ d   1      -2.567  -0.405  -0.884  0.00  0.00     0.000 A 
ATOM      6  C6  BNZ d   1      -3.535   0.413  -1.419  0.00  0.00     0.000 A 
ENDROOT
TORSDOF 0
ENDMDL
