MODEL 1
REMARK minimizedAffinity 8.66166782
REMARK minimizedRMSD -1
REMARK  0 active torsions:
REMARK  status: ('A' for Active; 'I' for Inactive)
ROOT
ATOM      1  C1  DEN d   1      -0.302  -2.567   0.882  0.00  0.00     0.130 A 
ATOM      2  C2  DEN d   1      -1.243  -1.605   0.314  0.00  0.00    -0.031 A 
ATOM      3  C3  DEN d   1      -2.574  -2.244   0.266  0.00  0.00     0.027 A 
ATOM      4  C4  DEN d   1      -3.266  -4.612   1.017  0.00  0.00     0.027 A 
ATOM      5  C5  DEN d   1      -2.813  -5.797   1.552  0.00  0.00    -0.003 A 
ATOM      6  C6  DEN d   1      -1.495  -5.999   1.868  0.00  0.00     0.001 A 
ATOM      7  C7  DEN d   1      -0.592  -4.984   1.692  0.00  0.00     0.017 A 
ATOM      8  C8  DEN d   1      -1.040  -3.788   1.146  0.00  0.00    -0.094 A 
ATOM      9  C9  DEN d   1      -2.379  -3.600   0.845  0.00  0.00    -0.072 A 
ENDROOT
TORSDOF 0
ENDMDL
