MODEL 1
REMARK minimizedAffinity 11.2773218
REMARK minimizedRMSD -1
REMARK  0 active torsions:
REMARK  status: ('A' for Active; 'I' for Inactive)
ROOT
ATOM      1  C1  DEN d   1      -6.000  -0.734   3.907  0.00  0.00     0.130 A 
ATOM      2  C2  DEN d   1      -5.999  -0.973   5.348  0.00  0.00    -0.031 A 
ATOM      3  C3  DEN d   1      -5.323   0.166   6.000  0.00  0.00     0.027 A 
ATOM      4  C4  DEN d   1      -4.286   2.269   4.925  0.00  0.00     0.027 A 
ATOM      5  C5  DEN d   1      -4.033   2.912   3.733  0.00  0.00    -0.003 A 
ATOM      6  C6  DEN d   1      -4.384   2.373   2.524  0.00  0.00     0.001 A 
ATOM      7  C7  DEN d   1      -5.049   1.176   2.482  0.00  0.00     0.017 A 
ATOM      8  C8  DEN d   1      -5.302   0.519   3.678  0.00  0.00    -0.094 A 
ATOM      9  C9  DEN d   1      -4.949   1.086   4.891  0.00  0.00    -0.072 A 
ENDROOT
TORSDOF 0
ENDMDL
