MODEL 1
REMARK minimizedAffinity 8.57456493
REMARK minimizedRMSD -1
REMARK  0 active torsions:
REMARK  status: ('A' for Active; 'I' for Inactive)
ROOT
ATOM      1  C1  DEN d   1       2.916   0.027   1.683  0.00  0.00     0.130 A 
ATOM      2  C2  DEN d   1       3.383  -0.439   2.986  0.00  0.00    -0.031 A 
ATOM      3  C3  DEN d   1       4.678  -1.122   2.789  0.00  0.00     0.027 A 
ATOM      4  C4  DEN d   1       6.000  -1.494   0.606  0.00  0.00     0.027 A 
ATOM      5  C5  DEN d   1       5.999  -1.287  -0.756  0.00  0.00    -0.003 A 
ATOM      6  C6  DEN d   1       4.963  -0.663  -1.400  0.00  0.00     0.001 A 
ATOM      7  C7  DEN d   1       3.905  -0.183  -0.675  0.00  0.00     0.017 A 
ATOM      8  C8  DEN d   1       3.895  -0.394   0.698  0.00  0.00    -0.094 A 
ATOM      9  C9  DEN d   1       4.957  -1.016   1.331  0.00  0.00    -0.072 A 
ENDROOT
TORSDOF 0
ENDMDL
