MODEL 1
REMARK minimizedAffinity 13.5928097
REMARK minimizedRMSD -1
REMARK  0 active torsions:
REMARK  status: ('A' for Active; 'I' for Inactive)
ROOT
ATOM      1  C1  DEN d   1      -5.735   6.000   3.505  0.00  0.00     0.130 A 
ATOM      2  C2  DEN d   1      -5.999   5.998   2.069  0.00  0.00    -0.031 A 
ATOM      3  C3  DEN d   1      -5.743   4.636   1.559  0.00  0.00     0.027 A 
ATOM      4  C4  DEN d   1      -4.971   2.539   2.849  0.00  0.00     0.027 A 
ATOM      5  C5  DEN d   1      -4.607   2.053   4.085  0.00  0.00    -0.003 A 
ATOM      6  C6  DEN d   1      -4.560   2.849   5.198  0.00  0.00     0.001 A 
ATOM      7  C7  DEN d   1      -4.928   4.165   5.107  0.00  0.00     0.017 A 
ATOM      8  C8  DEN d   1      -5.289   4.665   3.863  0.00  0.00    -0.094 A 
ATOM      9  C9  DEN d   1      -5.341   3.841   2.751  0.00  0.00    -0.072 A 
ENDROOT
TORSDOF 0
ENDMDL
