MODEL 1
REMARK minimizedAffinity 1.88331103
REMARK minimizedRMSD -1
REMARK  0 active torsions:
REMARK  status: ('A' for Active; 'I' for Inactive)
ROOT
ATOM      1  C1  DEN d   1      -6.000   3.346   6.000  0.00  0.00     0.130 A 
ATOM      2  C2  DEN d   1      -5.468   4.541   5.350  0.00  0.00    -0.031 A 
ATOM      3  C3  DEN d   1      -4.864   4.131   4.066  0.00  0.00     0.027 A 
ATOM      4  C4  DEN d   1      -4.706   1.776   3.025  0.00  0.00     0.027 A 
ATOM      5  C5  DEN d   1      -5.006   0.444   3.211  0.00  0.00    -0.003 A 
ATOM      6  C6  DEN d   1      -5.622  -0.014   4.345  0.00  0.00     0.001 A 
ATOM      7  C7  DEN d   1      -6.000   0.873   5.318  0.00  0.00     0.017 A 
ATOM      8  C8  DEN d   1      -5.695   2.216   5.142  0.00  0.00    -0.094 A 
ATOM      9  C9  DEN d   1      -5.082   2.661   3.983  0.00  0.00    -0.072 A 
ENDROOT
TORSDOF 0
ENDMDL
