MODEL 1
REMARK minimizedAffinity 13.8862686
REMARK minimizedRMSD -1
REMARK  0 active torsions:
REMARK  status: ('A' for Active; 'I' for Inactive)
ROOT
ATOM      1  C1  DEN d   1       1.361   2.378   0.765  0.00  0.00     0.130 A 
ATOM      2  C2  DEN d   1       0.766   1.570   1.826  0.00  0.00    -0.031 A 
ATOM      3  C3  DEN d   1       1.675   0.439   2.102  0.00  0.00     0.027 A 
ATOM      4  C4  DEN d   1       3.936  -0.132   0.998  0.00  0.00     0.027 A 
ATOM      5  C5  DEN d   1       4.847   0.255   0.040  0.00  0.00    -0.003 A 
ATOM      6  C6  DEN d   1       4.645   1.348  -0.760  0.00  0.00     0.001 A 
ATOM      7  C7  DEN d   1       3.526   2.119  -0.586  0.00  0.00     0.017 A 
ATOM      8  C8  DEN d   1       2.600   1.732   0.373  0.00  0.00    -0.094 A 
ATOM      9  C9  DEN d   1       2.828   0.630   1.180  0.00  0.00    -0.072 A 
ENDROOT
TORSDOF 0
ENDMDL
