MODEL 1
REMARK minimizedAffinity 2.27871585
REMARK minimizedRMSD -1
REMARK  0 active torsions:
REMARK  status: ('A' for Active; 'I' for Inactive)
ROOT
ATOM      1  C1  DEN d   1      -4.442   0.546   2.473  0.00  0.00     0.130 A 
ATOM      2  C2  DEN d   1      -5.253  -0.663   2.589  0.00  0.00    -0.031 A 
ATOM      3  C3  DEN d   1      -5.999  -0.591   3.861  0.00  0.00     0.027 A 
ATOM      4  C4  DEN d   1      -5.982   1.266   5.651  0.00  0.00     0.027 A 
ATOM      5  C5  DEN d   1      -5.440   2.483   6.000  0.00  0.00    -0.003 A 
ATOM      6  C6  DEN d   1      -4.510   3.119   5.221  0.00  0.00     0.001 A 
ATOM      7  C7  DEN d   1      -4.126   2.561   4.030  0.00  0.00     0.017 A 
ATOM      8  C8  DEN d   1      -4.662   1.330   3.675  0.00  0.00    -0.094 A 
ATOM      9  C9  DEN d   1      -5.611   0.710   4.470  0.00  0.00    -0.072 A 
ENDROOT
TORSDOF 0
ENDMDL
