MODEL 1
REMARK minimizedAffinity 4.65023232
REMARK minimizedRMSD -1
REMARK  0 active torsions:
REMARK  status: ('A' for Active; 'I' for Inactive)
ROOT
ATOM      1  C1  DEN d   1      -5.045   1.262   2.667  0.00  0.00     0.130 A 
ATOM      2  C2  DEN d   1      -5.540  -0.021   3.158  0.00  0.00    -0.031 A 
ATOM      3  C3  DEN d   1      -5.998   0.169   4.549  0.00  0.00     0.027 A 
ATOM      4  C4  DEN d   1      -5.993   2.315   5.980  0.00  0.00     0.027 A 
ATOM      5  C5  DEN d   1      -5.658   3.651   5.999  0.00  0.00    -0.003 A 
ATOM      6  C6  DEN d   1      -5.068   4.271   4.930  0.00  0.00     0.001 A 
ATOM      7  C7  DEN d   1      -4.837   3.565   3.779  0.00  0.00     0.017 A 
ATOM      8  C8  DEN d   1      -5.166   2.216   3.754  0.00  0.00    -0.094 A 
ATOM      9  C9  DEN d   1      -5.772   1.610   4.842  0.00  0.00    -0.072 A 
ENDROOT
TORSDOF 0
ENDMDL
