MODEL 1
REMARK minimizedAffinity 13.6138792
REMARK minimizedRMSD -1
REMARK  0 active torsions:
REMARK  status: ('A' for Active; 'I' for Inactive)
ROOT
ATOM      1  C1  DEN d   1       1.003  -0.514   4.508  0.00  0.00     0.130 A 
ATOM      2  C2  DEN d   1       0.027   0.518   4.847  0.00  0.00    -0.031 A 
ATOM      3  C3  DEN d   1       0.039   1.529   3.771  0.00  0.00     0.027 A 
ATOM      4  C4  DEN d   1       1.465   1.595   1.622  0.00  0.00     0.027 A 
ATOM      5  C5  DEN d   1       2.443   0.944   0.904  0.00  0.00    -0.003 A 
ATOM      6  C6  DEN d   1       3.030  -0.210   1.350  0.00  0.00     0.001 A 
ATOM      7  C7  DEN d   1       2.611  -0.775   2.526  0.00  0.00     0.017 A 
ATOM      8  C8  DEN d   1       1.630  -0.120   3.259  0.00  0.00    -0.094 A 
ATOM      9  C9  DEN d   1       1.040   1.039   2.786  0.00  0.00    -0.072 A 
ENDROOT
TORSDOF 0
ENDMDL
