MODEL 1
REMARK minimizedAffinity 18.9373512
REMARK minimizedRMSD -1
REMARK  0 active torsions:
REMARK  status: ('A' for Active; 'I' for Inactive)
ROOT
ATOM      1  C1  DEN d   1      -1.722  -4.493  -2.104  0.00  0.00     0.130 A 
ATOM      2  C2  DEN d   1      -1.523  -3.146  -2.631  0.00  0.00    -0.031 A 
ATOM      3  C3  DEN d   1      -2.838  -2.621  -3.050  0.00  0.00     0.027 A 
ATOM      4  C4  DEN d   1      -5.151  -3.755  -2.931  0.00  0.00     0.027 A 
ATOM      5  C5  DEN d   1      -5.821  -4.904  -2.571  0.00  0.00    -0.003 A 
ATOM      6  C6  DEN d   1      -5.172  -6.000  -2.066  0.00  0.00     0.001 A 
ATOM      7  C7  DEN d   1      -3.818  -5.953  -1.864  0.00  0.00     0.017 A 
ATOM      8  C8  DEN d   1      -3.135  -4.802  -2.232  0.00  0.00    -0.094 A 
ATOM      9  C9  DEN d   1      -3.810  -3.700  -2.729  0.00  0.00    -0.072 A 
ENDROOT
TORSDOF 0
ENDMDL
