MODEL 1
REMARK minimizedAffinity 21.9285145
REMARK minimizedRMSD -1
REMARK  0 active torsions:
REMARK  status: ('A' for Active; 'I' for Inactive)
ROOT
ATOM      1  C1  DEN d   1       4.676  -0.457   2.289  0.00  0.00     0.130 A 
ATOM      2  C2  DEN d   1       5.841  -0.850   1.501  0.00  0.00    -0.031 A 
ATOM      3  C3  DEN d   1       5.748  -0.186   0.186  0.00  0.00     0.027 A 
ATOM      4  C4  DEN d   1       3.927   1.410  -0.701  0.00  0.00     0.027 A 
ATOM      5  C5  DEN d   1       2.735   2.031  -0.400  0.00  0.00    -0.003 A 
ATOM      6  C6  DEN d   1       2.094   1.841   0.795  0.00  0.00     0.001 A 
ATOM      7  C7  DEN d   1       2.665   1.045   1.752  0.00  0.00     0.017 A 
ATOM      8  C8  DEN d   1       3.863   0.410   1.453  0.00  0.00    -0.094 A 
ATOM      9  C9  DEN d   1       4.502   0.624   0.244  0.00  0.00    -0.072 A 
ENDROOT
TORSDOF 0
ENDMDL
