MODEL 1
REMARK minimizedAffinity 15.4628801
REMARK minimizedRMSD -1
REMARK  0 active torsions:
REMARK  status: ('A' for Active; 'I' for Inactive)
ROOT
ATOM      1  C1  DEN d   1      -2.653  -2.691  -0.081  0.00  0.00     0.130 A 
ATOM      2  C2  DEN d   1      -1.524  -1.926   0.438  0.00  0.00    -0.031 A 
ATOM      3  C3  DEN d   1      -0.930  -2.689   1.555  0.00  0.00     0.027 A 
ATOM      4  C4  DEN d   1      -1.645  -4.971   2.521  0.00  0.00     0.027 A 
ATOM      5  C5  DEN d   1      -2.556  -5.999   2.417  0.00  0.00    -0.003 A 
ATOM      6  C6  DEN d   1      -3.575  -5.981   1.502  0.00  0.00     0.001 A 
ATOM      7  C7  DEN d   1      -3.682  -4.934   0.625  0.00  0.00     0.017 A 
ATOM      8  C8  DEN d   1      -2.771  -3.890   0.729  0.00  0.00    -0.094 A 
ATOM      9  C9  DEN d   1      -1.740  -3.933   1.652  0.00  0.00    -0.072 A 
ENDROOT
TORSDOF 0
ENDMDL
