MODEL 1
REMARK minimizedAffinity 13.078866
REMARK minimizedRMSD -1
REMARK  0 active torsions:
REMARK  status: ('A' for Active; 'I' for Inactive)
ROOT
ATOM      1  C1  DEN d   1      -5.178  -3.523  -2.096  0.00  0.00     0.130 A 
ATOM      2  C2  DEN d   1      -5.701  -3.737  -3.442  0.00  0.00    -0.031 A 
ATOM      3  C3  DEN d   1      -4.660  -3.329  -4.407  0.00  0.00     0.027 A 
ATOM      4  C4  DEN d   1      -2.299  -2.398  -3.949  0.00  0.00     0.027 A 
ATOM      5  C5  DEN d   1      -1.409  -2.029  -2.964  0.00  0.00    -0.003 A 
ATOM      6  C6  DEN d   1      -1.723  -2.100  -1.633  0.00  0.00     0.001 A 
ATOM      7  C7  DEN d   1      -2.942  -2.593  -1.248  0.00  0.00     0.017 A 
ATOM      8  C8  DEN d   1      -3.847  -2.959  -2.235  0.00  0.00    -0.094 A 
ATOM      9  C9  DEN d   1      -3.507  -2.892  -3.575  0.00  0.00    -0.072 A 
ENDROOT
TORSDOF 0
ENDMDL
