MODEL 1
REMARK minimizedAffinity 19.279686
REMARK minimizedRMSD -1
REMARK  0 active torsions:
REMARK  status: ('A' for Active; 'I' for Inactive)
ROOT
ATOM      1  C1  DEN d   1      -1.871  -4.785  -2.286  0.00  0.00     0.130 A 
ATOM      2  C2  DEN d   1      -1.455  -3.427  -2.628  0.00  0.00    -0.031 A 
ATOM      3  C3  DEN d   1      -2.651  -2.681  -3.070  0.00  0.00     0.027 A 
ATOM      4  C4  DEN d   1      -5.093  -3.491  -3.253  0.00  0.00     0.027 A 
ATOM      5  C5  DEN d   1      -5.934  -4.568  -3.084  0.00  0.00    -0.003 A 
ATOM      6  C6  DEN d   1      -5.478  -5.793  -2.674  0.00  0.00     0.001 A 
ATOM      7  C7  DEN d   1      -4.151  -5.958  -2.374  0.00  0.00     0.017 A 
ATOM      8  C8  DEN d   1      -3.296  -4.878  -2.549  0.00  0.00    -0.094 A 
ATOM      9  C9  DEN d   1      -3.778  -3.645  -2.953  0.00  0.00    -0.072 A 
ENDROOT
TORSDOF 0
ENDMDL
