MODEL 1
REMARK minimizedAffinity 8.15852165
REMARK minimizedRMSD -1
REMARK  0 active torsions:
REMARK  status: ('A' for Active; 'I' for Inactive)
ROOT
ATOM      1  C1  DEN d   1      -3.291  -4.848   1.442  0.00  0.00     0.130 A 
ATOM      2  C2  DEN d   1      -2.637  -5.998   2.061  0.00  0.00    -0.031 A 
ATOM      3  C3  DEN d   1      -1.200  -5.940   1.726  0.00  0.00     0.027 A 
ATOM      4  C4  DEN d   1       0.070  -4.189   0.323  0.00  0.00     0.027 A 
ATOM      5  C5  DEN d   1      -0.060  -3.035  -0.419  0.00  0.00    -0.003 A 
ATOM      6  C6  DEN d   1      -1.272  -2.429  -0.619  0.00  0.00     0.001 A 
ATOM      7  C7  DEN d   1      -2.396  -2.949  -0.033  0.00  0.00     0.017 A 
ATOM      8  C8  DEN d   1      -2.273  -4.116   0.710  0.00  0.00    -0.094 A 
ATOM      9  C9  DEN d   1      -1.037  -4.707   0.911  0.00  0.00    -0.072 A 
ENDROOT
TORSDOF 0
ENDMDL
