MODEL 1
REMARK minimizedAffinity 20.5928345
REMARK minimizedRMSD -1
REMARK  0 active torsions:
REMARK  status: ('A' for Active; 'I' for Inactive)
ROOT
ATOM      1  C1  DEN d   1      -0.513  -1.490  -4.942  0.00  0.00     0.130 A 
ATOM      2  C2  DEN d   1      -1.222  -2.206  -5.998  0.00  0.00    -0.031 A 
ATOM      3  C3  DEN d   1      -2.379  -2.891  -5.388  0.00  0.00     0.027 A 
ATOM      4  C4  DEN d   1      -3.142  -2.906  -2.924  0.00  0.00     0.027 A 
ATOM      5  C5  DEN d   1      -2.852  -2.452  -1.657  0.00  0.00    -0.003 A 
ATOM      6  C6  DEN d   1      -1.752  -1.680  -1.392  0.00  0.00     0.001 A 
ATOM      7  C7  DEN d   1      -0.926  -1.301  -2.416  0.00  0.00     0.017 A 
ATOM      8  C8  DEN d   1      -1.208  -1.760  -3.696  0.00  0.00    -0.094 A 
ATOM      9  C9  DEN d   1      -2.331  -2.530  -3.946  0.00  0.00    -0.072 A 
ENDROOT
TORSDOF 0
ENDMDL
