MODEL 1
REMARK minimizedAffinity -6.02523279
REMARK minimizedRMSD -1
REMARK  0 active torsions:
REMARK  status: ('A' for Active; 'I' for Inactive)
ROOT
ATOM      1  C2' OXE d   1      -1.237  -0.055   1.279  0.00  0.00     0.078 C 
ATOM      2  C1' OXE d   1       0.232   0.775  -0.964  0.00  0.00     0.078 C 
ATOM      3  C1  OXE d   1       0.014  -0.706  -0.775  0.00  0.00    -0.078 A 
ATOM      4  C2  OXE d   1      -0.666  -1.105   0.351  0.00  0.00    -0.078 A 
ATOM      5  C3  OXE d   1      -0.942  -2.456   0.546  0.00  0.00     0.003 A 
ATOM      6  C4  OXE d   1      -0.402  -3.421  -0.312  0.00  0.00    -0.002 A 
ATOM      7  C5  OXE d   1       0.327  -3.037  -1.443  0.00  0.00    -0.002 A 
ATOM      8  C6  OXE d   1       0.508  -1.685  -1.711  0.00  0.00     0.003 A 
ENDROOT
TORSDOF 0
ENDMDL
