MODEL 1
REMARK minimizedAffinity -1.89554203
REMARK minimizedRMSD -1
REMARK  0 active torsions:
REMARK  status: ('A' for Active; 'I' for Inactive)
ROOT
ATOM      1  C2' OXE d   1      -1.054  -0.006   1.903  0.00  0.00     0.078 C 
ATOM      2  C1' OXE d   1       0.196   0.951  -0.422  0.00  0.00     0.078 C 
ATOM      3  C1  OXE d   1      -0.099  -0.526  -0.339  0.00  0.00    -0.078 A 
ATOM      4  C2  OXE d   1      -0.668  -0.993   0.822  0.00  0.00    -0.078 A 
ATOM      5  C3  OXE d   1      -1.011  -2.337   0.929  0.00  0.00     0.003 A 
ATOM      6  C4  OXE d   1      -0.641  -3.245  -0.071  0.00  0.00    -0.002 A 
ATOM      7  C5  OXE d   1      -0.025  -2.797  -1.244  0.00  0.00    -0.002 A 
ATOM      8  C6  OXE d   1       0.214  -1.438  -1.411  0.00  0.00     0.003 A 
ENDROOT
TORSDOF 0
ENDMDL
