MODEL 1
REMARK minimizedAffinity -4.16441011
REMARK minimizedRMSD -1
REMARK  0 active torsions:
REMARK  status: ('A' for Active; 'I' for Inactive)
ROOT
ATOM      1  C2' OXE d   1      -0.348   0.582   1.814  0.00  0.00     0.078 C 
ATOM      2  C1' OXE d   1       0.141   2.490  -0.186  0.00  0.00     0.078 C 
ATOM      3  C1  OXE d   1       0.088   1.039  -0.595  0.00  0.00    -0.078 A 
ATOM      4  C2  OXE d   1      -0.106   0.109   0.397  0.00  0.00    -0.078 A 
ATOM      5  C3  OXE d   1      -0.218  -1.239   0.067  0.00  0.00     0.003 A 
ATOM      6  C4  OXE d   1       0.018  -1.669  -1.245  0.00  0.00    -0.002 A 
ATOM      7  C5  OXE d   1       0.256  -0.741  -2.264  0.00  0.00    -0.002 A 
ATOM      8  C6  OXE d   1       0.252   0.617  -1.964  0.00  0.00     0.003 A 
ENDROOT
TORSDOF 0
ENDMDL
