MODEL 1
REMARK minimizedAffinity -4.53838396
REMARK minimizedRMSD -1
REMARK  0 active torsions:
REMARK  status: ('A' for Active; 'I' for Inactive)
ROOT
ATOM      1  C2' OXE d   1       1.212  -1.795  -2.715  0.00  0.00     0.078 C 
ATOM      2  C1' OXE d   1       0.590  -3.027  -0.271  0.00  0.00     0.078 C 
ATOM      3  C1  OXE d   1       0.179  -1.588  -0.458  0.00  0.00    -0.078 A 
ATOM      4  C2  OXE d   1       0.529  -0.979  -1.639  0.00  0.00    -0.078 A 
ATOM      5  C3  OXE d   1       0.126   0.331  -1.885  0.00  0.00     0.003 A 
ATOM      6  C4  OXE d   1      -0.497   1.081  -0.880  0.00  0.00    -0.002 A 
ATOM      7  C5  OXE d   1      -0.827   0.492   0.345  0.00  0.00    -0.002 A 
ATOM      8  C6  OXE d   1      -0.534  -0.851   0.556  0.00  0.00     0.003 A 
ENDROOT
TORSDOF 0
ENDMDL
