MODEL 1
REMARK minimizedAffinity -4.00015354
REMARK minimizedRMSD -1
REMARK  0 active torsions:
REMARK  status: ('A' for Active; 'I' for Inactive)
ROOT
ATOM      1  C2' OXE d   1       2.821   3.487   1.882  0.00  0.00     0.078 C 
ATOM      2  C1' OXE d   1       0.821   2.785   0.041  0.00  0.00     0.078 C 
ATOM      3  C1  OXE d   1       0.530   3.912   1.000  0.00  0.00    -0.078 A 
ATOM      4  C2  OXE d   1       1.496   4.217   1.928  0.00  0.00    -0.078 A 
ATOM      5  C3  OXE d   1       1.301   5.284   2.801  0.00  0.00     0.003 A 
ATOM      6  C4  OXE d   1       0.069   5.948   2.844  0.00  0.00    -0.002 A 
ATOM      7  C5  OXE d   1      -0.943   5.626   1.934  0.00  0.00    -0.002 A 
ATOM      8  C6  OXE d   1      -0.714   4.641   0.980  0.00  0.00     0.003 A 
ENDROOT
TORSDOF 0
ENDMDL
