MODEL 1
REMARK minimizedAffinity -5.23197937
REMARK minimizedRMSD -1
REMARK  0 active torsions:
REMARK  status: ('A' for Active; 'I' for Inactive)
ROOT
ATOM      1  C2' OXE d   1      -1.863   0.500   1.123  0.00  0.00     0.078 C 
ATOM      2  C1' OXE d   1       0.004   1.153  -0.869  0.00  0.00     0.078 C 
ATOM      3  C1  OXE d   1       0.036  -0.246  -0.306  0.00  0.00    -0.078 A 
ATOM      4  C2  OXE d   1      -0.851  -0.543   0.701  0.00  0.00    -0.078 A 
ATOM      5  C3  OXE d   1      -0.901  -1.834   1.217  0.00  0.00     0.003 A 
ATOM      6  C4  OXE d   1       0.045  -2.790   0.828  0.00  0.00    -0.002 A 
ATOM      7  C5  OXE d   1       0.983  -2.497  -0.168  0.00  0.00    -0.002 A 
ATOM      8  C6  OXE d   1       0.964  -1.245  -0.774  0.00  0.00     0.003 A 
ENDROOT
TORSDOF 0
ENDMDL
