MODEL 1
REMARK minimizedAffinity -4.60228157
REMARK minimizedRMSD -1
REMARK  0 active torsions:
REMARK  status: ('A' for Active; 'I' for Inactive)
ROOT
ATOM      1  C2' OXE d   1       0.302  -3.254   0.320  0.00  0.00     0.078 C 
ATOM      2  C1' OXE d   1       1.319  -1.689  -1.777  0.00  0.00     0.078 C 
ATOM      3  C1  OXE d   1       0.478  -1.002  -0.730  0.00  0.00    -0.078 A 
ATOM      4  C2  OXE d   1      -0.054  -1.784   0.266  0.00  0.00    -0.078 A 
ATOM      5  C3  OXE d   1      -0.792  -1.192   1.287  0.00  0.00     0.003 A 
ATOM      6  C4  OXE d   1      -1.125   0.167   1.225  0.00  0.00    -0.002 A 
ATOM      7  C5  OXE d   1      -0.626   0.974   0.197  0.00  0.00    -0.002 A 
ATOM      8  C6  OXE d   1       0.211   0.415  -0.763  0.00  0.00     0.003 A 
ENDROOT
TORSDOF 0
ENDMDL
