MODEL 1
REMARK minimizedAffinity -5.25131655
REMARK minimizedRMSD -1
REMARK  0 active torsions:
REMARK  status: ('A' for Active; 'I' for Inactive)
ROOT
ATOM      1  C2' OXE d   1      -0.171  -3.310  -0.002  0.00  0.00     0.078 C 
ATOM      2  C1' OXE d   1       0.826  -1.841  -2.176  0.00  0.00     0.078 C 
ATOM      3  C1  OXE d   1       0.299  -1.073  -0.990  0.00  0.00    -0.078 A 
ATOM      4  C2  OXE d   1      -0.230  -1.799   0.050  0.00  0.00    -0.078 A 
ATOM      5  C3  OXE d   1      -0.680  -1.141   1.191  0.00  0.00     0.003 A 
ATOM      6  C4  OXE d   1      -0.740   0.257   1.226  0.00  0.00    -0.002 A 
ATOM      7  C5  OXE d   1      -0.243   1.016   0.161  0.00  0.00    -0.002 A 
ATOM      8  C6  OXE d   1       0.318   0.368  -0.934  0.00  0.00     0.003 A 
ENDROOT
TORSDOF 0
ENDMDL
