MODEL 1
REMARK minimizedAffinity -3.27859092
REMARK minimizedRMSD -1
REMARK  0 active torsions:
REMARK  status: ('A' for Active; 'I' for Inactive)
ROOT
ATOM      1  C2' OXE d   1      -0.008  -3.070  -0.037  0.00  0.00     0.078 C 
ATOM      2  C1' OXE d   1       0.805  -1.751  -2.378  0.00  0.00     0.078 C 
ATOM      3  C1  OXE d   1       0.312  -0.906  -1.230  0.00  0.00    -0.078 A 
ATOM      4  C2  OXE d   1      -0.128  -1.562  -0.106  0.00  0.00    -0.078 A 
ATOM      5  C3  OXE d   1      -0.542  -0.829   1.003  0.00  0.00     0.003 A 
ATOM      6  C4  OXE d   1      -0.659   0.564   0.927  0.00  0.00    -0.002 A 
ATOM      7  C5  OXE d   1      -0.254   1.249  -0.223  0.00  0.00    -0.002 A 
ATOM      8  C6  OXE d   1       0.273   0.534  -1.293  0.00  0.00     0.003 A 
ENDROOT
TORSDOF 0
ENDMDL
