MODEL 1
REMARK minimizedAffinity -4.04635906
REMARK minimizedRMSD -1
REMARK  0 active torsions:
REMARK  status: ('A' for Active; 'I' for Inactive)
ROOT
ATOM      1  C2' OXE d   1      -0.331  -2.969   1.020  0.00  0.00     0.078 C 
ATOM      2  C1' OXE d   1      -1.586  -0.765   2.224  0.00  0.00     0.078 C 
ATOM      3  C1  OXE d   1      -0.664  -0.501   1.059  0.00  0.00    -0.078 A 
ATOM      4  C2  OXE d   1      -0.018  -1.580   0.506  0.00  0.00    -0.078 A 
ATOM      5  C3  OXE d   1       0.801  -1.398  -0.604  0.00  0.00     0.003 A 
ATOM      6  C4  OXE d   1       1.093  -0.110  -1.067  0.00  0.00    -0.002 A 
ATOM      7  C5  OXE d   1       0.477   1.007  -0.492  0.00  0.00    -0.002 A 
ATOM      8  C6  OXE d   1      -0.435   0.826   0.542  0.00  0.00     0.003 A 
ENDROOT
TORSDOF 0
ENDMDL
