MODEL 1
REMARK minimizedAffinity -5.23593521
REMARK minimizedRMSD -1
REMARK  0 active torsions:
REMARK  status: ('A' for Active; 'I' for Inactive)
ROOT
ATOM      1  C2' OXE d   1      -1.778   0.278   2.043  0.00  0.00     0.078 C 
ATOM      2  C1' OXE d   1      -0.210   1.269  -0.063  0.00  0.00     0.078 C 
ATOM      3  C1  OXE d   1      -0.248  -0.224   0.143  0.00  0.00    -0.078 A 
ATOM      4  C2  OXE d   1      -0.981  -0.698   1.205  0.00  0.00    -0.078 A 
ATOM      5  C3  OXE d   1      -1.094  -2.070   1.407  0.00  0.00     0.003 A 
ATOM      6  C4  OXE d   1      -0.346  -2.965   0.633  0.00  0.00    -0.002 A 
ATOM      7  C5  OXE d   1       0.438  -2.501  -0.429  0.00  0.00    -0.002 A 
ATOM      8  C6  OXE d   1       0.464  -1.140  -0.713  0.00  0.00     0.003 A 
ENDROOT
TORSDOF 0
ENDMDL
