MODEL 1
REMARK minimizedAffinity -1.35529208
REMARK minimizedRMSD -1
REMARK  0 active torsions:
REMARK  status: ('A' for Active; 'I' for Inactive)
ROOT
ATOM      1  C2' OXE d   1       2.719   2.847   1.116  0.00  0.00     0.078 C 
ATOM      2  C1' OXE d   1       0.436   4.148   0.130  0.00  0.00     0.078 C 
ATOM      3  C1  OXE d   1       0.366   2.654   0.324  0.00  0.00    -0.078 A 
ATOM      4  C2  OXE d   1       1.503   2.020   0.763  0.00  0.00    -0.078 A 
ATOM      5  C3  OXE d   1       1.475   0.650   1.011  0.00  0.00     0.003 A 
ATOM      6  C4  OXE d   1       0.349  -0.109   0.672  0.00  0.00    -0.002 A 
ATOM      7  C5  OXE d   1      -0.806   0.512   0.186  0.00  0.00    -0.002 A 
ATOM      8  C6  OXE d   1      -0.829   1.895   0.047  0.00  0.00     0.003 A 
ENDROOT
TORSDOF 0
ENDMDL
