MODEL 1
REMARK minimizedAffinity -4.22206593
REMARK minimizedRMSD -1
REMARK  0 active torsions:
REMARK  status: ('A' for Active; 'I' for Inactive)
ROOT
ATOM      1  C2' OXE d   1      -0.134   0.495  -0.219  0.00  0.00     0.078 C 
ATOM      2  C1' OXE d   1      -0.719  -1.035   2.061  0.00  0.00     0.078 C 
ATOM      3  C1  OXE d   1      -0.386  -1.771   0.787  0.00  0.00    -0.078 A 
ATOM      4  C2  OXE d   1      -0.147  -1.014  -0.335  0.00  0.00    -0.078 A 
ATOM      5  C3  OXE d   1       0.219  -1.640  -1.524  0.00  0.00     0.003 A 
ATOM      6  C4  OXE d   1       0.196  -3.037  -1.625  0.00  0.00    -0.002 A 
ATOM      7  C5  OXE d   1      -0.084  -3.826  -0.505  0.00  0.00    -0.002 A 
ATOM      8  C6  OXE d   1      -0.335  -3.210   0.717  0.00  0.00     0.003 A 
ENDROOT
TORSDOF 0
ENDMDL
