MODEL 1
REMARK minimizedAffinity -3.54723811
REMARK minimizedRMSD -1
REMARK  0 active torsions:
REMARK  status: ('A' for Active; 'I' for Inactive)
ROOT
ATOM      1  C2' OXE d   1      -0.375   1.132  -0.962  0.00  0.00     0.078 C 
ATOM      2  C1' OXE d   1      -0.051  -1.464  -1.980  0.00  0.00     0.078 C 
ATOM      3  C1  OXE d   1      -0.375  -1.318  -0.514  0.00  0.00    -0.078 A 
ATOM      4  C2  OXE d   1      -0.486  -0.043  -0.015  0.00  0.00    -0.078 A 
ATOM      5  C3  OXE d   1      -0.837   0.147   1.319  0.00  0.00     0.003 A 
ATOM      6  C4  OXE d   1      -0.928  -0.945   2.190  0.00  0.00    -0.002 A 
ATOM      7  C5  OXE d   1      -0.780  -2.250   1.710  0.00  0.00    -0.002 A 
ATOM      8  C6  OXE d   1      -0.546  -2.456   0.355  0.00  0.00     0.003 A 
ENDROOT
TORSDOF 0
ENDMDL
