MODEL 1
REMARK minimizedAffinity -6.30109692
REMARK minimizedRMSD -1
REMARK  0 active torsions:
REMARK  status: ('A' for Active; 'I' for Inactive)
ROOT
ATOM      1  C2' OXE d   1      -0.416   0.984  -0.140  0.00  0.00     0.078 C 
ATOM      2  C1' OXE d   1      -1.011  -1.135   1.602  0.00  0.00     0.078 C 
ATOM      3  C1  OXE d   1      -0.552  -1.479   0.206  0.00  0.00    -0.078 A 
ATOM      4  C2  OXE d   1      -0.309  -0.435  -0.654  0.00  0.00    -0.078 A 
ATOM      5  C3  OXE d   1       0.169  -0.696  -1.935  0.00  0.00     0.003 A 
ATOM      6  C4  OXE d   1       0.256  -2.012  -2.405  0.00  0.00    -0.002 A 
ATOM      7  C5  OXE d   1      -0.026  -3.088  -1.558  0.00  0.00    -0.002 A 
ATOM      8  C6  OXE d   1      -0.389  -2.841  -0.239  0.00  0.00     0.003 A 
ENDROOT
TORSDOF 0
ENDMDL
