MODEL 1
REMARK minimizedAffinity -5.06015444
REMARK minimizedRMSD -1
REMARK  0 active torsions:
REMARK  status: ('A' for Active; 'I' for Inactive)
ROOT
ATOM      1  C2' OXE d   1       0.654  -1.805  -2.098  0.00  0.00     0.078 C 
ATOM      2  C1' OXE d   1      -0.496  -2.937   0.198  0.00  0.00     0.078 C 
ATOM      3  C1  OXE d   1      -0.440  -1.433   0.109  0.00  0.00    -0.078 A 
ATOM      4  C2  OXE d   1       0.167  -0.888  -0.997  0.00  0.00    -0.078 A 
ATOM      5  C3  OXE d   1       0.197   0.495  -1.156  0.00  0.00     0.003 A 
ATOM      6  C4  OXE d   1      -0.247   1.336  -0.128  0.00  0.00    -0.002 A 
ATOM      7  C5  OXE d   1      -0.832   0.801   1.024  0.00  0.00    -0.002 A 
ATOM      8  C6  OXE d   1      -0.974  -0.577   1.139  0.00  0.00     0.003 A 
ENDROOT
TORSDOF 0
ENDMDL
