MODEL 1
REMARK minimizedAffinity -3.94829631
REMARK minimizedRMSD -1
REMARK  0 active torsions:
REMARK  status: ('A' for Active; 'I' for Inactive)
ROOT
ATOM      1  C2' OXE d   1      -1.988   0.258   1.490  0.00  0.00     0.078 C 
ATOM      2  C1' OXE d   1       0.172   1.264   0.004  0.00  0.00     0.078 C 
ATOM      3  C1  OXE d   1       0.008  -0.233   0.082  0.00  0.00    -0.078 A 
ATOM      4  C2  OXE d   1      -1.024  -0.717   0.850  0.00  0.00    -0.078 A 
ATOM      5  C3  OXE d   1      -1.252  -2.089   0.911  0.00  0.00     0.003 A 
ATOM      6  C4  OXE d   1      -0.350  -2.985   0.325  0.00  0.00    -0.002 A 
ATOM      7  C5  OXE d   1       0.731  -2.513  -0.428  0.00  0.00    -0.002 A 
ATOM      8  C6  OXE d   1       0.899  -1.143  -0.594  0.00  0.00     0.003 A 
ENDROOT
TORSDOF 0
ENDMDL
