MODEL 1
REMARK minimizedAffinity -4.94547176
REMARK minimizedRMSD -1
REMARK  0 active torsions:
REMARK  status: ('A' for Active; 'I' for Inactive)
ROOT
ATOM      1  C2' OXE d   1       1.004  -1.830  -1.870  0.00  0.00     0.078 C 
ATOM      2  C1' OXE d   1       0.101  -3.256   0.373  0.00  0.00     0.078 C 
ATOM      3  C1  OXE d   1      -0.166  -1.772   0.328  0.00  0.00    -0.078 A 
ATOM      4  C2  OXE d   1       0.320  -1.075  -0.751  0.00  0.00    -0.078 A 
ATOM      5  C3  OXE d   1       0.054   0.287  -0.869  0.00  0.00     0.003 A 
ATOM      6  C4  OXE d   1      -0.571   0.980   0.175  0.00  0.00    -0.002 A 
ATOM      7  C5  OXE d   1      -1.039   0.295   1.301  0.00  0.00    -0.002 A 
ATOM      8  C6  OXE d   1      -0.883  -1.085   1.374  0.00  0.00     0.003 A 
ENDROOT
TORSDOF 0
ENDMDL
