MODEL 1
REMARK minimizedAffinity -3.671875
REMARK minimizedRMSD -1
REMARK  0 active torsions:
REMARK  status: ('A' for Active; 'I' for Inactive)
ROOT
ATOM      1  C2' OXE d   1       0.037   1.555  -0.474  0.00  0.00     0.078 C 
ATOM      2  C1' OXE d   1       0.532  -0.485  -2.338  0.00  0.00     0.078 C 
ATOM      3  C1  OXE d   1       0.184  -0.890  -0.927  0.00  0.00    -0.078 A 
ATOM      4  C2  OXE d   1      -0.011   0.115  -0.011  0.00  0.00    -0.078 A 
ATOM      5  C3  OXE d   1      -0.389  -0.203   1.291  0.00  0.00     0.003 A 
ATOM      6  C4  OXE d   1      -0.421  -1.537   1.714  0.00  0.00    -0.002 A 
ATOM      7  C5  OXE d   1      -0.187  -2.576   0.806  0.00  0.00    -0.002 A 
ATOM      8  C6  OXE d   1       0.074  -2.271  -0.525  0.00  0.00     0.003 A 
ENDROOT
TORSDOF 0
ENDMDL
