MODEL 1
REMARK minimizedAffinity 1.85350966
REMARK minimizedRMSD -1
REMARK  2 active torsions:
REMARK  status: ('A' for Active; 'I' for Inactive)
REMARK    1  A    between atoms: C2'_3  and  C1'_4 
REMARK    2  A    between atoms: C1'_4  and  C1_5 
ROOT
ATOM      1  C1  I4B d   1      -0.363  -1.049   4.874  0.00  0.00    -0.075 A 
ATOM      2  C2  I4B d   1      -0.849  -1.968   5.770  0.00  0.00     0.003 A 
ATOM      3  C3  I4B d   1      -2.243  -2.078   5.994  0.00  0.00     0.002 A 
ATOM      4  C4  I4B d   1      -3.105  -1.219   5.342  0.00  0.00    -0.004 A 
ATOM      5  C5  I4B d   1      -2.613  -0.303   4.418  0.00  0.00     0.002 A 
ATOM      6  C6  I4B d   1      -1.234  -0.225   4.173  0.00  0.00     0.003 A 
ENDROOT
BRANCH   1   7
ATOM      7  C1' I4B d   1       1.117  -0.938   4.687  0.00  0.00     0.060 C 
BRANCH   7   8
ATOM      8  C2' I4B d   1       1.725  -2.299   4.959  0.00  0.00    -0.013 C 
ATOM      9  C4' I4B d   1       2.231  -2.933   3.690  0.00  0.00     0.013 C 
ATOM     10  C3' I4B d   1       2.832  -2.120   5.955  0.00  0.00     0.013 C 
ENDBRANCH   7   8
ENDBRANCH   1   7
TORSDOF 2
ENDMDL
