MODEL 1
REMARK minimizedAffinity -3.61014628
REMARK minimizedRMSD -1
REMARK  2 active torsions:
REMARK  status: ('A' for Active; 'I' for Inactive)
REMARK    1  A    between atoms: C2'_3  and  C1'_4 
REMARK    2  A    between atoms: C1'_4  and  C1_5 
ROOT
ATOM      1  C1  I4B d   1       1.412   1.902   0.250  0.00  0.00    -0.075 A 
ATOM      2  C2  I4B d   1       1.123   3.244   0.223  0.00  0.00     0.003 A 
ATOM      3  C3  I4B d   1       2.053   4.184   0.728  0.00  0.00     0.002 A 
ATOM      4  C4  I4B d   1       3.230   3.739   1.294  0.00  0.00    -0.004 A 
ATOM      5  C5  I4B d   1       3.532   2.380   1.301  0.00  0.00     0.002 A 
ATOM      6  C6  I4B d   1       2.623   1.456   0.764  0.00  0.00     0.003 A 
ENDROOT
BRANCH   1   7
ATOM      7  C1' I4B d   1       0.393   0.934  -0.262  0.00  0.00     0.060 C 
BRANCH   7   8
ATOM      8  C2' I4B d   1       0.497  -0.333   0.563  0.00  0.00    -0.013 C 
ATOM      9  C4' I4B d   1      -0.686  -0.484   1.482  0.00  0.00     0.013 C 
ATOM     10  C3' I4B d   1       0.599  -1.492  -0.383  0.00  0.00     0.013 C 
ENDBRANCH   7   8
ENDBRANCH   1   7
TORSDOF 2
ENDMDL
