MODEL 1
REMARK minimizedAffinity -2.39295435
REMARK minimizedRMSD -1
REMARK  2 active torsions:
REMARK  status: ('A' for Active; 'I' for Inactive)
REMARK    1  A    between atoms: C2'_3  and  C1'_4 
REMARK    2  A    between atoms: C1'_4  and  C1_5 
ROOT
ATOM      1  C1  I4B d   1       0.080   0.095   0.663  0.00  0.00    -0.075 A 
ATOM      2  C2  I4B d   1      -0.288   1.329   1.137  0.00  0.00     0.003 A 
ATOM      3  C3  I4B d   1       0.037   2.499   0.409  0.00  0.00     0.002 A 
ATOM      4  C4  I4B d   1       0.770   2.393  -0.755  0.00  0.00    -0.004 A 
ATOM      5  C5  I4B d   1       1.122   1.139  -1.247  0.00  0.00     0.002 A 
ATOM      6  C6  I4B d   1       0.765  -0.018  -0.540  0.00  0.00     0.003 A 
ENDROOT
BRANCH   1   7
ATOM      7  C1' I4B d   1      -0.252  -1.117   1.474  0.00  0.00     0.060 C 
BRANCH   7   8
ATOM      8  C2' I4B d   1      -0.749  -2.191   0.527  0.00  0.00    -0.013 C 
ATOM      9  C4' I4B d   1      -0.004  -3.484   0.730  0.00  0.00     0.013 C 
ATOM     10  C3' I4B d   1      -2.219  -2.370   0.762  0.00  0.00     0.013 C 
ENDBRANCH   7   8
ENDBRANCH   1   7
TORSDOF 2
ENDMDL
