MODEL 1
REMARK minimizedAffinity -6.73557758
REMARK minimizedRMSD -1
REMARK  2 active torsions:
REMARK  status: ('A' for Active; 'I' for Inactive)
REMARK    1  A    between atoms: C2'_3  and  C1'_4 
REMARK    2  A    between atoms: C1'_4  and  C1_5 
ROOT
ATOM      1  C1  I4B d   1       0.777   0.906   0.553  0.00  0.00    -0.075 A 
ATOM      2  C2  I4B d   1       1.913   0.893   1.324  0.00  0.00     0.003 A 
ATOM      3  C3  I4B d   1       2.643   2.087   1.539  0.00  0.00     0.002 A 
ATOM      4  C4  I4B d   1       2.232   3.254   0.927  0.00  0.00    -0.004 A 
ATOM      5  C5  I4B d   1       1.068   3.270   0.164  0.00  0.00     0.002 A 
ATOM      6  C6  I4B d   1       0.328   2.091  -0.014  0.00  0.00     0.003 A 
ENDROOT
BRANCH   1   7
ATOM      7  C1' I4B d   1       0.049  -0.380   0.321  0.00  0.00     0.060 C 
BRANCH   7   8
ATOM      8  C2' I4B d   1       0.009  -1.138   1.632  0.00  0.00    -0.013 C 
ATOM      9  C4' I4B d   1      -1.219  -0.785   2.428  0.00  0.00     0.013 C 
ATOM     10  C3' I4B d   1       0.050  -2.604   1.321  0.00  0.00     0.013 C 
ENDBRANCH   7   8
ENDBRANCH   1   7
TORSDOF 2
ENDMDL
