MODEL 1
REMARK minimizedAffinity -3.37092853
REMARK minimizedRMSD -1
REMARK  2 active torsions:
REMARK  status: ('A' for Active; 'I' for Inactive)
REMARK    1  A    between atoms: C2'_3  and  C1'_4 
REMARK    2  A    between atoms: C1'_4  and  C1_5 
ROOT
ATOM      1  C1  I4B d   1      -0.138  -0.865   0.273  0.00  0.00    -0.075 A 
ATOM      2  C2  I4B d   1      -0.383   0.136  -0.633  0.00  0.00     0.003 A 
ATOM      3  C3  I4B d   1       0.228   0.107  -1.910  0.00  0.00     0.002 A 
ATOM      4  C4  I4B d   1       1.111  -0.908  -2.218  0.00  0.00    -0.004 A 
ATOM      5  C5  I4B d   1       1.340  -1.934  -1.306  0.00  0.00     0.002 A 
ATOM      6  C6  I4B d   1       0.702  -1.920  -0.057  0.00  0.00     0.003 A 
ENDROOT
BRANCH   1   7
ATOM      7  C1' I4B d   1      -0.775  -0.786   1.624  0.00  0.00     0.060 C 
BRANCH   7   8
ATOM      8  C2' I4B d   1      -2.255  -1.065   1.460  0.00  0.00    -0.013 C 
ATOM      9  C4' I4B d   1      -2.522  -2.543   1.343  0.00  0.00     0.013 C 
ATOM     10  C3' I4B d   1      -2.971  -0.477   2.639  0.00  0.00     0.013 C 
ENDBRANCH   7   8
ENDBRANCH   1   7
TORSDOF 2
ENDMDL
