MODEL 1
REMARK minimizedAffinity 0.675793409
REMARK minimizedRMSD -1
REMARK  2 active torsions:
REMARK  status: ('A' for Active; 'I' for Inactive)
REMARK    1  A    between atoms: C2'_3  and  C1'_4 
REMARK    2  A    between atoms: C1'_4  and  C1_5 
ROOT
ATOM      1  C1  I4B d   1      -1.386  -1.675   0.871  0.00  0.00    -0.075 A 
ATOM      2  C2  I4B d   1      -0.395  -1.496  -0.061  0.00  0.00     0.003 A 
ATOM      3  C3  I4B d   1       0.140  -0.206  -0.293  0.00  0.00     0.002 A 
ATOM      4  C4  I4B d   1      -0.378   0.878   0.387  0.00  0.00    -0.004 A 
ATOM      5  C5  I4B d   1      -1.367   0.691   1.348  0.00  0.00     0.002 A 
ATOM      6  C6  I4B d   1      -1.867  -0.595   1.601  0.00  0.00     0.003 A 
ENDROOT
BRANCH   1   7
ATOM      7  C1' I4B d   1      -1.951  -3.046   1.068  0.00  0.00     0.060 C 
BRANCH   7   8
ATOM      8  C2' I4B d   1      -3.383  -3.036   0.573  0.00  0.00    -0.013 C 
ATOM      9  C4' I4B d   1      -3.461  -3.435  -0.877  0.00  0.00     0.013 C 
ATOM     10  C3' I4B d   1      -4.177  -3.972   1.435  0.00  0.00     0.013 C 
ENDBRANCH   7   8
ENDBRANCH   1   7
TORSDOF 2
ENDMDL
