MODEL 1
REMARK minimizedAffinity -2.36265397
REMARK minimizedRMSD -1
REMARK  2 active torsions:
REMARK  status: ('A' for Active; 'I' for Inactive)
REMARK    1  A    between atoms: C2'_3  and  C1'_4 
REMARK    2  A    between atoms: C1'_4  and  C1_5 
ROOT
ATOM      1  C1  I4B d   1       0.314   0.370  -0.057  0.00  0.00    -0.075 A 
ATOM      2  C2  I4B d   1       0.758  -0.253  -1.197  0.00  0.00     0.003 A 
ATOM      3  C3  I4B d   1       0.585  -1.649  -1.360  0.00  0.00     0.002 A 
ATOM      4  C4  I4B d   1       0.012  -2.386  -0.344  0.00  0.00    -0.004 A 
ATOM      5  C5  I4B d   1      -0.458  -1.749   0.802  0.00  0.00     0.002 A 
ATOM      6  C6  I4B d   1      -0.317  -0.361   0.941  0.00  0.00     0.003 A 
ENDROOT
BRANCH   1   7
ATOM      7  C1' I4B d   1       0.543   1.840   0.097  0.00  0.00     0.060 C 
BRANCH   7   8
ATOM      8  C2' I4B d   1       1.645   2.037   1.118  0.00  0.00    -0.013 C 
ATOM      9  C4' I4B d   1       3.005   1.968   0.473  0.00  0.00     0.013 C 
ATOM     10  C3' I4B d   1       1.428   3.363   1.784  0.00  0.00     0.013 C 
ENDBRANCH   7   8
ENDBRANCH   1   7
TORSDOF 2
ENDMDL
