MODEL 1
REMARK minimizedAffinity -2.83075285
REMARK minimizedRMSD -1
REMARK  2 active torsions:
REMARK  status: ('A' for Active; 'I' for Inactive)
REMARK    1  A    between atoms: C2'_3  and  C1'_4 
REMARK    2  A    between atoms: C1'_4  and  C1_5 
ROOT
ATOM      1  C1  I4B d   1       0.313   1.509   0.078  0.00  0.00    -0.075 A 
ATOM      2  C2  I4B d   1      -0.255   2.349   1.004  0.00  0.00     0.003 A 
ATOM      3  C3  I4B d   1       0.379   3.567   1.345  0.00  0.00     0.002 A 
ATOM      4  C4  I4B d   1       1.598   3.881   0.778  0.00  0.00    -0.004 A 
ATOM      5  C5  I4B d   1       2.161   3.040  -0.177  0.00  0.00     0.002 A 
ATOM      6  C6  I4B d   1       1.509   1.852  -0.539  0.00  0.00     0.003 A 
ENDROOT
BRANCH   1   7
ATOM      7  C1' I4B d   1      -0.368   0.214  -0.234  0.00  0.00     0.060 C 
BRANCH   7   8
ATOM      8  C2' I4B d   1      -0.706  -0.463   1.078  0.00  0.00    -0.013 C 
ATOM      9  C4' I4B d   1      -1.452  -1.752   0.849  0.00  0.00     0.013 C 
ATOM     10  C3' I4B d   1       0.575  -0.704   1.819  0.00  0.00     0.013 C 
ENDBRANCH   7   8
ENDBRANCH   1   7
TORSDOF 2
ENDMDL
