MODEL 1
REMARK minimizedAffinity -4.80933952
REMARK minimizedRMSD -1
REMARK  0 active torsions:
REMARK  status: ('A' for Active; 'I' for Inactive)
ROOT
ATOM      1  C4' PXY d   1      -1.805  -0.568   2.703  0.00  0.00     0.077 C 
ATOM      2  C1' PXY d   1       0.675   0.337  -2.440  0.00  0.00     0.077 C 
ATOM      3  C1  PXY d   1       0.018   0.111  -1.093  0.00  0.00    -0.082 A 
ATOM      4  C2  PXY d   1       0.644  -0.602  -0.171  0.00  0.00     0.003 A 
ATOM      5  C3  PXY d   1       0.050  -0.844   1.041  0.00  0.00     0.003 A 
ATOM      6  C4  PXY d   1      -1.175  -0.305   1.332  0.00  0.00    -0.082 A 
ATOM      7  C5  PXY d   1      -1.816   0.432   0.401  0.00  0.00     0.003 A 
ATOM      8  C6  PXY d   1      -1.214   0.631  -0.839  0.00  0.00     0.003 A 
ENDROOT
TORSDOF 0
ENDMDL
