MODEL 1
REMARK minimizedAffinity -1.85154879
REMARK minimizedRMSD -1
REMARK  0 active torsions:
REMARK  status: ('A' for Active; 'I' for Inactive)
ROOT
ATOM      1  C4' PXY d   1      -3.779   1.490   2.617  0.00  0.00     0.077 C 
ATOM      2  C1' PXY d   1       1.421   0.028   0.560  0.00  0.00     0.077 C 
ATOM      3  C1  PXY d   1       0.054   0.416   1.088  0.00  0.00    -0.082 A 
ATOM      4  C2  PXY d   1      -0.114   0.616   2.385  0.00  0.00     0.003 A 
ATOM      5  C3  PXY d   1      -1.350   0.937   2.883  0.00  0.00     0.003 A 
ATOM      6  C4  PXY d   1      -2.415   1.106   2.039  0.00  0.00    -0.082 A 
ATOM      7  C5  PXY d   1      -2.249   0.914   0.713  0.00  0.00     0.003 A 
ATOM      8  C6  PXY d   1      -0.995   0.549   0.232  0.00  0.00     0.003 A 
ENDROOT
TORSDOF 0
ENDMDL
