MODEL 1
REMARK minimizedAffinity -2.57515192
REMARK minimizedRMSD -1
REMARK  0 active torsions:
REMARK  status: ('A' for Active; 'I' for Inactive)
ROOT
ATOM      1  C4' PXY d   1      -1.005   0.140   3.290  0.00  0.00     0.077 C 
ATOM      2  C1' PXY d   1       0.518   1.115  -2.201  0.00  0.00     0.077 C 
ATOM      3  C1  PXY d   1       0.106   0.861  -0.764  0.00  0.00    -0.082 A 
ATOM      4  C2  PXY d   1       0.967   1.089   0.214  0.00  0.00     0.003 A 
ATOM      5  C3  PXY d   1       0.622   0.834   1.516  0.00  0.00     0.003 A 
ATOM      6  C4  PXY d   1      -0.636   0.392   1.825  0.00  0.00    -0.082 A 
ATOM      7  C5  PXY d   1      -1.525   0.167   0.834  0.00  0.00     0.003 A 
ATOM      8  C6  PXY d   1      -1.141   0.393  -0.485  0.00  0.00     0.003 A 
ENDROOT
TORSDOF 0
ENDMDL
