MODEL 1
REMARK minimizedAffinity -5.00333548
REMARK minimizedRMSD -1
REMARK  0 active torsions:
REMARK  status: ('A' for Active; 'I' for Inactive)
ROOT
ATOM      1  C4' PXY d   1      -2.847   1.350   2.200  0.00  0.00     0.077 C 
ATOM      2  C1' PXY d   1       0.645  -0.399  -2.061  0.00  0.00     0.077 C 
ATOM      3  C1  PXY d   1      -0.264   0.052  -0.935  0.00  0.00    -0.082 A 
ATOM      4  C2  PXY d   1      -1.495   0.455  -1.209  0.00  0.00     0.003 A 
ATOM      5  C3  PXY d   1      -2.319   0.897  -0.207  0.00  0.00     0.003 A 
ATOM      6  C4  PXY d   1      -1.898   0.877   1.096  0.00  0.00    -0.082 A 
ATOM      7  C5  PXY d   1      -0.648   0.457   1.385  0.00  0.00     0.003 A 
ATOM      8  C6  PXY d   1       0.188   0.052   0.348  0.00  0.00     0.003 A 
ENDROOT
TORSDOF 0
ENDMDL
