MODEL 1
REMARK minimizedAffinity 2.02769828
REMARK minimizedRMSD -1
REMARK  0 active torsions:
REMARK  status: ('A' for Active; 'I' for Inactive)
ROOT
ATOM      1  C4' PXY d   1      -3.316   1.562   2.709  0.00  0.00     0.077 C 
ATOM      2  C1' PXY d   1       0.833   0.271  -1.104  0.00  0.00     0.077 C 
ATOM      3  C1  PXY d   1      -0.248   0.605  -0.094  0.00  0.00    -0.082 A 
ATOM      4  C2  PXY d   1      -1.508   0.688  -0.488  0.00  0.00     0.003 A 
ATOM      5  C3  PXY d   1      -2.494   1.020   0.405  0.00  0.00     0.003 A 
ATOM      6  C4  PXY d   1      -2.193   1.218   1.727  0.00  0.00    -0.082 A 
ATOM      7  C5  PXY d   1      -0.911   1.125   2.138  0.00  0.00     0.003 A 
ATOM      8  C6  PXY d   1       0.080   0.827   1.207  0.00  0.00     0.003 A 
ENDROOT
TORSDOF 0
ENDMDL
