MODEL 1
REMARK minimizedAffinity -4.56099844
REMARK minimizedRMSD -1
REMARK  0 active torsions:
REMARK  status: ('A' for Active; 'I' for Inactive)
ROOT
ATOM      1  C4' PXY d   1      -2.558  -0.036   3.341  0.00  0.00     0.077 C 
ATOM      2  C1' PXY d   1       0.260   0.252  -1.698  0.00  0.00     0.077 C 
ATOM      3  C1  PXY d   1      -0.488   0.185  -0.381  0.00  0.00    -0.082 A 
ATOM      4  C2  PXY d   1       0.149  -0.199   0.714  0.00  0.00     0.003 A 
ATOM      5  C3  PXY d   1      -0.520  -0.296   1.907  0.00  0.00     0.003 A 
ATOM      6  C4  PXY d   1      -1.841   0.055   1.992  0.00  0.00    -0.082 A 
ATOM      7  C5  PXY d   1      -2.494   0.459   0.881  0.00  0.00     0.003 A 
ATOM      8  C6  PXY d   1      -1.808   0.511  -0.328  0.00  0.00     0.003 A 
ENDROOT
TORSDOF 0
ENDMDL
