MODEL 1
REMARK minimizedAffinity -1.7020843
REMARK minimizedRMSD -1
REMARK  0 active torsions:
REMARK  status: ('A' for Active; 'I' for Inactive)
ROOT
ATOM      1  C4' PXY d   1       0.298   0.332  -1.789  0.00  0.00     0.077 C 
ATOM      2  C1' PXY d   1      -1.366   0.300   3.747  0.00  0.00     0.077 C 
ATOM      3  C1  PXY d   1      -0.942   0.305   2.291  0.00  0.00    -0.082 A 
ATOM      4  C2  PXY d   1       0.335   0.150   1.982  0.00  0.00     0.003 A 
ATOM      5  C3  PXY d   1       0.741   0.184   0.673  0.00  0.00     0.003 A 
ATOM      6  C4  PXY d   1      -0.177   0.324  -0.333  0.00  0.00    -0.082 A 
ATOM      7  C5  PXY d   1      -1.483   0.472  -0.027  0.00  0.00     0.003 A 
ATOM      8  C6  PXY d   1      -1.869   0.476   1.311  0.00  0.00     0.003 A 
ENDROOT
TORSDOF 0
ENDMDL
