MODEL 1
REMARK minimizedAffinity -4.3991518
REMARK minimizedRMSD -1
REMARK  0 active torsions:
REMARK  status: ('A' for Active; 'I' for Inactive)
ROOT
ATOM      1  C4' PXY d   1      -3.738  -0.598   1.492  0.00  0.00     0.077 C 
ATOM      2  C1' PXY d   1       1.866   0.816   1.608  0.00  0.00     0.077 C 
ATOM      3  C1  PXY d   1       0.398   0.436   1.587  0.00  0.00    -0.082 A 
ATOM      4  C2  PXY d   1      -0.320   0.663   0.499  0.00  0.00     0.003 A 
ATOM      5  C3  PXY d   1      -1.656   0.355   0.474  0.00  0.00     0.003 A 
ATOM      6  C4  PXY d   1      -2.251  -0.240   1.555  0.00  0.00    -0.082 A 
ATOM      7  C5  PXY d   1      -1.521  -0.484   2.664  0.00  0.00     0.003 A 
ATOM      8  C6  PXY d   1      -0.176  -0.126   2.684  0.00  0.00     0.003 A 
ENDROOT
TORSDOF 0
ENDMDL
