MODEL 1
REMARK minimizedAffinity -1.90719771
REMARK minimizedRMSD -1
REMARK  0 active torsions:
REMARK  status: ('A' for Active; 'I' for Inactive)
ROOT
ATOM      1  C4' PXY d   1      -1.088  -1.398   3.723  0.00  0.00     0.077 C 
ATOM      2  C1' PXY d   1       0.242   1.258  -1.236  0.00  0.00     0.077 C 
ATOM      3  C1  PXY d   1      -0.094   0.564   0.069  0.00  0.00    -0.082 A 
ATOM      4  C2  PXY d   1      -1.076  -0.323   0.104  0.00  0.00     0.003 A 
ATOM      5  C3  PXY d   1      -1.415  -0.936   1.282  0.00  0.00     0.003 A 
ATOM      6  C4  PXY d   1      -0.707  -0.679   2.426  0.00  0.00    -0.082 A 
ATOM      7  C5  PXY d   1       0.303   0.216   2.396  0.00  0.00     0.003 A 
ATOM      8  C6  PXY d   1       0.604   0.859   1.199  0.00  0.00     0.003 A 
ENDROOT
TORSDOF 0
ENDMDL
