MODEL 1
REMARK minimizedAffinity -5.72311211
REMARK minimizedRMSD -1
REMARK  0 active torsions:
REMARK  status: ('A' for Active; 'I' for Inactive)
ROOT
ATOM      1  C4' PXY d   1       0.758   0.574  -0.645  0.00  0.00     0.077 C 
ATOM      2  C1' PXY d   1      -2.281  -0.749   4.091  0.00  0.00     0.077 C 
ATOM      3  C1  PXY d   1      -1.476  -0.396   2.857  0.00  0.00    -0.082 A 
ATOM      4  C2  PXY d   1      -2.071  -0.359   1.675  0.00  0.00     0.003 A 
ATOM      5  C3  PXY d   1      -1.351  -0.073   0.544  0.00  0.00     0.003 A 
ATOM      6  C4  PXY d   1      -0.018   0.231   0.630  0.00  0.00    -0.082 A 
ATOM      7  C5  PXY d   1       0.594   0.206   1.833  0.00  0.00     0.003 A 
ATOM      8  C6  PXY d   1      -0.146  -0.127   2.963  0.00  0.00     0.003 A 
ENDROOT
TORSDOF 0
ENDMDL
