MODEL 1
REMARK minimizedAffinity -1.65324104
REMARK minimizedRMSD -1
REMARK  0 active torsions:
REMARK  status: ('A' for Active; 'I' for Inactive)
ROOT
ATOM      1  C4' PXY d   1       0.313   0.621  -1.887  0.00  0.00     0.077 C 
ATOM      2  C1' PXY d   1      -1.023  -0.812   3.551  0.00  0.00     0.077 C 
ATOM      3  C1  PXY d   1      -0.663  -0.428   2.129  0.00  0.00    -0.082 A 
ATOM      4  C2  PXY d   1      -1.560  -0.570   1.167  0.00  0.00     0.003 A 
ATOM      5  C3  PXY d   1      -1.241  -0.258  -0.130  0.00  0.00     0.003 A 
ATOM      6  C4  PXY d   1      -0.009   0.255  -0.436  0.00  0.00    -0.082 A 
ATOM      7  C5  PXY d   1       0.908   0.413   0.542  0.00  0.00     0.003 A 
ATOM      8  C6  PXY d   1       0.578   0.052   1.845  0.00  0.00     0.003 A 
ENDROOT
TORSDOF 0
ENDMDL
