MODEL 1
REMARK minimizedAffinity -4.05825233
REMARK minimizedRMSD -1
REMARK  0 active torsions:
REMARK  status: ('A' for Active; 'I' for Inactive)
ROOT
ATOM      1  C4' PXY d   1      -2.198  -0.687   4.128  0.00  0.00     0.077 C 
ATOM      2  C1' PXY d   1       0.316   0.814  -0.855  0.00  0.00     0.077 C 
ATOM      3  C1  PXY d   1      -0.331   0.419   0.457  0.00  0.00    -0.082 A 
ATOM      4  C2  PXY d   1      -1.559  -0.075   0.458  0.00  0.00     0.003 A 
ATOM      5  C3  PXY d   1      -2.172  -0.407   1.639  0.00  0.00     0.003 A 
ATOM      6  C4  PXY d   1      -1.501  -0.283   2.826  0.00  0.00    -0.082 A 
ATOM      7  C5  PXY d   1      -0.245   0.210   2.832  0.00  0.00     0.003 A 
ATOM      8  C6  PXY d   1       0.344   0.580   1.627  0.00  0.00     0.003 A 
ENDROOT
TORSDOF 0
ENDMDL
