MODEL 1
REMARK minimizedAffinity -3.87788081
REMARK minimizedRMSD -1
REMARK  0 active torsions:
REMARK  status: ('A' for Active; 'I' for Inactive)
ROOT
ATOM      1  C4' PXY d   1       0.872   0.046  -1.148  0.00  0.00     0.077 C 
ATOM      2  C1' PXY d   1      -1.692  -0.731   3.974  0.00  0.00     0.077 C 
ATOM      3  C1  PXY d   1      -1.025  -0.538   2.626  0.00  0.00    -0.082 A 
ATOM      4  C2  PXY d   1       0.085   0.177   2.542  0.00  0.00     0.003 A 
ATOM      5  C3  PXY d   1       0.684   0.388   1.327  0.00  0.00     0.003 A 
ATOM      6  C4  PXY d   1       0.170  -0.183   0.193  0.00  0.00    -0.082 A 
ATOM      7  C5  PXY d   1      -0.956  -0.923   0.272  0.00  0.00     0.003 A 
ATOM      8  C6  PXY d   1      -1.572  -1.091   1.510  0.00  0.00     0.003 A 
ENDROOT
TORSDOF 0
ENDMDL
