MODEL 1
REMARK minimizedAffinity -3.93240976
REMARK minimizedRMSD -1
REMARK  0 active torsions:
REMARK  status: ('A' for Active; 'I' for Inactive)
ROOT
ATOM      1  C4' PXY d   1      -2.886   1.051  -1.245  0.00  0.00     0.077 C 
ATOM      2  C1' PXY d   1      -0.014  -1.216   3.230  0.00  0.00     0.077 C 
ATOM      3  C1  PXY d   1      -0.756  -0.616   2.052  0.00  0.00    -0.082 A 
ATOM      4  C2  PXY d   1      -2.068  -0.458   2.117  0.00  0.00     0.003 A 
ATOM      5  C3  PXY d   1      -2.759   0.053   1.049  0.00  0.00     0.003 A 
ATOM      6  C4  PXY d   1      -2.094   0.458  -0.077  0.00  0.00    -0.082 A 
ATOM      7  C5  PXY d   1      -0.754   0.311  -0.147  0.00  0.00     0.003 A 
ATOM      8  C6  PXY d   1      -0.076  -0.249   0.932  0.00  0.00     0.003 A 
ENDROOT
TORSDOF 0
ENDMDL
