MODEL 1
REMARK minimizedAffinity -2.36848211
REMARK minimizedRMSD -1
REMARK  0 active torsions:
REMARK  status: ('A' for Active; 'I' for Inactive)
ROOT
ATOM      1  C4' PXY d   1      -1.534  -0.423   1.495  0.00  0.00     0.077 C 
ATOM      2  C1' PXY d   1       2.553   0.348  -2.520  0.00  0.00     0.077 C 
ATOM      3  C1  PXY d   1       1.489   0.139  -1.460  0.00  0.00    -0.082 A 
ATOM      4  C2  PXY d   1       0.211   0.207  -1.794  0.00  0.00     0.003 A 
ATOM      5  C3  PXY d   1      -0.764   0.052  -0.841  0.00  0.00     0.003 A 
ATOM      6  C4  PXY d   1      -0.426  -0.228   0.456  0.00  0.00    -0.082 A 
ATOM      7  C5  PXY d   1       0.876  -0.310   0.802  0.00  0.00     0.003 A 
ATOM      8  C6  PXY d   1       1.850  -0.109  -0.171  0.00  0.00     0.003 A 
ENDROOT
TORSDOF 0
ENDMDL
