MODEL 1
REMARK minimizedAffinity -4.22852802
REMARK minimizedRMSD -1
REMARK  0 active torsions:
REMARK  status: ('A' for Active; 'I' for Inactive)
ROOT
ATOM      1  C4' PXY d   1       0.261   0.542  -1.736  0.00  0.00     0.077 C 
ATOM      2  C1' PXY d   1      -1.507  -0.607   3.646  0.00  0.00     0.077 C 
ATOM      3  C1  PXY d   1      -1.055  -0.309   2.230  0.00  0.00    -0.082 A 
ATOM      4  C2  PXY d   1       0.236  -0.316   1.941  0.00  0.00     0.003 A 
ATOM      5  C3  PXY d   1       0.664  -0.017   0.673  0.00  0.00     0.003 A 
ATOM      6  C4  PXY d   1      -0.242   0.238  -0.322  0.00  0.00    -0.082 A 
ATOM      7  C5  PXY d   1      -1.561   0.236  -0.037  0.00  0.00     0.003 A 
ATOM      8  C6  PXY d   1      -1.973  -0.028   1.266  0.00  0.00     0.003 A 
ENDROOT
TORSDOF 0
ENDMDL
