MODEL 1
REMARK minimizedAffinity -3.65629554
REMARK minimizedRMSD -1
REMARK  0 active torsions:
REMARK  status: ('A' for Active; 'I' for Inactive)
ROOT
ATOM      1  C4' PXY d   1       0.707   0.186  -2.159  0.00  0.00     0.077 C 
ATOM      2  C1' PXY d   1      -0.572  -0.123   3.470  0.00  0.00     0.077 C 
ATOM      3  C1  PXY d   1      -0.248  -0.047   1.991  0.00  0.00    -0.082 A 
ATOM      4  C2  PXY d   1       1.015   0.005   1.600  0.00  0.00     0.003 A 
ATOM      5  C3  PXY d   1       1.325   0.106   0.268  0.00  0.00     0.003 A 
ATOM      6  C4  PXY d   1       0.333   0.099  -0.676  0.00  0.00    -0.082 A 
ATOM      7  C5  PXY d   1      -0.957   0.036  -0.286  0.00  0.00     0.003 A 
ATOM      8  C6  PXY d   1      -1.252  -0.025   1.073  0.00  0.00     0.003 A 
ENDROOT
TORSDOF 0
ENDMDL
