MODEL 1
REMARK minimizedAffinity -2.97474384
REMARK minimizedRMSD -1
REMARK  0 active torsions:
REMARK  status: ('A' for Active; 'I' for Inactive)
ROOT
ATOM      1  C4' PXY d   1       0.601  -2.236  -3.680  0.00  0.00     0.077 C 
ATOM      2  C1' PXY d   1       5.167   1.265  -3.127  0.00  0.00     0.077 C 
ATOM      3  C1  PXY d   1       3.965   0.351  -3.260  0.00  0.00    -0.082 A 
ATOM      4  C2  PXY d   1       4.046  -0.729  -4.020  0.00  0.00     0.003 A 
ATOM      5  C3  PXY d   1       2.958  -1.549  -4.178  0.00  0.00     0.003 A 
ATOM      6  C4  PXY d   1       1.792  -1.290  -3.508  0.00  0.00    -0.082 A 
ATOM      7  C5  PXY d   1       1.706  -0.196  -2.722  0.00  0.00     0.003 A 
ATOM      8  C6  PXY d   1       2.808   0.646  -2.608  0.00  0.00     0.003 A 
ENDROOT
TORSDOF 0
ENDMDL
