MODEL 1
REMARK minimizedAffinity -2.94535446
REMARK minimizedRMSD -1
REMARK  0 active torsions:
REMARK  status: ('A' for Active; 'I' for Inactive)
ROOT
ATOM      1  C4' PXY d   1       0.568   0.518  -1.844  0.00  0.00     0.077 C 
ATOM      2  C1' PXY d   1      -1.158  -0.496   3.580  0.00  0.00     0.077 C 
ATOM      3  C1  PXY d   1      -0.716  -0.235   2.153  0.00  0.00    -0.082 A 
ATOM      4  C2  PXY d   1       0.572  -0.115   1.878  0.00  0.00     0.003 A 
ATOM      5  C3  PXY d   1       0.987   0.152   0.599  0.00  0.00     0.003 A 
ATOM      6  C4  PXY d   1       0.077   0.245  -0.419  0.00  0.00    -0.082 A 
ATOM      7  C5  PXY d   1      -1.239   0.113  -0.149  0.00  0.00     0.003 A 
ATOM      8  C6  PXY d   1      -1.643  -0.117   1.163  0.00  0.00     0.003 A 
ENDROOT
TORSDOF 0
ENDMDL
