MODEL 1
REMARK minimizedAffinity -1.08219874
REMARK minimizedRMSD -1
REMARK  0 active torsions:
REMARK  status: ('A' for Active; 'I' for Inactive)
ROOT
ATOM      1  C   UNL d   1       3.089  -5.956  -2.232  0.00  0.00     0.172 C 
ATOM      2  N   UNL d   1       3.045  -5.974  -3.675  0.00  0.00    -0.070 N 
ATOM      3  C1  UNL d   1       1.909  -5.984  -4.439  0.00  0.00    -0.004 A 
ATOM      4  C2  UNL d   1       2.291  -6.000  -5.763  0.00  0.00    -0.047 A 
ATOM      5  C3  UNL d   1       3.705  -5.999  -5.796  0.00  0.00    -0.047 A 
ATOM      6  C4  UNL d   1       4.147  -5.983  -4.490  0.00  0.00    -0.004 A 
ENDROOT
TORSDOF 0
ENDMDL
