MODEL 1
REMARK minimizedAffinity -1.4076649
REMARK minimizedRMSD -1
REMARK  0 active torsions:
REMARK  status: ('A' for Active; 'I' for Inactive)
ROOT
ATOM      1  C   UNL d   1       4.169  -6.000  -2.384  0.00  0.00     0.172 C 
ATOM      2  N   UNL d   1       4.067  -5.999  -3.825  0.00  0.00    -0.070 N 
ATOM      3  C1  UNL d   1       5.121  -5.997  -4.699  0.00  0.00    -0.004 A 
ATOM      4  C2  UNL d   1       4.608  -5.997  -5.978  0.00  0.00    -0.047 A 
ATOM      5  C3  UNL d   1       3.197  -5.998  -5.869  0.00  0.00    -0.047 A 
ATOM      6  C4  UNL d   1       2.890  -5.999  -4.525  0.00  0.00    -0.004 A 
ENDROOT
TORSDOF 0
ENDMDL
