MODEL 1
REMARK minimizedAffinity -0.731146276
REMARK minimizedRMSD -1
REMARK  0 active torsions:
REMARK  status: ('A' for Active; 'I' for Inactive)
ROOT
ATOM      1  C   UNL d   1       3.373  -6.000  -2.446  0.00  0.00     0.172 C 
ATOM      2  N   UNL d   1       3.377  -5.962  -3.889  0.00  0.00    -0.070 N 
ATOM      3  C1  UNL d   1       4.490  -5.999  -4.686  0.00  0.00    -0.004 A 
ATOM      4  C2  UNL d   1       4.073  -5.943  -5.998  0.00  0.00    -0.047 A 
ATOM      5  C3  UNL d   1       2.659  -5.867  -5.989  0.00  0.00    -0.047 A 
ATOM      6  C4  UNL d   1       2.255  -5.880  -4.671  0.00  0.00    -0.004 A 
ENDROOT
TORSDOF 0
ENDMDL
