MODEL 1
REMARK minimizedAffinity -0.278636962
REMARK minimizedRMSD -1
REMARK  0 active torsions:
REMARK  status: ('A' for Active; 'I' for Inactive)
ROOT
ATOM      1  C   UNL d   1       1.517  -5.970  -5.674  0.00  0.00     0.172 C 
ATOM      2  N   UNL d   1       2.877  -5.977  -5.190  0.00  0.00    -0.070 N 
ATOM      3  C1  UNL d   1       4.002  -5.963  -5.971  0.00  0.00    -0.004 A 
ATOM      4  C2  UNL d   1       5.097  -5.976  -5.134  0.00  0.00    -0.047 A 
ATOM      5  C3  UNL d   1       4.613  -5.999  -3.804  0.00  0.00    -0.047 A 
ATOM      6  C4  UNL d   1       3.236  -5.999  -3.868  0.00  0.00    -0.004 A 
ENDROOT
TORSDOF 0
ENDMDL
