MODEL 1
REMARK minimizedAffinity -1.27621245
REMARK minimizedRMSD -1
REMARK  0 active torsions:
REMARK  status: ('A' for Active; 'I' for Inactive)
ROOT
ATOM      1  C   UNL d   1       5.548  -5.977  -5.251  0.00  0.00     0.172 C 
ATOM      2  N   UNL d   1       4.125  -5.985  -5.011  0.00  0.00    -0.070 N 
ATOM      3  C1  UNL d   1       3.152  -5.993  -5.976  0.00  0.00    -0.004 A 
ATOM      4  C2  UNL d   1       1.929  -6.000  -5.342  0.00  0.00    -0.047 A 
ATOM      5  C3  UNL d   1       2.174  -5.996  -3.948  0.00  0.00    -0.047 A 
ATOM      6  C4  UNL d   1       3.542  -5.986  -3.772  0.00  0.00    -0.004 A 
ENDROOT
TORSDOF 0
ENDMDL
