MODEL 1
REMARK minimizedAffinity -1.48440325
REMARK minimizedRMSD -1
REMARK  0 active torsions:
REMARK  status: ('A' for Active; 'I' for Inactive)
ROOT
ATOM      1  C   UNL d   1       5.275  -2.387  -2.914  0.00  0.00     0.172 C 
ATOM      2  N   UNL d   1       5.247  -3.815  -3.125  0.00  0.00    -0.070 N 
ATOM      3  C1  UNL d   1       4.850  -4.750  -2.206  0.00  0.00    -0.004 A 
ATOM      4  C2  UNL d   1       4.970  -5.993  -2.790  0.00  0.00    -0.047 A 
ATOM      5  C3  UNL d   1       5.456  -5.798  -4.105  0.00  0.00    -0.047 A 
ATOM      6  C4  UNL d   1       5.619  -4.441  -4.285  0.00  0.00    -0.004 A 
ENDROOT
TORSDOF 0
ENDMDL
