MODEL 1
REMARK minimizedAffinity 3.31616521
REMARK minimizedRMSD -1
REMARK  0 active torsions:
REMARK  status: ('A' for Active; 'I' for Inactive)
ROOT
ATOM      1  C   UNL d   1       4.947  -2.871   4.523  0.00  0.00     0.172 C 
ATOM      2  N   UNL d   1       3.599  -3.014   4.025  0.00  0.00    -0.070 N 
ATOM      3  C1  UNL d   1       2.868  -4.172   4.020  0.00  0.00    -0.004 A 
ATOM      4  C2  UNL d   1       1.638  -3.893   3.466  0.00  0.00    -0.047 A 
ATOM      5  C3  UNL d   1       1.629  -2.519   3.125  0.00  0.00    -0.047 A 
ATOM      6  C4  UNL d   1       2.855  -2.000   3.482  0.00  0.00    -0.004 A 
ENDROOT
TORSDOF 0
ENDMDL
