MODEL 1
REMARK minimizedAffinity 1.53853977
REMARK minimizedRMSD -1
REMARK  0 active torsions:
REMARK  status: ('A' for Active; 'I' for Inactive)
ROOT
ATOM      1  C   UNL d   1      -0.985  -2.516  -0.379  0.00  0.00     0.172 C 
ATOM      2  N   UNL d   1      -2.019  -2.511  -1.387  0.00  0.00    -0.070 N 
ATOM      3  C1  UNL d   1      -2.249  -1.507  -2.289  0.00  0.00    -0.004 A 
ATOM      4  C2  UNL d   1      -3.318  -1.883  -3.075  0.00  0.00    -0.047 A 
ATOM      5  C3  UNL d   1      -3.745  -3.156  -2.628  0.00  0.00    -0.047 A 
ATOM      6  C4  UNL d   1      -2.924  -3.521  -1.583  0.00  0.00    -0.004 A 
ENDROOT
TORSDOF 0
ENDMDL
