MODEL 1
REMARK minimizedAffinity 0.683694124
REMARK minimizedRMSD -1
REMARK  0 active torsions:
REMARK  status: ('A' for Active; 'I' for Inactive)
ROOT
ATOM      1  C   UNL d   1       1.871  -0.748   2.316  0.00  0.00     0.172 C 
ATOM      2  N   UNL d   1       1.811  -1.998   3.036  0.00  0.00    -0.070 N 
ATOM      3  C1  UNL d   1       2.493  -3.140   2.712  0.00  0.00    -0.004 A 
ATOM      4  C2  UNL d   1       2.166  -4.104   3.640  0.00  0.00    -0.047 A 
ATOM      5  C3  UNL d   1       1.256  -3.522   4.554  0.00  0.00    -0.047 A 
ATOM      6  C4  UNL d   1       1.053  -2.217   4.156  0.00  0.00    -0.004 A 
ENDROOT
TORSDOF 0
ENDMDL
