MODEL 1
REMARK minimizedAffinity 12.9458914
REMARK minimizedRMSD -1
REMARK  0 active torsions:
REMARK  status: ('A' for Active; 'I' for Inactive)
ROOT
ATOM      1  N1  IND d   1       5.192  -4.904   5.710  0.00  0.00    -0.196 N 
ATOM      2  C2  IND d   1       5.658  -3.652   6.000  0.00  0.00     0.054 A 
ATOM      3  C3  IND d   1       5.681  -2.889   4.884  0.00  0.00    -0.031 A 
ATOM      4  C4  IND d   1       4.906  -3.460   2.496  0.00  0.00     0.051 A 
ATOM      5  C5  IND d   1       4.440  -4.494   1.733  0.00  0.00    -0.031 A 
ATOM      6  C6  IND d   1       4.193  -5.741   2.268  0.00  0.00     0.015 A 
ATOM      7  C7  IND d   1       4.394  -6.000   3.594  0.00  0.00    -0.016 A 
ATOM      8  C8  IND d   1       4.873  -4.955   4.371  0.00  0.00    -0.047 A 
ATOM      9  C9  IND d   1       5.166  -3.698   3.825  0.00  0.00    -0.096 A 
ATOM     10  HN1 IND d   1       5.112  -5.552   6.270  0.00  0.00     0.298 HD
ENDROOT
TORSDOF 0
ENDMDL
