MODEL 1
REMARK minimizedAffinity 0.927138865
REMARK minimizedRMSD -1
REMARK  0 active torsions:
REMARK  status: ('A' for Active; 'I' for Inactive)
ROOT
ATOM      1  N1  IND d   1       4.762  -5.589   2.364  0.00  0.00    -0.196 N 
ATOM      2  C2  IND d   1       4.895  -4.496   1.554  0.00  0.00     0.054 A 
ATOM      3  C3  IND d   1       4.854  -3.360   2.285  0.00  0.00    -0.031 A 
ATOM      4  C4  IND d   1       4.679  -3.063   4.837  0.00  0.00     0.051 A 
ATOM      5  C5  IND d   1       4.499  -3.768   5.993  0.00  0.00    -0.031 A 
ATOM      6  C6  IND d   1       4.398  -5.144   6.000  0.00  0.00     0.015 A 
ATOM      7  C7  IND d   1       4.486  -5.871   4.846  0.00  0.00    -0.016 A 
ATOM      8  C8  IND d   1       4.661  -5.157   3.669  0.00  0.00    -0.047 A 
ATOM      9  C9  IND d   1       4.721  -3.758   3.651  0.00  0.00    -0.096 A 
ATOM     10  HN1 IND d   1       4.745  -6.408   2.103  0.00  0.00     0.298 HD
ENDROOT
TORSDOF 0
ENDMDL
