MODEL 1
REMARK minimizedAffinity -3.1573422
REMARK minimizedRMSD -1
REMARK  0 active torsions:
REMARK  status: ('A' for Active; 'I' for Inactive)
ROOT
ATOM      1  N1  IND d   1       3.318   2.162  -5.998  0.00  0.00    -0.196 N 
ATOM      2  C2  IND d   1       2.130   1.487  -5.983  0.00  0.00     0.054 A 
ATOM      3  C3  IND d   1       1.095   2.356  -5.943  0.00  0.00    -0.031 A 
ATOM      4  C4  IND d   1       1.118   4.930  -5.997  0.00  0.00     0.051 A 
ATOM      5  C5  IND d   1       1.967   6.000  -5.974  0.00  0.00    -0.031 A 
ATOM      6  C6  IND d   1       3.338   5.843  -5.961  0.00  0.00     0.015 A 
ATOM      7  C7  IND d   1       3.914   4.604  -5.981  0.00  0.00    -0.016 A 
ATOM      8  C8  IND d   1       3.054   3.514  -5.997  0.00  0.00    -0.047 A 
ATOM      9  C9  IND d   1       1.662   3.667  -5.968  0.00  0.00    -0.096 A 
ATOM     10  HN1 IND d   1       4.100   1.803  -6.006  0.00  0.00     0.298 HD
ENDROOT
TORSDOF 0
ENDMDL
