MODEL 1
REMARK minimizedAffinity 1.3696419
REMARK minimizedRMSD -1
REMARK  0 active torsions:
REMARK  status: ('A' for Active; 'I' for Inactive)
ROOT
ATOM      1  N1  IND d   1       3.491   1.692  -5.851  0.00  0.00    -0.196 N 
ATOM      2  C2  IND d   1       4.833   1.431  -5.885  0.00  0.00     0.054 A 
ATOM      3  C3  IND d   1       5.534   2.583  -5.974  0.00  0.00    -0.031 A 
ATOM      4  C4  IND d   1       4.691   5.015  -5.976  0.00  0.00     0.051 A 
ATOM      5  C5  IND d   1       3.544   5.758  -5.998  0.00  0.00    -0.031 A 
ATOM      6  C6  IND d   1       2.295   5.171  -5.969  0.00  0.00     0.015 A 
ATOM      7  C7  IND d   1       2.147   3.814  -5.905  0.00  0.00    -0.016 A 
ATOM      8  C8  IND d   1       3.309   3.057  -5.889  0.00  0.00    -0.047 A 
ATOM      9  C9  IND d   1       4.579   3.645  -5.961  0.00  0.00    -0.096 A 
ATOM     10  HN1 IND d   1       2.866   1.103  -5.812  0.00  0.00     0.298 HD
ENDROOT
TORSDOF 0
ENDMDL
