MODEL 1
REMARK minimizedAffinity 1.69786716
REMARK minimizedRMSD -1
REMARK  0 active torsions:
REMARK  status: ('A' for Active; 'I' for Inactive)
ROOT
ATOM      1  N1  IND d   1       4.596  -3.013   2.266  0.00  0.00    -0.196 N 
ATOM      2  C2  IND d   1       4.372  -4.127   1.506  0.00  0.00     0.054 A 
ATOM      3  C3  IND d   1       4.236  -5.216   2.296  0.00  0.00    -0.031 A 
ATOM      4  C4  IND d   1       4.243  -5.383   4.865  0.00  0.00     0.051 A 
ATOM      5  C5  IND d   1       4.449  -4.638   5.993  0.00  0.00    -0.031 A 
ATOM      6  C6  IND d   1       4.716  -3.285   5.934  0.00  0.00     0.015 A 
ATOM      7  C7  IND d   1       4.778  -2.622   4.741  0.00  0.00    -0.016 A 
ATOM      8  C8  IND d   1       4.577  -3.377   3.594  0.00  0.00    -0.047 A 
ATOM      9  C9  IND d   1       4.347  -4.758   3.645  0.00  0.00    -0.096 A 
ATOM     10  HN1 IND d   1       4.727  -2.218   1.964  0.00  0.00     0.298 HD
ENDROOT
TORSDOF 0
ENDMDL
