MODEL 1
REMARK minimizedAffinity 10.5181875
REMARK minimizedRMSD -1
REMARK  0 active torsions:
REMARK  status: ('A' for Active; 'I' for Inactive)
ROOT
ATOM      1  N1  IND d   1       4.656  -4.856   2.381  0.00  0.00    -0.196 N 
ATOM      2  C2  IND d   1       4.557  -3.747   1.587  0.00  0.00     0.054 A 
ATOM      3  C3  IND d   1       4.678  -2.624   2.330  0.00  0.00    -0.031 A 
ATOM      4  C4  IND d   1       5.148  -2.372   4.849  0.00  0.00     0.051 A 
ATOM      5  C5  IND d   1       5.281  -3.100   5.998  0.00  0.00    -0.031 A 
ATOM      6  C6  IND d   1       5.214  -4.478   6.000  0.00  0.00     0.015 A 
ATOM      7  C7  IND d   1       5.022  -5.183   4.846  0.00  0.00    -0.016 A 
ATOM      8  C8  IND d   1       4.879  -4.447   3.678  0.00  0.00    -0.047 A 
ATOM      9  C9  IND d   1       4.904  -3.047   3.676  0.00  0.00    -0.096 A 
ATOM     10  HN1 IND d   1       4.590  -5.671   2.115  0.00  0.00     0.298 HD
ENDROOT
TORSDOF 0
ENDMDL
