MODEL 1
REMARK minimizedAffinity -2.68264675
REMARK minimizedRMSD -1
REMARK  0 active torsions:
REMARK  status: ('A' for Active; 'I' for Inactive)
ROOT
ATOM      1  N1  IND d   1       4.766   2.499  -5.801  0.00  0.00    -0.196 N 
ATOM      2  C2  IND d   1       5.999   3.082  -5.704  0.00  0.00     0.054 A 
ATOM      3  C3  IND d   1       5.883   4.429  -5.711  0.00  0.00    -0.031 A 
ATOM      4  C4  IND d   1       3.764   5.889  -5.771  0.00  0.00     0.051 A 
ATOM      5  C5  IND d   1       2.405   5.811  -5.899  0.00  0.00    -0.031 A 
ATOM      6  C6  IND d   1       1.751   4.600  -6.000  0.00  0.00     0.015 A 
ATOM      7  C7  IND d   1       2.433   3.417  -5.965  0.00  0.00    -0.016 A 
ATOM      8  C8  IND d   1       3.813   3.493  -5.842  0.00  0.00    -0.047 A 
ATOM      9  C9  IND d   1       4.486   4.719  -5.782  0.00  0.00    -0.096 A 
ATOM     10  HN1 IND d   1       4.612   1.653  -5.830  0.00  0.00     0.298 HD
ENDROOT
TORSDOF 0
ENDMDL
