MODEL 1
REMARK minimizedAffinity -0.957299411
REMARK minimizedRMSD -1
REMARK  0 active torsions:
REMARK  status: ('A' for Active; 'I' for Inactive)
ROOT
ATOM      1  N1  IND d   1      -3.089   1.559  -4.831  0.00  0.00    -0.196 N 
ATOM      2  C2  IND d   1      -2.321   2.438  -4.119  0.00  0.00     0.054 A 
ATOM      3  C3  IND d   1      -2.303   2.095  -2.812  0.00  0.00    -0.031 A 
ATOM      4  C4  IND d   1      -3.380   0.074  -1.636  0.00  0.00     0.051 A 
ATOM      5  C5  IND d   1      -4.209  -0.988  -1.863  0.00  0.00    -0.031 A 
ATOM      6  C6  IND d   1      -4.716  -1.263  -3.117  0.00  0.00     0.015 A 
ATOM      7  C7  IND d   1      -4.401  -0.488  -4.198  0.00  0.00    -0.016 A 
ATOM      8  C8  IND d   1      -3.565   0.595  -3.969  0.00  0.00    -0.047 A 
ATOM      9  C9  IND d   1      -3.082   0.904  -2.691  0.00  0.00    -0.096 A 
ATOM     10  HN1 IND d   1      -3.248   1.602  -5.675  0.00  0.00     0.298 HD
ENDROOT
TORSDOF 0
ENDMDL
