MODEL 1
REMARK minimizedAffinity -3.06429052
REMARK minimizedRMSD -1
REMARK  1 active torsions:
REMARK  status: ('A' for Active; 'I' for Inactive)
REMARK    1  A    between atoms: N_2  and  C1_3 
ROOT
ATOM      1  C1  UNL d   1       0.234   0.749  -0.299  0.00  0.00     0.143 A 
ATOM      2  C2  UNL d   1       0.502   0.236  -1.572  0.00  0.00    -0.057 A 
ATOM      3  C3  UNL d   1       0.560  -1.144  -1.802  0.00  0.00     0.033 A 
ATOM      4  C4  UNL d   1       0.379  -2.038  -0.752  0.00  0.00    -0.042 A 
ATOM      5  C5  UNL d   1       0.136  -1.550   0.528  0.00  0.00     0.033 A 
ATOM      6  C6  UNL d   1       0.073  -0.171   0.749  0.00  0.00    -0.057 A 
ENDROOT
BRANCH   1   7
ATOM      7  N   UNL d   1       0.261   2.111   0.013  0.00  0.00    -0.732 N 
ATOM      8  C   UNL d   1       1.490   2.745   0.438  0.00  0.00     0.284 C 
ATOM      9  H3  UNL d   1      -0.293   2.668  -0.633  0.00  0.00     0.395 HD
ENDBRANCH   1   7
TORSDOF 1
ENDMDL
