MODEL 1
REMARK minimizedAffinity -4.39964581
REMARK minimizedRMSD -1
REMARK  1 active torsions:
REMARK  status: ('A' for Active; 'I' for Inactive)
REMARK    1  A    between atoms: N_2  and  C1_3 
ROOT
ATOM      1  C1  UNL d   1      -0.384  -0.122  -0.400  0.00  0.00     0.143 A 
ATOM      2  C2  UNL d   1       0.065  -0.973  -1.416  0.00  0.00    -0.057 A 
ATOM      3  C3  UNL d   1       0.078  -2.362  -1.246  0.00  0.00     0.033 A 
ATOM      4  C4  UNL d   1      -0.332  -2.926  -0.043  0.00  0.00    -0.042 A 
ATOM      5  C5  UNL d   1      -0.759  -2.099   0.989  0.00  0.00     0.033 A 
ATOM      6  C6  UNL d   1      -0.776  -0.712   0.812  0.00  0.00    -0.057 A 
ENDROOT
BRANCH   1   7
ATOM      7  N   UNL d   1      -0.329   1.272  -0.472  0.00  0.00    -0.732 N 
ATOM      8  C   UNL d   1       0.788   1.995   0.096  0.00  0.00     0.284 C 
ATOM      9  H3  UNL d   1      -0.639   1.627  -1.373  0.00  0.00     0.395 HD
ENDBRANCH   1   7
TORSDOF 1
ENDMDL
