MODEL 1
REMARK minimizedAffinity -4.17546701
REMARK minimizedRMSD -1
REMARK  1 active torsions:
REMARK  status: ('A' for Active; 'I' for Inactive)
REMARK    1  A    between atoms: N_2  and  C1_3 
ROOT
ATOM      1  C1  UNL d   1      -0.045  -0.407   0.186  0.00  0.00     0.143 A 
ATOM      2  C2  UNL d   1      -0.691  -1.012   1.269  0.00  0.00    -0.057 A 
ATOM      3  C3  UNL d   1      -0.716  -2.404   1.414  0.00  0.00     0.033 A 
ATOM      4  C4  UNL d   1      -0.117  -3.220   0.460  0.00  0.00    -0.042 A 
ATOM      5  C5  UNL d   1       0.510  -2.641  -0.638  0.00  0.00     0.033 A 
ATOM      6  C6  UNL d   1       0.537  -1.250  -0.774  0.00  0.00    -0.057 A 
ENDROOT
BRANCH   1   7
ATOM      7  N   UNL d   1      -0.070   0.967  -0.066  0.00  0.00    -0.732 N 
ATOM      8  C   UNL d   1       1.095   1.786   0.193  0.00  0.00     0.284 C 
ATOM      9  H3  UNL d   1      -0.554   1.194  -0.932  0.00  0.00     0.395 HD
ENDBRANCH   1   7
TORSDOF 1
ENDMDL
