MODEL 1
REMARK minimizedAffinity -3.42347527
REMARK minimizedRMSD -1
REMARK  1 active torsions:
REMARK  status: ('A' for Active; 'I' for Inactive)
REMARK    1  A    between atoms: N_2  and  C1_3 
ROOT
ATOM      1  C1  UNL d   1      -0.048  -0.400  -0.208  0.00  0.00     0.143 A 
ATOM      2  C2  UNL d   1       0.928  -1.259  -0.723  0.00  0.00    -0.057 A 
ATOM      3  C3  UNL d   1       1.002  -2.599  -0.322  0.00  0.00     0.033 A 
ATOM      4  C4  UNL d   1       0.115  -3.097   0.627  0.00  0.00    -0.042 A 
ATOM      5  C5  UNL d   1      -0.848  -2.255   1.171  0.00  0.00     0.033 A 
ATOM      6  C6  UNL d   1      -0.920  -0.920   0.762  0.00  0.00    -0.057 A 
ENDROOT
BRANCH   1   7
ATOM      7  N   UNL d   1      -0.111   0.966  -0.493  0.00  0.00    -0.732 N 
ATOM      8  C   UNL d   1       0.692   1.912   0.253  0.00  0.00     0.284 C 
ATOM      9  H3  UNL d   1      -0.153   1.153  -1.492  0.00  0.00     0.395 HD
ENDBRANCH   1   7
TORSDOF 1
ENDMDL
