MODEL 1
REMARK minimizedAffinity -4.05782509
REMARK minimizedRMSD -1
REMARK  1 active torsions:
REMARK  status: ('A' for Active; 'I' for Inactive)
REMARK    1  A    between atoms: N_2  and  C1_3 
ROOT
ATOM      1  C1  UNL d   1       0.216  -0.038   0.315  0.00  0.00     0.143 A 
ATOM      2  C2  UNL d   1      -0.823  -0.359   1.195  0.00  0.00    -0.057 A 
ATOM      3  C3  UNL d   1      -1.160  -1.690   1.468  0.00  0.00     0.033 A 
ATOM      4  C4  UNL d   1      -0.479  -2.728   0.841  0.00  0.00    -0.042 A 
ATOM      5  C5  UNL d   1       0.541  -2.433  -0.057  0.00  0.00     0.033 A 
ATOM      6  C6  UNL d   1       0.877  -1.102  -0.320  0.00  0.00    -0.057 A 
ENDROOT
BRANCH   1   7
ATOM      7  N   UNL d   1       0.533   1.266  -0.073  0.00  0.00    -0.732 N 
ATOM      8  C   UNL d   1       1.352   2.108   0.773  0.00  0.00     0.284 C 
ATOM      9  H3  UNL d   1       0.751   1.334  -1.064  0.00  0.00     0.395 HD
ENDBRANCH   1   7
TORSDOF 1
ENDMDL
