MODEL 1
REMARK minimizedAffinity -4.80287981
REMARK minimizedRMSD -1
REMARK  1 active torsions:
REMARK  status: ('A' for Active; 'I' for Inactive)
REMARK    1  A    between atoms: N_2  and  C1_3 
ROOT
ATOM      1  C1  UNL d   1       0.005   0.065   0.189  0.00  0.00     0.143 A 
ATOM      2  C2  UNL d   1       0.536  -0.540  -0.956  0.00  0.00    -0.057 A 
ATOM      3  C3  UNL d   1       0.588  -1.933  -1.083  0.00  0.00     0.033 A 
ATOM      4  C4  UNL d   1       0.135  -2.749  -0.052  0.00  0.00    -0.042 A 
ATOM      5  C5  UNL d   1      -0.374  -2.170   1.105  0.00  0.00     0.033 A 
ATOM      6  C6  UNL d   1      -0.429  -0.778   1.224  0.00  0.00    -0.057 A 
ENDROOT
BRANCH   1   7
ATOM      7  N   UNL d   1       0.016   1.443   0.417  0.00  0.00    -0.732 N 
ATOM      8  C   UNL d   1       1.251   2.194   0.336  0.00  0.00     0.284 C 
ATOM      9  H3  UNL d   1      -0.784   1.912  -0.002  0.00  0.00     0.395 HD
ENDBRANCH   1   7
TORSDOF 1
ENDMDL
