MODEL 1
REMARK minimizedAffinity -5.22862053
REMARK minimizedRMSD -1
REMARK  1 active torsions:
REMARK  status: ('A' for Active; 'I' for Inactive)
REMARK    1  A    between atoms: N_2  and  C1_3 
ROOT
ATOM      1  C1  UNL d   1      -0.001  -0.257  -0.494  0.00  0.00     0.143 A 
ATOM      2  C2  UNL d   1      -0.788  -0.563   0.622  0.00  0.00    -0.057 A 
ATOM      3  C3  UNL d   1      -1.017  -1.889   1.007  0.00  0.00     0.033 A 
ATOM      4  C4  UNL d   1      -0.486  -2.938   0.264  0.00  0.00    -0.042 A 
ATOM      5  C5  UNL d   1       0.278  -2.658  -0.864  0.00  0.00     0.033 A 
ATOM      6  C6  UNL d   1       0.509  -1.332  -1.240  0.00  0.00    -0.057 A 
ENDROOT
BRANCH   1   7
ATOM      7  N   UNL d   1       0.183   1.037  -0.986  0.00  0.00    -0.732 N 
ATOM      8  C   UNL d   1       0.668   2.092  -0.121  0.00  0.00     0.284 C 
ATOM      9  H3  UNL d   1       0.589   1.045  -1.919  0.00  0.00     0.395 HD
ENDBRANCH   1   7
TORSDOF 1
ENDMDL
