MODEL 1
REMARK minimizedAffinity -4.21934128
REMARK minimizedRMSD -1
REMARK  1 active torsions:
REMARK  status: ('A' for Active; 'I' for Inactive)
REMARK    1  A    between atoms: N_2  and  C1_3 
ROOT
ATOM      1  C1  UNL d   1      -0.691  -0.844  -0.123  0.00  0.00     0.143 A 
ATOM      2  C2  UNL d   1      -1.054  -2.164   0.162  0.00  0.00    -0.057 A 
ATOM      3  C3  UNL d   1      -0.836  -3.193  -0.762  0.00  0.00     0.033 A 
ATOM      4  C4  UNL d   1      -0.275  -2.913  -2.004  0.00  0.00    -0.042 A 
ATOM      5  C5  UNL d   1       0.070  -1.604  -2.319  0.00  0.00     0.033 A 
ATOM      6  C6  UNL d   1      -0.144  -0.582  -1.389  0.00  0.00    -0.057 A 
ENDROOT
BRANCH   1   7
ATOM      7  N   UNL d   1      -0.972   0.238   0.715  0.00  0.00    -0.732 N 
ATOM      8  C   UNL d   1      -2.114   0.206   1.603  0.00  0.00     0.284 C 
ATOM      9  H3  UNL d   1      -0.133   0.636   1.130  0.00  0.00     0.395 HD
ENDBRANCH   1   7
TORSDOF 1
ENDMDL
