MODEL 1
REMARK minimizedAffinity 1.57009304
REMARK minimizedRMSD -1
REMARK  0 active torsions:
REMARK  status: ('A' for Active; 'I' for Inactive)
ROOT
ATOM      1  C2' OXE d   1      -2.056   4.785  -4.130  0.00  0.00     0.078 C 
ATOM      2  C1' OXE d   1      -0.058   5.446  -5.988  0.00  0.00     0.078 C 
ATOM      3  C1  OXE d   1       0.352   4.671  -4.760  0.00  0.00    -0.078 A 
ATOM      4  C2  OXE d   1      -0.625   4.393  -3.834  0.00  0.00    -0.078 A 
ATOM      5  C3  OXE d   1      -0.312   3.634  -2.710  0.00  0.00     0.003 A 
ATOM      6  C4  OXE d   1       1.016   3.284  -2.438  0.00  0.00    -0.002 A 
ATOM      7  C5  OXE d   1       2.032   3.592  -3.349  0.00  0.00    -0.002 A 
ATOM      8  C6  OXE d   1       1.711   4.247  -4.533  0.00  0.00     0.003 A 
ENDROOT
TORSDOF 0
ENDMDL
