MODEL 1
REMARK minimizedAffinity 5.37773228
REMARK minimizedRMSD -1
REMARK  0 active torsions:
REMARK  status: ('A' for Active; 'I' for Inactive)
ROOT
ATOM      1  C2' OXE d   1       0.732   2.964  -2.741  0.00  0.00     0.078 C 
ATOM      2  C1' OXE d   1       2.842   4.655  -3.495  0.00  0.00     0.078 C 
ATOM      3  C1  OXE d   1       1.541   4.777  -4.247  0.00  0.00    -0.078 A 
ATOM      4  C2  OXE d   1       0.529   3.913  -3.902  0.00  0.00    -0.078 A 
ATOM      5  C3  OXE d   1      -0.711   4.020  -4.527  0.00  0.00     0.003 A 
ATOM      6  C4  OXE d   1      -0.888   4.893  -5.607  0.00  0.00    -0.002 A 
ATOM      7  C5  OXE d   1       0.143   5.754  -6.000  0.00  0.00    -0.002 A 
ATOM      8  C6  OXE d   1       1.347   5.738  -5.304  0.00  0.00     0.003 A 
ENDROOT
TORSDOF 0
ENDMDL
