MODEL 1
REMARK minimizedAffinity 5.23950958
REMARK minimizedRMSD -1
REMARK  0 active torsions:
REMARK  status: ('A' for Active; 'I' for Inactive)
ROOT
ATOM      1  C2' OXE d   1       0.790   3.748  -2.357  0.00  0.00     0.078 C 
ATOM      2  C1' OXE d   1      -1.448   5.441  -2.279  0.00  0.00     0.078 C 
ATOM      3  C1  OXE d   1      -0.756   5.249  -3.606  0.00  0.00    -0.078 A 
ATOM      4  C2  OXE d   1       0.365   4.455  -3.625  0.00  0.00    -0.078 A 
ATOM      5  C3  OXE d   1       1.009   4.201  -4.833  0.00  0.00     0.003 A 
ATOM      6  C4  OXE d   1       0.616   4.867  -6.000  0.00  0.00    -0.002 A 
ATOM      7  C5  OXE d   1      -0.500   5.711  -5.994  0.00  0.00    -0.002 A 
ATOM      8  C6  OXE d   1      -1.222   5.878  -4.817  0.00  0.00     0.003 A 
ENDROOT
TORSDOF 0
ENDMDL
