MODEL 1
REMARK minimizedAffinity 0.794168591
REMARK minimizedRMSD -1
REMARK  0 active torsions:
REMARK  status: ('A' for Active; 'I' for Inactive)
ROOT
ATOM      1  C2' OXE d   1      -5.949  -0.764  -3.190  0.00  0.00     0.078 C 
ATOM      2  C1' OXE d   1      -5.990  -0.738  -5.996  0.00  0.00     0.078 C 
ATOM      3  C1  OXE d   1      -5.973   0.589  -5.281  0.00  0.00    -0.078 A 
ATOM      4  C2  OXE d   1      -6.000   0.568  -3.907  0.00  0.00    -0.078 A 
ATOM      5  C3  OXE d   1      -5.930   1.763  -3.197  0.00  0.00     0.003 A 
ATOM      6  C4  OXE d   1      -5.987   2.990  -3.869  0.00  0.00    -0.002 A 
ATOM      7  C5  OXE d   1      -6.000   3.035  -5.267  0.00  0.00    -0.002 A 
ATOM      8  C6  OXE d   1      -5.950   1.846  -5.987  0.00  0.00     0.003 A 
ENDROOT
TORSDOF 0
ENDMDL
