MODEL 1
REMARK minimizedAffinity 8.78665352
REMARK minimizedRMSD -1
REMARK  0 active torsions:
REMARK  status: ('A' for Active; 'I' for Inactive)
ROOT
ATOM      1  C2' OXE d   1      -2.349  -1.205   2.421  0.00  0.00     0.078 C 
ATOM      2  C1' OXE d   1      -1.271  -3.249   0.828  0.00  0.00     0.078 C 
ATOM      3  C1  OXE d   1      -0.412  -2.694   1.937  0.00  0.00    -0.078 A 
ATOM      4  C2  OXE d   1      -0.930  -1.662   2.682  0.00  0.00    -0.078 A 
ATOM      5  C3  OXE d   1      -0.202  -1.151   3.752  0.00  0.00     0.003 A 
ATOM      6  C4  OXE d   1       1.114  -1.573   3.980  0.00  0.00    -0.002 A 
ATOM      7  C5  OXE d   1       1.675  -2.596   3.208  0.00  0.00    -0.002 A 
ATOM      8  C6  OXE d   1       0.912  -3.195   2.212  0.00  0.00     0.003 A 
ENDROOT
TORSDOF 0
ENDMDL
