MODEL 1
REMARK minimizedAffinity 15.0141697
REMARK minimizedRMSD -1
REMARK  0 active torsions:
REMARK  status: ('A' for Active; 'I' for Inactive)
ROOT
ATOM      1  C2' OXE d   1       3.036  -0.044   1.074  0.00  0.00     0.078 C 
ATOM      2  C1' OXE d   1       0.869   1.659   0.541  0.00  0.00     0.078 C 
ATOM      3  C1  OXE d   1       2.001   1.628  -0.455  0.00  0.00    -0.078 A 
ATOM      4  C2  OXE d   1       3.079   0.827  -0.163  0.00  0.00    -0.078 A 
ATOM      5  C3  OXE d   1       4.125   0.720  -1.074  0.00  0.00     0.003 A 
ATOM      6  C4  OXE d   1       4.162   1.537  -2.211  0.00  0.00    -0.002 A 
ATOM      7  C5  OXE d   1       3.093   2.389  -2.507  0.00  0.00    -0.002 A 
ATOM      8  C6  OXE d   1       1.988   2.415  -1.663  0.00  0.00     0.003 A 
ENDROOT
TORSDOF 0
ENDMDL
