MODEL 1
REMARK minimizedAffinity 7.06580782
REMARK minimizedRMSD -1
REMARK  0 active torsions:
REMARK  status: ('A' for Active; 'I' for Inactive)
ROOT
ATOM      1  C2' OXE d   1      -2.040  -4.986  -1.595  0.00  0.00     0.078 C 
ATOM      2  C1' OXE d   1      -2.509  -3.640   0.823  0.00  0.00     0.078 C 
ATOM      3  C1  OXE d   1      -1.092  -4.049   0.510  0.00  0.00    -0.078 A 
ATOM      4  C2  OXE d   1      -0.878  -4.749  -0.654  0.00  0.00    -0.078 A 
ATOM      5  C3  OXE d   1       0.418  -5.103  -1.017  0.00  0.00     0.003 A 
ATOM      6  C4  OXE d   1       1.485  -4.888  -0.137  0.00  0.00    -0.002 A 
ATOM      7  C5  OXE d   1       1.283  -4.212   1.072  0.00  0.00    -0.002 A 
ATOM      8  C6  OXE d   1       0.011  -3.749   1.389  0.00  0.00     0.003 A 
ENDROOT
TORSDOF 0
ENDMDL
