MODEL 1
REMARK minimizedAffinity 4.81883335
REMARK minimizedRMSD -1
REMARK  0 active torsions:
REMARK  status: ('A' for Active; 'I' for Inactive)
ROOT
ATOM      1  C2' OXE d   1      -5.999   3.491  -2.687  0.00  0.00     0.078 C 
ATOM      2  C1' OXE d   1      -6.000   2.716   0.011  0.00  0.00     0.078 C 
ATOM      3  C1  OXE d   1      -4.903   3.640  -0.455  0.00  0.00    -0.078 A 
ATOM      4  C2  OXE d   1      -4.883   3.977  -1.787  0.00  0.00    -0.078 A 
ATOM      5  C3  OXE d   1      -3.925   4.869  -2.259  0.00  0.00     0.003 A 
ATOM      6  C4  OXE d   1      -2.890   5.306  -1.422  0.00  0.00    -0.002 A 
ATOM      7  C5  OXE d   1      -2.869   4.943  -0.071  0.00  0.00    -0.002 A 
ATOM      8  C6  OXE d   1      -3.889   4.147   0.437  0.00  0.00     0.003 A 
ENDROOT
TORSDOF 0
ENDMDL
