MODEL 1
REMARK minimizedAffinity 8.12629509
REMARK minimizedRMSD -1
REMARK  0 active torsions:
REMARK  status: ('A' for Active; 'I' for Inactive)
ROOT
ATOM      1  C2' OXE d   1       0.373   2.825  -3.030  0.00  0.00     0.078 C 
ATOM      2  C1' OXE d   1       2.462   4.700  -3.035  0.00  0.00     0.078 C 
ATOM      3  C1  OXE d   1       1.376   4.854  -4.070  0.00  0.00    -0.078 A 
ATOM      4  C2  OXE d   1       0.382   3.905  -4.090  0.00  0.00    -0.078 A 
ATOM      5  C3  OXE d   1      -0.673   4.030  -4.989  0.00  0.00     0.003 A 
ATOM      6  C4  OXE d   1      -0.652   5.026  -5.973  0.00  0.00    -0.002 A 
ATOM      7  C5  OXE d   1       0.372   5.980  -5.995  0.00  0.00    -0.002 A 
ATOM      8  C6  OXE d   1       1.368   5.933  -5.027  0.00  0.00     0.003 A 
ENDROOT
TORSDOF 0
ENDMDL
