MODEL 1
REMARK minimizedAffinity 11.6504097
REMARK minimizedRMSD -1
REMARK  0 active torsions:
REMARK  status: ('A' for Active; 'I' for Inactive)
ROOT
ATOM      1  C2' OXE d   1       1.322   2.567  -1.304  0.00  0.00     0.078 C 
ATOM      2  C1' OXE d   1       3.563   1.213  -2.314  0.00  0.00     0.078 C 
ATOM      3  C1  OXE d   1       3.031   0.786  -0.969  0.00  0.00    -0.078 A 
ATOM      4  C2  OXE d   1       1.962   1.485  -0.461  0.00  0.00    -0.078 A 
ATOM      5  C3  OXE d   1       1.398   1.097   0.750  0.00  0.00     0.003 A 
ATOM      6  C4  OXE d   1       2.003   0.102   1.528  0.00  0.00    -0.002 A 
ATOM      7  C5  OXE d   1       3.116  -0.596   1.047  0.00  0.00    -0.002 A 
ATOM      8  C6  OXE d   1       3.615  -0.296  -0.216  0.00  0.00     0.003 A 
ENDROOT
TORSDOF 0
ENDMDL
