MODEL 1
REMARK minimizedAffinity 4.91358376
REMARK minimizedRMSD -1
REMARK  0 active torsions:
REMARK  status: ('A' for Active; 'I' for Inactive)
ROOT
ATOM      1  C2' OXE d   1      -1.666  -5.748  -4.995  0.00  0.00     0.078 C 
ATOM      2  C1' OXE d   1      -2.831  -5.092  -2.527  0.00  0.00     0.078 C 
ATOM      3  C1  OXE d   1      -3.753  -5.385  -3.685  0.00  0.00    -0.078 A 
ATOM      4  C2  OXE d   1      -3.174  -5.660  -4.900  0.00  0.00    -0.078 A 
ATOM      5  C3  OXE d   1      -3.977  -5.991  -5.987  0.00  0.00     0.003 A 
ATOM      6  C4  OXE d   1      -5.371  -5.897  -5.893  0.00  0.00    -0.002 A 
ATOM      7  C5  OXE d   1      -5.981  -5.580  -4.675  0.00  0.00    -0.002 A 
ATOM      8  C6  OXE d   1      -5.189  -5.363  -3.553  0.00  0.00     0.003 A 
ENDROOT
TORSDOF 0
ENDMDL
