MODEL 1
REMARK minimizedAffinity 12.074666
REMARK minimizedRMSD -1
REMARK  0 active torsions:
REMARK  status: ('A' for Active; 'I' for Inactive)
ROOT
ATOM      1  C2' OXE d   1       3.722  -0.969   1.196  0.00  0.00     0.078 C 
ATOM      2  C1' OXE d   1       5.115   1.192   2.323  0.00  0.00     0.078 C 
ATOM      3  C1  OXE d   1       3.751   1.462   1.739  0.00  0.00    -0.078 A 
ATOM      4  C2  OXE d   1       3.096   0.409   1.148  0.00  0.00    -0.078 A 
ATOM      5  C3  OXE d   1       1.812   0.591   0.642  0.00  0.00     0.003 A 
ATOM      6  C4  OXE d   1       1.245   1.870   0.593  0.00  0.00    -0.002 A 
ATOM      7  C5  OXE d   1       1.911   2.964   1.154  0.00  0.00    -0.002 A 
ATOM      8  C6  OXE d   1       3.144   2.770   1.767  0.00  0.00     0.003 A 
ENDROOT
TORSDOF 0
ENDMDL
