MODEL 1
REMARK minimizedAffinity 7.20863962
REMARK minimizedRMSD -1
REMARK  0 active torsions:
REMARK  status: ('A' for Active; 'I' for Inactive)
ROOT
ATOM      1  C2' OXE d   1       0.197  -1.461   2.628  0.00  0.00     0.078 C 
ATOM      2  C1' OXE d   1      -2.125  -2.423   1.377  0.00  0.00     0.078 C 
ATOM      3  C1  OXE d   1      -2.285  -1.367   2.442  0.00  0.00    -0.078 A 
ATOM      4  C2  OXE d   1      -1.148  -0.936   3.082  0.00  0.00    -0.078 A 
ATOM      5  C3  OXE d   1      -1.234   0.076   4.034  0.00  0.00     0.003 A 
ATOM      6  C4  OXE d   1      -2.482   0.549   4.455  0.00  0.00    -0.002 A 
ATOM      7  C5  OXE d   1      -3.656   0.094   3.844  0.00  0.00    -0.002 A 
ATOM      8  C6  OXE d   1      -3.572  -0.831   2.809  0.00  0.00     0.003 A 
ENDROOT
TORSDOF 0
ENDMDL
