MODEL 1
REMARK minimizedAffinity 12.1598806
REMARK minimizedRMSD -1
REMARK  0 active torsions:
REMARK  status: ('A' for Active; 'I' for Inactive)
ROOT
ATOM      1  C2' OXE d   1       2.314  -1.186   1.623  0.00  0.00     0.078 C 
ATOM      2  C1' OXE d   1       1.724   1.193   0.255  0.00  0.00     0.078 C 
ATOM      3  C1  OXE d   1       0.617   0.546   1.049  0.00  0.00    -0.078 A 
ATOM      4  C2  OXE d   1       0.902  -0.643   1.678  0.00  0.00    -0.078 A 
ATOM      5  C3  OXE d   1      -0.067  -1.254   2.468  0.00  0.00     0.003 A 
ATOM      6  C4  OXE d   1      -1.373  -0.751   2.505  0.00  0.00    -0.002 A 
ATOM      7  C5  OXE d   1      -1.695   0.437   1.840  0.00  0.00    -0.002 A 
ATOM      8  C6  OXE d   1      -0.703   1.119   1.145  0.00  0.00     0.003 A 
ENDROOT
TORSDOF 0
ENDMDL
