MODEL 1
REMARK minimizedAffinity 0.405677497
REMARK minimizedRMSD -1
REMARK  0 active torsions:
REMARK  status: ('A' for Active; 'I' for Inactive)
ROOT
ATOM      1  C2' OXE d   1       0.926   0.959   1.183  0.00  0.00     0.078 C 
ATOM      2  C1' OXE d   1       2.881   2.949   1.500  0.00  0.00     0.078 C 
ATOM      3  C1  OXE d   1       2.525   2.530   0.096  0.00  0.00    -0.078 A 
ATOM      4  C2  OXE d   1       1.602   1.522  -0.049  0.00  0.00    -0.078 A 
ATOM      5  C3  OXE d   1       1.197   1.136  -1.324  0.00  0.00     0.003 A 
ATOM      6  C4  OXE d   1       1.834   1.655  -2.457  0.00  0.00    -0.002 A 
ATOM      7  C5  OXE d   1       2.806   2.653  -2.331  0.00  0.00    -0.002 A 
ATOM      8  C6  OXE d   1       3.132   3.131  -1.066  0.00  0.00     0.003 A 
ENDROOT
TORSDOF 0
ENDMDL
