MODEL 1
REMARK minimizedAffinity -0.410798609
REMARK minimizedRMSD -1
REMARK  0 active torsions:
REMARK  status: ('A' for Active; 'I' for Inactive)
ROOT
ATOM      1  C2' OXE d   1       0.670   1.358  -2.124  0.00  0.00     0.078 C 
ATOM      2  C1' OXE d   1       3.354   2.109  -2.458  0.00  0.00     0.078 C 
ATOM      3  C1  OXE d   1       2.303   2.909  -3.187  0.00  0.00    -0.078 A 
ATOM      4  C2  OXE d   1       0.996   2.506  -3.055  0.00  0.00    -0.078 A 
ATOM      5  C3  OXE d   1      -0.017   3.242  -3.662  0.00  0.00     0.003 A 
ATOM      6  C4  OXE d   1       0.294   4.296  -4.529  0.00  0.00    -0.002 A 
ATOM      7  C5  OXE d   1       1.622   4.698  -4.709  0.00  0.00    -0.002 A 
ATOM      8  C6  OXE d   1       2.633   4.044  -4.014  0.00  0.00     0.003 A 
ENDROOT
TORSDOF 0
ENDMDL
