MODEL 1
REMARK minimizedAffinity 10.2446022
REMARK minimizedRMSD -1
REMARK  0 active torsions:
REMARK  status: ('A' for Active; 'I' for Inactive)
ROOT
ATOM      1  C2' OXE d   1      -5.929   2.184  -5.683  0.00  0.00     0.078 C 
ATOM      2  C1' OXE d   1      -5.995   1.954  -2.886  0.00  0.00     0.078 C 
ATOM      3  C1  OXE d   1      -5.972   0.682  -3.696  0.00  0.00    -0.078 A 
ATOM      4  C2  OXE d   1      -5.987   0.804  -5.065  0.00  0.00    -0.078 A 
ATOM      5  C3  OXE d   1      -5.911  -0.337  -5.859  0.00  0.00     0.003 A 
ATOM      6  C4  OXE d   1      -5.974  -1.610  -5.279  0.00  0.00    -0.002 A 
ATOM      7  C5  OXE d   1      -6.000  -1.756  -3.888  0.00  0.00    -0.002 A 
ATOM      8  C6  OXE d   1      -5.956  -0.623  -3.083  0.00  0.00     0.003 A 
ENDROOT
TORSDOF 0
ENDMDL
