MODEL 1
REMARK minimizedAffinity 1.85397303
REMARK minimizedRMSD -1
REMARK  0 active torsions:
REMARK  status: ('A' for Active; 'I' for Inactive)
ROOT
ATOM      1  C2' OXE d   1       4.640   2.285  -3.610  0.00  0.00     0.078 C 
ATOM      2  C1' OXE d   1       2.539   1.762  -1.823  0.00  0.00     0.078 C 
ATOM      3  C1  OXE d   1       2.290   2.756  -2.929  0.00  0.00    -0.078 A 
ATOM      4  C2  OXE d   1       3.338   3.041  -3.771  0.00  0.00    -0.078 A 
ATOM      5  C3  OXE d   1       3.146   3.910  -4.841  0.00  0.00     0.003 A 
ATOM      6  C4  OXE d   1       1.943   4.612  -4.977  0.00  0.00    -0.002 A 
ATOM      7  C5  OXE d   1       0.875   4.366  -4.107  0.00  0.00    -0.002 A 
ATOM      8  C6  OXE d   1       1.018   3.412  -3.106  0.00  0.00     0.003 A 
ENDROOT
TORSDOF 0
ENDMDL
