MODEL 1
REMARK minimizedAffinity 8.39791203
REMARK minimizedRMSD -1
REMARK  0 active torsions:
REMARK  status: ('A' for Active; 'I' for Inactive)
ROOT
ATOM      1  C2' OXE d   1       0.752   1.336   0.894  0.00  0.00     0.078 C 
ATOM      2  C1' OXE d   1       3.505   1.473   1.424  0.00  0.00     0.078 C 
ATOM      3  C1  OXE d   1       3.050   1.704   0.005  0.00  0.00    -0.078 A 
ATOM      4  C2  OXE d   1       1.705   1.589  -0.254  0.00  0.00    -0.078 A 
ATOM      5  C3  OXE d   1       1.225   1.846  -1.536  0.00  0.00     0.003 A 
ATOM      6  C4  OXE d   1       2.114   2.069  -2.594  0.00  0.00    -0.002 A 
ATOM      7  C5  OXE d   1       3.491   2.150  -2.359  0.00  0.00    -0.002 A 
ATOM      8  C6  OXE d   1       3.970   2.013  -1.061  0.00  0.00     0.003 A 
ENDROOT
TORSDOF 0
ENDMDL
