MODEL 1
REMARK minimizedAffinity -0.409469813
REMARK minimizedRMSD -1
REMARK  0 active torsions:
REMARK  status: ('A' for Active; 'I' for Inactive)
ROOT
ATOM      1  C2' OXE d   1       1.718   2.075  -1.270  0.00  0.00     0.078 C 
ATOM      2  C1' OXE d   1       0.755   4.188  -2.847  0.00  0.00     0.078 C 
ATOM      3  C1  OXE d   1       2.084   3.581  -3.220  0.00  0.00    -0.078 A 
ATOM      4  C2  OXE d   1       2.570   2.579  -2.415  0.00  0.00    -0.078 A 
ATOM      5  C3  OXE d   1       3.765   1.947  -2.745  0.00  0.00     0.003 A 
ATOM      6  C4  OXE d   1       4.552   2.426  -3.800  0.00  0.00    -0.002 A 
ATOM      7  C5  OXE d   1       4.094   3.472  -4.609  0.00  0.00    -0.002 A 
ATOM      8  C6  OXE d   1       2.846   4.031  -4.358  0.00  0.00     0.003 A 
ENDROOT
TORSDOF 0
ENDMDL
