MODEL 1
REMARK minimizedAffinity -5.64922714
REMARK minimizedRMSD -1
REMARK  1 active torsions:
REMARK  status: ('A' for Active; 'I' for Inactive)
REMARK    1  A    between atoms: C1_2  and  C2_3 
ROOT
ATOM      1  C2  UNL d   1      -1.018  -0.321   0.335  0.00  0.00    -0.077 A 
ATOM      2  C3  UNL d   1      -1.162  -1.497   1.085  0.00  0.00     0.002 A 
ATOM      3  C4  UNL d   1      -2.321  -2.266   0.976  0.00  0.00     0.002 A 
ATOM      4  C5  UNL d   1      -3.344  -1.871   0.115  0.00  0.00    -0.004 A 
ATOM      5  C6  UNL d   1      -3.211  -0.702  -0.633  0.00  0.00     0.002 A 
ATOM      6  C7  UNL d   1      -2.053   0.069  -0.525  0.00  0.00     0.002 A 
ENDROOT
BRANCH   1   7
ATOM      7  C1  UNL d   1       0.253   0.484   0.414  0.00  0.00     0.055 C 
ATOM      8  C   UNL d   1       1.465  -0.355   0.035  0.00  0.00     0.019 C 
ENDBRANCH   1   7
TORSDOF 1
ENDMDL
