MODEL 1
REMARK minimizedAffinity -2.96861339
REMARK minimizedRMSD -1
REMARK  1 active torsions:
REMARK  status: ('A' for Active; 'I' for Inactive)
REMARK    1  A    between atoms: C1_2  and  C2_3 
ROOT
ATOM      1  C2  UNL d   1       2.759   3.007  -0.161  0.00  0.00    -0.077 A 
ATOM      2  C3  UNL d   1       2.620   3.444   1.164  0.00  0.00     0.002 A 
ATOM      3  C4  UNL d   1       2.246   2.548   2.167  0.00  0.00     0.002 A 
ATOM      4  C5  UNL d   1       2.012   1.210   1.858  0.00  0.00    -0.004 A 
ATOM      5  C6  UNL d   1       2.145   0.767   0.542  0.00  0.00     0.002 A 
ATOM      6  C7  UNL d   1       2.517   1.661  -0.462  0.00  0.00     0.002 A 
ENDROOT
BRANCH   1   7
ATOM      7  C1  UNL d   1       3.210   3.961  -1.236  0.00  0.00     0.055 C 
ATOM      8  C   UNL d   1       4.149   3.280  -2.221  0.00  0.00     0.019 C 
ENDBRANCH   1   7
TORSDOF 1
ENDMDL
