MODEL 1
REMARK minimizedAffinity -2.4175818
REMARK minimizedRMSD -1
REMARK  1 active torsions:
REMARK  status: ('A' for Active; 'I' for Inactive)
REMARK    1  A    between atoms: C1_2  and  C2_3 
ROOT
ATOM      1  C2  UNL d   1      -1.601  -0.794  -0.438  0.00  0.00    -0.077 A 
ATOM      2  C3  UNL d   1      -1.361  -0.072  -1.615  0.00  0.00     0.002 A 
ATOM      3  C4  UNL d   1      -0.167   0.632  -1.780  0.00  0.00     0.002 A 
ATOM      4  C5  UNL d   1       0.797   0.618  -0.774  0.00  0.00    -0.004 A 
ATOM      5  C6  UNL d   1       0.567  -0.096   0.401  0.00  0.00     0.002 A 
ATOM      6  C7  UNL d   1      -0.627  -0.800   0.568  0.00  0.00     0.002 A 
ENDROOT
BRANCH   1   7
ATOM      7  C1  UNL d   1      -2.868  -1.595  -0.278  0.00  0.00     0.055 C 
ATOM      8  C   UNL d   1      -2.619  -2.874   0.508  0.00  0.00     0.019 C 
ENDBRANCH   1   7
TORSDOF 1
ENDMDL
