MODEL 1
REMARK minimizedAffinity -4.48180819
REMARK minimizedRMSD -1
REMARK  1 active torsions:
REMARK  status: ('A' for Active; 'I' for Inactive)
REMARK    1  A    between atoms: C1_2  and  C2_3 
ROOT
ATOM      1  C2  UNL d   1      -0.908  -0.586  -0.145  0.00  0.00    -0.077 A 
ATOM      2  C3  UNL d   1      -0.645  -1.568   0.820  0.00  0.00     0.002 A 
ATOM      3  C4  UNL d   1      -1.530  -2.632   1.004  0.00  0.00     0.002 A 
ATOM      4  C5  UNL d   1      -2.681  -2.726   0.224  0.00  0.00    -0.004 A 
ATOM      5  C6  UNL d   1      -2.952  -1.753  -0.738  0.00  0.00     0.002 A 
ATOM      6  C7  UNL d   1      -2.069  -0.688  -0.922  0.00  0.00     0.002 A 
ENDROOT
BRANCH   1   7
ATOM      7  C1  UNL d   1       0.070   0.536  -0.379  0.00  0.00     0.055 C 
ATOM      8  C   UNL d   1       1.377   0.295   0.363  0.00  0.00     0.019 C 
ENDBRANCH   1   7
TORSDOF 1
ENDMDL
