MODEL 1
REMARK minimizedAffinity -5.46958017
REMARK minimizedRMSD -1
REMARK  1 active torsions:
REMARK  status: ('A' for Active; 'I' for Inactive)
REMARK    1  A    between atoms: C1_2  and  C2_3 
ROOT
ATOM      1  C2  UNL d   1      -0.003  -0.165  -0.042  0.00  0.00    -0.077 A 
ATOM      2  C3  UNL d   1      -1.003  -0.746   0.750  0.00  0.00     0.002 A 
ATOM      3  C4  UNL d   1      -2.340  -0.692   0.351  0.00  0.00     0.002 A 
ATOM      4  C5  UNL d   1      -2.688  -0.061  -0.842  0.00  0.00    -0.004 A 
ATOM      5  C6  UNL d   1      -1.700   0.522  -1.635  0.00  0.00     0.002 A 
ATOM      6  C7  UNL d   1      -0.364   0.469  -1.237  0.00  0.00     0.002 A 
ENDROOT
BRANCH   1   7
ATOM      7  C1  UNL d   1       1.445  -0.265   0.362  0.00  0.00     0.055 C 
ATOM      8  C   UNL d   1       2.098   1.108   0.430  0.00  0.00     0.019 C 
ENDBRANCH   1   7
TORSDOF 1
ENDMDL
