MODEL 1
REMARK minimizedAffinity -5.26015186
REMARK minimizedRMSD -1
REMARK  1 active torsions:
REMARK  status: ('A' for Active; 'I' for Inactive)
REMARK    1  A    between atoms: C1_2  and  C2_3 
ROOT
ATOM      1  C2  UNL d   1      -0.525  -0.274  -0.138  0.00  0.00    -0.077 A 
ATOM      2  C3  UNL d   1      -1.189  -0.028  -1.348  0.00  0.00     0.002 A 
ATOM      3  C4  UNL d   1      -2.579  -0.137  -1.425  0.00  0.00     0.002 A 
ATOM      4  C5  UNL d   1      -3.316  -0.488  -0.296  0.00  0.00    -0.004 A 
ATOM      5  C6  UNL d   1      -2.664  -0.737   0.911  0.00  0.00     0.002 A 
ATOM      6  C7  UNL d   1      -1.275  -0.630   0.990  0.00  0.00     0.002 A 
ENDROOT
BRANCH   1   7
ATOM      7  C1  UNL d   1       0.970  -0.109  -0.041  0.00  0.00     0.055 C 
ATOM      8  C   UNL d   1       1.338   1.152   0.728  0.00  0.00     0.019 C 
ENDBRANCH   1   7
TORSDOF 1
ENDMDL
