MODEL 1
REMARK minimizedAffinity 5.47582769
REMARK minimizedRMSD -1
REMARK  0 active torsions:
REMARK  status: ('A' for Active; 'I' for Inactive)
ROOT
ATOM      1  C4' PXY d   1       0.144   2.749  -1.910  0.00  0.00     0.077 C 
ATOM      2  C1' PXY d   1       3.246  -2.048  -1.019  0.00  0.00     0.077 C 
ATOM      3  C1  PXY d   1       2.439  -0.784  -1.243  0.00  0.00    -0.082 A 
ATOM      4  C2  PXY d   1       1.238  -0.863  -1.792  0.00  0.00     0.003 A 
ATOM      5  C3  PXY d   1       0.508   0.273  -2.032  0.00  0.00     0.003 A 
ATOM      6  C4  PXY d   1       0.991   1.498  -1.656  0.00  0.00    -0.082 A 
ATOM      7  C5  PXY d   1       2.211   1.586  -1.085  0.00  0.00     0.003 A 
ATOM      8  C6  PXY d   1       2.953   0.425  -0.889  0.00  0.00     0.003 A 
ENDROOT
TORSDOF 0
ENDMDL
