MODEL 1
REMARK minimizedAffinity 5.91610289
REMARK minimizedRMSD -1
REMARK  0 active torsions:
REMARK  status: ('A' for Active; 'I' for Inactive)
ROOT
ATOM      1  C4' PXY d   1       2.824  -2.050  -1.409  0.00  0.00     0.077 C 
ATOM      2  C1' PXY d   1      -0.949   2.216  -0.422  0.00  0.00     0.077 C 
ATOM      3  C1  PXY d   1       0.033   1.089  -0.673  0.00  0.00    -0.082 A 
ATOM      4  C2  PXY d   1       1.282   1.372  -1.008  0.00  0.00     0.003 A 
ATOM      5  C3  PXY d   1       2.175   0.365  -1.270  0.00  0.00     0.003 A 
ATOM      6  C4  PXY d   1       1.801  -0.945  -1.137  0.00  0.00    -0.082 A 
ATOM      7  C5  PXY d   1       0.532  -1.242  -0.786  0.00  0.00     0.003 A 
ATOM      8  C6  PXY d   1      -0.371  -0.206  -0.564  0.00  0.00     0.003 A 
ENDROOT
TORSDOF 0
ENDMDL
