MODEL 1
REMARK minimizedAffinity 9.26678562
REMARK minimizedRMSD -1
REMARK  0 active torsions:
REMARK  status: ('A' for Active; 'I' for Inactive)
ROOT
ATOM      1  C4' PXY d   1       1.150  -4.353   0.918  0.00  0.00     0.077 C 
ATOM      2  C1' PXY d   1       2.168   0.264  -2.408  0.00  0.00     0.077 C 
ATOM      3  C1  PXY d   1       1.888  -0.944  -1.536  0.00  0.00    -0.082 A 
ATOM      4  C2  PXY d   1       2.857  -1.452  -0.791  0.00  0.00     0.003 A 
ATOM      5  C3  PXY d   1       2.630  -2.563  -0.021  0.00  0.00     0.003 A 
ATOM      6  C4  PXY d   1       1.384  -3.128   0.029  0.00  0.00    -0.082 A 
ATOM      7  C5  PXY d   1       0.388  -2.610  -0.719  0.00  0.00     0.003 A 
ATOM      8  C6  PXY d   1       0.649  -1.506  -1.526  0.00  0.00     0.003 A 
ENDROOT
TORSDOF 0
ENDMDL
