MODEL 1
REMARK minimizedAffinity 7.66757345
REMARK minimizedRMSD -1
REMARK  0 active torsions:
REMARK  status: ('A' for Active; 'I' for Inactive)
ROOT
ATOM      1  C4' PXY d   1      -1.827  -0.097   0.152  0.00  0.00     0.077 C 
ATOM      2  C1' PXY d   1       2.911   0.655  -3.074  0.00  0.00     0.077 C 
ATOM      3  C1  PXY d   1       1.668   0.445  -2.232  0.00  0.00    -0.082 A 
ATOM      4  C2  PXY d   1       0.931   1.487  -1.883  0.00  0.00     0.003 A 
ATOM      5  C3  PXY d   1      -0.179   1.319  -1.095  0.00  0.00     0.003 A 
ATOM      6  C4  PXY d   1      -0.569   0.066  -0.705  0.00  0.00    -0.082 A 
ATOM      7  C5  PXY d   1       0.172  -1.004  -1.066  0.00  0.00     0.003 A 
ATOM      8  C6  PXY d   1       1.318  -0.808  -1.832  0.00  0.00     0.003 A 
ENDROOT
TORSDOF 0
ENDMDL
