MODEL 1
REMARK minimizedAffinity 7.55500698
REMARK minimizedRMSD -1
REMARK  0 active torsions:
REMARK  status: ('A' for Active; 'I' for Inactive)
ROOT
ATOM      1  C4' PXY d   1       0.785   2.229   1.922  0.00  0.00     0.077 C 
ATOM      2  C1' PXY d   1       1.829   1.244  -3.678  0.00  0.00     0.077 C 
ATOM      3  C1  PXY d   1       1.543   1.506  -2.212  0.00  0.00    -0.082 A 
ATOM      4  C2  PXY d   1       2.543   1.773  -1.388  0.00  0.00     0.003 A 
ATOM      5  C3  PXY d   1       2.305   1.981  -0.054  0.00  0.00     0.003 A 
ATOM      6  C4  PXY d   1       1.026   1.967   0.433  0.00  0.00    -0.082 A 
ATOM      7  C5  PXY d   1      -0.001   1.706  -0.404  0.00  0.00     0.003 A 
ATOM      8  C6  PXY d   1       0.265   1.457  -1.747  0.00  0.00     0.003 A 
ENDROOT
TORSDOF 0
ENDMDL
