MODEL 1
REMARK minimizedAffinity 0.373902798
REMARK minimizedRMSD -1
REMARK  0 active torsions:
REMARK  status: ('A' for Active; 'I' for Inactive)
ROOT
ATOM      1  C4' PXY d   1       1.066   3.505  -2.872  0.00  0.00     0.077 C 
ATOM      2  C1' PXY d   1       1.976  -2.009  -1.394  0.00  0.00     0.077 C 
ATOM      3  C1  PXY d   1       1.725  -0.564  -1.777  0.00  0.00    -0.082 A 
ATOM      4  C2  PXY d   1       2.408  -0.023  -2.772  0.00  0.00     0.003 A 
ATOM      5  C3  PXY d   1       2.217   1.292  -3.110  0.00  0.00     0.003 A 
ATOM      6  C4  PXY d   1       1.279   2.046  -2.458  0.00  0.00    -0.082 A 
ATOM      7  C5  PXY d   1       0.570   1.498  -1.448  0.00  0.00     0.003 A 
ATOM      8  C6  PXY d   1       0.808   0.174  -1.093  0.00  0.00     0.003 A 
ENDROOT
TORSDOF 0
ENDMDL
