MODEL 1
REMARK minimizedAffinity 3.88863945
REMARK minimizedRMSD -1
REMARK  0 active torsions:
REMARK  status: ('A' for Active; 'I' for Inactive)
ROOT
ATOM      1  C4' PXY d   1       2.163  -2.486  -1.045  0.00  0.00     0.077 C 
ATOM      2  C1' PXY d   1       1.739   2.971  -2.903  0.00  0.00     0.077 C 
ATOM      3  C1  PXY d   1       1.861   1.538  -2.423  0.00  0.00    -0.082 A 
ATOM      4  C2  PXY d   1       0.792   0.911  -1.959  0.00  0.00     0.003 A 
ATOM      5  C3  PXY d   1       0.891  -0.374  -1.491  0.00  0.00     0.003 A 
ATOM      6  C4  PXY d   1       2.085  -1.042  -1.549  0.00  0.00    -0.082 A 
ATOM      7  C5  PXY d   1       3.177  -0.413  -2.031  0.00  0.00     0.003 A 
ATOM      8  C6  PXY d   1       3.065   0.906  -2.463  0.00  0.00     0.003 A 
ENDROOT
TORSDOF 0
ENDMDL
