MODEL 1
REMARK minimizedAffinity 0.011366779
REMARK minimizedRMSD -1
REMARK  0 active torsions:
REMARK  status: ('A' for Active; 'I' for Inactive)
ROOT
ATOM      1  C4' PXY d   1       1.754  -4.212   0.581  0.00  0.00     0.077 C 
ATOM      2  C1' PXY d   1       1.921   0.575  -2.656  0.00  0.00     0.077 C 
ATOM      3  C1  PXY d   1       1.890  -0.682  -1.809  0.00  0.00    -0.082 A 
ATOM      4  C2  PXY d   1       0.772  -1.384  -1.720  0.00  0.00     0.003 A 
ATOM      5  C3  PXY d   1       0.718  -2.505  -0.933  0.00  0.00     0.003 A 
ATOM      6  C4  PXY d   1       1.834  -2.942  -0.271  0.00  0.00    -0.082 A 
ATOM      7  C5  PXY d   1       2.981  -2.237  -0.364  0.00  0.00     0.003 A 
ATOM      8  C6  PXY d   1       3.004  -1.079  -1.136  0.00  0.00     0.003 A 
ENDROOT
TORSDOF 0
ENDMDL
