MODEL 1
REMARK minimizedAffinity 6.20333529
REMARK minimizedRMSD -1
REMARK  0 active torsions:
REMARK  status: ('A' for Active; 'I' for Inactive)
ROOT
ATOM      1  C4' PXY d   1      -0.499   2.498  -1.086  0.00  0.00     0.077 C 
ATOM      2  C1' PXY d   1       2.741  -2.283  -0.857  0.00  0.00     0.077 C 
ATOM      3  C1  PXY d   1       1.882  -1.036  -0.923  0.00  0.00    -0.082 A 
ATOM      4  C2  PXY d   1       2.457   0.156  -0.914  0.00  0.00     0.003 A 
ATOM      5  C3  PXY d   1       1.694   1.294  -0.941  0.00  0.00     0.003 A 
ATOM      6  C4  PXY d   1       0.330   1.212  -1.031  0.00  0.00    -0.082 A 
ATOM      7  C5  PXY d   1      -0.264  -0.000  -1.051  0.00  0.00     0.003 A 
ATOM      8  C6  PXY d   1       0.527  -1.144  -0.981  0.00  0.00     0.003 A 
ENDROOT
TORSDOF 0
ENDMDL
