MODEL 1
REMARK minimizedAffinity 11.0276537
REMARK minimizedRMSD -1
REMARK  0 active torsions:
REMARK  status: ('A' for Active; 'I' for Inactive)
ROOT
ATOM      1  C4' PXY d   1      -1.056   3.251   1.238  0.00  0.00     0.077 C 
ATOM      2  C1' PXY d   1       2.764   0.622  -2.212  0.00  0.00     0.077 C 
ATOM      3  C1  PXY d   1       1.769   1.307  -1.297  0.00  0.00    -0.082 A 
ATOM      4  C2  PXY d   1       0.563   1.609  -1.751  0.00  0.00     0.003 A 
ATOM      5  C3  PXY d   1      -0.339   2.257  -0.947  0.00  0.00     0.003 A 
ATOM      6  C4  PXY d   1      -0.022   2.551   0.353  0.00  0.00    -0.082 A 
ATOM      7  C5  PXY d   1       1.202   2.237   0.827  0.00  0.00     0.003 A 
ATOM      8  C6  PXY d   1       2.118   1.616  -0.019  0.00  0.00     0.003 A 
ENDROOT
TORSDOF 0
ENDMDL
