MODEL 1
REMARK minimizedAffinity 2.38414001
REMARK minimizedRMSD -1
REMARK  0 active torsions:
REMARK  status: ('A' for Active; 'I' for Inactive)
ROOT
ATOM      1  C4' PXY d   1       1.650  -3.049   0.407  0.00  0.00     0.077 C 
ATOM      2  C1' PXY d   1       2.318   1.565  -3.011  0.00  0.00     0.077 C 
ATOM      3  C1  PXY d   1       2.155   0.351  -2.116  0.00  0.00    -0.082 A 
ATOM      4  C2  PXY d   1       0.953  -0.170  -1.934  0.00  0.00     0.003 A 
ATOM      5  C3  PXY d   1       0.784  -1.248  -1.103  0.00  0.00     0.003 A 
ATOM      6  C4  PXY d   1       1.863  -1.830  -0.495  0.00  0.00    -0.082 A 
ATOM      7  C5  PXY d   1       3.094  -1.311  -0.685  0.00  0.00     0.003 A 
ATOM      8  C6  PXY d   1       3.240  -0.191  -1.499  0.00  0.00     0.003 A 
ENDROOT
TORSDOF 0
ENDMDL
