MODEL 1
REMARK minimizedAffinity -0.999159694
REMARK minimizedRMSD -1
REMARK  0 active torsions:
REMARK  status: ('A' for Active; 'I' for Inactive)
ROOT
ATOM      1  C4' PXY d   1       5.997  -1.173   6.000  0.00  0.00     0.077 C 
ATOM      2  C1' PXY d   1       3.468  -5.996   4.059  0.00  0.00     0.077 C 
ATOM      3  C1  PXY d   1       4.139  -4.738   4.576  0.00  0.00    -0.082 A 
ATOM      4  C2  PXY d   1       3.521  -3.574   4.463  0.00  0.00     0.003 A 
ATOM      5  C3  PXY d   1       4.126  -2.422   4.896  0.00  0.00     0.003 A 
ATOM      6  C4  PXY d   1       5.354  -2.470   5.500  0.00  0.00    -0.082 A 
ATOM      7  C5  PXY d   1       5.986  -3.656   5.629  0.00  0.00     0.003 A 
ATOM      8  C6  PXY d   1       5.373  -4.807   5.145  0.00  0.00     0.003 A 
ENDROOT
TORSDOF 0
ENDMDL
