MODEL 1
REMARK minimizedAffinity 3.3011775
REMARK minimizedRMSD -1
REMARK  0 active torsions:
REMARK  status: ('A' for Active; 'I' for Inactive)
ROOT
ATOM      1  C4' PXY d   1      -5.056  -1.187   2.081  0.00  0.00     0.077 C 
ATOM      2  C1' PXY d   1      -1.223   1.701  -1.141  0.00  0.00     0.077 C 
ATOM      3  C1  PXY d   1      -2.236   0.942  -0.307  0.00  0.00    -0.082 A 
ATOM      4  C2  PXY d   1      -2.313   1.168   0.994  0.00  0.00     0.003 A 
ATOM      5  C3  PXY d   1      -3.201   0.467   1.769  0.00  0.00     0.003 A 
ATOM      6  C4  PXY d   1      -4.056  -0.437   1.198  0.00  0.00    -0.082 A 
ATOM      7  C5  PXY d   1      -3.991  -0.666  -0.131  0.00  0.00     0.003 A 
ATOM      8  C6  PXY d   1      -3.054   0.026  -0.893  0.00  0.00     0.003 A 
ENDROOT
TORSDOF 0
ENDMDL
