MODEL 1
REMARK minimizedAffinity -2.97968721
REMARK minimizedRMSD -1
REMARK  0 active torsions:
REMARK  status: ('A' for Active; 'I' for Inactive)
ROOT
ATOM      1  C4' PXY d   1       1.468   1.973  -2.594  0.00  0.00     0.077 C 
ATOM      2  C1' PXY d   1       1.974  -3.233  -0.134  0.00  0.00     0.077 C 
ATOM      3  C1  PXY d   1       1.854  -1.869  -0.783  0.00  0.00    -0.082 A 
ATOM      4  C2  PXY d   1       0.929  -1.022  -0.360  0.00  0.00     0.003 A 
ATOM      5  C3  PXY d   1       0.785   0.204  -0.957  0.00  0.00     0.003 A 
ATOM      6  C4  PXY d   1       1.632   0.588  -1.962  0.00  0.00    -0.082 A 
ATOM      7  C5  PXY d   1       2.585  -0.265  -2.392  0.00  0.00     0.003 A 
ATOM      8  C6  PXY d   1       2.688  -1.521  -1.801  0.00  0.00     0.003 A 
ENDROOT
TORSDOF 0
ENDMDL
