MODEL 1
REMARK minimizedAffinity 5.00592995
REMARK minimizedRMSD -1
REMARK  0 active torsions:
REMARK  status: ('A' for Active; 'I' for Inactive)
ROOT
ATOM      1  C4' PXY d   1       1.469   2.235  -3.008  0.00  0.00     0.077 C 
ATOM      2  C1' PXY d   1       0.813  -2.597   0.096  0.00  0.00     0.077 C 
ATOM      3  C1  PXY d   1       0.972  -1.328  -0.717  0.00  0.00    -0.082 A 
ATOM      4  C2  PXY d   1       2.008  -1.197  -1.530  0.00  0.00     0.003 A 
ATOM      5  C3  PXY d   1       2.185  -0.043  -2.248  0.00  0.00     0.003 A 
ATOM      6  C4  PXY d   1       1.263   0.967  -2.175  0.00  0.00    -0.082 A 
ATOM      7  C5  PXY d   1       0.197   0.837  -1.357  0.00  0.00     0.003 A 
ATOM      8  C6  PXY d   1       0.058  -0.326  -0.604  0.00  0.00     0.003 A 
ENDROOT
TORSDOF 0
ENDMDL
