MODEL 1
REMARK minimizedAffinity 4.71228123
REMARK minimizedRMSD -1
REMARK  0 active torsions:
REMARK  status: ('A' for Active; 'I' for Inactive)
ROOT
ATOM      1  C4' PXY d   1       2.237   0.083  -2.205  0.00  0.00     0.077 C 
ATOM      2  C1' PXY d   1      -0.592   3.153   1.794  0.00  0.00     0.077 C 
ATOM      3  C1  PXY d   1       0.139   2.341   0.743  0.00  0.00    -0.082 A 
ATOM      4  C2  PXY d   1       1.458   2.246   0.790  0.00  0.00     0.003 A 
ATOM      5  C3  PXY d   1       2.138   1.542  -0.171  0.00  0.00     0.003 A 
ATOM      6  C4  PXY d   1       1.457   0.884  -1.159  0.00  0.00    -0.082 A 
ATOM      7  C5  PXY d   1       0.110   0.967  -1.208  0.00  0.00     0.003 A 
ATOM      8  C6  PXY d   1      -0.558   1.720  -0.247  0.00  0.00     0.003 A 
ENDROOT
TORSDOF 0
ENDMDL
