MODEL 1
REMARK minimizedAffinity 0.994925797
REMARK minimizedRMSD -1
REMARK  0 active torsions:
REMARK  status: ('A' for Active; 'I' for Inactive)
ROOT
ATOM      1  C4' PXY d   1       1.319  -4.498   0.914  0.00  0.00     0.077 C 
ATOM      2  C1' PXY d   1       2.574   0.485  -1.733  0.00  0.00     0.077 C 
ATOM      3  C1  PXY d   1       2.233  -0.821  -1.042  0.00  0.00    -0.082 A 
ATOM      4  C2  PXY d   1       3.024  -1.282  -0.087  0.00  0.00     0.003 A 
ATOM      5  C3  PXY d   1       2.747  -2.477   0.526  0.00  0.00     0.003 A 
ATOM      6  C4  PXY d   1       1.620  -3.180   0.196  0.00  0.00    -0.082 A 
ATOM      7  C5  PXY d   1       0.802  -2.711  -0.770  0.00  0.00     0.003 A 
ATOM      8  C6  PXY d   1       1.122  -1.517  -1.409  0.00  0.00     0.003 A 
ENDROOT
TORSDOF 0
ENDMDL
