MODEL 1
REMARK minimizedAffinity 5.17760181
REMARK minimizedRMSD -1
REMARK  0 active torsions:
REMARK  status: ('A' for Active; 'I' for Inactive)
ROOT
ATOM      1  C4' PXY d   1       0.460  -5.292   1.602  0.00  0.00     0.077 C 
ATOM      2  C1' PXY d   1       5.724  -6.000   3.883  0.00  0.00     0.077 C 
ATOM      3  C1  PXY d   1       4.349  -5.812   3.273  0.00  0.00    -0.082 A 
ATOM      4  C2  PXY d   1       3.331  -5.473   4.047  0.00  0.00     0.003 A 
ATOM      5  C3  PXY d   1       2.075  -5.330   3.518  0.00  0.00     0.003 A 
ATOM      6  C4  PXY d   1       1.868  -5.484   2.173  0.00  0.00    -0.082 A 
ATOM      7  C5  PXY d   1       2.904  -5.819   1.375  0.00  0.00     0.003 A 
ATOM      8  C6  PXY d   1       4.163  -6.000   1.938  0.00  0.00     0.003 A 
ENDROOT
TORSDOF 0
ENDMDL
