MODEL 1
REMARK minimizedAffinity 11.7813005
REMARK minimizedRMSD -1
REMARK  0 active torsions:
REMARK  status: ('A' for Active; 'I' for Inactive)
ROOT
ATOM      1  C4' PXY d   1       2.240  -2.063  -1.183  0.00  0.00     0.077 C 
ATOM      2  C1' PXY d   1       0.791   3.136  -3.253  0.00  0.00     0.077 C 
ATOM      3  C1  PXY d   1       1.168   1.777  -2.698  0.00  0.00    -0.082 A 
ATOM      4  C2  PXY d   1       1.987   0.995  -3.383  0.00  0.00     0.003 A 
ATOM      5  C3  PXY d   1       2.314  -0.251  -2.911  0.00  0.00     0.003 A 
ATOM      6  C4  PXY d   1       1.839  -0.679  -1.700  0.00  0.00    -0.082 A 
ATOM      7  C5  PXY d   1       1.012   0.117  -0.990  0.00  0.00     0.003 A 
ATOM      8  C6  PXY d   1       0.660   1.361  -1.506  0.00  0.00     0.003 A 
ENDROOT
TORSDOF 0
ENDMDL
