MODEL 1
REMARK minimizedAffinity -2.60248613
REMARK minimizedRMSD -1
REMARK  0 active torsions:
REMARK  status: ('A' for Active; 'I' for Inactive)
ROOT
ATOM      1  C4' PXY d   1       1.661  -3.328   0.757  0.00  0.00     0.077 C 
ATOM      2  C1' PXY d   1       2.149   1.302  -2.670  0.00  0.00     0.077 C 
ATOM      3  C1  PXY d   1       2.032   0.083  -1.776  0.00  0.00    -0.082 A 
ATOM      4  C2  PXY d   1       0.837  -0.332  -1.389  0.00  0.00     0.003 A 
ATOM      5  C3  PXY d   1       0.716  -1.413  -0.554  0.00  0.00     0.003 A 
ATOM      6  C4  PXY d   1       1.825  -2.108  -0.154  0.00  0.00    -0.082 A 
ATOM      7  C5  PXY d   1       3.048  -1.697  -0.553  0.00  0.00     0.003 A 
ATOM      8  C6  PXY d   1       3.152  -0.572  -1.367  0.00  0.00     0.003 A 
ENDROOT
TORSDOF 0
ENDMDL
