MODEL 1
REMARK minimizedAffinity -4.57168198
REMARK minimizedRMSD -1
REMARK  1 active torsions:
REMARK  status: ('A' for Active; 'I' for Inactive)
REMARK    1  A    between atoms: C1_2  and  C2_3 
ROOT
ATOM      1  C2  UNL d   1       1.214   2.039   0.020  0.00  0.00    -0.076 A 
ATOM      2  C3  UNL d   1       0.066   2.795  -0.274  0.00  0.00     0.004 A 
ATOM      3  C4  UNL d   1       0.087   4.187  -0.207  0.00  0.00    -0.003 A 
ATOM      4  C5  UNL d   1       1.257   4.846   0.153  0.00  0.00     0.000 A 
ATOM      5  C6  UNL d   1       2.410   4.113   0.431  0.00  0.00     0.000 A 
ATOM      6  C7  UNL d   1       2.410   2.710   0.352  0.00  0.00    -0.073 A 
ATOM      7  C8  UNL d   1       3.681   1.969   0.668  0.00  0.00     0.078 C 
ENDROOT
BRANCH   1   8
ATOM      8  C1  UNL d   1       1.124   0.531  -0.043  0.00  0.00     0.053 C 
ATOM      9  C   UNL d   1      -0.046  -0.016   0.760  0.00  0.00     0.018 C 
ENDBRANCH   1   8
TORSDOF 1
ENDMDL
