MODEL 1
REMARK minimizedAffinity 10.5376129
REMARK minimizedRMSD -1
REMARK  1 active torsions:
REMARK  status: ('A' for Active; 'I' for Inactive)
REMARK    1  A    between atoms: C1_2  and  C2_3 
ROOT
ATOM      1  C2  UNL d   1      -1.647   0.966   1.970  0.00  0.00    -0.076 A 
ATOM      2  C3  UNL d   1      -0.367   1.542   2.052  0.00  0.00     0.004 A 
ATOM      3  C4  UNL d   1      -0.059   2.708   1.352  0.00  0.00    -0.003 A 
ATOM      4  C5  UNL d   1      -1.026   3.316   0.560  0.00  0.00     0.000 A 
ATOM      5  C6  UNL d   1      -2.306   2.768   0.481  0.00  0.00     0.000 A 
ATOM      6  C7  UNL d   1      -2.638   1.603   1.193  0.00  0.00    -0.073 A 
ATOM      7  C8  UNL d   1      -4.032   1.052   1.067  0.00  0.00     0.078 C 
ENDROOT
BRANCH   1   8
ATOM      8  C1  UNL d   1      -1.914  -0.314   2.730  0.00  0.00     0.053 C 
ATOM      9  C   UNL d   1      -1.177  -1.506   2.140  0.00  0.00     0.018 C 
ENDBRANCH   1   8
TORSDOF 1
ENDMDL
