MODEL 1
REMARK minimizedAffinity -1.28068292
REMARK minimizedRMSD -1
REMARK  1 active torsions:
REMARK  status: ('A' for Active; 'I' for Inactive)
REMARK    1  A    between atoms: C1_2  and  C2_3 
ROOT
ATOM      1  C2  UNL d   1       1.088   2.130   0.251  0.00  0.00    -0.076 A 
ATOM      2  C3  UNL d   1       0.374   3.330   0.092  0.00  0.00     0.004 A 
ATOM      3  C4  UNL d   1      -1.015   3.358   0.202  0.00  0.00    -0.003 A 
ATOM      4  C5  UNL d   1      -1.713   2.187   0.474  0.00  0.00     0.000 A 
ATOM      5  C6  UNL d   1      -1.019   0.990   0.652  0.00  0.00     0.000 A 
ATOM      6  C7  UNL d   1       0.383   0.948   0.560  0.00  0.00    -0.073 A 
ATOM      7  C8  UNL d   1       1.079  -0.371   0.756  0.00  0.00     0.078 C 
ENDROOT
BRANCH   1   8
ATOM      8  C1  UNL d   1       2.592   2.156   0.094  0.00  0.00     0.053 C 
ATOM      9  C   UNL d   1       3.319   1.879   1.401  0.00  0.00     0.018 C 
ENDBRANCH   1   8
TORSDOF 1
ENDMDL
