MODEL 1
REMARK minimizedAffinity 2.68655968
REMARK minimizedRMSD -1
REMARK  1 active torsions:
REMARK  status: ('A' for Active; 'I' for Inactive)
REMARK    1  A    between atoms: C1_2  and  C2_3 
ROOT
ATOM      1  C2  UNL d   1       0.509   2.096   0.761  0.00  0.00    -0.076 A 
ATOM      2  C3  UNL d   1       0.038   3.374   0.415  0.00  0.00     0.004 A 
ATOM      3  C4  UNL d   1      -1.324   3.613   0.237  0.00  0.00    -0.003 A 
ATOM      4  C5  UNL d   1      -2.236   2.577   0.402  0.00  0.00     0.000 A 
ATOM      5  C6  UNL d   1      -1.788   1.306   0.762  0.00  0.00     0.000 A 
ATOM      6  C7  UNL d   1      -0.420   1.053   0.962  0.00  0.00    -0.073 A 
ATOM      7  C8  UNL d   1       0.009  -0.337   1.344  0.00  0.00     0.078 C 
ENDROOT
BRANCH   1   8
ATOM      8  C1  UNL d   1       2.000   1.891   0.914  0.00  0.00     0.053 C 
ATOM      9  C   UNL d   1       2.694   3.097   1.528  0.00  0.00     0.018 C 
ENDBRANCH   1   8
TORSDOF 1
ENDMDL
