MODEL 1
REMARK minimizedAffinity 3.72894692
REMARK minimizedRMSD -1
REMARK  1 active torsions:
REMARK  status: ('A' for Active; 'I' for Inactive)
REMARK    1  A    between atoms: C1_2  and  C2_3 
ROOT
ATOM      1  C2  UNL d   1       1.392   1.072   0.543  0.00  0.00    -0.076 A 
ATOM      2  C3  UNL d   1       0.097   1.586   0.351  0.00  0.00     0.004 A 
ATOM      3  C4  UNL d   1      -0.142   2.959   0.384  0.00  0.00    -0.003 A 
ATOM      4  C5  UNL d   1       0.909   3.840   0.608  0.00  0.00     0.000 A 
ATOM      5  C6  UNL d   1       2.203   3.350   0.782  0.00  0.00     0.000 A 
ATOM      6  C7  UNL d   1       2.464   1.970   0.736  0.00  0.00    -0.073 A 
ATOM      7  C8  UNL d   1       3.877   1.495   0.936  0.00  0.00     0.078 C 
ENDROOT
BRANCH   1   8
ATOM      8  C1  UNL d   1       1.586  -0.427   0.524  0.00  0.00     0.053 C 
ATOM      9  C   UNL d   1       0.372  -1.179   1.047  0.00  0.00     0.018 C 
ENDBRANCH   1   8
TORSDOF 1
ENDMDL
