MODEL 1
REMARK minimizedAffinity 8.26395702
REMARK minimizedRMSD -1
REMARK  1 active torsions:
REMARK  status: ('A' for Active; 'I' for Inactive)
REMARK    1  A    between atoms: C1_2  and  C2_3 
ROOT
ATOM      1  C2  UNL d   1       0.523   2.254   0.930  0.00  0.00    -0.076 A 
ATOM      2  C3  UNL d   1      -0.280   2.941   1.857  0.00  0.00     0.004 A 
ATOM      3  C4  UNL d   1      -1.172   2.256   2.680  0.00  0.00    -0.003 A 
ATOM      4  C5  UNL d   1      -1.275   0.872   2.590  0.00  0.00     0.000 A 
ATOM      5  C6  UNL d   1      -0.473   0.172   1.689  0.00  0.00     0.000 A 
ATOM      6  C7  UNL d   1       0.443   0.847   0.863  0.00  0.00    -0.073 A 
ATOM      7  C8  UNL d   1       1.278   0.043  -0.096  0.00  0.00     0.078 C 
ENDROOT
BRANCH   1   8
ATOM      8  C1  UNL d   1       1.452   3.053   0.044  0.00  0.00     0.053 C 
ATOM      9  C   UNL d   1       2.895   3.009   0.523  0.00  0.00     0.018 C 
ENDBRANCH   1   8
TORSDOF 1
ENDMDL
