MODEL 1
REMARK minimizedAffinity 9.62637329
REMARK minimizedRMSD -1
REMARK  1 active torsions:
REMARK  status: ('A' for Active; 'I' for Inactive)
REMARK    1  A    between atoms: C1_2  and  C2_3 
ROOT
ATOM      1  C2  UNL d   1      -5.696   3.253  -0.796  0.00  0.00    -0.076 A 
ATOM      2  C3  UNL d   1      -5.831   4.253   0.183  0.00  0.00     0.004 A 
ATOM      3  C4  UNL d   1      -5.981   5.591  -0.175  0.00  0.00    -0.003 A 
ATOM      4  C5  UNL d   1      -6.000   5.952  -1.518  0.00  0.00     0.000 A 
ATOM      5  C6  UNL d   1      -5.885   4.971  -2.502  0.00  0.00     0.000 A 
ATOM      6  C7  UNL d   1      -5.749   3.615  -2.159  0.00  0.00    -0.073 A 
ATOM      7  C8  UNL d   1      -5.623   2.600  -3.262  0.00  0.00     0.078 C 
ENDROOT
BRANCH   1   8
ATOM      8  C1  UNL d   1      -5.509   1.821  -0.348  0.00  0.00     0.053 C 
ATOM      9  C   UNL d   1      -4.044   1.423  -0.265  0.00  0.00     0.018 C 
ENDBRANCH   1   8
TORSDOF 1
ENDMDL
