MODEL 1
REMARK minimizedAffinity 8.51124001
REMARK minimizedRMSD -1
REMARK  1 active torsions:
REMARK  status: ('A' for Active; 'I' for Inactive)
REMARK    1  A    between atoms: C1_2  and  C2_3 
ROOT
ATOM      1  C2  UNL d   1       2.157  -0.074  -0.505  0.00  0.00    -0.076 A 
ATOM      2  C3  UNL d   1       1.604  -1.360  -0.636  0.00  0.00     0.004 A 
ATOM      3  C4  UNL d   1       1.304  -1.887  -1.891  0.00  0.00    -0.003 A 
ATOM      4  C5  UNL d   1       1.553  -1.138  -3.035  0.00  0.00     0.000 A 
ATOM      5  C6  UNL d   1       2.117   0.132  -2.925  0.00  0.00     0.000 A 
ATOM      6  C7  UNL d   1       2.441   0.672  -1.669  0.00  0.00    -0.073 A 
ATOM      7  C8  UNL d   1       3.043   2.050  -1.608  0.00  0.00     0.078 C 
ENDROOT
BRANCH   1   8
ATOM      8  C1  UNL d   1       2.437   0.456   0.883  0.00  0.00     0.053 C 
ATOM      9  C   UNL d   1       1.384   1.448   1.351  0.00  0.00     0.018 C 
ENDBRANCH   1   8
TORSDOF 1
ENDMDL
