MODEL 1
REMARK minimizedAffinity 0.548011482
REMARK minimizedRMSD -1
REMARK  1 active torsions:
REMARK  status: ('A' for Active; 'I' for Inactive)
REMARK    1  A    between atoms: C1_2  and  C2_3 
ROOT
ATOM      1  C2  UNL d   1       0.696   2.398   0.448  0.00  0.00    -0.076 A 
ATOM      2  C3  UNL d   1       0.825   3.660  -0.157  0.00  0.00     0.004 A 
ATOM      3  C4  UNL d   1       1.871   3.930  -1.038  0.00  0.00    -0.003 A 
ATOM      4  C5  UNL d   1       2.804   2.941  -1.329  0.00  0.00     0.000 A 
ATOM      5  C6  UNL d   1       2.681   1.677  -0.752  0.00  0.00     0.000 A 
ATOM      6  C7  UNL d   1       1.623   1.384   0.126  0.00  0.00    -0.073 A 
ATOM      7  C8  UNL d   1       1.542   0.006   0.724  0.00  0.00     0.078 C 
ENDROOT
BRANCH   1   8
ATOM      8  C1  UNL d   1      -0.443   2.172   1.416  0.00  0.00     0.053 C 
ATOM      9  C   UNL d   1      -1.795   2.536   0.821  0.00  0.00     0.018 C 
ENDBRANCH   1   8
TORSDOF 1
ENDMDL
