MODEL 1
REMARK minimizedAffinity 1.57307613
REMARK minimizedRMSD -1
REMARK  1 active torsions:
REMARK  status: ('A' for Active; 'I' for Inactive)
REMARK    1  A    between atoms: C1_2  and  C2_3 
ROOT
ATOM      1  C2  UNL d   1       1.224   1.691   0.805  0.00  0.00    -0.076 A 
ATOM      2  C3  UNL d   1       1.204   3.064   0.503  0.00  0.00     0.004 A 
ATOM      3  C4  UNL d   1       0.001   3.764   0.421  0.00  0.00    -0.003 A 
ATOM      4  C5  UNL d   1      -1.202   3.101   0.640  0.00  0.00     0.000 A 
ATOM      5  C6  UNL d   1      -1.200   1.744   0.958  0.00  0.00     0.000 A 
ATOM      6  C7  UNL d   1       0.005   1.027   1.061  0.00  0.00    -0.073 A 
ATOM      7  C8  UNL d   1      -0.052  -0.437   1.400  0.00  0.00     0.078 C 
ENDROOT
BRANCH   1   8
ATOM      8  C1  UNL d   1       2.557   0.980   0.854  0.00  0.00     0.053 C 
ATOM      9  C   UNL d   1       3.666   1.774   0.182  0.00  0.00     0.018 C 
ENDBRANCH   1   8
TORSDOF 1
ENDMDL
