MODEL 1
REMARK minimizedAffinity 4.37301588
REMARK minimizedRMSD -1
REMARK  1 active torsions:
REMARK  status: ('A' for Active; 'I' for Inactive)
REMARK    1  A    between atoms: C1_2  and  C2_3 
ROOT
ATOM      1  C2  UNL d   1       0.305   2.582   1.344  0.00  0.00    -0.076 A 
ATOM      2  C3  UNL d   1       1.709   2.626   1.308  0.00  0.00     0.004 A 
ATOM      3  C4  UNL d   1       2.379   3.348   0.322  0.00  0.00    -0.003 A 
ATOM      4  C5  UNL d   1       1.655   4.038  -0.644  0.00  0.00     0.000 A 
ATOM      5  C6  UNL d   1       0.261   4.020  -0.613  0.00  0.00     0.000 A 
ATOM      6  C7  UNL d   1      -0.430   3.310   0.384  0.00  0.00    -0.073 A 
ATOM      7  C8  UNL d   1      -1.934   3.320   0.366  0.00  0.00     0.078 C 
ENDROOT
BRANCH   1   8
ATOM      8  C1  UNL d   1      -0.366   1.760   2.422  0.00  0.00     0.053 C 
ATOM      9  C   UNL d   1      -0.852   0.413   1.909  0.00  0.00     0.018 C 
ENDBRANCH   1   8
TORSDOF 1
ENDMDL
