MODEL 1
REMARK minimizedAffinity 6.65542316
REMARK minimizedRMSD -1
REMARK  1 active torsions:
REMARK  status: ('A' for Active; 'I' for Inactive)
REMARK    1  A    between atoms: C1_2  and  C2_3 
ROOT
ATOM      1  C2  UNL d   1       0.601   1.285   1.032  0.00  0.00    -0.076 A 
ATOM      2  C3  UNL d   1       0.411  -0.094   0.841  0.00  0.00     0.004 A 
ATOM      3  C4  UNL d   1       1.475  -0.924   0.491  0.00  0.00    -0.003 A 
ATOM      4  C5  UNL d   1       2.748  -0.387   0.327  0.00  0.00     0.000 A 
ATOM      5  C6  UNL d   1       2.958   0.977   0.530  0.00  0.00     0.000 A 
ATOM      6  C7  UNL d   1       1.899   1.824   0.898  0.00  0.00    -0.073 A 
ATOM      7  C8  UNL d   1       2.182   3.288   1.098  0.00  0.00     0.078 C 
ENDROOT
BRANCH   1   8
ATOM      8  C1  UNL d   1      -0.596   2.140   1.383  0.00  0.00     0.053 C 
ATOM      9  C   UNL d   1      -1.336   2.639   0.153  0.00  0.00     0.018 C 
ENDBRANCH   1   8
TORSDOF 1
ENDMDL
