MODEL 1
REMARK minimizedAffinity 14.531661
REMARK minimizedRMSD -1
REMARK  1 active torsions:
REMARK  status: ('A' for Active; 'I' for Inactive)
REMARK    1  A    between atoms: C1_2  and  C2_3 
ROOT
ATOM      1  C2  UNL d   1       0.762   2.637   1.068  0.00  0.00    -0.076 A 
ATOM      2  C3  UNL d   1       0.911   2.309   2.427  0.00  0.00     0.004 A 
ATOM      3  C4  UNL d   1      -0.132   2.506   3.330  0.00  0.00    -0.003 A 
ATOM      4  C5  UNL d   1      -1.341   3.034   2.889  0.00  0.00     0.000 A 
ATOM      5  C6  UNL d   1      -1.512   3.348   1.541  0.00  0.00     0.000 A 
ATOM      6  C7  UNL d   1      -0.476   3.140   0.614  0.00  0.00    -0.073 A 
ATOM      7  C8  UNL d   1      -0.713   3.502  -0.827  0.00  0.00     0.078 C 
ENDROOT
BRANCH   1   8
ATOM      8  C1  UNL d   1       1.937   2.426   0.140  0.00  0.00     0.053 C 
ATOM      9  C   UNL d   1       2.549   1.041   0.278  0.00  0.00     0.018 C 
ENDBRANCH   1   8
TORSDOF 1
ENDMDL
