MODEL 1
REMARK minimizedAffinity 11.3977509
REMARK minimizedRMSD -1
REMARK  1 active torsions:
REMARK  status: ('A' for Active; 'I' for Inactive)
REMARK    1  A    between atoms: C1_2  and  C2_3 
ROOT
ATOM      1  C2  UNL d   1       0.775   2.812   0.215  0.00  0.00    -0.076 A 
ATOM      2  C3  UNL d   1       1.095   1.546   0.734  0.00  0.00     0.004 A 
ATOM      3  C4  UNL d   1       2.415   1.101   0.778  0.00  0.00    -0.003 A 
ATOM      4  C5  UNL d   1       3.437   1.916   0.304  0.00  0.00     0.000 A 
ATOM      5  C6  UNL d   1       3.140   3.182  -0.199  0.00  0.00     0.000 A 
ATOM      6  C7  UNL d   1       1.816   3.652  -0.235  0.00  0.00    -0.073 A 
ATOM      7  C8  UNL d   1       1.552   5.024  -0.793  0.00  0.00     0.078 C 
ENDROOT
BRANCH   1   8
ATOM      8  C1  UNL d   1      -0.677   3.230   0.167  0.00  0.00     0.053 C 
ATOM      9  C   UNL d   1      -1.518   2.536   1.228  0.00  0.00     0.018 C 
ENDBRANCH   1   8
TORSDOF 1
ENDMDL
