MODEL 1
REMARK minimizedAffinity -0.688338578
REMARK minimizedRMSD -1
REMARK  0 active torsions:
REMARK  status: ('A' for Active; 'I' for Inactive)
ROOT
ATOM      1  C1  DEN d   1       1.657  -5.047  -1.902  0.00  0.00     0.130 A 
ATOM      2  C2  DEN d   1       1.149  -5.216  -0.543  0.00  0.00    -0.031 A 
ATOM      3  C3  DEN d   1       2.146  -4.655   0.390  0.00  0.00     0.027 A 
ATOM      4  C4  DEN d   1       4.413  -3.542  -0.134  0.00  0.00     0.027 A 
ATOM      5  C5  DEN d   1       5.280  -3.182  -1.141  0.00  0.00    -0.003 A 
ATOM      6  C6  DEN d   1       5.018  -3.446  -2.459  0.00  0.00     0.001 A 
ATOM      7  C7  DEN d   1       3.839  -4.049  -2.809  0.00  0.00     0.017 A 
ATOM      8  C8  DEN d   1       2.963  -4.422  -1.799  0.00  0.00    -0.094 A 
ATOM      9  C9  DEN d   1       3.240  -4.135  -0.473  0.00  0.00    -0.072 A 
ENDROOT
TORSDOF 0
ENDMDL
