MODEL 1
REMARK minimizedAffinity 6.19756699
REMARK minimizedRMSD -1
REMARK  0 active torsions:
REMARK  status: ('A' for Active; 'I' for Inactive)
ROOT
ATOM      1  C1  DEN d   1      -0.019   2.807   2.333  0.00  0.00     0.130 A 
ATOM      2  C2  DEN d   1      -0.691   1.543   2.621  0.00  0.00    -0.031 A 
ATOM      3  C3  DEN d   1      -1.080   0.930   1.335  0.00  0.00     0.027 A 
ATOM      4  C4  DEN d   1      -0.704   1.808  -1.061  0.00  0.00     0.027 A 
ATOM      5  C5  DEN d   1      -0.189   2.844  -1.809  0.00  0.00    -0.003 A 
ATOM      6  C6  DEN d   1       0.384   3.946  -1.233  0.00  0.00     0.001 A 
ATOM      7  C7  DEN d   1       0.496   4.018   0.130  0.00  0.00     0.017 A 
ATOM      8  C8  DEN d   1      -0.028   2.982   0.892  0.00  0.00    -0.094 A 
ATOM      9  C9  DEN d   1      -0.592   1.870   0.290  0.00  0.00    -0.072 A 
ENDROOT
TORSDOF 0
ENDMDL
