MODEL 1
REMARK minimizedAffinity -4.19083357
REMARK minimizedRMSD -1
REMARK  0 active torsions:
REMARK  status: ('A' for Active; 'I' for Inactive)
ROOT
ATOM      1  C   UNL d   1      -1.332  -2.694   0.936  0.00  0.00     0.078 C 
ATOM      2  C1  UNL d   1      -0.550  -1.495   0.490  0.00  0.00    -0.077 A 
ATOM      3  C2  UNL d   1       0.836  -1.566   0.305  0.00  0.00    -0.001 A 
ATOM      4  C3  UNL d   1       1.553  -0.439  -0.101  0.00  0.00     0.003 A 
ATOM      5  C4  UNL d   1       0.892   0.767  -0.325  0.00  0.00    -0.005 A 
ATOM      6  C5  UNL d   1      -0.487   0.848  -0.142  0.00  0.00     0.003 A 
ATOM      7  C6  UNL d   1      -1.205  -0.278   0.264  0.00  0.00    -0.001 A 
ENDROOT
TORSDOF 0
ENDMDL
