MODEL 1
REMARK minimizedAffinity -3.42747188
REMARK minimizedRMSD -1
REMARK  0 active torsions:
REMARK  status: ('A' for Active; 'I' for Inactive)
ROOT
ATOM      1  C   UNL d   1      -1.249  -2.559   1.238  0.00  0.00     0.078 C 
ATOM      2  C1  UNL d   1      -0.602  -1.318   0.699  0.00  0.00    -0.077 A 
ATOM      3  C2  UNL d   1       0.773  -1.276   0.441  0.00  0.00    -0.001 A 
ATOM      4  C3  UNL d   1       1.363  -0.111  -0.053  0.00  0.00     0.003 A 
ATOM      5  C4  UNL d   1       0.586   1.021  -0.291  0.00  0.00    -0.005 A 
ATOM      6  C5  UNL d   1      -0.783   0.989  -0.035  0.00  0.00     0.003 A 
ATOM      7  C6  UNL d   1      -1.375  -0.175   0.458  0.00  0.00    -0.001 A 
ENDROOT
TORSDOF 0
ENDMDL
