MODEL 1
REMARK minimizedAffinity -4.5937438
REMARK minimizedRMSD -1
REMARK  0 active torsions:
REMARK  status: ('A' for Active; 'I' for Inactive)
ROOT
ATOM      1  C   UNL d   1       0.626   1.588  -0.437  0.00  0.00     0.078 C 
ATOM      2  C1  UNL d   1       0.236   0.222   0.044  0.00  0.00    -0.077 A 
ATOM      3  C2  UNL d   1       1.208  -0.740   0.349  0.00  0.00    -0.001 A 
ATOM      4  C3  UNL d   1       0.830  -2.010   0.786  0.00  0.00     0.003 A 
ATOM      5  C4  UNL d   1      -0.519  -2.331   0.922  0.00  0.00    -0.005 A 
ATOM      6  C5  UNL d   1      -1.492  -1.382   0.619  0.00  0.00     0.003 A 
ATOM      7  C6  UNL d   1      -1.117  -0.111   0.182  0.00  0.00    -0.001 A 
ENDROOT
TORSDOF 0
ENDMDL
