MODEL 1
REMARK minimizedAffinity -4.80115032
REMARK minimizedRMSD -1
REMARK  0 active torsions:
REMARK  status: ('A' for Active; 'I' for Inactive)
ROOT
ATOM      1  C   UNL d   1       0.642   0.860  -0.176  0.00  0.00     0.078 C 
ATOM      2  C1  UNL d   1      -0.063  -0.404   0.215  0.00  0.00    -0.077 A 
ATOM      3  C2  UNL d   1      -1.460  -0.454   0.301  0.00  0.00    -0.001 A 
ATOM      4  C3  UNL d   1      -2.102  -1.636   0.676  0.00  0.00     0.003 A 
ATOM      5  C4  UNL d   1      -1.355  -2.775   0.968  0.00  0.00    -0.005 A 
ATOM      6  C5  UNL d   1       0.035  -2.735   0.887  0.00  0.00     0.003 A 
ATOM      7  C6  UNL d   1       0.679  -1.554   0.513  0.00  0.00    -0.001 A 
ENDROOT
TORSDOF 0
ENDMDL
