MODEL 1
REMARK minimizedAffinity -2.84241247
REMARK minimizedRMSD -1
REMARK  0 active torsions:
REMARK  status: ('A' for Active; 'I' for Inactive)
ROOT
ATOM      1  C   UNL d   1      -0.015   0.517  -0.006  0.00  0.00     0.078 C 
ATOM      2  C1  UNL d   1       0.363   1.112  -1.329  0.00  0.00    -0.077 A 
ATOM      3  C2  UNL d   1      -0.469   0.971  -2.447  0.00  0.00    -0.001 A 
ATOM      4  C3  UNL d   1      -0.101   1.522  -3.675  0.00  0.00     0.003 A 
ATOM      5  C4  UNL d   1       1.101   2.216  -3.798  0.00  0.00    -0.005 A 
ATOM      6  C5  UNL d   1       1.937   2.360  -2.692  0.00  0.00     0.003 A 
ATOM      7  C6  UNL d   1       1.570   1.809  -1.463  0.00  0.00    -0.001 A 
ENDROOT
TORSDOF 0
ENDMDL
