MODEL 1
REMARK minimizedAffinity -2.72339201
REMARK minimizedRMSD -1
REMARK  0 active torsions:
REMARK  status: ('A' for Active; 'I' for Inactive)
ROOT
ATOM      1  C   UNL d   1       0.593   1.290  -0.736  0.00  0.00     0.078 C 
ATOM      2  C1  UNL d   1       0.261  -0.026  -0.097  0.00  0.00    -0.077 A 
ATOM      3  C2  UNL d   1       1.101  -1.135  -0.252  0.00  0.00    -0.001 A 
ATOM      4  C3  UNL d   1       0.775  -2.356   0.341  0.00  0.00     0.003 A 
ATOM      5  C4  UNL d   1      -0.392  -2.479   1.093  0.00  0.00    -0.005 A 
ATOM      6  C5  UNL d   1      -1.235  -1.381   1.250  0.00  0.00     0.003 A 
ATOM      7  C6  UNL d   1      -0.911  -0.160   0.658  0.00  0.00    -0.001 A 
ENDROOT
TORSDOF 0
ENDMDL
