MODEL 1
REMARK minimizedAffinity -4.78207254
REMARK minimizedRMSD -1
REMARK  0 active torsions:
REMARK  status: ('A' for Active; 'I' for Inactive)
ROOT
ATOM      1  C   UNL d   1      -1.331  -2.666   0.706  0.00  0.00     0.078 C 
ATOM      2  C1  UNL d   1      -0.660  -1.341   0.500  0.00  0.00    -0.077 A 
ATOM      3  C2  UNL d   1      -1.409  -0.169   0.347  0.00  0.00    -0.001 A 
ATOM      4  C3  UNL d   1      -0.770   1.056   0.146  0.00  0.00     0.003 A 
ATOM      5  C4  UNL d   1       0.621   1.120   0.095  0.00  0.00    -0.005 A 
ATOM      6  C5  UNL d   1       1.375  -0.042   0.243  0.00  0.00     0.003 A 
ATOM      7  C6  UNL d   1       0.738  -1.268   0.445  0.00  0.00    -0.001 A 
ENDROOT
TORSDOF 0
ENDMDL
