MODEL 1
REMARK minimizedAffinity -5.08073521
REMARK minimizedRMSD -1
REMARK  0 active torsions:
REMARK  status: ('A' for Active; 'I' for Inactive)
ROOT
ATOM      1  C   UNL d   1      -1.298  -2.227   0.727  0.00  0.00     0.078 C 
ATOM      2  C1  UNL d   1      -0.994  -0.781   0.471  0.00  0.00    -0.077 A 
ATOM      3  C2  UNL d   1       0.247  -0.385  -0.042  0.00  0.00    -0.001 A 
ATOM      4  C3  UNL d   1       0.520   0.965  -0.267  0.00  0.00     0.003 A 
ATOM      5  C4  UNL d   1      -0.443   1.931   0.019  0.00  0.00    -0.005 A 
ATOM      6  C5  UNL d   1      -1.680   1.547   0.532  0.00  0.00     0.003 A 
ATOM      7  C6  UNL d   1      -1.955   0.197   0.757  0.00  0.00    -0.001 A 
ENDROOT
TORSDOF 0
ENDMDL
