MODEL 1
REMARK minimizedAffinity -4.40686417
REMARK minimizedRMSD -1
REMARK  0 active torsions:
REMARK  status: ('A' for Active; 'I' for Inactive)
ROOT
ATOM      1  C   UNL d   1      -1.841  -2.904   0.541  0.00  0.00     0.078 C 
ATOM      2  C1  UNL d   1      -0.891  -1.749   0.431  0.00  0.00    -0.077 A 
ATOM      3  C2  UNL d   1      -1.356  -0.454   0.172  0.00  0.00    -0.001 A 
ATOM      4  C3  UNL d   1      -0.459   0.609   0.063  0.00  0.00     0.003 A 
ATOM      5  C4  UNL d   1       0.909   0.389   0.211  0.00  0.00    -0.005 A 
ATOM      6  C5  UNL d   1       1.381  -0.896   0.467  0.00  0.00     0.003 A 
ATOM      7  C6  UNL d   1       0.486  -1.961   0.576  0.00  0.00    -0.001 A 
ENDROOT
TORSDOF 0
ENDMDL
