MODEL 1
REMARK minimizedAffinity -3.41246486
REMARK minimizedRMSD -1
REMARK  0 active torsions:
REMARK  status: ('A' for Active; 'I' for Inactive)
ROOT
ATOM      1  C   UNL d   1      -1.126  -2.537   1.519  0.00  0.00     0.078 C 
ATOM      2  C1  UNL d   1      -0.604  -1.277   0.895  0.00  0.00    -0.077 A 
ATOM      3  C2  UNL d   1       0.730  -1.174   0.484  0.00  0.00    -0.001 A 
ATOM      4  C3  UNL d   1       1.204   0.008  -0.086  0.00  0.00     0.003 A 
ATOM      5  C4  UNL d   1       0.351   1.098  -0.249  0.00  0.00    -0.005 A 
ATOM      6  C5  UNL d   1      -0.978   1.006   0.159  0.00  0.00     0.003 A 
ATOM      7  C6  UNL d   1      -1.454  -0.176   0.729  0.00  0.00    -0.001 A 
ENDROOT
TORSDOF 0
ENDMDL
