MODEL 1
REMARK minimizedAffinity -5.67785501
REMARK minimizedRMSD -1
REMARK  0 active torsions:
REMARK  status: ('A' for Active; 'I' for Inactive)
ROOT
ATOM      1  C   UNL d   1       0.701   1.041  -0.631  0.00  0.00     0.078 C 
ATOM      2  C1  UNL d   1       0.009  -0.182  -0.106  0.00  0.00    -0.077 A 
ATOM      3  C2  UNL d   1       0.721  -1.361   0.145  0.00  0.00    -0.001 A 
ATOM      4  C3  UNL d   1       0.062  -2.495   0.625  0.00  0.00     0.003 A 
ATOM      5  C4  UNL d   1      -1.311  -2.460   0.858  0.00  0.00    -0.005 A 
ATOM      6  C5  UNL d   1      -2.028  -1.291   0.610  0.00  0.00     0.003 A 
ATOM      7  C6  UNL d   1      -1.371  -0.157   0.129  0.00  0.00    -0.001 A 
ENDROOT
TORSDOF 0
ENDMDL
