MODEL 1
REMARK minimizedAffinity -3.28287983
REMARK minimizedRMSD -1
REMARK  0 active torsions:
REMARK  status: ('A' for Active; 'I' for Inactive)
ROOT
ATOM      1  C   UNL d   1      -1.383  -2.403   1.169  0.00  0.00     0.078 C 
ATOM      2  C1  UNL d   1      -0.738  -1.237   0.482  0.00  0.00    -0.077 A 
ATOM      3  C2  UNL d   1       0.594  -1.298   0.055  0.00  0.00    -0.001 A 
ATOM      4  C3  UNL d   1       1.185  -0.202  -0.575  0.00  0.00     0.003 A 
ATOM      5  C4  UNL d   1       0.452   0.965  -0.782  0.00  0.00    -0.005 A 
ATOM      6  C5  UNL d   1      -0.873   1.037  -0.358  0.00  0.00     0.003 A 
ATOM      7  C6  UNL d   1      -1.466  -0.059   0.272  0.00  0.00    -0.001 A 
ENDROOT
TORSDOF 0
ENDMDL
