MODEL 1
REMARK minimizedAffinity -5.06174803
REMARK minimizedRMSD -1
REMARK  0 active torsions:
REMARK  status: ('A' for Active; 'I' for Inactive)
ROOT
ATOM      1  C   UNL d   1      -1.918  -2.523   0.748  0.00  0.00     0.078 C 
ATOM      2  C1  UNL d   1      -0.974  -1.362   0.647  0.00  0.00    -0.077 A 
ATOM      3  C2  UNL d   1      -1.451  -0.046   0.614  0.00  0.00    -0.001 A 
ATOM      4  C3  UNL d   1      -0.561   1.025   0.510  0.00  0.00     0.003 A 
ATOM      5  C4  UNL d   1       0.811   0.790   0.436  0.00  0.00    -0.005 A 
ATOM      6  C5  UNL d   1       1.294  -0.517   0.466  0.00  0.00     0.003 A 
ATOM      7  C6  UNL d   1       0.406  -1.588   0.570  0.00  0.00    -0.001 A 
ENDROOT
TORSDOF 0
ENDMDL
