MODEL 1
REMARK minimizedAffinity -5.06832409
REMARK minimizedRMSD -1
REMARK  0 active torsions:
REMARK  status: ('A' for Active; 'I' for Inactive)
ROOT
ATOM      1  C   UNL d   1       0.887   1.060  -0.734  0.00  0.00     0.078 C 
ATOM      2  C1  UNL d   1       0.096  -0.094  -0.196  0.00  0.00    -0.077 A 
ATOM      3  C2  UNL d   1       0.713  -1.314   0.105  0.00  0.00    -0.001 A 
ATOM      4  C3  UNL d   1      -0.038  -2.383   0.597  0.00  0.00     0.003 A 
ATOM      5  C4  UNL d   1      -1.411  -2.243   0.791  0.00  0.00    -0.005 A 
ATOM      6  C5  UNL d   1      -2.034  -1.033   0.492  0.00  0.00     0.003 A 
ATOM      7  C6  UNL d   1      -1.285   0.037   0.000  0.00  0.00    -0.001 A 
ENDROOT
TORSDOF 0
ENDMDL
