MODEL 1
REMARK minimizedAffinity -3.99733114
REMARK minimizedRMSD -1
REMARK  0 active torsions:
REMARK  status: ('A' for Active; 'I' for Inactive)
ROOT
ATOM      1  C   UNL d   1       0.378   0.996  -1.116  0.00  0.00     0.078 C 
ATOM      2  C1  UNL d   1       0.014  -0.204  -0.294  0.00  0.00    -0.077 A 
ATOM      3  C2  UNL d   1       1.003  -1.032   0.251  0.00  0.00    -0.001 A 
ATOM      4  C3  UNL d   1       0.649  -2.152   1.005  0.00  0.00     0.003 A 
ATOM      5  C4  UNL d   1      -0.694  -2.455   1.220  0.00  0.00    -0.005 A 
ATOM      6  C5  UNL d   1      -1.685  -1.638   0.680  0.00  0.00     0.003 A 
ATOM      7  C6  UNL d   1      -1.333  -0.518  -0.075  0.00  0.00    -0.001 A 
ENDROOT
TORSDOF 0
ENDMDL
