MODEL 1
REMARK minimizedAffinity -4.31237459
REMARK minimizedRMSD -1
REMARK  0 active torsions:
REMARK  status: ('A' for Active; 'I' for Inactive)
ROOT
ATOM      1  C   UNL d   1       1.098   0.286   0.355  0.00  0.00     0.078 C 
ATOM      2  C1  UNL d   1      -0.152  -0.542   0.377  0.00  0.00    -0.077 A 
ATOM      3  C2  UNL d   1      -1.257  -0.200  -0.413  0.00  0.00    -0.001 A 
ATOM      4  C3  UNL d   1      -2.418  -0.974  -0.376  0.00  0.00     0.003 A 
ATOM      5  C4  UNL d   1      -2.486  -2.094   0.450  0.00  0.00    -0.005 A 
ATOM      6  C5  UNL d   1      -1.392  -2.441   1.242  0.00  0.00     0.003 A 
ATOM      7  C6  UNL d   1      -0.231  -1.668   1.206  0.00  0.00    -0.001 A 
ENDROOT
TORSDOF 0
ENDMDL
