MODEL 1
REMARK minimizedAffinity -4.20222425
REMARK minimizedRMSD -1
REMARK  0 active torsions:
REMARK  status: ('A' for Active; 'I' for Inactive)
ROOT
ATOM      1  C   UNL d   1      -2.119  -4.456  -5.423  0.00  0.00     0.078 C 
ATOM      2  C1  UNL d   1      -3.334  -3.650  -5.073  0.00  0.00    -0.077 A 
ATOM      3  C2  UNL d   1      -3.901  -2.762  -5.996  0.00  0.00    -0.001 A 
ATOM      4  C3  UNL d   1      -5.026  -2.011  -5.654  0.00  0.00     0.003 A 
ATOM      5  C4  UNL d   1      -5.594  -2.139  -4.388  0.00  0.00    -0.005 A 
ATOM      6  C5  UNL d   1      -5.036  -3.018  -3.462  0.00  0.00     0.003 A 
ATOM      7  C6  UNL d   1      -3.910  -3.770  -3.802  0.00  0.00    -0.001 A 
ENDROOT
TORSDOF 0
ENDMDL
