MODEL 1
REMARK minimizedAffinity 1.62039578
REMARK minimizedRMSD -1
REMARK  0 active torsions:
REMARK  status: ('A' for Active; 'I' for Inactive)
ROOT
ATOM      1  C1  BNZ d   1      -1.254   4.150  -0.031  0.00  0.00     0.000 A 
ATOM      2  C2  BNZ d   1      -1.210   3.122   0.873  0.00  0.00     0.000 A 
ATOM      3  C3  BNZ d   1      -0.620   1.932   0.551  0.00  0.00     0.000 A 
ATOM      4  C4  BNZ d   1      -0.112   1.757  -0.686  0.00  0.00     0.000 A 
ATOM      5  C5  BNZ d   1      -0.157   2.780  -1.612  0.00  0.00     0.000 A 
ATOM      6  C6  BNZ d   1      -0.717   3.990  -1.271  0.00  0.00     0.000 A 
ENDROOT
TORSDOF 0
ENDMDL
