MODEL 1
REMARK minimizedAffinity 1.69138873
REMARK minimizedRMSD -1
REMARK  0 active torsions:
REMARK  status: ('A' for Active; 'I' for Inactive)
ROOT
ATOM      1  C1  BNZ d   1      -2.034   3.714   1.909  0.00  0.00     0.000 A 
ATOM      2  C2  BNZ d   1      -1.987   4.247   0.649  0.00  0.00     0.000 A 
ATOM      3  C3  BNZ d   1      -1.167   3.715  -0.306  0.00  0.00     0.000 A 
ATOM      4  C4  BNZ d   1      -0.365   2.677   0.011  0.00  0.00     0.000 A 
ATOM      5  C5  BNZ d   1      -0.394   2.135   1.281  0.00  0.00     0.000 A 
ATOM      6  C6  BNZ d   1      -1.250   2.648   2.228  0.00  0.00     0.000 A 
ENDROOT
TORSDOF 0
ENDMDL
