MODEL 1
REMARK minimizedAffinity 3.03713083
REMARK minimizedRMSD -1
REMARK  0 active torsions:
REMARK  status: ('A' for Active; 'I' for Inactive)
ROOT
ATOM      1  C1  BNZ d   1      -1.226   0.805   3.158  0.00  0.00     0.000 A 
ATOM      2  C2  BNZ d   1      -1.810   1.949   2.682  0.00  0.00     0.000 A 
ATOM      3  C3  BNZ d   1      -1.082   2.864   1.975  0.00  0.00     0.000 A 
ATOM      4  C4  BNZ d   1       0.235   2.654   1.778  0.00  0.00     0.000 A 
ATOM      5  C5  BNZ d   1       0.841   1.511   2.259  0.00  0.00     0.000 A 
ATOM      6  C6  BNZ d   1       0.096   0.573   2.937  0.00  0.00     0.000 A 
ENDROOT
TORSDOF 0
ENDMDL
