MODEL 1
REMARK minimizedAffinity -3.05867529
REMARK minimizedRMSD -1
REMARK  0 active torsions:
REMARK  status: ('A' for Active; 'I' for Inactive)
ROOT
ATOM      1  C1  BNZ d   1       0.542   3.792   1.256  0.00  0.00     0.000 A 
ATOM      2  C2  BNZ d   1      -0.621   4.164   0.636  0.00  0.00     0.000 A 
ATOM      3  C3  BNZ d   1      -1.831   3.728   1.098  0.00  0.00     0.000 A 
ATOM      4  C4  BNZ d   1      -1.875   2.889   2.153  0.00  0.00     0.000 A 
ATOM      5  C5  BNZ d   1      -0.711   2.497   2.783  0.00  0.00     0.000 A 
ATOM      6  C6  BNZ d   1       0.503   2.969   2.339  0.00  0.00     0.000 A 
ENDROOT
TORSDOF 0
ENDMDL
