MODEL 1
REMARK minimizedAffinity 2.21433115
REMARK minimizedRMSD -1
REMARK  0 active torsions:
REMARK  status: ('A' for Active; 'I' for Inactive)
ROOT
ATOM      1  C1  BNZ d   1      -5.617  -1.103   4.320  0.00  0.00     0.000 A 
ATOM      2  C2  BNZ d   1      -5.789  -1.978   3.280  0.00  0.00     0.000 A 
ATOM      3  C3  BNZ d   1      -6.000  -3.308   3.512  0.00  0.00     0.000 A 
ATOM      4  C4  BNZ d   1      -5.999  -3.769   4.779  0.00  0.00     0.000 A 
ATOM      5  C5  BNZ d   1      -5.817  -2.901   5.838  0.00  0.00     0.000 A 
ATOM      6  C6  BNZ d   1      -5.644  -1.557   5.603  0.00  0.00     0.000 A 
ENDROOT
TORSDOF 0
ENDMDL
