MODEL 1
REMARK minimizedAffinity 23.6458092
REMARK minimizedRMSD -1
REMARK  2 active torsions:
REMARK  status: ('A' for Active; 'I' for Inactive)
REMARK    1  A    between atoms: C1_2  and  C2_3 
REMARK    2  A    between atoms: C2_3  and  C3_4 
ROOT
ATOM      1  C3  UNL d   1       1.805  -4.008  -0.402  0.00  0.00    -0.075 A 
ATOM      2  C4  UNL d   1       2.975  -3.236  -0.448  0.00  0.00     0.002 A 
ATOM      3  C5  UNL d   1       4.214  -3.840  -0.664  0.00  0.00     0.002 A 
ATOM      4  C6  UNL d   1       4.300  -5.221  -0.826  0.00  0.00    -0.004 A 
ATOM      5  C7  UNL d   1       3.146  -5.999  -0.767  0.00  0.00     0.002 A 
ATOM      6  C8  UNL d   1       1.904  -5.397  -0.555  0.00  0.00     0.002 A 
ENDROOT
BRANCH   1   7
ATOM      7  C2  UNL d   1       0.457  -3.357  -0.198  0.00  0.00     0.056 C 
BRANCH   7   8
ATOM      8  C1  UNL d   1      -0.260  -2.987  -1.501  0.00  0.00     0.007 C 
ATOM      9  C   UNL d   1      -0.808  -4.196  -2.248  0.00  0.00     0.009 C 
ENDBRANCH   7   8
ENDBRANCH   1   7
TORSDOF 2
ENDMDL
