MODEL 1
REMARK minimizedAffinity 20.1159458
REMARK minimizedRMSD -1
REMARK  2 active torsions:
REMARK  status: ('A' for Active; 'I' for Inactive)
REMARK    1  A    between atoms: C1_2  and  C2_3 
REMARK    2  A    between atoms: C2_3  and  C3_4 
ROOT
ATOM      1  C3  UNL d   1       0.035  -5.275  -2.212  0.00  0.00    -0.075 A 
ATOM      2  C4  UNL d   1      -0.487  -4.155  -1.548  0.00  0.00     0.002 A 
ATOM      3  C5  UNL d   1      -1.622  -3.507  -2.036  0.00  0.00     0.002 A 
ATOM      4  C6  UNL d   1      -2.243  -3.963  -3.197  0.00  0.00    -0.004 A 
ATOM      5  C7  UNL d   1      -1.724  -5.064  -3.874  0.00  0.00     0.002 A 
ATOM      6  C8  UNL d   1      -0.591  -5.717  -3.385  0.00  0.00     0.002 A 
ENDROOT
BRANCH   1   7
ATOM      7  C2  UNL d   1       1.245  -5.999  -1.673  0.00  0.00     0.056 C 
BRANCH   7   8
ATOM      8  C1  UNL d   1       2.058  -5.185  -0.660  0.00  0.00     0.007 C 
ATOM      9  C   UNL d   1       3.549  -5.493  -0.701  0.00  0.00     0.009 C 
ENDBRANCH   7   8
ENDBRANCH   1   7
TORSDOF 2
ENDMDL
