MODEL 1
REMARK minimizedAffinity 9.10776997
REMARK minimizedRMSD -1
REMARK  2 active torsions:
REMARK  status: ('A' for Active; 'I' for Inactive)
REMARK    1  A    between atoms: C1_2  and  C2_3 
REMARK    2  A    between atoms: C2_3  and  C3_4 
ROOT
ATOM      1  C3  UNL d   1       0.571  -2.720  -1.401  0.00  0.00    -0.075 A 
ATOM      2  C4  UNL d   1       1.663  -3.365  -0.801  0.00  0.00     0.002 A 
ATOM      3  C5  UNL d   1       2.872  -2.693  -0.623  0.00  0.00     0.002 A 
ATOM      4  C6  UNL d   1       3.010  -1.375  -1.051  0.00  0.00    -0.004 A 
ATOM      5  C7  UNL d   1       1.938  -0.730  -1.664  0.00  0.00     0.002 A 
ATOM      6  C8  UNL d   1       0.725  -1.398  -1.839  0.00  0.00     0.002 A 
ENDROOT
BRANCH   1   7
ATOM      7  C2  UNL d   1      -0.750  -3.431  -1.569  0.00  0.00     0.056 C 
BRANCH   7   8
ATOM      8  C1  UNL d   1      -0.815  -4.343  -2.800  0.00  0.00     0.007 C 
ATOM      9  C   UNL d   1      -2.205  -4.419  -3.417  0.00  0.00     0.009 C 
ENDBRANCH   7   8
ENDBRANCH   1   7
TORSDOF 2
ENDMDL
