MODEL 1
REMARK minimizedAffinity 15.1576729
REMARK minimizedRMSD -1
REMARK  2 active torsions:
REMARK  status: ('A' for Active; 'I' for Inactive)
REMARK    1  A    between atoms: C1_2  and  C2_3 
REMARK    2  A    between atoms: C2_3  and  C3_4 
ROOT
ATOM      1  C3  UNL d   1      -4.118   0.505   3.303  0.00  0.00    -0.075 A 
ATOM      2  C4  UNL d   1      -5.104   0.306   2.326  0.00  0.00     0.002 A 
ATOM      3  C5  UNL d   1      -6.000  -0.759   2.431  0.00  0.00     0.002 A 
ATOM      4  C6  UNL d   1      -5.915  -1.641   3.505  0.00  0.00    -0.004 A 
ATOM      5  C7  UNL d   1      -4.929  -1.462   4.473  0.00  0.00     0.002 A 
ATOM      6  C8  UNL d   1      -4.034  -0.395   4.373  0.00  0.00     0.002 A 
ENDROOT
BRANCH   1   7
ATOM      7  C2  UNL d   1      -3.164   1.673   3.210  0.00  0.00     0.056 C 
BRANCH   7   8
ATOM      8  C1  UNL d   1      -1.761   1.294   2.724  0.00  0.00     0.007 C 
ATOM      9  C   UNL d   1      -0.649   1.971   3.515  0.00  0.00     0.009 C 
ENDBRANCH   7   8
ENDBRANCH   1   7
TORSDOF 2
ENDMDL
