MODEL 1
REMARK minimizedAffinity 11.6735382
REMARK minimizedRMSD -1
REMARK  2 active torsions:
REMARK  status: ('A' for Active; 'I' for Inactive)
REMARK    1  A    between atoms: C1_2  and  C2_3 
REMARK    2  A    between atoms: C2_3  and  C3_4 
ROOT
ATOM      1  C3  UNL d   1       1.024  -2.616  -1.448  0.00  0.00    -0.075 A 
ATOM      2  C4  UNL d   1       1.668  -2.233  -0.263  0.00  0.00     0.002 A 
ATOM      3  C5  UNL d   1       2.038  -0.903  -0.056  0.00  0.00     0.002 A 
ATOM      4  C6  UNL d   1       1.777   0.055  -1.032  0.00  0.00    -0.004 A 
ATOM      5  C7  UNL d   1       1.152  -0.317  -2.220  0.00  0.00     0.002 A 
ATOM      6  C8  UNL d   1       0.777  -1.646  -2.428  0.00  0.00     0.002 A 
ENDROOT
BRANCH   1   7
ATOM      7  C2  UNL d   1       0.595  -4.048  -1.665  0.00  0.00     0.056 C 
BRANCH   7   8
ATOM      8  C1  UNL d   1      -0.647  -4.199  -2.551  0.00  0.00     0.007 C 
ATOM      9  C   UNL d   1      -0.649  -5.485  -3.367  0.00  0.00     0.009 C 
ENDBRANCH   7   8
ENDBRANCH   1   7
TORSDOF 2
ENDMDL
