MODEL 1
REMARK minimizedAffinity 9.3603344
REMARK minimizedRMSD -1
REMARK  2 active torsions:
REMARK  status: ('A' for Active; 'I' for Inactive)
REMARK    1  A    between atoms: C1_2  and  C2_3 
REMARK    2  A    between atoms: C2_3  and  C3_4 
ROOT
ATOM      1  C3  UNL d   1       0.014  -2.244  -1.978  0.00  0.00    -0.075 A 
ATOM      2  C4  UNL d   1       0.580  -1.186  -2.704  0.00  0.00     0.002 A 
ATOM      3  C5  UNL d   1       1.628  -0.438  -2.165  0.00  0.00     0.002 A 
ATOM      4  C6  UNL d   1       2.114  -0.730  -0.893  0.00  0.00    -0.004 A 
ATOM      5  C7  UNL d   1       1.548  -1.768  -0.156  0.00  0.00     0.002 A 
ATOM      6  C8  UNL d   1       0.503  -2.521  -0.694  0.00  0.00     0.002 A 
ENDROOT
BRANCH   1   7
ATOM      7  C2  UNL d   1      -1.100  -3.076  -2.566  0.00  0.00     0.056 C 
BRANCH   7   8
ATOM      8  C1  UNL d   1      -1.420  -4.344  -1.768  0.00  0.00     0.007 C 
ATOM      9  C   UNL d   1      -2.908  -4.666  -1.723  0.00  0.00     0.009 C 
ENDBRANCH   7   8
ENDBRANCH   1   7
TORSDOF 2
ENDMDL
