MODEL 1
REMARK minimizedAffinity 18.2725697
REMARK minimizedRMSD -1
REMARK  2 active torsions:
REMARK  status: ('A' for Active; 'I' for Inactive)
REMARK    1  A    between atoms: C1_2  and  C2_3 
REMARK    2  A    between atoms: C2_3  and  C3_4 
ROOT
ATOM      1  C3  UNL d   1       1.988   3.449  -0.774  0.00  0.00    -0.075 A 
ATOM      2  C4  UNL d   1       2.212   4.550  -1.614  0.00  0.00     0.002 A 
ATOM      3  C5  UNL d   1       1.749   5.817  -1.258  0.00  0.00     0.002 A 
ATOM      4  C6  UNL d   1       1.051   5.998  -0.066  0.00  0.00    -0.004 A 
ATOM      5  C7  UNL d   1       0.809   4.908   0.768  0.00  0.00     0.002 A 
ATOM      6  C8  UNL d   1       1.274   3.640   0.416  0.00  0.00     0.002 A 
ENDROOT
BRANCH   1   7
ATOM      7  C2  UNL d   1       2.512   2.080  -1.139  0.00  0.00     0.056 C 
BRANCH   7   8
ATOM      8  C1  UNL d   1       2.331   1.029  -0.039  0.00  0.00     0.007 C 
ATOM      9  C   UNL d   1       1.814  -0.304  -0.561  0.00  0.00     0.009 C 
ENDBRANCH   7   8
ENDBRANCH   1   7
TORSDOF 2
ENDMDL
