MODEL 1
REMARK minimizedAffinity 9.69009876
REMARK minimizedRMSD -1
REMARK  2 active torsions:
REMARK  status: ('A' for Active; 'I' for Inactive)
REMARK    1  A    between atoms: C1_2  and  C2_3 
REMARK    2  A    between atoms: C2_3  and  C3_4 
ROOT
ATOM      1  C3  UNL d   1       0.999  -2.303  -1.405  0.00  0.00    -0.075 A 
ATOM      2  C4  UNL d   1       2.079  -2.899  -0.738  0.00  0.00     0.002 A 
ATOM      3  C5  UNL d   1       3.275  -2.202  -0.562  0.00  0.00     0.002 A 
ATOM      4  C6  UNL d   1       3.409  -0.907  -1.058  0.00  0.00    -0.004 A 
ATOM      5  C7  UNL d   1       2.349  -0.311  -1.737  0.00  0.00     0.002 A 
ATOM      6  C8  UNL d   1       1.150  -1.005  -1.911  0.00  0.00     0.002 A 
ENDROOT
BRANCH   1   7
ATOM      7  C2  UNL d   1      -0.307  -3.041  -1.574  0.00  0.00     0.056 C 
BRANCH   7   8
ATOM      8  C1  UNL d   1      -0.292  -4.090  -2.691  0.00  0.00     0.007 C 
ATOM      9  C   UNL d   1      -1.661  -4.699  -2.961  0.00  0.00     0.009 C 
ENDBRANCH   7   8
ENDBRANCH   1   7
TORSDOF 2
ENDMDL
