MODEL 1
REMARK minimizedAffinity 15.3115587
REMARK minimizedRMSD -1
REMARK  2 active torsions:
REMARK  status: ('A' for Active; 'I' for Inactive)
REMARK    1  A    between atoms: C1_2  and  C2_3 
REMARK    2  A    between atoms: C2_3  and  C3_4 
ROOT
ATOM      1  C3  UNL d   1       2.577   0.696  -1.977  0.00  0.00    -0.075 A 
ATOM      2  C4  UNL d   1       3.386   1.776  -1.597  0.00  0.00     0.002 A 
ATOM      3  C5  UNL d   1       4.402   1.603  -0.656  0.00  0.00     0.002 A 
ATOM      4  C6  UNL d   1       4.614   0.354  -0.078  0.00  0.00    -0.004 A 
ATOM      5  C7  UNL d   1       3.805  -0.722  -0.435  0.00  0.00     0.002 A 
ATOM      6  C8  UNL d   1       2.791  -0.553  -1.380  0.00  0.00     0.002 A 
ENDROOT
BRANCH   1   7
ATOM      7  C2  UNL d   1       1.495   0.870  -3.016  0.00  0.00     0.056 C 
BRANCH   7   8
ATOM      8  C1  UNL d   1       1.133  -0.419  -3.762  0.00  0.00     0.007 C 
ATOM      9  C   UNL d   1       2.205  -0.862  -4.749  0.00  0.00     0.009 C 
ENDBRANCH   7   8
ENDBRANCH   1   7
TORSDOF 2
ENDMDL
