MODEL 1
REMARK minimizedAffinity 11.354517
REMARK minimizedRMSD -1
REMARK  2 active torsions:
REMARK  status: ('A' for Active; 'I' for Inactive)
REMARK    1  A    between atoms: C1_2  and  C2_3 
REMARK    2  A    between atoms: C2_3  and  C3_4 
ROOT
ATOM      1  C3  UNL d   1      -0.717   1.679   3.857  0.00  0.00    -0.075 A 
ATOM      2  C4  UNL d   1       0.415   0.987   3.401  0.00  0.00     0.002 A 
ATOM      3  C5  UNL d   1       1.513   0.795   4.239  0.00  0.00     0.002 A 
ATOM      4  C6  UNL d   1       1.500   1.299   5.537  0.00  0.00    -0.004 A 
ATOM      5  C7  UNL d   1       0.388   2.002   5.996  0.00  0.00     0.002 A 
ATOM      6  C8  UNL d   1      -0.715   2.192   5.161  0.00  0.00     0.002 A 
ENDROOT
BRANCH   1   7
ATOM      7  C2  UNL d   1      -1.921   1.865   2.965  0.00  0.00     0.056 C 
BRANCH   7   8
ATOM      8  C1  UNL d   1      -3.257   1.865   3.714  0.00  0.00     0.007 C 
ATOM      9  C   UNL d   1      -4.156   0.694   3.339  0.00  0.00     0.009 C 
ENDBRANCH   7   8
ENDBRANCH   1   7
TORSDOF 2
ENDMDL
