MODEL 1
REMARK minimizedAffinity 11.4951029
REMARK minimizedRMSD -1
REMARK  2 active torsions:
REMARK  status: ('A' for Active; 'I' for Inactive)
REMARK    1  A    between atoms: C1_2  and  C2_3 
REMARK    2  A    between atoms: C2_3  and  C3_4 
ROOT
ATOM      1  C3  UNL d   1      -3.908   0.621   4.287  0.00  0.00    -0.075 A 
ATOM      2  C4  UNL d   1      -4.453  -0.365   3.451  0.00  0.00     0.002 A 
ATOM      3  C5  UNL d   1      -4.566  -1.684   3.893  0.00  0.00     0.002 A 
ATOM      4  C6  UNL d   1      -4.128  -2.035   5.168  0.00  0.00    -0.004 A 
ATOM      5  C7  UNL d   1      -3.570  -1.067   6.000  0.00  0.00     0.002 A 
ATOM      6  C8  UNL d   1      -3.459   0.254   5.563  0.00  0.00     0.002 A 
ENDROOT
BRANCH   1   7
ATOM      7  C2  UNL d   1      -3.810   2.056   3.826  0.00  0.00     0.056 C 
BRANCH   7   8
ATOM      8  C1  UNL d   1      -4.810   2.998   4.504  0.00  0.00     0.007 C 
ATOM      9  C   UNL d   1      -4.570   3.154   5.999  0.00  0.00     0.009 C 
ENDBRANCH   7   8
ENDBRANCH   1   7
TORSDOF 2
ENDMDL
