MODEL 1
REMARK minimizedAffinity 15.6472969
REMARK minimizedRMSD -1
REMARK  2 active torsions:
REMARK  status: ('A' for Active; 'I' for Inactive)
REMARK    1  A    between atoms: C1_2  and  C2_3 
REMARK    2  A    between atoms: C2_3  and  C3_4 
ROOT
ATOM      1  C3  UNL d   1       4.322  -4.878  -1.026  0.00  0.00    -0.075 A 
ATOM      2  C4  UNL d   1       3.804  -3.587  -0.845  0.00  0.00     0.002 A 
ATOM      3  C5  UNL d   1       2.476  -3.405  -0.458  0.00  0.00     0.002 A 
ATOM      4  C6  UNL d   1       1.648  -4.507  -0.257  0.00  0.00    -0.004 A 
ATOM      5  C7  UNL d   1       2.147  -5.793  -0.450  0.00  0.00     0.002 A 
ATOM      6  C8  UNL d   1       3.477  -5.979  -0.833  0.00  0.00     0.002 A 
ENDROOT
BRANCH   1   7
ATOM      7  C2  UNL d   1       5.766  -5.083  -1.416  0.00  0.00     0.056 C 
BRANCH   7   8
ATOM      8  C1  UNL d   1       5.957  -5.638  -2.831  0.00  0.00     0.007 C 
ATOM      9  C   UNL d   1       5.997  -4.555  -3.901  0.00  0.00     0.009 C 
ENDBRANCH   7   8
ENDBRANCH   1   7
TORSDOF 2
ENDMDL
