MODEL 1
REMARK minimizedAffinity 10.7791977
REMARK minimizedRMSD -1
REMARK  2 active torsions:
REMARK  status: ('A' for Active; 'I' for Inactive)
REMARK    1  A    between atoms: C1_2  and  C2_3 
REMARK    2  A    between atoms: C2_3  and  C3_4 
ROOT
ATOM      1  C3  UNL d   1      -0.657   1.401   2.360  0.00  0.00    -0.075 A 
ATOM      2  C4  UNL d   1      -0.811   1.373   3.754  0.00  0.00     0.002 A 
ATOM      3  C5  UNL d   1      -2.084   1.352   4.325  0.00  0.00     0.002 A 
ATOM      4  C6  UNL d   1      -3.216   1.369   3.514  0.00  0.00    -0.004 A 
ATOM      5  C7  UNL d   1      -3.074   1.414   2.128  0.00  0.00     0.002 A 
ATOM      6  C8  UNL d   1      -1.802   1.430   1.553  0.00  0.00     0.002 A 
ENDROOT
BRANCH   1   7
ATOM      7  C2  UNL d   1       0.717   1.394   1.734  0.00  0.00     0.056 C 
BRANCH   7   8
ATOM      8  C1  UNL d   1       0.914   0.307   0.672  0.00  0.00     0.007 C 
ATOM      9  C   UNL d   1       2.296   0.334   0.034  0.00  0.00     0.009 C 
ENDBRANCH   7   8
ENDBRANCH   1   7
TORSDOF 2
ENDMDL
