MODEL 1
REMARK minimizedAffinity 15.5705767
REMARK minimizedRMSD -1
REMARK  2 active torsions:
REMARK  status: ('A' for Active; 'I' for Inactive)
REMARK    1  A    between atoms: C1_2  and  C2_3 
REMARK    2  A    between atoms: C2_3  and  C3_4 
ROOT
ATOM      1  C3  UNL d   1       0.684  -1.811  -1.493  0.00  0.00    -0.075 A 
ATOM      2  C4  UNL d   1       1.218  -1.074  -2.559  0.00  0.00     0.002 A 
ATOM      3  C5  UNL d   1       1.810   0.169  -2.335  0.00  0.00     0.002 A 
ATOM      4  C6  UNL d   1       1.866   0.695  -1.046  0.00  0.00    -0.004 A 
ATOM      5  C7  UNL d   1       1.323  -0.021   0.019  0.00  0.00     0.002 A 
ATOM      6  C8  UNL d   1       0.735  -1.267  -0.202  0.00  0.00     0.002 A 
ENDROOT
BRANCH   1   7
ATOM      7  C2  UNL d   1       0.069  -3.170  -1.725  0.00  0.00     0.056 C 
BRANCH   7   8
ATOM      8  C1  UNL d   1      -0.027  -3.568  -3.201  0.00  0.00     0.007 C 
ATOM      9  C   UNL d   1      -0.444  -5.018  -3.407  0.00  0.00     0.009 C 
ENDBRANCH   7   8
ENDBRANCH   1   7
TORSDOF 2
ENDMDL
