MODEL 1
REMARK minimizedAffinity 5.80241013
REMARK minimizedRMSD -1
REMARK  2 active torsions:
REMARK  status: ('A' for Active; 'I' for Inactive)
REMARK    1  A    between atoms: C1_2  and  C2_3 
REMARK    2  A    between atoms: C2_3  and  C3_4 
ROOT
ATOM      1  C3  UNL d   1      -0.657   1.756   3.694  0.00  0.00    -0.075 A 
ATOM      2  C4  UNL d   1      -0.781   2.166   5.029  0.00  0.00     0.002 A 
ATOM      3  C5  UNL d   1       0.106   1.699   5.999  0.00  0.00     0.002 A 
ATOM      4  C6  UNL d   1       1.120   0.810   5.649  0.00  0.00    -0.004 A 
ATOM      5  C7  UNL d   1       1.243   0.384   4.329  0.00  0.00     0.002 A 
ATOM      6  C8  UNL d   1       0.359   0.853   3.356  0.00  0.00     0.002 A 
ENDROOT
BRANCH   1   7
ATOM      7  C2  UNL d   1      -1.596   2.281   2.634  0.00  0.00     0.056 C 
BRANCH   7   8
ATOM      8  C1  UNL d   1      -2.753   1.333   2.301  0.00  0.00     0.007 C 
ATOM      9  C   UNL d   1      -3.751   1.180   3.440  0.00  0.00     0.009 C 
ENDBRANCH   7   8
ENDBRANCH   1   7
TORSDOF 2
ENDMDL
