MODEL 1
REMARK minimizedAffinity -3.04261661
REMARK minimizedRMSD -1
REMARK  1 active torsions:
REMARK  status: ('A' for Active; 'I' for Inactive)
REMARK    1  A    between atoms: C1_2  and  C2_3 
ROOT
ATOM      1  C2  UNL d   1      -3.468  -0.623   2.770  0.00  0.00    -0.073 A 
ATOM      2  C3  UNL d   1      -3.054  -0.088   3.995  0.00  0.00    -0.002 A 
ATOM      3  C4  UNL d   1      -1.956   0.772   4.054  0.00  0.00     0.004 A 
ATOM      4  C5  UNL d   1      -1.266   1.110   2.890  0.00  0.00    -0.004 A 
ATOM      5  C6  UNL d   1      -1.672   0.595   1.654  0.00  0.00    -0.075 A 
ATOM      6  C7  UNL d   1      -0.940   0.947   0.393  0.00  0.00     0.076 C 
ATOM      7  C8  UNL d   1      -2.774  -0.270   1.604  0.00  0.00     0.001 A 
ENDROOT
BRANCH   1   8
ATOM      8  C1  UNL d   1      -4.657  -1.546   2.701  0.00  0.00     0.053 C 
ATOM      9  C   UNL d   1      -4.932  -2.222   4.035  0.00  0.00     0.018 C 
ENDBRANCH   1   8
TORSDOF 1
ENDMDL
