MODEL 1
REMARK minimizedAffinity -2.83213925
REMARK minimizedRMSD -1
REMARK  1 active torsions:
REMARK  status: ('A' for Active; 'I' for Inactive)
REMARK    1  A    between atoms: C1_2  and  C2_3 
ROOT
ATOM      1  C2  UNL d   1       0.864   0.532  -1.809  0.00  0.00    -0.073 A 
ATOM      2  C3  UNL d   1       1.616  -0.648  -1.772  0.00  0.00    -0.002 A 
ATOM      3  C4  UNL d   1       1.349  -1.624  -0.812  0.00  0.00     0.004 A 
ATOM      4  C5  UNL d   1       0.325  -1.435   0.116  0.00  0.00    -0.004 A 
ATOM      5  C6  UNL d   1      -0.445  -0.267   0.089  0.00  0.00    -0.075 A 
ATOM      6  C7  UNL d   1      -1.548  -0.047   1.082  0.00  0.00     0.076 C 
ATOM      7  C8  UNL d   1      -0.169   0.710  -0.877  0.00  0.00     0.001 A 
ENDROOT
BRANCH   1   8
ATOM      8  C1  UNL d   1       1.145   1.586  -2.848  0.00  0.00     0.053 C 
ATOM      9  C   UNL d   1       1.923   1.029  -4.030  0.00  0.00     0.018 C 
ENDBRANCH   1   8
TORSDOF 1
ENDMDL
