MODEL 1
REMARK minimizedAffinity -4.68727064
REMARK minimizedRMSD -1
REMARK  1 active torsions:
REMARK  status: ('A' for Active; 'I' for Inactive)
REMARK    1  A    between atoms: C1_2  and  C2_3 
ROOT
ATOM      1  C2  UNL d   1      -1.083   0.346   0.387  0.00  0.00    -0.073 A 
ATOM      2  C3  UNL d   1      -1.694  -0.908   0.276  0.00  0.00    -0.002 A 
ATOM      3  C4  UNL d   1      -0.951  -2.023  -0.115  0.00  0.00     0.004 A 
ATOM      4  C5  UNL d   1       0.411  -1.897  -0.391  0.00  0.00    -0.004 A 
ATOM      5  C6  UNL d   1       1.042  -0.654  -0.275  0.00  0.00    -0.075 A 
ATOM      6  C7  UNL d   1       2.505  -0.501  -0.570  0.00  0.00     0.076 C 
ATOM      7  C8  UNL d   1       0.288   0.461   0.115  0.00  0.00     0.001 A 
ENDROOT
BRANCH   1   8
ATOM      8  C1  UNL d   1      -1.880   1.551   0.814  0.00  0.00     0.053 C 
ATOM      9  C   UNL d   1      -2.272   1.484   2.282  0.00  0.00     0.018 C 
ENDBRANCH   1   8
TORSDOF 1
ENDMDL
