MODEL 1
REMARK minimizedAffinity -3.97000957
REMARK minimizedRMSD -1
REMARK  1 active torsions:
REMARK  status: ('A' for Active; 'I' for Inactive)
REMARK    1  A    between atoms: C1_2  and  C2_3 
ROOT
ATOM      1  C2  UNL d   1       0.947  -0.338  -0.711  0.00  0.00    -0.073 A 
ATOM      2  C3  UNL d   1       1.991  -1.209  -1.045  0.00  0.00    -0.002 A 
ATOM      3  C4  UNL d   1       3.033  -0.777  -1.867  0.00  0.00     0.004 A 
ATOM      4  C5  UNL d   1       3.046   0.529  -2.356  0.00  0.00    -0.004 A 
ATOM      5  C6  UNL d   1       2.018   1.418  -2.023  0.00  0.00    -0.075 A 
ATOM      6  C7  UNL d   1       2.017   2.825  -2.543  0.00  0.00     0.076 C 
ATOM      7  C8  UNL d   1       0.974   0.976  -1.200  0.00  0.00     0.001 A 
ENDROOT
BRANCH   1   8
ATOM      8  C1  UNL d   1      -0.177  -0.798   0.182  0.00  0.00     0.053 C 
ATOM      9  C   UNL d   1      -1.285   0.239   0.283  0.00  0.00     0.018 C 
ENDBRANCH   1   8
TORSDOF 1
ENDMDL
