MODEL 1
REMARK minimizedAffinity -6.0037837
REMARK minimizedRMSD -1
REMARK  1 active torsions:
REMARK  status: ('A' for Active; 'I' for Inactive)
REMARK    1  A    between atoms: C1_2  and  C2_3 
ROOT
ATOM      1  C2  UNL d   1       1.527  -0.030  -1.100  0.00  0.00    -0.073 A 
ATOM      2  C3  UNL d   1       1.744  -1.399  -0.904  0.00  0.00    -0.002 A 
ATOM      3  C4  UNL d   1       0.860  -2.148  -0.127  0.00  0.00     0.004 A 
ATOM      4  C5  UNL d   1      -0.252  -1.540   0.456  0.00  0.00    -0.004 A 
ATOM      5  C6  UNL d   1      -0.492  -0.175   0.262  0.00  0.00    -0.075 A 
ATOM      6  C7  UNL d   1      -1.682   0.495   0.884  0.00  0.00     0.076 C 
ATOM      7  C8  UNL d   1       0.402   0.571  -0.518  0.00  0.00     0.001 A 
ENDROOT
BRANCH   1   8
ATOM      8  C1  UNL d   1       2.476   0.782  -1.944  0.00  0.00     0.053 C 
ATOM      9  C   UNL d   1       1.743   1.786  -2.819  0.00  0.00     0.018 C 
ENDBRANCH   1   8
TORSDOF 1
ENDMDL
