MODEL 1
REMARK minimizedAffinity -5.1570673
REMARK minimizedRMSD -1
REMARK  1 active torsions:
REMARK  status: ('A' for Active; 'I' for Inactive)
REMARK    1  A    between atoms: C1_2  and  C2_3 
ROOT
ATOM      1  C2  UNL d   1      -1.200   0.129   0.965  0.00  0.00    -0.073 A 
ATOM      2  C3  UNL d   1      -0.884  -1.201   0.666  0.00  0.00    -0.002 A 
ATOM      3  C4  UNL d   1       0.153  -1.497  -0.220  0.00  0.00     0.004 A 
ATOM      4  C5  UNL d   1       0.888  -0.468  -0.809  0.00  0.00    -0.004 A 
ATOM      5  C6  UNL d   1       0.595   0.867  -0.513  0.00  0.00    -0.075 A 
ATOM      6  C7  UNL d   1       1.375   1.985  -1.140  0.00  0.00     0.076 C 
ATOM      7  C8  UNL d   1      -0.449   1.156   0.375  0.00  0.00     0.001 A 
ENDROOT
BRANCH   1   8
ATOM      8  C1  UNL d   1      -2.315   0.454   1.926  0.00  0.00     0.053 C 
ATOM      9  C   UNL d   1      -1.901   1.502   2.946  0.00  0.00     0.018 C 
ENDBRANCH   1   8
TORSDOF 1
ENDMDL
