MODEL 1
REMARK minimizedAffinity -4.696105
REMARK minimizedRMSD -1
REMARK  1 active torsions:
REMARK  status: ('A' for Active; 'I' for Inactive)
REMARK    1  A    between atoms: C1_2  and  C2_3 
ROOT
ATOM      1  C2  UNL d   1       1.322   0.411  -0.848  0.00  0.00    -0.073 A 
ATOM      2  C3  UNL d   1       0.645   1.634  -0.784  0.00  0.00    -0.002 A 
ATOM      3  C4  UNL d   1      -0.733   1.667  -0.566  0.00  0.00     0.004 A 
ATOM      4  C5  UNL d   1      -1.446   0.479  -0.402  0.00  0.00    -0.004 A 
ATOM      5  C6  UNL d   1      -0.785  -0.753  -0.450  0.00  0.00    -0.075 A 
ATOM      6  C7  UNL d   1      -1.538  -2.039  -0.278  0.00  0.00     0.076 C 
ATOM      7  C8  UNL d   1       0.598  -0.777  -0.673  0.00  0.00     0.001 A 
ENDROOT
BRANCH   1   8
ATOM      8  C1  UNL d   1       2.811   0.371  -1.078  0.00  0.00     0.053 C 
ATOM      9  C   UNL d   1       3.218  -0.787  -1.976  0.00  0.00     0.018 C 
ENDBRANCH   1   8
TORSDOF 1
ENDMDL
