MODEL 1
REMARK minimizedAffinity -3.42435598
REMARK minimizedRMSD -1
REMARK  1 active torsions:
REMARK  status: ('A' for Active; 'I' for Inactive)
REMARK    1  A    between atoms: C1_2  and  C2_3 
ROOT
ATOM      1  C2  UNL d   1       1.435   0.270  -0.442  0.00  0.00    -0.073 A 
ATOM      2  C3  UNL d   1       0.423   1.222  -0.276  0.00  0.00    -0.002 A 
ATOM      3  C4  UNL d   1      -0.890   0.819  -0.025  0.00  0.00     0.004 A 
ATOM      4  C5  UNL d   1      -1.201  -0.537   0.071  0.00  0.00    -0.004 A 
ATOM      5  C6  UNL d   1      -0.201  -1.503  -0.080  0.00  0.00    -0.075 A 
ATOM      6  C7  UNL d   1      -0.521  -2.966   0.018  0.00  0.00     0.076 C 
ATOM      7  C8  UNL d   1       1.113  -1.091  -0.335  0.00  0.00     0.001 A 
ENDROOT
BRANCH   1   8
ATOM      8  C1  UNL d   1       2.854   0.700  -0.707  0.00  0.00     0.053 C 
ATOM      9  C   UNL d   1       3.740  -0.470  -1.103  0.00  0.00     0.018 C 
ENDBRANCH   1   8
TORSDOF 1
ENDMDL
