MODEL 1
REMARK minimizedAffinity -5.65898085
REMARK minimizedRMSD -1
REMARK  1 active torsions:
REMARK  status: ('A' for Active; 'I' for Inactive)
REMARK    1  A    between atoms: C1_2  and  C2_3 
ROOT
ATOM      1  C2  UNL d   1      -0.170  -0.026  -0.399  0.00  0.00    -0.073 A 
ATOM      2  C3  UNL d   1       0.323  -1.245   0.080  0.00  0.00    -0.002 A 
ATOM      3  C4  UNL d   1       1.551  -1.733  -0.368  0.00  0.00     0.004 A 
ATOM      4  C5  UNL d   1       2.301  -1.006  -1.292  0.00  0.00    -0.004 A 
ATOM      5  C6  UNL d   1       1.831   0.220  -1.774  0.00  0.00    -0.075 A 
ATOM      6  C7  UNL d   1       2.624   1.013  -2.770  0.00  0.00     0.076 C 
ATOM      7  C8  UNL d   1       0.595   0.703  -1.321  0.00  0.00     0.001 A 
ENDROOT
BRANCH   1   8
ATOM      8  C1  UNL d   1      -1.493   0.509   0.087  0.00  0.00     0.053 C 
ATOM      9  C   UNL d   1      -1.685   0.286   1.578  0.00  0.00     0.018 C 
ENDBRANCH   1   8
TORSDOF 1
ENDMDL
