MODEL 1
REMARK minimizedAffinity -2.72246504
REMARK minimizedRMSD -1
REMARK  1 active torsions:
REMARK  status: ('A' for Active; 'I' for Inactive)
REMARK    1  A    between atoms: C1_2  and  C2_3 
ROOT
ATOM      1  C2  UNL d   1       1.729  -0.222  -0.348  0.00  0.00    -0.073 A 
ATOM      2  C3  UNL d   1       1.581   1.057  -0.895  0.00  0.00    -0.002 A 
ATOM      3  C4  UNL d   1       0.331   1.495  -1.336  0.00  0.00     0.004 A 
ATOM      4  C5  UNL d   1      -0.783   0.662  -1.228  0.00  0.00    -0.004 A 
ATOM      5  C6  UNL d   1      -0.657  -0.615  -0.672  0.00  0.00    -0.075 A 
ATOM      6  C7  UNL d   1      -1.845  -1.524  -0.551  0.00  0.00     0.076 C 
ATOM      7  C8  UNL d   1       0.601  -1.048  -0.234  0.00  0.00     0.001 A 
ENDROOT
BRANCH   1   8
ATOM      8  C1  UNL d   1       3.075  -0.697   0.136  0.00  0.00     0.053 C 
ATOM      9  C   UNL d   1       3.333  -0.302   1.581  0.00  0.00     0.018 C 
ENDBRANCH   1   8
TORSDOF 1
ENDMDL
