MODEL 1
REMARK minimizedAffinity -5.87730742
REMARK minimizedRMSD -1
REMARK  1 active torsions:
REMARK  status: ('A' for Active; 'I' for Inactive)
REMARK    1  A    between atoms: C1_2  and  C2_3 
ROOT
ATOM      1  C2  UNL d   1      -0.474   0.107  -0.094  0.00  0.00    -0.073 A 
ATOM      2  C3  UNL d   1      -0.358  -1.261   0.177  0.00  0.00    -0.002 A 
ATOM      3  C4  UNL d   1       0.720  -1.990  -0.327  0.00  0.00     0.004 A 
ATOM      4  C5  UNL d   1       1.694  -1.359  -1.100  0.00  0.00    -0.004 A 
ATOM      5  C6  UNL d   1       1.602   0.010  -1.372  0.00  0.00    -0.075 A 
ATOM      6  C7  UNL d   1       2.640   0.703  -2.204  0.00  0.00     0.076 C 
ATOM      7  C8  UNL d   1       0.515   0.735  -0.864  0.00  0.00     0.001 A 
ENDROOT
BRANCH   1   8
ATOM      8  C1  UNL d   1      -1.633   0.901   0.454  0.00  0.00     0.053 C 
ATOM      9  C   UNL d   1      -1.940   0.538   1.898  0.00  0.00     0.018 C 
ENDBRANCH   1   8
TORSDOF 1
ENDMDL
