MODEL 1
REMARK minimizedAffinity -4.8834691
REMARK minimizedRMSD -1
REMARK  1 active torsions:
REMARK  status: ('A' for Active; 'I' for Inactive)
REMARK    1  A    between atoms: C1_2  and  C2_3 
ROOT
ATOM      1  C2  UNL d   1      -0.432  -0.091   0.090  0.00  0.00    -0.073 A 
ATOM      2  C3  UNL d   1      -0.765  -1.430  -0.143  0.00  0.00    -0.002 A 
ATOM      3  C4  UNL d   1       0.195  -2.322  -0.622  0.00  0.00     0.004 A 
ATOM      4  C5  UNL d   1       1.498  -1.887  -0.866  0.00  0.00    -0.004 A 
ATOM      5  C6  UNL d   1       1.853  -0.555  -0.628  0.00  0.00    -0.075 A 
ATOM      6  C7  UNL d   1       3.249  -0.071  -0.887  0.00  0.00     0.076 C 
ATOM      7  C8  UNL d   1       0.882   0.335  -0.150  0.00  0.00     0.001 A 
ENDROOT
BRANCH   1   8
ATOM      8  C1  UNL d   1      -1.464   0.875   0.613  0.00  0.00     0.053 C 
ATOM      9  C   UNL d   1      -1.841   0.580   2.056  0.00  0.00     0.018 C 
ENDBRANCH   1   8
TORSDOF 1
ENDMDL
