MODEL 1
REMARK minimizedAffinity 7.46052837
REMARK minimizedRMSD -1
REMARK  0 active torsions:
REMARK  status: ('A' for Active; 'I' for Inactive)
ROOT
ATOM      1  C   UNL d   1       2.779  -1.871   2.448  0.00  0.00    -0.002 A 
ATOM      2  C1  UNL d   1       1.494  -1.873   2.970  0.00  0.00     0.010 A 
ATOM      3  C2  UNL d   1       0.398  -1.563   2.162  0.00  0.00     0.041 A 
ATOM      4  C3  UNL d   1       0.619  -1.250   0.806  0.00  0.00    -0.075 A 
ATOM      5  S   UNL d   1      -0.571  -0.840  -0.373  0.00  0.00     0.015 SA
ATOM      6  C4  UNL d   1       0.600  -0.653  -1.597  0.00  0.00     0.022 A 
ATOM      7  C5  UNL d   1       1.872  -0.893  -1.136  0.00  0.00     0.026 A 
ATOM      8  C6  UNL d   1       1.904  -1.242   0.257  0.00  0.00    -0.082 A 
ATOM      9  C7  UNL d   1       2.994  -1.559   1.103  0.00  0.00     0.045 A 
ENDROOT
TORSDOF 0
ENDMDL
