MODEL 1
REMARK minimizedAffinity 2.95289588
REMARK minimizedRMSD -1
REMARK  0 active torsions:
REMARK  status: ('A' for Active; 'I' for Inactive)
ROOT
ATOM      1  C   UNL d   1      -1.353   0.492   1.889  0.00  0.00    -0.002 A 
ATOM      2  C1  UNL d   1      -1.397  -0.456   2.902  0.00  0.00     0.010 A 
ATOM      3  C2  UNL d   1      -0.557  -1.571   2.867  0.00  0.00     0.041 A 
ATOM      4  C3  UNL d   1       0.337  -1.718   1.789  0.00  0.00    -0.075 A 
ATOM      5  S   UNL d   1       1.460  -3.002   1.537  0.00  0.00     0.015 SA
ATOM      6  C4  UNL d   1       2.024  -2.322   0.079  0.00  0.00     0.022 A 
ATOM      7  C5  UNL d   1       1.383  -1.144  -0.223  0.00  0.00     0.026 A 
ATOM      8  C6  UNL d   1       0.400  -0.776   0.758  0.00  0.00    -0.082 A 
ATOM      9  C7  UNL d   1      -0.465   0.343   0.821  0.00  0.00     0.045 A 
ENDROOT
TORSDOF 0
ENDMDL
