MODEL 1
REMARK minimizedAffinity -2.97226834
REMARK minimizedRMSD -1
REMARK  0 active torsions:
REMARK  status: ('A' for Active; 'I' for Inactive)
ROOT
ATOM      1  C   UNL d   1       3.373  -4.342   2.233  0.00  0.00    -0.002 A 
ATOM      2  C1  UNL d   1       3.725  -3.731   3.428  0.00  0.00     0.010 A 
ATOM      3  C2  UNL d   1       3.134  -2.525   3.811  0.00  0.00     0.041 A 
ATOM      4  C3  UNL d   1       2.172  -1.940   2.965  0.00  0.00    -0.075 A 
ATOM      5  S   UNL d   1       1.315  -0.467   3.228  0.00  0.00     0.015 SA
ATOM      6  C4  UNL d   1       0.460  -0.615   1.761  0.00  0.00     0.022 A 
ATOM      7  C5  UNL d   1       0.808  -1.754   1.074  0.00  0.00     0.026 A 
ATOM      8  C6  UNL d   1       1.800  -2.537   1.757  0.00  0.00    -0.082 A 
ATOM      9  C7  UNL d   1       2.418  -3.758   1.397  0.00  0.00     0.045 A 
ENDROOT
TORSDOF 0
ENDMDL
