MODEL 1
REMARK minimizedAffinity 10.6974936
REMARK minimizedRMSD -1
REMARK  0 active torsions:
REMARK  status: ('A' for Active; 'I' for Inactive)
ROOT
ATOM      1  C   UNL d   1      -0.734   1.255   2.787  0.00  0.00    -0.002 A 
ATOM      2  C1  UNL d   1      -0.192   0.112   3.357  0.00  0.00     0.010 A 
ATOM      3  C2  UNL d   1      -0.685  -1.151   3.023  0.00  0.00     0.041 A 
ATOM      4  C3  UNL d   1      -1.741  -1.247   2.096  0.00  0.00    -0.075 A 
ATOM      5  S   UNL d   1      -2.505  -2.687   1.536  0.00  0.00     0.015 SA
ATOM      6  C4  UNL d   1      -3.569  -1.820   0.526  0.00  0.00     0.022 A 
ATOM      7  C5  UNL d   1      -3.361  -0.463   0.602  0.00  0.00     0.026 A 
ATOM      8  C6  UNL d   1      -2.304  -0.110   1.508  0.00  0.00    -0.082 A 
ATOM      9  C7  UNL d   1      -1.783   1.156   1.868  0.00  0.00     0.045 A 
ENDROOT
TORSDOF 0
ENDMDL
