MODEL 1
REMARK minimizedAffinity 9.75879574
REMARK minimizedRMSD -1
REMARK  0 active torsions:
REMARK  status: ('A' for Active; 'I' for Inactive)
ROOT
ATOM      1  C   UNL d   1      -3.778   1.794  -4.050  0.00  0.00    -0.002 A 
ATOM      2  C1  UNL d   1      -4.211   1.552  -5.346  0.00  0.00     0.010 A 
ATOM      3  C2  UNL d   1      -3.869   0.366  -5.999  0.00  0.00     0.041 A 
ATOM      4  C3  UNL d   1      -3.079  -0.582  -5.320  0.00  0.00    -0.075 A 
ATOM      5  S   UNL d   1      -2.538  -2.106  -5.920  0.00  0.00     0.015 SA
ATOM      6  C4  UNL d   1      -1.721  -2.471  -4.469  0.00  0.00     0.022 A 
ATOM      7  C5  UNL d   1      -1.847  -1.466  -3.540  0.00  0.00     0.026 A 
ATOM      8  C6  UNL d   1      -2.632  -0.362  -4.014  0.00  0.00    -0.082 A 
ATOM      9  C7  UNL d   1      -2.995   0.851  -3.380  0.00  0.00     0.045 A 
ENDROOT
TORSDOF 0
ENDMDL
