MODEL 1
REMARK minimizedAffinity 3.8895824
REMARK minimizedRMSD -1
REMARK  0 active torsions:
REMARK  status: ('A' for Active; 'I' for Inactive)
ROOT
ATOM      1  C   UNL d   1      -2.449  -1.697  -4.347  0.00  0.00    -0.002 A 
ATOM      2  C1  UNL d   1      -1.860  -0.976  -5.376  0.00  0.00     0.010 A 
ATOM      3  C2  UNL d   1      -2.515   0.120  -5.940  0.00  0.00     0.041 A 
ATOM      4  C3  UNL d   1      -3.784   0.484  -5.447  0.00  0.00    -0.075 A 
ATOM      5  S   UNL d   1      -4.772   1.791  -5.985  0.00  0.00     0.015 SA
ATOM      6  C4  UNL d   1      -5.999   1.423  -4.860  0.00  0.00     0.022 A 
ATOM      7  C5  UNL d   1      -5.679   0.333  -4.086  0.00  0.00     0.026 A 
ATOM      8  C6  UNL d   1      -4.397  -0.226  -4.411  0.00  0.00    -0.082 A 
ATOM      9  C7  UNL d   1      -3.707  -1.333  -3.860  0.00  0.00     0.045 A 
ENDROOT
TORSDOF 0
ENDMDL
