MODEL 1
REMARK minimizedAffinity 13.3594627
REMARK minimizedRMSD -1
REMARK  0 active torsions:
REMARK  status: ('A' for Active; 'I' for Inactive)
ROOT
ATOM      1  C   UNL d   1       2.760  -2.856   0.565  0.00  0.00    -0.002 A 
ATOM      2  C1  UNL d   1       2.144  -4.098   0.628  0.00  0.00     0.010 A 
ATOM      3  C2  UNL d   1       0.947  -4.263   1.328  0.00  0.00     0.041 A 
ATOM      4  C3  UNL d   1       0.373  -3.147   1.969  0.00  0.00    -0.075 A 
ATOM      5  S   UNL d   1      -1.088  -3.112   2.884  0.00  0.00     0.015 SA
ATOM      6  C4  UNL d   1      -0.930  -1.447   3.211  0.00  0.00     0.022 A 
ATOM      7  C5  UNL d   1       0.205  -0.915   2.645  0.00  0.00     0.026 A 
ATOM      8  C6  UNL d   1       0.974  -1.886   1.919  0.00  0.00    -0.082 A 
ATOM      9  C7  UNL d   1       2.187  -1.752   1.202  0.00  0.00     0.045 A 
ENDROOT
TORSDOF 0
ENDMDL
