MODEL 1
REMARK minimizedAffinity 1.29020047
REMARK minimizedRMSD -1
REMARK  3 active torsions:
REMARK  status: ('A' for Active; 'I' for Inactive)
REMARK    1  A    between atoms: C3'_2  and  C2'_3 
REMARK    2  A    between atoms: C2'_3  and  C1'_4 
REMARK    3  A    between atoms: C1'_4  and  C1_5 
ROOT
ATOM      1  C1  N4B d   1       3.573   3.933   5.959  0.00  0.00    -0.075 A 
ATOM      2  C2  N4B d   1       2.784   2.762   5.999  0.00  0.00     0.002 A 
ATOM      3  C3  N4B d   1       3.379   1.529   5.880  0.00  0.00     0.002 A 
ATOM      4  C4  N4B d   1       4.752   1.444   5.702  0.00  0.00    -0.004 A 
ATOM      5  C5  N4B d   1       5.509   2.579   5.690  0.00  0.00     0.002 A 
ATOM      6  C6  N4B d   1       4.925   3.824   5.813  0.00  0.00     0.002 A 
ENDROOT
BRANCH   1   7
ATOM      7  C1' N4B d   1       2.959   5.305   5.999  0.00  0.00     0.057 C 
BRANCH   7   8
ATOM      8  C2' N4B d   1       1.498   5.213   5.568  0.00  0.00     0.009 C 
BRANCH   8   9
ATOM      9  C3' N4B d   1       1.230   5.999   4.296  0.00  0.00     0.004 C 
ATOM     10  C4' N4B d   1      -0.184   5.863   3.816  0.00  0.00     0.003 C 
ENDBRANCH   8   9
ENDBRANCH   7   8
ENDBRANCH   1   7
TORSDOF 3
ENDMDL
