MODEL 1
REMARK minimizedAffinity -1.8646487
REMARK minimizedRMSD -1
REMARK  3 active torsions:
REMARK  status: ('A' for Active; 'I' for Inactive)
REMARK    1  A    between atoms: C3'_2  and  C2'_3 
REMARK    2  A    between atoms: C2'_3  and  C1'_4 
REMARK    3  A    between atoms: C1'_4  and  C1_5 
ROOT
ATOM      1  C1  N4B d   1       4.766   2.844   4.702  0.00  0.00    -0.075 A 
ATOM      2  C2  N4B d   1       4.535   1.872   5.700  0.00  0.00     0.002 A 
ATOM      3  C3  N4B d   1       3.369   1.147   5.696  0.00  0.00     0.002 A 
ATOM      4  C4  N4B d   1       2.415   1.388   4.719  0.00  0.00    -0.004 A 
ATOM      5  C5  N4B d   1       2.656   2.311   3.744  0.00  0.00     0.002 A 
ATOM      6  C6  N4B d   1       3.826   3.044   3.733  0.00  0.00     0.002 A 
ENDROOT
BRANCH   1   7
ATOM      7  C1' N4B d   1       5.988   3.721   4.715  0.00  0.00     0.057 C 
BRANCH   7   8
ATOM      8  C2' N4B d   1       6.000   4.544   6.000  0.00  0.00     0.009 C 
BRANCH   8   9
ATOM      9  C3' N4B d   1       5.011   5.695   5.947  0.00  0.00     0.004 C 
ATOM     10  C4' N4B d   1       4.548   6.000   4.553  0.00  0.00     0.003 C 
ENDBRANCH   8   9
ENDBRANCH   7   8
ENDBRANCH   1   7
TORSDOF 3
ENDMDL
