MODEL 1
REMARK minimizedAffinity -1.39281273
REMARK minimizedRMSD -1
REMARK  3 active torsions:
REMARK  status: ('A' for Active; 'I' for Inactive)
REMARK    1  A    between atoms: C3'_2  and  C2'_3 
REMARK    2  A    between atoms: C2'_3  and  C1'_4 
REMARK    3  A    between atoms: C1'_4  and  C1_5 
ROOT
ATOM      1  C1  N4B d   1       4.123   3.653   4.656  0.00  0.00    -0.075 A 
ATOM      2  C2  N4B d   1       5.361   3.465   5.309  0.00  0.00     0.002 A 
ATOM      3  C3  N4B d   1       5.978   4.524   5.928  0.00  0.00     0.002 A 
ATOM      4  C4  N4B d   1       5.389   5.779   5.890  0.00  0.00    -0.004 A 
ATOM      5  C5  N4B d   1       4.181   5.947   5.278  0.00  0.00     0.002 A 
ATOM      6  C6  N4B d   1       3.547   4.890   4.656  0.00  0.00     0.002 A 
ENDROOT
BRANCH   1   7
ATOM      7  C1' N4B d   1       3.451   2.544   3.893  0.00  0.00     0.057 C 
BRANCH   7   8
ATOM      8  C2' N4B d   1       2.239   2.056   4.681  0.00  0.00     0.009 C 
BRANCH   8   9
ATOM      9  C3' N4B d   1       2.641   1.382   5.982  0.00  0.00     0.004 C 
ATOM     10  C4' N4B d   1       4.082   0.967   6.000  0.00  0.00     0.003 C 
ENDBRANCH   8   9
ENDBRANCH   7   8
ENDBRANCH   1   7
TORSDOF 3
ENDMDL
