MODEL 1
REMARK minimizedAffinity 0.782669306
REMARK minimizedRMSD -1
REMARK  3 active torsions:
REMARK  status: ('A' for Active; 'I' for Inactive)
REMARK    1  A    between atoms: C3'_2  and  C2'_3 
REMARK    2  A    between atoms: C2'_3  and  C1'_4 
REMARK    3  A    between atoms: C1'_4  and  C1_5 
ROOT
ATOM      1  C1  N4B d   1       4.443   3.361   5.810  0.00  0.00    -0.075 A 
ATOM      2  C2  N4B d   1       3.152   3.910   5.971  0.00  0.00     0.002 A 
ATOM      3  C3  N4B d   1       2.043   3.130   5.758  0.00  0.00     0.002 A 
ATOM      4  C4  N4B d   1       2.198   1.809   5.366  0.00  0.00    -0.004 A 
ATOM      5  C5  N4B d   1       3.449   1.279   5.237  0.00  0.00     0.002 A 
ATOM      6  C6  N4B d   1       4.573   2.050   5.452  0.00  0.00     0.002 A 
ENDROOT
BRANCH   1   7
ATOM      7  C1' N4B d   1       5.686   4.198   5.948  0.00  0.00     0.057 C 
BRANCH   7   8
ATOM      8  C2' N4B d   1       5.293   5.672   5.996  0.00  0.00     0.009 C 
BRANCH   8   9
ATOM      9  C3' N4B d   1       4.064   5.961   5.152  0.00  0.00     0.004 C 
ATOM     10  C4' N4B d   1       4.364   5.999   3.683  0.00  0.00     0.003 C 
ENDBRANCH   8   9
ENDBRANCH   7   8
ENDBRANCH   1   7
TORSDOF 3
ENDMDL
