MODEL 1
REMARK minimizedAffinity -0.393838346
REMARK minimizedRMSD -1
REMARK  3 active torsions:
REMARK  status: ('A' for Active; 'I' for Inactive)
REMARK    1  A    between atoms: C3'_2  and  C2'_3 
REMARK    2  A    between atoms: C2'_3  and  C1'_4 
REMARK    3  A    between atoms: C1'_4  and  C1_5 
ROOT
ATOM      1  C1  N4B d   1       3.893   3.355   4.972  0.00  0.00    -0.075 A 
ATOM      2  C2  N4B d   1       3.372   4.449   5.697  0.00  0.00     0.002 A 
ATOM      3  C3  N4B d   1       4.179   5.518   6.000  0.00  0.00     0.002 A 
ATOM      4  C4  N4B d   1       5.509   5.507   5.606  0.00  0.00    -0.004 A 
ATOM      5  C5  N4B d   1       5.997   4.458   4.883  0.00  0.00     0.002 A 
ATOM      6  C6  N4B d   1       5.196   3.379   4.568  0.00  0.00     0.002 A 
ENDROOT
BRANCH   1   7
ATOM      7  C1' N4B d   1       3.073   2.125   4.692  0.00  0.00     0.057 C 
BRANCH   7   8
ATOM      8  C2' N4B d   1       2.464   1.621   5.997  0.00  0.00     0.009 C 
BRANCH   8   9
ATOM      9  C3' N4B d   1       2.145   0.137   5.939  0.00  0.00     0.004 C 
ATOM     10  C4' N4B d   1       1.582  -0.284   4.615  0.00  0.00     0.003 C 
ENDBRANCH   8   9
ENDBRANCH   7   8
ENDBRANCH   1   7
TORSDOF 3
ENDMDL
