MODEL 1
REMARK minimizedAffinity -2.42891192
REMARK minimizedRMSD -1
REMARK  3 active torsions:
REMARK  status: ('A' for Active; 'I' for Inactive)
REMARK    1  A    between atoms: C3'_2  and  C2'_3 
REMARK    2  A    between atoms: C2'_3  and  C1'_4 
REMARK    3  A    between atoms: C1'_4  and  C1_5 
ROOT
ATOM      1  C1  N4B d   1       3.010  -0.864   0.025  0.00  0.00    -0.075 A 
ATOM      2  C2  N4B d   1       2.803   0.156   0.979  0.00  0.00     0.002 A 
ATOM      3  C3  N4B d   1       3.335   1.406   0.773  0.00  0.00     0.002 A 
ATOM      4  C4  N4B d   1       4.088   1.652  -0.365  0.00  0.00    -0.004 A 
ATOM      5  C5  N4B d   1       4.262   0.668  -1.293  0.00  0.00     0.002 A 
ATOM      6  C6  N4B d   1       3.731  -0.591  -1.102  0.00  0.00     0.002 A 
ENDROOT
BRANCH   1   7
ATOM      7  C1' N4B d   1       2.522  -2.270   0.247  0.00  0.00     0.057 C 
BRANCH   7   8
ATOM      8  C2' N4B d   1       1.352  -2.548  -0.692  0.00  0.00     0.009 C 
BRANCH   8   9
ATOM      9  C3' N4B d   1       0.533  -3.745  -0.240  0.00  0.00     0.004 C 
ATOM     10  C4' N4B d   1      -0.765  -3.873  -0.980  0.00  0.00     0.003 C 
ENDBRANCH   8   9
ENDBRANCH   7   8
ENDBRANCH   1   7
TORSDOF 3
ENDMDL
