MODEL 1
REMARK minimizedAffinity 2.4147048
REMARK minimizedRMSD -1
REMARK  0 active torsions:
REMARK  status: ('A' for Active; 'I' for Inactive)
ROOT
ATOM      1  C1  BNZ d   1      -5.183   3.914   3.560  0.00  0.00     0.000 A 
ATOM      2  C2  BNZ d   1      -5.998   3.911   4.661  0.00  0.00     0.000 A 
ATOM      3  C3  BNZ d   1      -5.989   4.957   5.541  0.00  0.00     0.000 A 
ATOM      4  C4  BNZ d   1      -5.139   5.984   5.341  0.00  0.00     0.000 A 
ATOM      5  C5  BNZ d   1      -4.305   5.997   4.241  0.00  0.00     0.000 A 
ATOM      6  C6  BNZ d   1      -4.344   4.961   3.337  0.00  0.00     0.000 A 
ENDROOT
TORSDOF 0
ENDMDL
