MODEL 1
REMARK minimizedAffinity 0.7043975
REMARK minimizedRMSD -1
REMARK  0 active torsions:
REMARK  status: ('A' for Active; 'I' for Inactive)
ROOT
ATOM      1  C1  BNZ d   1       3.931   4.333   3.646  0.00  0.00     0.000 A 
ATOM      2  C2  BNZ d   1       3.750   3.651   4.820  0.00  0.00     0.000 A 
ATOM      3  C3  BNZ d   1       4.229   4.149   6.000  0.00  0.00     0.000 A 
ATOM      4  C4  BNZ d   1       4.922   5.306   5.998  0.00  0.00     0.000 A 
ATOM      5  C5  BNZ d   1       5.122   6.000   4.821  0.00  0.00     0.000 A 
ATOM      6  C6  BNZ d   1       4.604   5.515   3.642  0.00  0.00     0.000 A 
ENDROOT
TORSDOF 0
ENDMDL
