MODEL 1
REMARK minimizedAffinity 5.92839766
REMARK minimizedRMSD -1
REMARK  0 active torsions:
REMARK  status: ('A' for Active; 'I' for Inactive)
ROOT
ATOM      1  C1  BNZ d   1       2.253  -1.086  -1.059  0.00  0.00     0.000 A 
ATOM      2  C2  BNZ d   1       2.354  -1.851  -2.190  0.00  0.00     0.000 A 
ATOM      3  C3  BNZ d   1       1.285  -2.005  -3.028  0.00  0.00     0.000 A 
ATOM      4  C4  BNZ d   1       0.107  -1.428  -2.714  0.00  0.00     0.000 A 
ATOM      5  C5  BNZ d   1      -0.012  -0.661  -1.572  0.00  0.00     0.000 A 
ATOM      6  C6  BNZ d   1       1.077  -0.476  -0.751  0.00  0.00     0.000 A 
ENDROOT
TORSDOF 0
ENDMDL
