MODEL 1
REMARK minimizedAffinity 1.99853194
REMARK minimizedRMSD -1
REMARK  0 active torsions:
REMARK  status: ('A' for Active; 'I' for Inactive)
ROOT
ATOM      1  C1  BNZ d   1      -1.595  -5.931   5.097  0.00  0.00     0.000 A 
ATOM      2  C2  BNZ d   1      -0.589  -5.704   5.998  0.00  0.00     0.000 A 
ATOM      3  C3  BNZ d   1       0.113  -4.531   5.983  0.00  0.00     0.000 A 
ATOM      4  C4  BNZ d   1      -0.165  -3.605   5.042  0.00  0.00     0.000 A 
ATOM      5  C5  BNZ d   1      -1.170  -3.823   4.121  0.00  0.00     0.000 A 
ATOM      6  C6  BNZ d   1      -1.900  -4.989   4.164  0.00  0.00     0.000 A 
ENDROOT
TORSDOF 0
ENDMDL
