MODEL 1
REMARK minimizedAffinity 5.42467833
REMARK minimizedRMSD -1
REMARK  0 active torsions:
REMARK  status: ('A' for Active; 'I' for Inactive)
ROOT
ATOM      1  C1  BNZ d   1       3.047   0.126  -0.057  0.00  0.00     0.000 A 
ATOM      2  C2  BNZ d   1       2.638   1.247   0.615  0.00  0.00     0.000 A 
ATOM      3  C3  BNZ d   1       3.488   2.302   0.798  0.00  0.00     0.000 A 
ATOM      4  C4  BNZ d   1       4.755   2.220   0.343  0.00  0.00     0.000 A 
ATOM      5  C5  BNZ d   1       5.185   1.093  -0.328  0.00  0.00     0.000 A 
ATOM      6  C6  BNZ d   1       4.316   0.048  -0.544  0.00  0.00     0.000 A 
ENDROOT
TORSDOF 0
ENDMDL
