MODEL 1
REMARK minimizedAffinity -1.99645889
REMARK minimizedRMSD -1
REMARK  0 active torsions:
REMARK  status: ('A' for Active; 'I' for Inactive)
ROOT
ATOM      1  C1  BNZ d   1      -5.846   3.386   4.873  0.00  0.00     0.000 A 
ATOM      2  C2  BNZ d   1      -5.969   4.162   3.752  0.00  0.00     0.000 A 
ATOM      3  C3  BNZ d   1      -5.512   5.451   3.739  0.00  0.00     0.000 A 
ATOM      4  C4  BNZ d   1      -4.970   5.973   4.858  0.00  0.00     0.000 A 
ATOM      5  C5  BNZ d   1      -4.847   5.206   5.999  0.00  0.00     0.000 A 
ATOM      6  C6  BNZ d   1      -5.273   3.897   5.997  0.00  0.00     0.000 A 
ENDROOT
TORSDOF 0
ENDMDL
