MODEL 1
REMARK minimizedAffinity 3.51404405
REMARK minimizedRMSD -1
REMARK  0 active torsions:
REMARK  status: ('A' for Active; 'I' for Inactive)
ROOT
ATOM      1  C1  BNZ d   1      -0.259  -2.740  -1.812  0.00  0.00     0.000 A 
ATOM      2  C2  BNZ d   1       0.854  -2.007  -1.497  0.00  0.00     0.000 A 
ATOM      3  C3  BNZ d   1       1.611  -2.319  -0.403  0.00  0.00     0.000 A 
ATOM      4  C4  BNZ d   1       1.234  -3.338   0.397  0.00  0.00     0.000 A 
ATOM      5  C5  BNZ d   1       0.109  -4.081   0.098  0.00  0.00     0.000 A 
ATOM      6  C6  BNZ d   1      -0.629  -3.788  -1.026  0.00  0.00     0.000 A 
ENDROOT
TORSDOF 0
ENDMDL
