MODEL 1
REMARK minimizedAffinity 1.246544
REMARK minimizedRMSD -1
REMARK  0 active torsions:
REMARK  status: ('A' for Active; 'I' for Inactive)
ROOT
ATOM      1  C1  BNZ d   1      -4.932   3.964   4.116  0.00  0.00     0.000 A 
ATOM      2  C2  BNZ d   1      -4.026   4.991   4.094  0.00  0.00     0.000 A 
ATOM      3  C3  BNZ d   1      -4.085   5.997   5.018  0.00  0.00     0.000 A 
ATOM      4  C4  BNZ d   1      -5.073   5.996   5.936  0.00  0.00     0.000 A 
ATOM      5  C5  BNZ d   1      -6.000   4.973   5.965  0.00  0.00     0.000 A 
ATOM      6  C6  BNZ d   1      -5.913   3.942   5.058  0.00  0.00     0.000 A 
ENDROOT
TORSDOF 0
ENDMDL
