MODEL 1
REMARK minimizedAffinity 8.39942646
REMARK minimizedRMSD -1
REMARK  0 active torsions:
REMARK  status: ('A' for Active; 'I' for Inactive)
ROOT
ATOM      1  C1  BNZ d   1       2.928  -0.788   1.511  0.00  0.00     0.000 A 
ATOM      2  C2  BNZ d   1       2.789  -0.806   0.148  0.00  0.00     0.000 A 
ATOM      3  C3  BNZ d   1       2.320   0.289  -0.522  0.00  0.00     0.000 A 
ATOM      4  C4  BNZ d   1       1.954   1.385   0.173  0.00  0.00     0.000 A 
ATOM      5  C5  BNZ d   1       2.080   1.416   1.547  0.00  0.00     0.000 A 
ATOM      6  C6  BNZ d   1       2.589   0.326   2.215  0.00  0.00     0.000 A 
ENDROOT
TORSDOF 0
ENDMDL
