MODEL 1
REMARK minimizedAffinity -1.70849359
REMARK minimizedRMSD -1
REMARK  0 active torsions:
REMARK  status: ('A' for Active; 'I' for Inactive)
ROOT
ATOM      1  C1  BNZ d   1      -3.370   5.979   2.750  0.00  0.00     0.000 A 
ATOM      2  C2  BNZ d   1      -3.726   5.993   4.073  0.00  0.00     0.000 A 
ATOM      3  C3  BNZ d   1      -5.041   5.983   4.444  0.00  0.00     0.000 A 
ATOM      4  C4  BNZ d   1      -5.998   6.000   3.494  0.00  0.00     0.000 A 
ATOM      5  C5  BNZ d   1      -5.656   5.995   2.156  0.00  0.00     0.000 A 
ATOM      6  C6  BNZ d   1      -4.331   5.966   1.786  0.00  0.00     0.000 A 
ENDROOT
TORSDOF 0
ENDMDL
