MODEL 1
REMARK minimizedAffinity 17.5211468
REMARK minimizedRMSD -1
REMARK  0 active torsions:
REMARK  status: ('A' for Active; 'I' for Inactive)
ROOT
ATOM      1  C   UNL d   1      -0.728  -2.497  -5.966  0.00  0.00     0.124 A 
ATOM      2  C1  UNL d   1      -1.220  -1.199  -5.958  0.00  0.00     0.062 A 
ATOM      3  C2  UNL d   1      -2.593  -0.971  -5.960  0.00  0.00     0.162 A 
ATOM      4  C3  UNL d   1      -3.485  -2.044  -5.968  0.00  0.00    -0.034 A 
ATOM      5  C4  UNL d   1      -2.983  -3.346  -5.977  0.00  0.00     0.162 A 
ATOM      6  C5  UNL d   1      -1.609  -3.569  -5.975  0.00  0.00     0.062 A 
ATOM      7  F   UNL d   1      -1.136  -4.824  -5.982  0.00  0.00    -0.097 F 
ATOM      8  F1  UNL d   1      -3.812  -4.401  -5.985  0.00  0.00    -0.096 F 
ATOM      9  I   UNL d   1      -5.539  -1.707  -5.971  0.00  0.00    -0.060 I 
ATOM     10  F2  UNL d   1      -3.041   0.293  -5.953  0.00  0.00    -0.096 F 
ATOM     11  F3  UNL d   1      -0.371  -0.162  -5.951  0.00  0.00    -0.097 F 
ATOM     12  F4  UNL d   1       0.593  -2.714  -5.965  0.00  0.00    -0.092 F 
ENDROOT
TORSDOF 0
ENDMDL
