MODEL 1
REMARK minimizedAffinity 16.7352409
REMARK minimizedRMSD -1
REMARK  0 active torsions:
REMARK  status: ('A' for Active; 'I' for Inactive)
ROOT
ATOM      1  C   UNL d   1      -3.494  -1.438  -5.997  0.00  0.00     0.124 A 
ATOM      2  C1  UNL d   1      -2.114  -1.292  -5.997  0.00  0.00     0.062 A 
ATOM      3  C2  UNL d   1      -1.291  -2.415  -5.996  0.00  0.00     0.162 A 
ATOM      4  C3  UNL d   1      -1.846  -3.694  -5.995  0.00  0.00    -0.034 A 
ATOM      5  C4  UNL d   1      -3.235  -3.834  -5.994  0.00  0.00     0.162 A 
ATOM      6  C5  UNL d   1      -4.053  -2.708  -5.995  0.00  0.00     0.062 A 
ATOM      7  F   UNL d   1      -5.387  -2.852  -5.995  0.00  0.00    -0.097 F 
ATOM      8  F1  UNL d   1      -3.802  -5.049  -5.993  0.00  0.00    -0.096 F 
ATOM      9  I   UNL d   1      -0.619  -5.375  -5.993  0.00  0.00    -0.060 I 
ATOM     10  F2  UNL d   1       0.040  -2.243  -5.996  0.00  0.00    -0.096 F 
ATOM     11  F3  UNL d   1      -1.571  -0.066  -5.998  0.00  0.00    -0.097 F 
ATOM     12  F4  UNL d   1      -4.283  -0.357  -5.997  0.00  0.00    -0.092 F 
ENDROOT
TORSDOF 0
ENDMDL
