MODEL 1
REMARK minimizedAffinity -0.59279871
REMARK minimizedRMSD -1
REMARK  0 active torsions:
REMARK  status: ('A' for Active; 'I' for Inactive)
ROOT
ATOM      1  C   UNL d   1      -1.101   1.089   2.918  0.00  0.00     0.124 A 
ATOM      2  C1  UNL d   1      -2.462   0.913   3.122  0.00  0.00     0.062 A 
ATOM      3  C2  UNL d   1      -3.180   0.024   2.328  0.00  0.00     0.162 A 
ATOM      4  C3  UNL d   1      -2.538  -0.698   1.322  0.00  0.00    -0.034 A 
ATOM      5  C4  UNL d   1      -1.168  -0.515   1.122  0.00  0.00     0.162 A 
ATOM      6  C5  UNL d   1      -0.455   0.375   1.918  0.00  0.00     0.062 A 
ATOM      7  F   UNL d   1       0.860   0.544   1.719  0.00  0.00    -0.097 F 
ATOM      8  F1  UNL d   1      -0.519  -1.193   0.164  0.00  0.00    -0.096 F 
ATOM      9  I   UNL d   1      -3.608  -2.029   0.133  0.00  0.00    -0.060 I 
ATOM     10  F2  UNL d   1      -4.495  -0.127   2.549  0.00  0.00    -0.096 F 
ATOM     11  F3  UNL d   1      -3.089   1.603   4.087  0.00  0.00    -0.097 F 
ATOM     12  F4  UNL d   1      -0.413   1.947   3.683  0.00  0.00    -0.092 F 
ENDROOT
TORSDOF 0
ENDMDL
