MODEL 1
REMARK minimizedAffinity 10.6263371
REMARK minimizedRMSD -1
REMARK  0 active torsions:
REMARK  status: ('A' for Active; 'I' for Inactive)
ROOT
ATOM      1  C   UNL d   1      -2.573  -0.325   1.507  0.00  0.00     0.124 A 
ATOM      2  C1  UNL d   1      -3.633   0.285   0.851  0.00  0.00     0.062 A 
ATOM      3  C2  UNL d   1      -4.612   0.956   1.576  0.00  0.00     0.162 A 
ATOM      4  C3  UNL d   1      -4.536   1.022   2.968  0.00  0.00    -0.034 A 
ATOM      5  C4  UNL d   1      -3.468   0.406   3.621  0.00  0.00     0.162 A 
ATOM      6  C5  UNL d   1      -2.491  -0.264   2.891  0.00  0.00     0.062 A 
ATOM      7  F   UNL d   1      -1.468  -0.853   3.527  0.00  0.00    -0.097 F 
ATOM      8  F1  UNL d   1      -3.364   0.450   4.957  0.00  0.00    -0.096 F 
ATOM      9  I   UNL d   1      -5.999   2.025   4.056  0.00  0.00    -0.060 I 
ATOM     10  F2  UNL d   1      -5.625   1.536   0.916  0.00  0.00    -0.096 F 
ATOM     11  F3  UNL d   1      -3.714   0.227  -0.487  0.00  0.00    -0.097 F 
ATOM     12  F4  UNL d   1      -1.632  -0.971   0.806  0.00  0.00    -0.092 F 
ENDROOT
TORSDOF 0
ENDMDL
