MODEL 1
REMARK minimizedAffinity 14.1610928
REMARK minimizedRMSD -1
REMARK  0 active torsions:
REMARK  status: ('A' for Active; 'I' for Inactive)
ROOT
ATOM      1  C   UNL d   1      -1.114   2.447   2.231  0.00  0.00     0.124 A 
ATOM      2  C1  UNL d   1      -2.399   2.797   1.842  0.00  0.00     0.062 A 
ATOM      3  C2  UNL d   1      -3.257   1.837   1.313  0.00  0.00     0.162 A 
ATOM      4  C3  UNL d   1      -2.832   0.517   1.169  0.00  0.00    -0.034 A 
ATOM      5  C4  UNL d   1      -1.537   0.172   1.561  0.00  0.00     0.162 A 
ATOM      6  C5  UNL d   1      -0.684   1.135   2.090  0.00  0.00     0.062 A 
ATOM      7  F   UNL d   1       0.558   0.794   2.464  0.00  0.00    -0.097 F 
ATOM      8  F1  UNL d   1      -1.096  -1.089   1.437  0.00  0.00    -0.096 F 
ATOM      9  I   UNL d   1      -4.111  -0.922   0.378  0.00  0.00    -0.060 I 
ATOM     10  F2  UNL d   1      -4.494   2.204   0.946  0.00  0.00    -0.096 F 
ATOM     11  F3  UNL d   1      -2.817   4.064   1.977  0.00  0.00    -0.097 F 
ATOM     12  F4  UNL d   1      -0.290   3.373   2.739  0.00  0.00    -0.092 F 
ENDROOT
TORSDOF 0
ENDMDL
