MODEL 1
REMARK minimizedAffinity 18.1463013
REMARK minimizedRMSD -1
REMARK  0 active torsions:
REMARK  status: ('A' for Active; 'I' for Inactive)
ROOT
ATOM      1  C   UNL d   1      -4.319   0.590   1.779  0.00  0.00     0.124 A 
ATOM      2  C1  UNL d   1      -3.257   0.655   0.888  0.00  0.00     0.062 A 
ATOM      3  C2  UNL d   1      -1.967   0.352   1.314  0.00  0.00     0.162 A 
ATOM      4  C3  UNL d   1      -1.732  -0.020   2.638  0.00  0.00    -0.034 A 
ATOM      5  C4  UNL d   1      -2.805  -0.083   3.528  0.00  0.00     0.162 A 
ATOM      6  C5  UNL d   1      -4.093   0.221   3.098  0.00  0.00     0.062 A 
ATOM      7  F   UNL d   1      -5.118   0.157   3.960  0.00  0.00    -0.097 F 
ATOM      8  F1  UNL d   1      -2.614  -0.438   4.807  0.00  0.00    -0.096 F 
ATOM      9  I   UNL d   1       0.196  -0.474   3.278  0.00  0.00    -0.060 I 
ATOM     10  F2  UNL d   1      -0.959   0.424   0.432  0.00  0.00    -0.096 F 
ATOM     11  F3  UNL d   1      -3.473   1.013  -0.386  0.00  0.00    -0.097 F 
ATOM     12  F4  UNL d   1      -5.559   0.883   1.367  0.00  0.00    -0.092 F 
ENDROOT
TORSDOF 0
ENDMDL
