MODEL 1
REMARK minimizedAffinity 16.1409111
REMARK minimizedRMSD -1
REMARK  0 active torsions:
REMARK  status: ('A' for Active; 'I' for Inactive)
ROOT
ATOM      1  C   UNL d   1      -2.015  -2.250  -5.994  0.00  0.00     0.124 A 
ATOM      2  C1  UNL d   1      -3.356  -1.890  -5.994  0.00  0.00     0.062 A 
ATOM      3  C2  UNL d   1      -4.344  -2.870  -5.995  0.00  0.00     0.162 A 
ATOM      4  C3  UNL d   1      -3.995  -4.220  -5.995  0.00  0.00    -0.034 A 
ATOM      5  C4  UNL d   1      -2.645  -4.575  -5.996  0.00  0.00     0.162 A 
ATOM      6  C5  UNL d   1      -1.661  -3.591  -5.995  0.00  0.00     0.062 A 
ATOM      7  F   UNL d   1      -0.366  -3.941  -5.996  0.00  0.00    -0.097 F 
ATOM      8  F1  UNL d   1      -2.275  -5.864  -5.996  0.00  0.00    -0.096 F 
ATOM      9  I   UNL d   1      -5.470  -5.689  -5.996  0.00  0.00    -0.060 I 
ATOM     10  F2  UNL d   1      -5.631  -2.493  -5.994  0.00  0.00    -0.096 F 
ATOM     11  F3  UNL d   1      -3.700  -0.594  -5.994  0.00  0.00    -0.097 F 
ATOM     12  F4  UNL d   1      -1.066  -1.304  -5.995  0.00  0.00    -0.092 F 
ENDROOT
TORSDOF 0
ENDMDL
