MODEL 1
REMARK minimizedAffinity 7.67152929
REMARK minimizedRMSD -1
REMARK  0 active torsions:
REMARK  status: ('A' for Active; 'I' for Inactive)
ROOT
ATOM      1  C   UNL d   1      -1.282  -1.719  -5.948  0.00  0.00     0.124 A 
ATOM      2  C1  UNL d   1      -1.638  -3.060  -5.973  0.00  0.00     0.062 A 
ATOM      3  C2  UNL d   1      -2.981  -3.428  -5.970  0.00  0.00     0.162 A 
ATOM      4  C3  UNL d   1      -3.978  -2.453  -5.943  0.00  0.00    -0.034 A 
ATOM      5  C4  UNL d   1      -3.612  -1.106  -5.918  0.00  0.00     0.162 A 
ATOM      6  C5  UNL d   1      -2.269  -0.743  -5.921  0.00  0.00     0.062 A 
ATOM      7  F   UNL d   1      -1.927   0.553  -5.897  0.00  0.00    -0.097 F 
ATOM      8  F1  UNL d   1      -4.545  -0.143  -5.892  0.00  0.00    -0.096 F 
ATOM      9  I   UNL d   1      -5.986  -3.000  -5.939  0.00  0.00    -0.060 I 
ATOM     10  F2  UNL d   1      -3.296  -4.732  -5.994  0.00  0.00    -0.096 F 
ATOM     11  F3  UNL d   1      -0.687  -4.004  -5.998  0.00  0.00    -0.097 F 
ATOM     12  F4  UNL d   1       0.010  -1.367  -5.950  0.00  0.00    -0.092 F 
ENDROOT
TORSDOF 0
ENDMDL
