MODEL 1
REMARK minimizedAffinity 6.04808855
REMARK minimizedRMSD -1
REMARK  0 active torsions:
REMARK  status: ('A' for Active; 'I' for Inactive)
ROOT
ATOM      1  C   UNL d   1      -4.149  -3.633  -5.989  0.00  0.00     0.124 A 
ATOM      2  C1  UNL d   1      -4.448  -2.277  -5.987  0.00  0.00     0.062 A 
ATOM      3  C2  UNL d   1      -3.424  -1.335  -5.987  0.00  0.00     0.162 A 
ATOM      4  C3  UNL d   1      -2.091  -1.744  -5.992  0.00  0.00    -0.034 A 
ATOM      5  C4  UNL d   1      -1.798  -3.109  -5.993  0.00  0.00     0.162 A 
ATOM      6  C5  UNL d   1      -2.825  -4.047  -5.992  0.00  0.00     0.062 A 
ATOM      7  F   UNL d   1      -2.534  -5.356  -5.995  0.00  0.00    -0.097 F 
ATOM      8  F1  UNL d   1      -0.527  -3.537  -5.997  0.00  0.00    -0.096 F 
ATOM      9  I   UNL d   1      -0.556  -0.338  -5.993  0.00  0.00    -0.060 I 
ATOM     10  F2  UNL d   1      -3.742  -0.032  -5.985  0.00  0.00    -0.096 F 
ATOM     11  F3  UNL d   1      -5.727  -1.874  -5.983  0.00  0.00    -0.097 F 
ATOM     12  F4  UNL d   1      -5.136  -4.538  -5.988  0.00  0.00    -0.092 F 
ENDROOT
TORSDOF 0
ENDMDL
