MODEL 1
REMARK minimizedAffinity 13.0361986
REMARK minimizedRMSD -1
REMARK  0 active torsions:
REMARK  status: ('A' for Active; 'I' for Inactive)
ROOT
ATOM      1  C   UNL d   1      -3.674  -3.580  -5.998  0.00  0.00     0.124 A 
ATOM      2  C1  UNL d   1      -2.287  -3.525  -5.997  0.00  0.00     0.062 A 
ATOM      3  C2  UNL d   1      -1.635  -2.295  -5.996  0.00  0.00     0.162 A 
ATOM      4  C3  UNL d   1      -2.370  -1.110  -5.995  0.00  0.00    -0.034 A 
ATOM      5  C4  UNL d   1      -3.765  -1.173  -5.997  0.00  0.00     0.162 A 
ATOM      6  C5  UNL d   1      -4.411  -2.405  -5.998  0.00  0.00     0.062 A 
ATOM      7  F   UNL d   1      -5.751  -2.456  -5.998  0.00  0.00    -0.097 F 
ATOM      8  F1  UNL d   1      -4.502  -0.052  -5.996  0.00  0.00    -0.096 F 
ATOM      9  I   UNL d   1      -1.399   0.731  -5.994  0.00  0.00    -0.060 I 
ATOM     10  F2  UNL d   1      -0.294  -2.272  -5.996  0.00  0.00    -0.096 F 
ATOM     11  F3  UNL d   1      -1.573  -4.660  -5.998  0.00  0.00    -0.097 F 
ATOM     12  F4  UNL d   1      -4.298  -4.765  -6.000  0.00  0.00    -0.092 F 
ENDROOT
TORSDOF 0
ENDMDL
