MODEL 1
REMARK minimizedAffinity 14.734911
REMARK minimizedRMSD -1
REMARK  0 active torsions:
REMARK  status: ('A' for Active; 'I' for Inactive)
ROOT
ATOM      1  C   UNL d   1       0.652  -4.953   2.696  0.00  0.00     0.124 A 
ATOM      2  C1  UNL d   1       1.301  -5.334   3.863  0.00  0.00     0.062 A 
ATOM      3  C2  UNL d   1       2.660  -5.634   3.842  0.00  0.00     0.162 A 
ATOM      4  C3  UNL d   1       3.380  -5.553   2.650  0.00  0.00    -0.034 A 
ATOM      5  C4  UNL d   1       2.720  -5.170   1.481  0.00  0.00     0.162 A 
ATOM      6  C5  UNL d   1       1.362  -4.872   1.507  0.00  0.00     0.062 A 
ATOM      7  F   UNL d   1       0.736  -4.504   0.379  0.00  0.00    -0.097 F 
ATOM      8  F1  UNL d   1       3.382  -5.082   0.317  0.00  0.00    -0.096 F 
ATOM      9  I   UNL d   1       5.412  -6.000   2.614  0.00  0.00    -0.060 I 
ATOM     10  F2  UNL d   1       3.261  -5.999   4.984  0.00  0.00    -0.096 F 
ATOM     11  F3  UNL d   1       0.617  -5.415   5.013  0.00  0.00    -0.097 F 
ATOM     12  F4  UNL d   1      -0.656  -4.667   2.719  0.00  0.00    -0.092 F 
ENDROOT
TORSDOF 0
ENDMDL
