MODEL 1
REMARK minimizedAffinity 4.33934736
REMARK minimizedRMSD -1
REMARK  0 active torsions:
REMARK  status: ('A' for Active; 'I' for Inactive)
ROOT
ATOM      1  C   UNL d   1      -3.004   1.036   1.403  0.00  0.00     0.124 A 
ATOM      2  C1  UNL d   1      -2.049   0.646   2.331  0.00  0.00     0.062 A 
ATOM      3  C2  UNL d   1      -2.421   0.372   3.644  0.00  0.00     0.162 A 
ATOM      4  C3  UNL d   1      -3.754   0.486   4.037  0.00  0.00    -0.034 A 
ATOM      5  C4  UNL d   1      -4.709   0.880   3.098  0.00  0.00     0.162 A 
ATOM      6  C5  UNL d   1      -4.333   1.153   1.787  0.00  0.00     0.062 A 
ATOM      7  F   UNL d   1      -5.257   1.530   0.891  0.00  0.00    -0.097 F 
ATOM      8  F1  UNL d   1      -6.000   1.000   3.441  0.00  0.00    -0.096 F 
ATOM      9  I   UNL d   1      -4.314   0.077   6.000  0.00  0.00    -0.060 I 
ATOM     10  F2  UNL d   1      -1.477  -0.003   4.521  0.00  0.00    -0.096 F 
ATOM     11  F3  UNL d   1      -0.765   0.534   1.963  0.00  0.00    -0.097 F 
ATOM     12  F4  UNL d   1      -2.644   1.300   0.140  0.00  0.00    -0.092 F 
ENDROOT
TORSDOF 0
ENDMDL
