MODEL 1
REMARK minimizedAffinity 14.2261381
REMARK minimizedRMSD -1
REMARK  0 active torsions:
REMARK  status: ('A' for Active; 'I' for Inactive)
ROOT
ATOM      1  C   UNL d   1       2.056   0.002  -3.831  0.00  0.00     0.124 A 
ATOM      2  C1  UNL d   1       2.966   0.112  -4.874  0.00  0.00     0.062 A 
ATOM      3  C2  UNL d   1       3.774   1.239  -4.981  0.00  0.00     0.162 A 
ATOM      4  C3  UNL d   1       3.678   2.266  -4.042  0.00  0.00    -0.034 A 
ATOM      5  C4  UNL d   1       2.761   2.149  -2.997  0.00  0.00     0.162 A 
ATOM      6  C5  UNL d   1       1.954   1.020  -2.894  0.00  0.00     0.062 A 
ATOM      7  F   UNL d   1       1.076   0.916  -1.886  0.00  0.00    -0.097 F 
ATOM      8  F1  UNL d   1       2.642   3.118  -2.077  0.00  0.00    -0.096 F 
ATOM      9  I   UNL d   1       4.886   3.954  -4.200  0.00  0.00    -0.060 I 
ATOM     10  F2  UNL d   1       4.644   1.319  -5.999  0.00  0.00    -0.096 F 
ATOM     11  F3  UNL d   1       3.065  -0.871  -5.781  0.00  0.00    -0.097 F 
ATOM     12  F4  UNL d   1       1.278  -1.084  -3.730  0.00  0.00    -0.092 F 
ENDROOT
TORSDOF 0
ENDMDL
