MODEL 1
REMARK minimizedAffinity 6.28597689
REMARK minimizedRMSD -1
REMARK  0 active torsions:
REMARK  status: ('A' for Active; 'I' for Inactive)
ROOT
ATOM      1  C   UNL d   1       1.651   0.676  -1.387  0.00  0.00     0.124 A 
ATOM      2  C1  UNL d   1       1.236  -0.414  -2.139  0.00  0.00     0.062 A 
ATOM      3  C2  UNL d   1       1.694  -0.580  -3.443  0.00  0.00     0.162 A 
ATOM      4  C3  UNL d   1       2.572   0.347  -4.004  0.00  0.00    -0.034 A 
ATOM      5  C4  UNL d   1       2.984   1.442  -3.242  0.00  0.00     0.162 A 
ATOM      6  C5  UNL d   1       2.524   1.603  -1.939  0.00  0.00     0.062 A 
ATOM      7  F   UNL d   1       2.926   2.657  -1.214  0.00  0.00    -0.097 F 
ATOM      8  F1  UNL d   1       3.828   2.352  -3.750  0.00  0.00    -0.096 F 
ATOM      9  I   UNL d   1       3.258   0.103  -5.953  0.00  0.00    -0.060 I 
ATOM     10  F2  UNL d   1       1.276  -1.643  -4.146  0.00  0.00    -0.096 F 
ATOM     11  F3  UNL d   1       0.392  -1.310  -1.608  0.00  0.00    -0.097 F 
ATOM     12  F4  UNL d   1       1.209   0.834  -0.133  0.00  0.00    -0.092 F 
ENDROOT
TORSDOF 0
ENDMDL
