MODEL 1
REMARK minimizedAffinity 23.2169743
REMARK minimizedRMSD -1
REMARK  0 active torsions:
REMARK  status: ('A' for Active; 'I' for Inactive)
ROOT
ATOM      1  C   UNL d   1      -0.568  -0.105   2.052  0.00  0.00     0.124 A 
ATOM      2  C1  UNL d   1      -0.509  -0.934   0.941  0.00  0.00     0.062 A 
ATOM      3  C2  UNL d   1       0.372  -0.652  -0.098  0.00  0.00     0.162 A 
ATOM      4  C3  UNL d   1       1.203   0.467  -0.031  0.00  0.00    -0.034 A 
ATOM      5  C4  UNL d   1       1.138   1.297   1.089  0.00  0.00     0.162 A 
ATOM      6  C5  UNL d   1       0.256   1.010   2.125  0.00  0.00     0.062 A 
ATOM      7  F   UNL d   1       0.201   1.813   3.198  0.00  0.00    -0.097 F 
ATOM      8  F1  UNL d   1       1.923   2.380   1.186  0.00  0.00    -0.096 F 
ATOM      9  I   UNL d   1       2.523   0.893  -1.583  0.00  0.00    -0.060 I 
ATOM     10  F2  UNL d   1       0.407  -1.471  -1.160  0.00  0.00    -0.096 F 
ATOM     11  F3  UNL d   1      -1.305  -2.011   0.868  0.00  0.00    -0.097 F 
ATOM     12  F4  UNL d   1      -1.418  -0.379   3.050  0.00  0.00    -0.092 F 
ENDROOT
TORSDOF 0
ENDMDL
