MODEL 1
REMARK minimizedAffinity 19.7083492
REMARK minimizedRMSD -1
REMARK  0 active torsions:
REMARK  status: ('A' for Active; 'I' for Inactive)
ROOT
ATOM      1  C   UNL d   1      -2.751  -2.372  -5.960  0.00  0.00     0.124 A 
ATOM      2  C1  UNL d   1      -1.401  -2.695  -5.966  0.00  0.00     0.062 A 
ATOM      3  C2  UNL d   1      -0.441  -1.687  -5.976  0.00  0.00     0.162 A 
ATOM      4  C3  UNL d   1      -0.826  -0.347  -5.979  0.00  0.00    -0.034 A 
ATOM      5  C4  UNL d   1      -2.186  -0.030  -5.974  0.00  0.00     0.162 A 
ATOM      6  C5  UNL d   1      -3.142  -1.040  -5.964  0.00  0.00     0.062 A 
ATOM      7  F   UNL d   1      -4.446  -0.726  -5.959  0.00  0.00    -0.097 F 
ATOM      8  F1  UNL d   1      -2.591   1.249  -5.977  0.00  0.00    -0.096 F 
ATOM      9  I   UNL d   1       0.607   1.162  -5.993  0.00  0.00    -0.060 I 
ATOM     10  F2  UNL d   1       0.857  -2.029  -5.981  0.00  0.00    -0.096 F 
ATOM     11  F3  UNL d   1      -1.021  -3.980  -5.963  0.00  0.00    -0.097 F 
ATOM     12  F4  UNL d   1      -3.673  -3.343  -5.952  0.00  0.00    -0.092 F 
ENDROOT
TORSDOF 0
ENDMDL
