MODEL 1
REMARK minimizedAffinity 6.68961239
REMARK minimizedRMSD -1
REMARK  1 active torsions:
REMARK  status: ('A' for Active; 'I' for Inactive)
REMARK    1  A    between atoms: C1_2  and  C2_3 
ROOT
ATOM      1  C2  UNL d   1       3.293  -1.671   4.291  0.00  0.00    -0.076 A 
ATOM      2  C3  UNL d   1       3.825  -0.610   3.539  0.00  0.00     0.004 A 
ATOM      3  C4  UNL d   1       3.098  -0.029   2.502  0.00  0.00    -0.003 A 
ATOM      4  C5  UNL d   1       1.825  -0.500   2.200  0.00  0.00     0.000 A 
ATOM      5  C6  UNL d   1       1.273  -1.540   2.946  0.00  0.00     0.000 A 
ATOM      6  C7  UNL d   1       1.987  -2.126   4.006  0.00  0.00    -0.073 A 
ATOM      7  C8  UNL d   1       1.347  -3.250   4.774  0.00  0.00     0.078 C 
ENDROOT
BRANCH   1   8
ATOM      8  C1  UNL d   1       4.139  -2.280   5.386  0.00  0.00     0.053 C 
ATOM      9  C   UNL d   1       5.568  -2.545   4.938  0.00  0.00     0.018 C 
ENDBRANCH   1   8
TORSDOF 1
ENDMDL
