MODEL 1
REMARK minimizedAffinity 13.6350231
REMARK minimizedRMSD -1
REMARK  1 active torsions:
REMARK  status: ('A' for Active; 'I' for Inactive)
REMARK    1  A    between atoms: C1_2  and  C2_3 
ROOT
ATOM      1  C2  UNL d   1      -4.644   2.924  -0.337  0.00  0.00    -0.076 A 
ATOM      2  C3  UNL d   1      -5.616   3.893  -0.034  0.00  0.00     0.004 A 
ATOM      3  C4  UNL d   1      -5.604   4.564   1.187  0.00  0.00    -0.003 A 
ATOM      4  C5  UNL d   1      -4.619   4.278   2.126  0.00  0.00     0.000 A 
ATOM      5  C6  UNL d   1      -3.637   3.332   1.836  0.00  0.00     0.000 A 
ATOM      6  C7  UNL d   1      -3.625   2.658   0.602  0.00  0.00    -0.073 A 
ATOM      7  C8  UNL d   1      -2.545   1.643   0.345  0.00  0.00     0.078 C 
ENDROOT
BRANCH   1   8
ATOM      8  C1  UNL d   1      -4.724   2.209  -1.667  0.00  0.00     0.053 C 
ATOM      9  C   UNL d   1      -5.997   2.538  -2.430  0.00  0.00     0.018 C 
ENDBRANCH   1   8
TORSDOF 1
ENDMDL
