MODEL 1
REMARK minimizedAffinity 7.34757948
REMARK minimizedRMSD -1
REMARK  1 active torsions:
REMARK  status: ('A' for Active; 'I' for Inactive)
REMARK    1  A    between atoms: C1_2  and  C2_3 
ROOT
ATOM      1  C2  UNL d   1       3.756  -2.251   4.846  0.00  0.00    -0.076 A 
ATOM      2  C3  UNL d   1       2.355  -2.240   4.963  0.00  0.00     0.004 A 
ATOM      3  C4  UNL d   1       1.554  -1.734   3.941  0.00  0.00    -0.003 A 
ATOM      4  C5  UNL d   1       2.140  -1.232   2.785  0.00  0.00     0.000 A 
ATOM      5  C6  UNL d   1       3.527  -1.252   2.644  0.00  0.00     0.000 A 
ATOM      6  C7  UNL d   1       4.349  -1.773   3.658  0.00  0.00    -0.073 A 
ATOM      7  C8  UNL d   1       5.839  -1.764   3.455  0.00  0.00     0.078 C 
ENDROOT
BRANCH   1   8
ATOM      8  C1  UNL d   1       4.575  -2.787   5.998  0.00  0.00     0.053 C 
ATOM      9  C   UNL d   1       6.000  -2.254   5.998  0.00  0.00     0.018 C 
ENDBRANCH   1   8
TORSDOF 1
ENDMDL
