MODEL 1
REMARK minimizedAffinity 2.33457065
REMARK minimizedRMSD -1
REMARK  1 active torsions:
REMARK  status: ('A' for Active; 'I' for Inactive)
REMARK    1  A    between atoms: C1_2  and  C2_3 
ROOT
ATOM      1  C2  UNL d   1       1.910   1.587   1.090  0.00  0.00    -0.076 A 
ATOM      2  C3  UNL d   1       0.676   2.256   1.170  0.00  0.00     0.004 A 
ATOM      3  C4  UNL d   1       0.443   3.419   0.439  0.00  0.00    -0.003 A 
ATOM      4  C5  UNL d   1       1.440   3.933  -0.383  0.00  0.00     0.000 A 
ATOM      5  C6  UNL d   1       2.664   3.273  -0.487  0.00  0.00     0.000 A 
ATOM      6  C7  UNL d   1       2.909   2.090   0.230  0.00  0.00    -0.073 A 
ATOM      7  C8  UNL d   1       4.250   1.423   0.085  0.00  0.00     0.078 C 
ENDROOT
BRANCH   1   8
ATOM      8  C1  UNL d   1       2.115   0.344   1.927  0.00  0.00     0.053 C 
ATOM      9  C   UNL d   1       1.045  -0.708   1.680  0.00  0.00     0.018 C 
ENDBRANCH   1   8
TORSDOF 1
ENDMDL
