MODEL 1
REMARK minimizedAffinity 0.803978443
REMARK minimizedRMSD -1
REMARK  1 active torsions:
REMARK  status: ('A' for Active; 'I' for Inactive)
REMARK    1  A    between atoms: C1_2  and  C2_3 
ROOT
ATOM      1  C2  UNL d   1       3.739  -2.555   4.934  0.00  0.00    -0.076 A 
ATOM      2  C3  UNL d   1       2.336  -2.620   4.989  0.00  0.00     0.004 A 
ATOM      3  C4  UNL d   1       1.548  -1.912   4.083  0.00  0.00    -0.003 A 
ATOM      4  C5  UNL d   1       2.151  -1.127   3.106  0.00  0.00     0.000 A 
ATOM      5  C6  UNL d   1       3.541  -1.064   3.026  0.00  0.00     0.000 A 
ATOM      6  C7  UNL d   1       4.350  -1.785   3.921  0.00  0.00    -0.073 A 
ATOM      7  C8  UNL d   1       5.845  -1.675   3.792  0.00  0.00     0.078 C 
ENDROOT
BRANCH   1   8
ATOM      8  C1  UNL d   1       4.541  -3.322   5.960  0.00  0.00     0.053 C 
ATOM      9  C   UNL d   1       5.999  -2.894   5.999  0.00  0.00     0.018 C 
ENDBRANCH   1   8
TORSDOF 1
ENDMDL
