MODEL 1
REMARK minimizedAffinity 15.3958511
REMARK minimizedRMSD -1
REMARK  1 active torsions:
REMARK  status: ('A' for Active; 'I' for Inactive)
REMARK    1  A    between atoms: C1_2  and  C2_3 
ROOT
ATOM      1  C2  UNL d   1       4.727  -1.732   3.336  0.00  0.00    -0.076 A 
ATOM      2  C3  UNL d   1       3.501  -1.946   3.989  0.00  0.00     0.004 A 
ATOM      3  C4  UNL d   1       2.300  -1.531   3.416  0.00  0.00    -0.003 A 
ATOM      4  C5  UNL d   1       2.305  -0.896   2.179  0.00  0.00     0.000 A 
ATOM      5  C6  UNL d   1       3.511  -0.691   1.508  0.00  0.00     0.000 A 
ATOM      6  C7  UNL d   1       4.729  -1.118   2.065  0.00  0.00    -0.073 A 
ATOM      7  C8  UNL d   1       5.999  -0.865   1.301  0.00  0.00     0.078 C 
ENDROOT
BRANCH   1   8
ATOM      8  C1  UNL d   1       5.999  -2.179   4.019  0.00  0.00     0.053 C 
ATOM      9  C   UNL d   1       5.999  -1.875   5.509  0.00  0.00     0.018 C 
ENDBRANCH   1   8
TORSDOF 1
ENDMDL
