MODEL 1
REMARK minimizedAffinity 14.3748274
REMARK minimizedRMSD -1
REMARK  0 active torsions:
REMARK  status: ('A' for Active; 'I' for Inactive)
ROOT
ATOM      1  C   UNL d   1       5.939   1.142   2.382  0.00  0.00     0.124 A 
ATOM      2  C1  UNL d   1       5.903   1.514   3.718  0.00  0.00     0.062 A 
ATOM      3  C2  UNL d   1       5.892   0.543   4.715  0.00  0.00     0.162 A 
ATOM      4  C3  UNL d   1       5.918  -0.811   4.379  0.00  0.00    -0.034 A 
ATOM      5  C4  UNL d   1       5.952  -1.177   3.033  0.00  0.00     0.162 A 
ATOM      6  C5  UNL d   1       5.963  -0.203   2.040  0.00  0.00     0.062 A 
ATOM      7  F   UNL d   1       5.997  -0.564   0.749  0.00  0.00    -0.097 F 
ATOM      8  F1  UNL d   1       5.977  -2.470   2.675  0.00  0.00    -0.096 F 
ATOM      9  I   UNL d   1       5.901  -2.266   5.867  0.00  0.00    -0.060 I 
ATOM     10  F2  UNL d   1       5.858   0.931   5.999  0.00  0.00    -0.096 F 
ATOM     11  F3  UNL d   1       5.879   2.813   4.051  0.00  0.00    -0.097 F 
ATOM     12  F4  UNL d   1       5.948   2.079   1.424  0.00  0.00    -0.092 F 
ENDROOT
TORSDOF 0
ENDMDL
