MODEL 1
REMARK minimizedAffinity 4.62428713
REMARK minimizedRMSD -1
REMARK  0 active torsions:
REMARK  status: ('A' for Active; 'I' for Inactive)
ROOT
ATOM      1  C   UNL d   1       5.835   4.577   2.834  0.00  0.00     0.124 A 
ATOM      2  C1  UNL d   1       5.895   4.334   4.199  0.00  0.00     0.062 A 
ATOM      3  C2  UNL d   1       5.941   3.027   4.676  0.00  0.00     0.162 A 
ATOM      4  C3  UNL d   1       5.930   1.953   3.786  0.00  0.00    -0.034 A 
ATOM      5  C4  UNL d   1       5.869   2.205   2.415  0.00  0.00     0.162 A 
ATOM      6  C5  UNL d   1       5.823   3.513   1.943  0.00  0.00     0.062 A 
ATOM      7  F   UNL d   1       5.765   3.746   0.624  0.00  0.00    -0.097 F 
ATOM      8  F1  UNL d   1       5.857   1.196   1.532  0.00  0.00    -0.096 F 
ATOM      9  I   UNL d   1       6.000  -0.003   4.495  0.00  0.00    -0.060 I 
ATOM     10  F2  UNL d   1       5.998   2.822   6.000  0.00  0.00    -0.096 F 
ATOM     11  F3  UNL d   1       5.906   5.361   5.061  0.00  0.00    -0.097 F 
ATOM     12  F4  UNL d   1       5.789   5.836   2.378  0.00  0.00    -0.092 F 
ENDROOT
TORSDOF 0
ENDMDL
