MODEL 1
REMARK minimizedAffinity 9.6081562
REMARK minimizedRMSD -1
REMARK  0 active torsions:
REMARK  status: ('A' for Active; 'I' for Inactive)
ROOT
ATOM      1  C   UNL d   1       5.939  -0.562   3.586  0.00  0.00     0.124 A 
ATOM      2  C1  UNL d   1       5.961   0.149   2.394  0.00  0.00     0.062 A 
ATOM      3  C2  UNL d   1       5.977   1.541   2.410  0.00  0.00     0.162 A 
ATOM      4  C3  UNL d   1       5.972   2.231   3.622  0.00  0.00    -0.034 A 
ATOM      5  C4  UNL d   1       5.948   1.508   4.816  0.00  0.00     0.162 A 
ATOM      6  C5  UNL d   1       5.932   0.118   4.795  0.00  0.00     0.062 A 
ATOM      7  F   UNL d   1       5.911  -0.568   5.947  0.00  0.00    -0.097 F 
ATOM      8  F1  UNL d   1       5.942   2.140   6.000  0.00  0.00    -0.096 F 
ATOM      9  I   UNL d   1       5.996   4.312   3.650  0.00  0.00    -0.060 I 
ATOM     10  F2  UNL d   1       5.998   2.202   1.243  0.00  0.00    -0.096 F 
ATOM     11  F3  UNL d   1       5.966  -0.506   1.224  0.00  0.00    -0.097 F 
ATOM     12  F4  UNL d   1       5.922  -1.901   3.567  0.00  0.00    -0.092 F 
ENDROOT
TORSDOF 0
ENDMDL
