MODEL 1
REMARK minimizedAffinity 7.32823944
REMARK minimizedRMSD -1
REMARK  0 active torsions:
REMARK  status: ('A' for Active; 'I' for Inactive)
ROOT
ATOM      1  C   UNL d   1       5.925   3.805   2.198  0.00  0.00     0.124 A 
ATOM      2  C1  UNL d   1       5.947   2.433   1.989  0.00  0.00     0.062 A 
ATOM      3  C2  UNL d   1       5.968   1.560   3.073  0.00  0.00     0.162 A 
ATOM      4  C3  UNL d   1       5.966   2.057   4.376  0.00  0.00    -0.034 A 
ATOM      5  C4  UNL d   1       5.944   3.438   4.578  0.00  0.00     0.162 A 
ATOM      6  C5  UNL d   1       5.923   4.306   3.492  0.00  0.00     0.062 A 
ATOM      7  F   UNL d   1       5.902   5.631   3.696  0.00  0.00    -0.097 F 
ATOM      8  F1  UNL d   1       5.942   3.949   5.818  0.00  0.00    -0.096 F 
ATOM      9  I   UNL d   1       5.998   0.755   6.000  0.00  0.00    -0.060 I 
ATOM     10  F2  UNL d   1       5.990   0.239   2.841  0.00  0.00    -0.096 F 
ATOM     11  F3  UNL d   1       5.950   1.947   0.739  0.00  0.00    -0.097 F 
ATOM     12  F4  UNL d   1       5.906   4.643   1.153  0.00  0.00    -0.092 F 
ENDROOT
TORSDOF 0
ENDMDL
