MODEL 1
REMARK minimizedAffinity 6.43176842
REMARK minimizedRMSD -1
REMARK  0 active torsions:
REMARK  status: ('A' for Active; 'I' for Inactive)
ROOT
ATOM      1  C   UNL d   1       4.511   3.170   2.651  0.00  0.00     0.124 A 
ATOM      2  C1  UNL d   1       4.346   1.814   2.405  0.00  0.00     0.062 A 
ATOM      3  C2  UNL d   1       4.739   0.878   3.357  0.00  0.00     0.162 A 
ATOM      4  C3  UNL d   1       5.300   1.294   4.564  0.00  0.00    -0.034 A 
ATOM      5  C4  UNL d   1       5.463   2.659   4.804  0.00  0.00     0.162 A 
ATOM      6  C5  UNL d   1       5.069   3.591   3.850  0.00  0.00     0.062 A 
ATOM      7  F   UNL d   1       5.229   4.901   4.089  0.00  0.00    -0.097 F 
ATOM      8  F1  UNL d   1       5.999   3.094   5.954  0.00  0.00    -0.096 F 
ATOM      9  I   UNL d   1       5.889  -0.104   5.990  0.00  0.00    -0.060 I 
ATOM     10  F2  UNL d   1       4.568  -0.426   3.093  0.00  0.00    -0.096 F 
ATOM     11  F3  UNL d   1       3.808   1.405   1.247  0.00  0.00    -0.097 F 
ATOM     12  F4  UNL d   1       4.133   4.069   1.733  0.00  0.00    -0.092 F 
ENDROOT
TORSDOF 0
ENDMDL
