MODEL 1
REMARK minimizedAffinity 7.74122334
REMARK minimizedRMSD -1
REMARK  0 active torsions:
REMARK  status: ('A' for Active; 'I' for Inactive)
ROOT
ATOM      1  C   UNL d   1       5.998   4.217   3.097  0.00  0.00     0.124 A 
ATOM      2  C1  UNL d   1       5.997   3.283   2.070  0.00  0.00     0.062 A 
ATOM      3  C2  UNL d   1       5.998   1.922   2.362  0.00  0.00     0.162 A 
ATOM      4  C3  UNL d   1       5.998   1.486   3.688  0.00  0.00    -0.034 A 
ATOM      5  C4  UNL d   1       6.000   2.432   4.715  0.00  0.00     0.162 A 
ATOM      6  C5  UNL d   1       5.999   3.791   4.418  0.00  0.00     0.062 A 
ATOM      7  F   UNL d   1       6.000   4.692   5.411  0.00  0.00    -0.097 F 
ATOM      8  F1  UNL d   1       6.000   2.048   6.000  0.00  0.00    -0.096 F 
ATOM      9  I   UNL d   1       5.999  -0.548   4.128  0.00  0.00    -0.060 I 
ATOM     10  F2  UNL d   1       5.997   1.041   1.350  0.00  0.00    -0.096 F 
ATOM     11  F3  UNL d   1       5.997   3.692   0.794  0.00  0.00    -0.097 F 
ATOM     12  F4  UNL d   1       5.998   5.526   2.813  0.00  0.00    -0.092 F 
ENDROOT
TORSDOF 0
ENDMDL
