MODEL 1
REMARK minimizedAffinity 7.68962097
REMARK minimizedRMSD -1
REMARK  0 active torsions:
REMARK  status: ('A' for Active; 'I' for Inactive)
ROOT
ATOM      1  C   UNL d   1       4.284  -0.613   3.184  0.00  0.00     0.124 A 
ATOM      2  C1  UNL d   1       4.910  -0.465   4.414  0.00  0.00     0.062 A 
ATOM      3  C2  UNL d   1       5.400   0.778   4.806  0.00  0.00     0.162 A 
ATOM      4  C3  UNL d   1       5.265   1.884   3.966  0.00  0.00    -0.034 A 
ATOM      5  C4  UNL d   1       4.635   1.727   2.730  0.00  0.00     0.162 A 
ATOM      6  C5  UNL d   1       4.148   0.483   2.343  0.00  0.00     0.062 A 
ATOM      7  F   UNL d   1       3.544   0.342   1.154  0.00  0.00    -0.097 F 
ATOM      8  F1  UNL d   1       4.489   2.769   1.898  0.00  0.00    -0.096 F 
ATOM      9  I   UNL d   1       5.996   3.744   4.547  0.00  0.00    -0.060 I 
ATOM     10  F2  UNL d   1       6.000   0.892   6.000  0.00  0.00    -0.096 F 
ATOM     11  F3  UNL d   1       5.044  -1.522   5.228  0.00  0.00    -0.097 F 
ATOM     12  F4  UNL d   1       3.815  -1.810   2.810  0.00  0.00    -0.092 F 
ENDROOT
TORSDOF 0
ENDMDL
