MODEL 1
REMARK minimizedAffinity 5.3221755
REMARK minimizedRMSD -1
REMARK  0 active torsions:
REMARK  status: ('A' for Active; 'I' for Inactive)
ROOT
ATOM      1  C   UNL d   1       5.979   3.625   2.403  0.00  0.00     0.124 A 
ATOM      2  C1  UNL d   1       5.971   2.305   1.975  0.00  0.00     0.062 A 
ATOM      3  C2  UNL d   1       5.959   1.268   2.903  0.00  0.00     0.162 A 
ATOM      4  C3  UNL d   1       5.954   1.547   4.270  0.00  0.00    -0.034 A 
ATOM      5  C4  UNL d   1       5.963   2.877   4.693  0.00  0.00     0.162 A 
ATOM      6  C5  UNL d   1       5.975   3.910   3.762  0.00  0.00     0.062 A 
ATOM      7  F   UNL d   1       5.983   5.185   4.177  0.00  0.00    -0.097 F 
ATOM      8  F1  UNL d   1       5.959   3.181   6.000  0.00  0.00    -0.096 F 
ATOM      9  I   UNL d   1       5.937  -0.001   5.661  0.00  0.00    -0.060 I 
ATOM     10  F2  UNL d   1       5.952   0.002   2.461  0.00  0.00    -0.096 F 
ATOM     11  F3  UNL d   1       5.975   2.027   0.663  0.00  0.00    -0.097 F 
ATOM     12  F4  UNL d   1       5.991   4.621   1.508  0.00  0.00    -0.092 F 
ENDROOT
TORSDOF 0
ENDMDL
