MODEL 1
REMARK minimizedAffinity 8.32365036
REMARK minimizedRMSD -1
REMARK  0 active torsions:
REMARK  status: ('A' for Active; 'I' for Inactive)
ROOT
ATOM      1  C   UNL d   1       5.959  -0.998   3.609  0.00  0.00     0.124 A 
ATOM      2  C1  UNL d   1       5.942  -0.296   2.411  0.00  0.00     0.062 A 
ATOM      3  C2  UNL d   1       5.936   1.096   2.415  0.00  0.00     0.162 A 
ATOM      4  C3  UNL d   1       5.948   1.796   3.622  0.00  0.00    -0.034 A 
ATOM      5  C4  UNL d   1       5.964   1.083   4.822  0.00  0.00     0.162 A 
ATOM      6  C5  UNL d   1       5.970  -0.308   4.813  0.00  0.00     0.062 A 
ATOM      7  F   UNL d   1       5.987  -0.984   5.971  0.00  0.00    -0.097 F 
ATOM      8  F1  UNL d   1       5.976   1.725   6.000  0.00  0.00    -0.096 F 
ATOM      9  I   UNL d   1       5.939   3.877   3.632  0.00  0.00    -0.060 I 
ATOM     10  F2  UNL d   1       5.919   1.748   1.243  0.00  0.00    -0.096 F 
ATOM     11  F3  UNL d   1       5.930  -0.961   1.247  0.00  0.00    -0.097 F 
ATOM     12  F4  UNL d   1       5.964  -2.337   3.602  0.00  0.00    -0.092 F 
ENDROOT
TORSDOF 0
ENDMDL
