MODEL 1
REMARK minimizedAffinity 0.662836313
REMARK minimizedRMSD -1
REMARK  0 active torsions:
REMARK  status: ('A' for Active; 'I' for Inactive)
ROOT
ATOM      1  C   UNL d   1       5.998   1.605   2.377  0.00  0.00     0.124 A 
ATOM      2  C1  UNL d   1       5.998   0.251   2.074  0.00  0.00     0.062 A 
ATOM      3  C2  UNL d   1       5.998  -0.695   3.095  0.00  0.00     0.162 A 
ATOM      4  C3  UNL d   1       5.997  -0.290   4.430  0.00  0.00    -0.034 A 
ATOM      5  C4  UNL d   1       5.998   1.074   4.727  0.00  0.00     0.162 A 
ATOM      6  C5  UNL d   1       5.997   2.015   3.703  0.00  0.00     0.062 A 
ATOM      7  F   UNL d   1       5.997   3.323   3.998  0.00  0.00    -0.097 F 
ATOM      8  F1  UNL d   1       5.996   1.498   6.000  0.00  0.00    -0.096 F 
ATOM      9  I   UNL d   1       5.997  -1.702   5.959  0.00  0.00    -0.060 I 
ATOM     10  F2  UNL d   1       5.999  -1.997   2.773  0.00  0.00    -0.096 F 
ATOM     11  F3  UNL d   1       5.999  -0.148   0.794  0.00  0.00    -0.097 F 
ATOM     12  F4  UNL d   1       5.999   2.513   1.393  0.00  0.00    -0.092 F 
ENDROOT
TORSDOF 0
ENDMDL
