MODEL 1
REMARK minimizedAffinity 14.6233072
REMARK minimizedRMSD -1
REMARK  0 active torsions:
REMARK  status: ('A' for Active; 'I' for Inactive)
ROOT
ATOM      1  C   UNL d   1       5.997   1.198   3.487  0.00  0.00     0.124 A 
ATOM      2  C1  UNL d   1       5.997   2.091   4.550  0.00  0.00     0.062 A 
ATOM      3  C2  UNL d   1       5.996   3.462   4.312  0.00  0.00     0.162 A 
ATOM      4  C3  UNL d   1       5.994   3.950   3.006  0.00  0.00    -0.034 A 
ATOM      5  C4  UNL d   1       5.994   3.046   1.942  0.00  0.00     0.162 A 
ATOM      6  C5  UNL d   1       5.996   1.676   2.184  0.00  0.00     0.062 A 
ATOM      7  F   UNL d   1       5.996   0.815   1.156  0.00  0.00    -0.097 F 
ATOM      8  F1  UNL d   1       5.992   3.481   0.673  0.00  0.00    -0.096 F 
ATOM      9  I   UNL d   1       5.991   6.000   2.646  0.00  0.00    -0.060 I 
ATOM     10  F2  UNL d   1       5.996   4.301   5.359  0.00  0.00    -0.096 F 
ATOM     11  F3  UNL d   1       6.000   1.631   5.809  0.00  0.00    -0.097 F 
ATOM     12  F4  UNL d   1       6.000  -0.121   3.718  0.00  0.00    -0.092 F 
ENDROOT
TORSDOF 0
ENDMDL
