MODEL 1
REMARK minimizedAffinity 5.52988625
REMARK minimizedRMSD -1
REMARK  0 active torsions:
REMARK  status: ('A' for Active; 'I' for Inactive)
ROOT
ATOM      1  C   UNL d   1       5.985  -0.306   3.559  0.00  0.00     0.124 A 
ATOM      2  C1  UNL d   1       5.991   0.362   4.775  0.00  0.00     0.062 A 
ATOM      3  C2  UNL d   1       5.994   1.754   4.810  0.00  0.00     0.162 A 
ATOM      4  C3  UNL d   1       5.990   2.487   3.623  0.00  0.00    -0.034 A 
ATOM      5  C4  UNL d   1       5.984   1.808   2.404  0.00  0.00     0.162 A 
ATOM      6  C5  UNL d   1       5.982   0.417   2.374  0.00  0.00     0.062 A 
ATOM      7  F   UNL d   1       5.976  -0.226   1.198  0.00  0.00    -0.097 F 
ATOM      8  F1  UNL d   1       5.980   2.482   1.244  0.00  0.00    -0.096 F 
ATOM      9  I   UNL d   1       5.994   4.568   3.670  0.00  0.00    -0.060 I 
ATOM     10  F2  UNL d   1       6.000   2.373   6.000  0.00  0.00    -0.096 F 
ATOM     11  F3  UNL d   1       5.995  -0.334   5.921  0.00  0.00    -0.097 F 
ATOM     12  F4  UNL d   1       5.983  -1.645   3.529  0.00  0.00    -0.092 F 
ENDROOT
TORSDOF 0
ENDMDL
