MODEL 1
REMARK minimizedAffinity 17.7744694
REMARK minimizedRMSD -1
REMARK  0 active torsions:
REMARK  status: ('A' for Active; 'I' for Inactive)
ROOT
ATOM      1  C   UNL d   1       0.866   3.105   0.965  0.00  0.00     0.124 A 
ATOM      2  C1  UNL d   1       2.083   2.452   0.831  0.00  0.00     0.062 A 
ATOM      3  C2  UNL d   1       2.177   1.299   0.058  0.00  0.00     0.162 A 
ATOM      4  C3  UNL d   1       1.050   0.791  -0.588  0.00  0.00    -0.034 A 
ATOM      5  C4  UNL d   1      -0.171   1.453  -0.448  0.00  0.00     0.162 A 
ATOM      6  C5  UNL d   1      -0.260   2.605   0.325  0.00  0.00     0.062 A 
ATOM      7  F   UNL d   1      -1.437   3.235   0.454  0.00  0.00    -0.097 F 
ATOM      8  F1  UNL d   1      -1.274   0.992  -1.056  0.00  0.00    -0.096 F 
ATOM      9  I   UNL d   1       1.187  -0.934  -1.745  0.00  0.00    -0.060 I 
ATOM     10  F2  UNL d   1       3.366   0.688  -0.054  0.00  0.00    -0.096 F 
ATOM     11  F3  UNL d   1       3.172   2.933   1.449  0.00  0.00    -0.097 F 
ATOM     12  F4  UNL d   1       0.778   4.215   1.710  0.00  0.00    -0.092 F 
ENDROOT
TORSDOF 0
ENDMDL
