MODEL 1
REMARK minimizedAffinity 15.066226
REMARK minimizedRMSD -1
REMARK  0 active torsions:
REMARK  status: ('A' for Active; 'I' for Inactive)
ROOT
ATOM      1  C   UNL d   1       5.986   1.148   3.459  0.00  0.00     0.124 A 
ATOM      2  C1  UNL d   1       5.991   1.722   2.195  0.00  0.00     0.062 A 
ATOM      3  C2  UNL d   1       5.986   3.107   2.056  0.00  0.00     0.162 A 
ATOM      4  C3  UNL d   1       5.977   3.928   3.183  0.00  0.00    -0.034 A 
ATOM      5  C4  UNL d   1       5.971   3.343   4.451  0.00  0.00     0.162 A 
ATOM      6  C5  UNL d   1       5.976   1.958   4.585  0.00  0.00     0.062 A 
ATOM      7  F   UNL d   1       5.972   1.405   5.807  0.00  0.00    -0.097 F 
ATOM      8  F1  UNL d   1       5.962   4.103   5.556  0.00  0.00    -0.096 F 
ATOM      9  I   UNL d   1       5.969   5.999   2.979  0.00  0.00    -0.060 I 
ATOM     10  F2  UNL d   1       5.991   3.634   0.822  0.00  0.00    -0.096 F 
ATOM     11  F3  UNL d   1       6.000   0.941   1.106  0.00  0.00    -0.097 F 
ATOM     12  F4  UNL d   1       5.990  -0.185   3.590  0.00  0.00    -0.092 F 
ENDROOT
TORSDOF 0
ENDMDL
