MODEL 1
REMARK minimizedAffinity -2.61343122
REMARK minimizedRMSD -1
REMARK  0 active torsions:
REMARK  status: ('A' for Active; 'I' for Inactive)
ROOT
ATOM      1  C   UNL d   1       4.253  -4.888  -5.304  0.00  0.00     0.020 A 
ATOM      2  C1  UNL d   1       5.412  -4.544  -5.999  0.00  0.00     0.020 A 
ATOM      3  C2  UNL d   1       5.932  -3.252  -5.893  0.00  0.00     0.034 A 
ATOM      4  C3  UNL d   1       5.294  -2.300  -5.089  0.00  0.00     0.017 A 
ATOM      5  C4  UNL d   1       4.131  -2.647  -4.392  0.00  0.00     0.017 A 
ATOM      6  C5  UNL d   1       3.614  -3.942  -4.503  0.00  0.00     0.034 A 
ATOM      7 Cl   UNL d   1       3.287  -1.527  -3.382  0.00  0.00    -0.070 Cl
ATOM      8 Cl1  UNL d   1       5.993  -0.723  -5.004  0.00  0.00    -0.070 Cl
ENDROOT
TORSDOF 0
ENDMDL
