MODEL 1
REMARK minimizedAffinity 0.944206476
REMARK minimizedRMSD -1
REMARK  0 active torsions:
REMARK  status: ('A' for Active; 'I' for Inactive)
ROOT
ATOM      1  C   UNL d   1       1.475  -3.188  -5.859  0.00  0.00     0.020 A 
ATOM      2  C1  UNL d   1       2.112  -1.948  -5.855  0.00  0.00     0.020 A 
ATOM      3  C2  UNL d   1       3.506  -1.879  -5.897  0.00  0.00     0.034 A 
ATOM      4  C3  UNL d   1       4.268  -3.053  -5.942  0.00  0.00     0.017 A 
ATOM      5  C4  UNL d   1       3.627  -4.297  -5.945  0.00  0.00     0.017 A 
ATOM      6  C5  UNL d   1       2.231  -4.360  -5.904  0.00  0.00     0.034 A 
ATOM      7 Cl   UNL d   1       4.500  -5.788  -6.000  0.00  0.00    -0.070 Cl
ATOM      8 Cl1  UNL d   1       5.988  -2.893  -5.993  0.00  0.00    -0.070 Cl
ENDROOT
TORSDOF 0
ENDMDL
