MODEL 1
REMARK minimizedAffinity 5.08031416
REMARK minimizedRMSD -1
REMARK  0 active torsions:
REMARK  status: ('A' for Active; 'I' for Inactive)
ROOT
ATOM      1  C   UNL d   1      -3.557   1.609  -3.594  0.00  0.00     0.020 A 
ATOM      2  C1  UNL d   1      -3.903   2.323  -2.448  0.00  0.00     0.020 A 
ATOM      3  C2  UNL d   1      -2.911   2.735  -1.555  0.00  0.00     0.034 A 
ATOM      4  C3  UNL d   1      -1.568   2.433  -1.808  0.00  0.00     0.017 A 
ATOM      5  C4  UNL d   1      -1.221   1.716  -2.959  0.00  0.00     0.017 A 
ATOM      6  C5  UNL d   1      -2.219   1.307  -3.850  0.00  0.00     0.034 A 
ATOM      7 Cl   UNL d   1       0.415   1.307  -3.339  0.00  0.00    -0.070 Cl
ATOM      8 Cl1  UNL d   1      -0.393   2.973  -0.662  0.00  0.00    -0.070 Cl
ENDROOT
TORSDOF 0
ENDMDL
