MODEL 1
REMARK minimizedAffinity 3.16681743
REMARK minimizedRMSD -1
REMARK  0 active torsions:
REMARK  status: ('A' for Active; 'I' for Inactive)
ROOT
ATOM      1  C   UNL d   1       4.504   5.709  -0.539  0.00  0.00     0.020 A 
ATOM      2  C1  UNL d   1       5.727   5.997  -1.143  0.00  0.00     0.020 A 
ATOM      3  C2  UNL d   1       5.922   5.715  -2.496  0.00  0.00     0.034 A 
ATOM      4  C3  UNL d   1       4.892   5.142  -3.251  0.00  0.00     0.017 A 
ATOM      5  C4  UNL d   1       3.664   4.852  -2.644  0.00  0.00     0.017 A 
ATOM      6  C5  UNL d   1       3.475   5.137  -1.289  0.00  0.00     0.034 A 
ATOM      7 Cl   UNL d   1       2.346   4.145  -3.511  0.00  0.00    -0.070 Cl
ATOM      8 Cl1  UNL d   1       5.202   4.819  -4.920  0.00  0.00    -0.070 Cl
ENDROOT
TORSDOF 0
ENDMDL
