MODEL 1
REMARK minimizedAffinity 5.78911734
REMARK minimizedRMSD -1
REMARK  0 active torsions:
REMARK  status: ('A' for Active; 'I' for Inactive)
ROOT
ATOM      1  C   UNL d   1       5.535  -5.248  -5.533  0.00  0.00     0.020 A 
ATOM      2  C1  UNL d   1       4.686  -5.348  -4.432  0.00  0.00     0.020 A 
ATOM      3  C2  UNL d   1       4.228  -4.192  -3.796  0.00  0.00     0.034 A 
ATOM      4  C3  UNL d   1       4.620  -2.931  -4.261  0.00  0.00     0.017 A 
ATOM      5  C4  UNL d   1       5.473  -2.832  -5.366  0.00  0.00     0.017 A 
ATOM      6  C5  UNL d   1       5.928  -3.993  -5.999  0.00  0.00     0.034 A 
ATOM      7 Cl   UNL d   1       5.999  -1.312  -5.998  0.00  0.00    -0.070 Cl
ATOM      8 Cl1  UNL d   1       4.016  -1.544  -3.427  0.00  0.00    -0.070 Cl
ENDROOT
TORSDOF 0
ENDMDL
