MODEL 1
REMARK minimizedAffinity 6.4108057
REMARK minimizedRMSD -1
REMARK  0 active torsions:
REMARK  status: ('A' for Active; 'I' for Inactive)
ROOT
ATOM      1  C   UNL d   1      -3.237   0.869  -3.491  0.00  0.00     0.020 A 
ATOM      2  C1  UNL d   1      -3.307   1.945  -4.375  0.00  0.00     0.020 A 
ATOM      3  C2  UNL d   1      -4.130   3.035  -4.083  0.00  0.00     0.034 A 
ATOM      4  C3  UNL d   1      -4.886   3.051  -2.906  0.00  0.00     0.017 A 
ATOM      5  C4  UNL d   1      -4.814   1.970  -2.019  0.00  0.00     0.017 A 
ATOM      6  C5  UNL d   1      -3.989   0.881  -2.316  0.00  0.00     0.034 A 
ATOM      7 Cl   UNL d   1      -5.717   1.918  -0.546  0.00  0.00    -0.070 Cl
ATOM      8 Cl1  UNL d   1      -5.881   4.432  -2.609  0.00  0.00    -0.070 Cl
ENDROOT
TORSDOF 0
ENDMDL
