MODEL 1
REMARK minimizedAffinity 12.3144646
REMARK minimizedRMSD -1
REMARK  0 active torsions:
REMARK  status: ('A' for Active; 'I' for Inactive)
ROOT
ATOM      1  C   UNL d   1      -1.947   1.272  -2.932  0.00  0.00     0.020 A 
ATOM      2  C1  UNL d   1      -2.744   1.563  -1.825  0.00  0.00     0.020 A 
ATOM      3  C2  UNL d   1      -3.583   2.680  -1.843  0.00  0.00     0.034 A 
ATOM      4  C3  UNL d   1      -3.626   3.509  -2.970  0.00  0.00     0.017 A 
ATOM      5  C4  UNL d   1      -2.826   3.215  -4.080  0.00  0.00     0.017 A 
ATOM      6  C5  UNL d   1      -1.988   2.096  -4.057  0.00  0.00     0.034 A 
ATOM      7 Cl   UNL d   1      -2.826   4.191  -5.507  0.00  0.00    -0.070 Cl
ATOM      8 Cl1  UNL d   1      -4.686   4.872  -2.924  0.00  0.00    -0.070 Cl
ENDROOT
TORSDOF 0
ENDMDL
