MODEL 1
REMARK minimizedAffinity 4.0731864
REMARK minimizedRMSD -1
REMARK  0 active torsions:
REMARK  status: ('A' for Active; 'I' for Inactive)
ROOT
ATOM      1  C   UNL d   1       5.999  -4.828  -5.971  0.00  0.00     0.020 A 
ATOM      2  C1  UNL d   1       5.428  -6.000  -5.476  0.00  0.00     0.020 A 
ATOM      3  C2  UNL d   1       4.161  -5.964  -4.889  0.00  0.00     0.034 A 
ATOM      4  C3  UNL d   1       3.462  -4.755  -4.796  0.00  0.00     0.017 A 
ATOM      5  C4  UNL d   1       4.037  -3.580  -5.293  0.00  0.00     0.017 A 
ATOM      6  C5  UNL d   1       5.306  -3.621  -5.880  0.00  0.00     0.034 A 
ATOM      7 Cl   UNL d   1       3.236  -2.050  -5.214  0.00  0.00    -0.070 Cl
ATOM      8 Cl1  UNL d   1       1.900  -4.785  -4.058  0.00  0.00    -0.070 Cl
ENDROOT
TORSDOF 0
ENDMDL
