MODEL 1
REMARK minimizedAffinity 29.7655525
REMARK minimizedRMSD -1
REMARK  0 active torsions:
REMARK  status: ('A' for Active; 'I' for Inactive)
ROOT
ATOM      1  C   UNL d   1       1.332  -0.207   2.992  0.00  0.00     0.124 A 
ATOM      2  C1  UNL d   1       0.032   0.222   2.766  0.00  0.00     0.062 A 
ATOM      3  C2  UNL d   1      -0.560   1.145   3.623  0.00  0.00     0.162 A 
ATOM      4  C3  UNL d   1       0.149   1.646   4.715  0.00  0.00    -0.034 A 
ATOM      5  C4  UNL d   1       1.456   1.209   4.937  0.00  0.00     0.162 A 
ATOM      6  C5  UNL d   1       2.043   0.287   4.077  0.00  0.00     0.062 A 
ATOM      7  F   UNL d   1       3.299  -0.127   4.297  0.00  0.00    -0.097 F 
ATOM      8  F1  UNL d   1       2.166   1.670   5.977  0.00  0.00    -0.096 F 
ATOM      9  I   UNL d   1      -0.733   3.026   6.000  0.00  0.00    -0.060 I 
ATOM     10  F2  UNL d   1      -1.818   1.542   3.380  0.00  0.00    -0.096 F 
ATOM     11  F3  UNL d   1      -0.657  -0.254   1.719  0.00  0.00    -0.097 F 
ATOM     12  F4  UNL d   1       1.899  -1.096   2.166  0.00  0.00    -0.092 F 
ENDROOT
TORSDOF 0
ENDMDL
