MODEL 1
REMARK minimizedAffinity 28.0116043
REMARK minimizedRMSD -1
REMARK  0 active torsions:
REMARK  status: ('A' for Active; 'I' for Inactive)
ROOT
ATOM      1  C   UNL d   1       1.370  -1.117   3.766  0.00  0.00     0.124 A 
ATOM      2  C1  UNL d   1       1.296  -0.210   2.718  0.00  0.00     0.062 A 
ATOM      3  C2  UNL d   1       0.074   0.052   2.105  0.00  0.00     0.162 A 
ATOM      4  C3  UNL d   1      -1.084  -0.593   2.539  0.00  0.00    -0.034 A 
ATOM      5  C4  UNL d   1      -1.001  -1.505   3.592  0.00  0.00     0.162 A 
ATOM      6  C5  UNL d   1       0.222  -1.764   4.202  0.00  0.00     0.062 A 
ATOM      7  F   UNL d   1       0.293  -2.641   5.214  0.00  0.00    -0.097 F 
ATOM      8  F1  UNL d   1      -2.095  -2.143   4.034  0.00  0.00    -0.096 F 
ATOM      9  I   UNL d   1      -2.913  -0.204   1.624  0.00  0.00    -0.060 I 
ATOM     10  F2  UNL d   1       0.031   0.933   1.095  0.00  0.00    -0.096 F 
ATOM     11  F3  UNL d   1       2.403   0.415   2.294  0.00  0.00    -0.097 F 
ATOM     12  F4  UNL d   1       2.547  -1.369   4.353  0.00  0.00    -0.092 F 
ENDROOT
TORSDOF 0
ENDMDL
