MODEL 1
REMARK minimizedAffinity 11.9807453
REMARK minimizedRMSD -1
REMARK  0 active torsions:
REMARK  status: ('A' for Active; 'I' for Inactive)
ROOT
ATOM      1  C   UNL d   1       2.543  -1.459  -4.823  0.00  0.00     0.124 A 
ATOM      2  C1  UNL d   1       2.691  -2.771  -5.252  0.00  0.00     0.062 A 
ATOM      3  C2  UNL d   1       1.572  -3.527  -5.588  0.00  0.00     0.162 A 
ATOM      4  C3  UNL d   1       0.295  -2.973  -5.498  0.00  0.00    -0.034 A 
ATOM      5  C4  UNL d   1       0.155  -1.654  -5.065  0.00  0.00     0.162 A 
ATOM      6  C5  UNL d   1       1.276  -0.902  -4.730  0.00  0.00     0.062 A 
ATOM      7  F   UNL d   1       1.131   0.365  -4.316  0.00  0.00    -0.097 F 
ATOM      8  F1  UNL d   1      -1.059  -1.090  -4.967  0.00  0.00    -0.096 F 
ATOM      9  I   UNL d   1      -1.381  -4.101  -6.000  0.00  0.00    -0.060 I 
ATOM     10  F2  UNL d   1       1.744  -4.792  -6.000  0.00  0.00    -0.096 F 
ATOM     11  F3  UNL d   1       3.915  -3.312  -5.342  0.00  0.00    -0.097 F 
ATOM     12  F4  UNL d   1       3.622  -0.734  -4.500  0.00  0.00    -0.092 F 
ENDROOT
TORSDOF 0
ENDMDL
