MODEL 1
REMARK minimizedAffinity 27.974865
REMARK minimizedRMSD -1
REMARK  0 active torsions:
REMARK  status: ('A' for Active; 'I' for Inactive)
ROOT
ATOM      1  C   UNL d   1       3.866   4.749   3.309  0.00  0.00     0.124 A 
ATOM      2  C1  UNL d   1       3.668   3.526   3.936  0.00  0.00     0.062 A 
ATOM      3  C2  UNL d   1       4.256   2.374   3.424  0.00  0.00     0.162 A 
ATOM      4  C3  UNL d   1       5.048   2.438   2.278  0.00  0.00    -0.034 A 
ATOM      5  C4  UNL d   1       5.242   3.670   1.652  0.00  0.00     0.162 A 
ATOM      6  C5  UNL d   1       4.653   4.820   2.168  0.00  0.00     0.062 A 
ATOM      7  F   UNL d   1       4.845   6.000   1.561  0.00  0.00    -0.097 F 
ATOM      8  F1  UNL d   1       5.999   3.768   0.549  0.00  0.00    -0.096 F 
ATOM      9  I   UNL d   1       5.929   0.716   1.508  0.00  0.00    -0.060 I 
ATOM     10  F2  UNL d   1       4.047   1.206   4.050  0.00  0.00    -0.096 F 
ATOM     11  F3  UNL d   1       2.907   3.455   5.038  0.00  0.00    -0.097 F 
ATOM     12  F4  UNL d   1       3.298   5.856   3.804  0.00  0.00    -0.092 F 
ENDROOT
TORSDOF 0
ENDMDL
