MODEL 1
REMARK minimizedAffinity 23.2137566
REMARK minimizedRMSD -1
REMARK  0 active torsions:
REMARK  status: ('A' for Active; 'I' for Inactive)
ROOT
ATOM      1  C   UNL d   1       0.704  -0.136   2.841  0.00  0.00     0.124 A 
ATOM      2  C1  UNL d   1       0.495  -1.354   3.472  0.00  0.00     0.062 A 
ATOM      3  C2  UNL d   1      -0.796  -1.849   3.630  0.00  0.00     0.162 A 
ATOM      4  C3  UNL d   1      -1.890  -1.125   3.155  0.00  0.00    -0.034 A 
ATOM      5  C4  UNL d   1      -1.672   0.100   2.522  0.00  0.00     0.162 A 
ATOM      6  C5  UNL d   1      -0.380   0.590   2.367  0.00  0.00     0.062 A 
ATOM      7  F   UNL d   1      -0.180   1.768   1.757  0.00  0.00    -0.097 F 
ATOM      8  F1  UNL d   1      -2.701   0.821   2.054  0.00  0.00    -0.096 F 
ATOM      9  I   UNL d   1      -3.822  -1.862   3.389  0.00  0.00    -0.060 I 
ATOM     10  F2  UNL d   1      -0.968  -3.030   4.243  0.00  0.00    -0.096 F 
ATOM     11  F3  UNL d   1       1.541  -2.057   3.932  0.00  0.00    -0.097 F 
ATOM     12  F4  UNL d   1       1.947   0.338   2.691  0.00  0.00    -0.092 F 
ENDROOT
TORSDOF 0
ENDMDL
