MODEL 1
REMARK minimizedAffinity 14.9708309
REMARK minimizedRMSD -1
REMARK  0 active torsions:
REMARK  status: ('A' for Active; 'I' for Inactive)
ROOT
ATOM      1  C   UNL d   1       1.167  -0.418   3.249  0.00  0.00     0.124 A 
ATOM      2  C1  UNL d   1       0.776  -1.662   3.724  0.00  0.00     0.062 A 
ATOM      3  C2  UNL d   1      -0.564  -2.038   3.681  0.00  0.00     0.162 A 
ATOM      4  C3  UNL d   1      -1.522  -1.169   3.160  0.00  0.00    -0.034 A 
ATOM      5  C4  UNL d   1      -1.121   0.081   2.685  0.00  0.00     0.162 A 
ATOM      6  C5  UNL d   1       0.219   0.452   2.730  0.00  0.00     0.062 A 
ATOM      7  F   UNL d   1       0.595   1.654   2.271  0.00  0.00    -0.097 F 
ATOM      8  F1  UNL d   1      -2.016   0.940   2.177  0.00  0.00    -0.096 F 
ATOM      9  I   UNL d   1      -3.526  -1.728   3.093  0.00  0.00    -0.060 I 
ATOM     10  F2  UNL d   1      -0.913  -3.247   4.147  0.00  0.00    -0.096 F 
ATOM     11  F3  UNL d   1       1.690  -2.504   4.227  0.00  0.00    -0.097 F 
ATOM     12  F4  UNL d   1       2.457  -0.059   3.293  0.00  0.00    -0.092 F 
ENDROOT
TORSDOF 0
ENDMDL
