MODEL 1
REMARK minimizedAffinity 25.0786572
REMARK minimizedRMSD -1
REMARK  0 active torsions:
REMARK  status: ('A' for Active; 'I' for Inactive)
ROOT
ATOM      1  C   UNL d   1      -1.878  -4.830  -3.457  0.00  0.00     0.124 A 
ATOM      2  C1  UNL d   1      -1.633  -4.078  -2.316  0.00  0.00     0.062 A 
ATOM      3  C2  UNL d   1      -0.962  -2.862  -2.410  0.00  0.00     0.162 A 
ATOM      4  C3  UNL d   1      -0.531  -2.390  -3.650  0.00  0.00    -0.034 A 
ATOM      5  C4  UNL d   1      -0.780  -3.152  -4.792  0.00  0.00     0.162 A 
ATOM      6  C5  UNL d   1      -1.451  -4.367  -4.693  0.00  0.00     0.062 A 
ATOM      7  F   UNL d   1      -1.686  -5.092  -5.796  0.00  0.00    -0.097 F 
ATOM      8  F1  UNL d   1      -0.380  -2.728  -6.000  0.00  0.00    -0.096 F 
ATOM      9  I   UNL d   1       0.472  -0.572  -3.794  0.00  0.00    -0.060 I 
ATOM     10  F2  UNL d   1      -0.740  -2.156  -1.291  0.00  0.00    -0.096 F 
ATOM     11  F3  UNL d   1      -2.044  -4.524  -1.120  0.00  0.00    -0.097 F 
ATOM     12  F4  UNL d   1      -2.523  -6.000  -3.363  0.00  0.00    -0.092 F 
ENDROOT
TORSDOF 0
ENDMDL
