MODEL 1
REMARK minimizedAffinity 18.2385044
REMARK minimizedRMSD -1
REMARK  0 active torsions:
REMARK  status: ('A' for Active; 'I' for Inactive)
ROOT
ATOM      1  C   UNL d   1       2.800  -0.466   4.949  0.00  0.00     0.124 A 
ATOM      2  C1  UNL d   1       2.891   0.388   3.859  0.00  0.00     0.062 A 
ATOM      3  C2  UNL d   1       2.048   0.218   2.765  0.00  0.00     0.162 A 
ATOM      4  C3  UNL d   1       1.104  -0.809   2.756  0.00  0.00    -0.034 A 
ATOM      5  C4  UNL d   1       1.019  -1.664   3.856  0.00  0.00     0.162 A 
ATOM      6  C5  UNL d   1       1.865  -1.491   4.947  0.00  0.00     0.062 A 
ATOM      7  F   UNL d   1       1.775  -2.317   6.000  0.00  0.00    -0.097 F 
ATOM      8  F1  UNL d   1       0.123  -2.662   3.881  0.00  0.00    -0.096 F 
ATOM      9  I   UNL d   1      -0.160  -1.065   1.122  0.00  0.00    -0.060 I 
ATOM     10  F2  UNL d   1       2.158   1.058   1.725  0.00  0.00    -0.096 F 
ATOM     11  F3  UNL d   1       3.795   1.378   3.858  0.00  0.00    -0.097 F 
ATOM     12  F4  UNL d   1       3.614  -0.302   6.000  0.00  0.00    -0.092 F 
ENDROOT
TORSDOF 0
ENDMDL
