MODEL 1
REMARK minimizedAffinity 22.0604992
REMARK minimizedRMSD -1
REMARK  0 active torsions:
REMARK  status: ('A' for Active; 'I' for Inactive)
ROOT
ATOM      1  C   UNL d   1      -0.141  -0.461   2.437  0.00  0.00     0.124 A 
ATOM      2  C1  UNL d   1      -0.847   0.695   2.739  0.00  0.00     0.062 A 
ATOM      3  C2  UNL d   1      -0.325   1.619   3.640  0.00  0.00     0.162 A 
ATOM      4  C3  UNL d   1       0.911   1.392   4.244  0.00  0.00    -0.034 A 
ATOM      5  C4  UNL d   1       1.615   0.226   3.936  0.00  0.00     0.162 A 
ATOM      6  C5  UNL d   1       1.089  -0.694   3.035  0.00  0.00     0.062 A 
ATOM      7  F   UNL d   1       1.773  -1.810   2.744  0.00  0.00    -0.097 F 
ATOM      8  F1  UNL d   1       2.807  -0.024   4.499  0.00  0.00    -0.096 F 
ATOM      9  I   UNL d   1       1.696   2.771   5.591  0.00  0.00    -0.060 I 
ATOM     10  F2  UNL d   1      -1.029   2.728   3.913  0.00  0.00    -0.096 F 
ATOM     11  F3  UNL d   1      -2.037   0.923   2.163  0.00  0.00    -0.097 F 
ATOM     12  F4  UNL d   1      -0.646  -1.349   1.571  0.00  0.00    -0.092 F 
ENDROOT
TORSDOF 0
ENDMDL
