MODEL 1
REMARK minimizedAffinity 17.7214832
REMARK minimizedRMSD -1
REMARK  0 active torsions:
REMARK  status: ('A' for Active; 'I' for Inactive)
ROOT
ATOM      1  C   UNL d   1       0.595   1.631  -1.154  0.00  0.00     0.124 A 
ATOM      2  C1  UNL d   1       1.558   1.081  -1.988  0.00  0.00     0.062 A 
ATOM      3  C2  UNL d   1       1.400   1.131  -3.369  0.00  0.00     0.162 A 
ATOM      4  C3  UNL d   1       0.273   1.736  -3.927  0.00  0.00    -0.034 A 
ATOM      5  C4  UNL d   1      -0.692   2.287  -3.082  0.00  0.00     0.162 A 
ATOM      6  C5  UNL d   1      -0.529   2.233  -1.702  0.00  0.00     0.062 A 
ATOM      7  F   UNL d   1      -1.461   2.766  -0.898  0.00  0.00    -0.097 F 
ATOM      8  F1  UNL d   1      -1.787   2.875  -3.585  0.00  0.00    -0.096 F 
ATOM      9  I   UNL d   1       0.033   1.814  -5.993  0.00  0.00    -0.060 I 
ATOM     10  F2  UNL d   1       2.347   0.591  -4.151  0.00  0.00    -0.096 F 
ATOM     11  F3  UNL d   1       2.645   0.497  -1.461  0.00  0.00    -0.097 F 
ATOM     12  F4  UNL d   1       0.749   1.580   0.175  0.00  0.00    -0.092 F 
ENDROOT
TORSDOF 0
ENDMDL
