MODEL 1
REMARK minimizedAffinity 18.2331676
REMARK minimizedRMSD -1
REMARK  0 active torsions:
REMARK  status: ('A' for Active; 'I' for Inactive)
ROOT
ATOM      1  C   UNL d   1      -1.592  -2.232   5.060  0.00  0.00     0.124 A 
ATOM      2  C1  UNL d   1      -2.718  -1.569   5.527  0.00  0.00     0.062 A 
ATOM      3  C2  UNL d   1      -3.952  -2.212   5.543  0.00  0.00     0.162 A 
ATOM      4  C3  UNL d   1      -4.067  -3.527   5.092  0.00  0.00    -0.034 A 
ATOM      5  C4  UNL d   1      -2.930  -4.187   4.623  0.00  0.00     0.162 A 
ATOM      6  C5  UNL d   1      -1.699  -3.540   4.609  0.00  0.00     0.062 A 
ATOM      7  F   UNL d   1      -0.612  -4.182   4.157  0.00  0.00    -0.097 F 
ATOM      8  F1  UNL d   1      -3.005  -5.451   4.182  0.00  0.00    -0.096 F 
ATOM      9  I   UNL d   1      -5.911  -4.492   5.115  0.00  0.00    -0.060 I 
ATOM     10  F2  UNL d   1      -5.024  -1.547   6.000  0.00  0.00    -0.096 F 
ATOM     11  F3  UNL d   1      -2.618  -0.305   5.962  0.00  0.00    -0.097 F 
ATOM     12  F4  UNL d   1      -0.406  -1.611   5.044  0.00  0.00    -0.092 F 
ENDROOT
TORSDOF 0
ENDMDL
