MODEL 1
REMARK minimizedAffinity 19.5015583
REMARK minimizedRMSD -1
REMARK  0 active torsions:
REMARK  status: ('A' for Active; 'I' for Inactive)
ROOT
ATOM      1  C   UNL d   1      -2.671   2.388  -4.418  0.00  0.00     0.124 A 
ATOM      2  C1  UNL d   1      -2.213   3.698  -4.401  0.00  0.00     0.062 A 
ATOM      3  C2  UNL d   1      -3.031   4.731  -4.850  0.00  0.00     0.162 A 
ATOM      4  C3  UNL d   1      -4.316   4.458  -5.320  0.00  0.00    -0.034 A 
ATOM      5  C4  UNL d   1      -4.769   3.138  -5.335  0.00  0.00     0.162 A 
ATOM      6  C5  UNL d   1      -3.948   2.109  -4.885  0.00  0.00     0.062 A 
ATOM      7  F   UNL d   1      -4.391   0.843  -4.902  0.00  0.00    -0.097 F 
ATOM      8  F1  UNL d   1      -5.999   2.840  -5.780  0.00  0.00    -0.096 F 
ATOM      9  I   UNL d   1      -5.542   6.000  -5.992  0.00  0.00    -0.060 I 
ATOM     10  F2  UNL d   1      -2.563   5.988  -4.822  0.00  0.00    -0.096 F 
ATOM     11  F3  UNL d   1      -0.980   3.970  -3.952  0.00  0.00    -0.097 F 
ATOM     12  F4  UNL d   1      -1.882   1.396  -3.986  0.00  0.00    -0.092 F 
ENDROOT
TORSDOF 0
ENDMDL
