MODEL 1
REMARK minimizedAffinity 35.8517685
REMARK minimizedRMSD -1
REMARK  0 active torsions:
REMARK  status: ('A' for Active; 'I' for Inactive)
ROOT
ATOM      1  C   UNL d   1      -1.495  -2.356   4.813  0.00  0.00     0.124 A 
ATOM      2  C1  UNL d   1      -1.696  -3.588   4.208  0.00  0.00     0.062 A 
ATOM      3  C2  UNL d   1      -2.962  -4.167   4.203  0.00  0.00     0.162 A 
ATOM      4  C3  UNL d   1      -4.038  -3.512   4.804  0.00  0.00    -0.034 A 
ATOM      5  C4  UNL d   1      -3.827  -2.273   5.411  0.00  0.00     0.162 A 
ATOM      6  C5  UNL d   1      -2.559  -1.699   5.414  0.00  0.00     0.062 A 
ATOM      7  F   UNL d   1      -2.366  -0.508   5.999  0.00  0.00    -0.097 F 
ATOM      8  F1  UNL d   1      -4.838  -1.616   5.999  0.00  0.00    -0.096 F 
ATOM      9  I   UNL d   1      -5.932  -4.374   4.798  0.00  0.00    -0.060 I 
ATOM     10  F2  UNL d   1      -3.128  -5.359   3.611  0.00  0.00    -0.096 F 
ATOM     11  F3  UNL d   1      -0.669  -4.225   3.628  0.00  0.00    -0.097 F 
ATOM     12  F4  UNL d   1      -0.275  -1.802   4.818  0.00  0.00    -0.092 F 
ENDROOT
TORSDOF 0
ENDMDL
