MODEL 1
REMARK minimizedAffinity 33.097641
REMARK minimizedRMSD -1
REMARK  0 active torsions:
REMARK  status: ('A' for Active; 'I' for Inactive)
ROOT
ATOM      1  C   UNL d   1      -2.542   1.863   0.375  0.00  0.00     0.124 A 
ATOM      2  C1  UNL d   1      -2.205   3.048  -0.264  0.00  0.00     0.062 A 
ATOM      3  C2  UNL d   1      -2.923   4.212  -0.006  0.00  0.00     0.162 A 
ATOM      4  C3  UNL d   1      -3.987   4.197   0.896  0.00  0.00    -0.034 A 
ATOM      5  C4  UNL d   1      -4.322   3.001   1.535  0.00  0.00     0.162 A 
ATOM      6  C5  UNL d   1      -3.600   1.841   1.274  0.00  0.00     0.062 A 
ATOM      7  F   UNL d   1      -3.928   0.697   1.892  0.00  0.00    -0.097 F 
ATOM      8  F1  UNL d   1      -5.338   2.951   2.408  0.00  0.00    -0.096 F 
ATOM      9  I   UNL d   1      -5.064   5.935   1.285  0.00  0.00    -0.060 I 
ATOM     10  F2  UNL d   1      -2.575   5.343  -0.638  0.00  0.00    -0.096 F 
ATOM     11  F3  UNL d   1      -1.184   3.073  -1.132  0.00  0.00    -0.097 F 
ATOM     12  F4  UNL d   1      -1.850   0.745   0.125  0.00  0.00    -0.092 F 
ENDROOT
TORSDOF 0
ENDMDL
