MODEL 1
REMARK minimizedAffinity 26.4994698
REMARK minimizedRMSD -1
REMARK  0 active torsions:
REMARK  status: ('A' for Active; 'I' for Inactive)
ROOT
ATOM      1  C   UNL d   1      -3.281   2.511  -4.938  0.00  0.00     0.124 A 
ATOM      2  C1  UNL d   1      -2.000   2.240  -5.399  0.00  0.00     0.062 A 
ATOM      3  C2  UNL d   1      -1.026   3.235  -5.384  0.00  0.00     0.162 A 
ATOM      4  C3  UNL d   1      -1.330   4.510  -4.907  0.00  0.00    -0.034 A 
ATOM      5  C4  UNL d   1      -2.621   4.775  -4.447  0.00  0.00     0.162 A 
ATOM      6  C5  UNL d   1      -3.590   3.778  -4.463  0.00  0.00     0.062 A 
ATOM      7  F   UNL d   1      -4.827   4.041  -4.018  0.00  0.00    -0.097 F 
ATOM      8  F1  UNL d   1      -2.946   5.990  -3.981  0.00  0.00    -0.096 F 
ATOM      9  I   UNL d   1       0.123   6.000  -4.884  0.00  0.00    -0.060 I 
ATOM     10  F2  UNL d   1       0.204   2.945  -5.835  0.00  0.00    -0.096 F 
ATOM     11  F3  UNL d   1      -1.699   1.018  -5.859  0.00  0.00    -0.097 F 
ATOM     12  F4  UNL d   1      -4.216   1.553  -4.954  0.00  0.00    -0.092 F 
ENDROOT
TORSDOF 0
ENDMDL
