MODEL 1
REMARK minimizedAffinity 29.4068356
REMARK minimizedRMSD -1
REMARK  0 active torsions:
REMARK  status: ('A' for Active; 'I' for Inactive)
ROOT
ATOM      1  C   UNL d   1      -2.979  -1.858   4.349  0.00  0.00     0.124 A 
ATOM      2  C1  UNL d   1      -3.197  -3.222   4.214  0.00  0.00     0.062 A 
ATOM      3  C2  UNL d   1      -2.252  -4.131   4.679  0.00  0.00     0.162 A 
ATOM      4  C3  UNL d   1      -1.080  -3.679   5.286  0.00  0.00    -0.034 A 
ATOM      5  C4  UNL d   1      -0.867  -2.306   5.417  0.00  0.00     0.162 A 
ATOM      6  C5  UNL d   1      -1.815  -1.401   4.951  0.00  0.00     0.062 A 
ATOM      7  F   UNL d   1      -1.603  -0.084   5.082  0.00  0.00    -0.097 F 
ATOM      8  F1  UNL d   1       0.249  -1.837   5.995  0.00  0.00    -0.096 F 
ATOM      9  I   UNL d   1       0.337  -5.036   5.983  0.00  0.00    -0.060 I 
ATOM     10  F2  UNL d   1      -2.488  -5.444   4.535  0.00  0.00    -0.096 F 
ATOM     11  F3  UNL d   1      -4.321  -3.666   3.632  0.00  0.00    -0.097 F 
ATOM     12  F4  UNL d   1      -3.890  -0.985   3.900  0.00  0.00    -0.092 F 
ENDROOT
TORSDOF 0
ENDMDL
