MODEL 1
REMARK minimizedAffinity 27.0393562
REMARK minimizedRMSD -1
REMARK  0 active torsions:
REMARK  status: ('A' for Active; 'I' for Inactive)
ROOT
ATOM      1  C   UNL d   1      -1.430  -3.922   4.397  0.00  0.00     0.124 A 
ATOM      2  C1  UNL d   1      -1.588  -2.675   4.985  0.00  0.00     0.062 A 
ATOM      3  C2  UNL d   1      -2.841  -2.266   5.434  0.00  0.00     0.162 A 
ATOM      4  C3  UNL d   1      -3.946  -3.107   5.298  0.00  0.00    -0.034 A 
ATOM      5  C4  UNL d   1      -3.779  -4.359   4.705  0.00  0.00     0.162 A 
ATOM      6  C5  UNL d   1      -2.525  -4.763   4.257  0.00  0.00     0.062 A 
ATOM      7  F   UNL d   1      -2.374  -5.968   3.689  0.00  0.00    -0.097 F 
ATOM      8  F1  UNL d   1      -4.820  -5.192   4.558  0.00  0.00    -0.096 F 
ATOM      9  I   UNL d   1      -5.820  -2.500   5.969  0.00  0.00    -0.060 I 
ATOM     10  F2  UNL d   1      -2.964  -1.056   5.999  0.00  0.00    -0.096 F 
ATOM     11  F3  UNL d   1      -0.532  -1.860   5.120  0.00  0.00    -0.097 F 
ATOM     12  F4  UNL d   1      -0.224  -4.312   3.964  0.00  0.00    -0.092 F 
ENDROOT
TORSDOF 0
ENDMDL
