MODEL 1
REMARK minimizedAffinity 8.27312183
REMARK minimizedRMSD -1
REMARK  0 active torsions:
REMARK  status: ('A' for Active; 'I' for Inactive)
ROOT
ATOM      1  C   UNL d   1      -2.517   4.268  -4.883  0.00  0.00     0.124 A 
ATOM      2  C1  UNL d   1      -3.779   4.689  -5.277  0.00  0.00     0.062 A 
ATOM      3  C2  UNL d   1      -4.771   3.756  -5.564  0.00  0.00     0.162 A 
ATOM      4  C3  UNL d   1      -4.505   2.391  -5.457  0.00  0.00    -0.034 A 
ATOM      5  C4  UNL d   1      -3.233   1.974  -5.061  0.00  0.00     0.162 A 
ATOM      6  C5  UNL d   1      -2.245   2.911  -4.775  0.00  0.00     0.062 A 
ATOM      7  F   UNL d   1      -1.026   2.502  -4.394  0.00  0.00    -0.097 F 
ATOM      8  F1  UNL d   1      -2.943   0.670  -4.948  0.00  0.00    -0.096 F 
ATOM      9  I   UNL d   1      -5.985   0.992  -5.885  0.00  0.00    -0.060 I 
ATOM     10  F2  UNL d   1      -5.982   4.192  -5.943  0.00  0.00    -0.096 F 
ATOM     11  F3  UNL d   1      -4.045   5.999  -5.383  0.00  0.00    -0.097 F 
ATOM     12  F4  UNL d   1      -1.564   5.168  -4.608  0.00  0.00    -0.092 F 
ENDROOT
TORSDOF 0
ENDMDL
