MODEL 1
REMARK minimizedAffinity 23.8120537
REMARK minimizedRMSD -1
REMARK  0 active torsions:
REMARK  status: ('A' for Active; 'I' for Inactive)
ROOT
ATOM      1  C   UNL d   1      -1.138  -2.791   4.865  0.00  0.00     0.124 A 
ATOM      2  C1  UNL d   1      -1.684  -1.531   5.064  0.00  0.00     0.062 A 
ATOM      3  C2  UNL d   1      -1.249  -0.451   4.300  0.00  0.00     0.162 A 
ATOM      4  C3  UNL d   1      -0.264  -0.627   3.329  0.00  0.00    -0.034 A 
ATOM      5  C4  UNL d   1       0.281  -1.898   3.135  0.00  0.00     0.162 A 
ATOM      6  C5  UNL d   1      -0.156  -2.974   3.901  0.00  0.00     0.062 A 
ATOM      7  F   UNL d   1       0.372  -4.191   3.707  0.00  0.00    -0.097 F 
ATOM      8  F1  UNL d   1       1.231  -2.103   2.210  0.00  0.00    -0.096 F 
ATOM      9  I   UNL d   1       0.389   0.984   2.185  0.00  0.00    -0.060 I 
ATOM     10  F2  UNL d   1      -1.794   0.756   4.514  0.00  0.00    -0.096 F 
ATOM     11  F3  UNL d   1      -2.632  -1.351   5.995  0.00  0.00    -0.097 F 
ATOM     12  F4  UNL d   1      -1.557  -3.828   5.602  0.00  0.00    -0.092 F 
ENDROOT
TORSDOF 0
ENDMDL
