MODEL 1
REMARK minimizedAffinity 30.8720837
REMARK minimizedRMSD -1
REMARK  0 active torsions:
REMARK  status: ('A' for Active; 'I' for Inactive)
ROOT
ATOM      1  C   UNL d   1      -4.245   3.614   1.047  0.00  0.00     0.124 A 
ATOM      2  C1  UNL d   1      -3.311   2.593   0.937  0.00  0.00     0.062 A 
ATOM      3  C2  UNL d   1      -2.668   2.361  -0.275  0.00  0.00     0.162 A 
ATOM      4  C3  UNL d   1      -2.957   3.151  -1.388  0.00  0.00    -0.034 A 
ATOM      5  C4  UNL d   1      -3.899   4.174  -1.270  0.00  0.00     0.162 A 
ATOM      6  C5  UNL d   1      -4.539   4.403  -0.056  0.00  0.00     0.062 A 
ATOM      7  F   UNL d   1      -5.441   5.389   0.048  0.00  0.00    -0.097 F 
ATOM      8  F1  UNL d   1      -4.200   4.953  -2.320  0.00  0.00    -0.096 F 
ATOM      9  I   UNL d   1      -1.998   2.806  -3.203  0.00  0.00    -0.060 I 
ATOM     10  F2  UNL d   1      -1.769   1.368  -0.353  0.00  0.00    -0.096 F 
ATOM     11  F3  UNL d   1      -3.027   1.829   2.001  0.00  0.00    -0.097 F 
ATOM     12  F4  UNL d   1      -4.863   3.835   2.215  0.00  0.00    -0.092 F 
ENDROOT
TORSDOF 0
ENDMDL
