MODEL 1
REMARK minimizedAffinity 7.87840509
REMARK minimizedRMSD -1
REMARK  0 active torsions:
REMARK  status: ('A' for Active; 'I' for Inactive)
ROOT
ATOM      1  C   UNL d   1      -4.450   2.407  -5.081  0.00  0.00     0.124 A 
ATOM      2  C1  UNL d   1      -3.200   2.129  -4.543  0.00  0.00     0.062 A 
ATOM      3  C2  UNL d   1      -2.277   3.153  -4.353  0.00  0.00     0.162 A 
ATOM      4  C3  UNL d   1      -2.600   4.465  -4.699  0.00  0.00    -0.034 A 
ATOM      5  C4  UNL d   1      -3.858   4.736  -5.239  0.00  0.00     0.162 A 
ATOM      6  C5  UNL d   1      -4.777   3.709  -5.428  0.00  0.00     0.062 A 
ATOM      7  F   UNL d   1      -5.984   3.980  -5.947  0.00  0.00    -0.097 F 
ATOM      8  F1  UNL d   1      -4.202   5.987  -5.583  0.00  0.00    -0.096 F 
ATOM      9  I   UNL d   1      -1.223   5.999  -4.415  0.00  0.00    -0.060 I 
ATOM     10  F2  UNL d   1      -1.077   2.856  -3.832  0.00  0.00    -0.096 F 
ATOM     11  F3  UNL d   1      -2.881   0.871  -4.208  0.00  0.00    -0.097 F 
ATOM     12  F4  UNL d   1      -5.335   1.419  -5.264  0.00  0.00    -0.092 F 
ENDROOT
TORSDOF 0
ENDMDL
