MODEL 1
REMARK minimizedAffinity 23.2715683
REMARK minimizedRMSD -1
REMARK  0 active torsions:
REMARK  status: ('A' for Active; 'I' for Inactive)
ROOT
ATOM      1  C   UNL d   1      -0.838  -2.628   4.361  0.00  0.00     0.124 A 
ATOM      2  C1  UNL d   1      -1.455  -1.399   4.547  0.00  0.00     0.062 A 
ATOM      3  C2  UNL d   1      -1.166  -0.335   3.697  0.00  0.00     0.162 A 
ATOM      4  C3  UNL d   1      -0.256  -0.496   2.652  0.00  0.00    -0.034 A 
ATOM      5  C4  UNL d   1       0.362  -1.735   2.473  0.00  0.00     0.162 A 
ATOM      6  C5  UNL d   1       0.069  -2.795   3.325  0.00  0.00     0.062 A 
ATOM      7  F   UNL d   1       0.666  -3.982   3.144  0.00  0.00    -0.097 F 
ATOM      8  F1  UNL d   1       1.242  -1.924   1.478  0.00  0.00    -0.096 F 
ATOM      9  I   UNL d   1       0.180   1.092   1.380  0.00  0.00    -0.060 I 
ATOM     10  F2  UNL d   1      -1.777   0.842   3.900  0.00  0.00    -0.096 F 
ATOM     11  F3  UNL d   1      -2.332  -1.234   5.548  0.00  0.00    -0.097 F 
ATOM     12  F4  UNL d   1      -1.117  -3.650   5.181  0.00  0.00    -0.092 F 
ENDROOT
TORSDOF 0
ENDMDL
