MODEL 1
REMARK minimizedAffinity 12.8801641
REMARK minimizedRMSD -1
REMARK  0 active torsions:
REMARK  status: ('A' for Active; 'I' for Inactive)
ROOT
ATOM      1  C   UNL d   1      -2.101   4.468  -4.730  0.00  0.00     0.124 A 
ATOM      2  C1  UNL d   1      -1.944   3.219  -4.144  0.00  0.00     0.062 A 
ATOM      3  C2  UNL d   1      -2.982   2.294  -4.180  0.00  0.00     0.162 A 
ATOM      4  C3  UNL d   1      -4.188   2.613  -4.804  0.00  0.00    -0.034 A 
ATOM      5  C4  UNL d   1      -4.339   3.871  -5.390  0.00  0.00     0.162 A 
ATOM      6  C5  UNL d   1      -3.298   4.793  -5.352  0.00  0.00     0.062 A 
ATOM      7  F   UNL d   1      -3.452   5.998  -5.918  0.00  0.00    -0.097 F 
ATOM      8  F1  UNL d   1      -5.485   4.210  -5.999  0.00  0.00    -0.096 F 
ATOM      9  I   UNL d   1      -5.744   1.232  -4.860  0.00  0.00    -0.060 I 
ATOM     10  F2  UNL d   1      -2.803   1.095  -3.606  0.00  0.00    -0.096 F 
ATOM     11  F3  UNL d   1      -0.788   2.904  -3.541  0.00  0.00    -0.097 F 
ATOM     12  F4  UNL d   1      -1.100   5.357  -4.693  0.00  0.00    -0.092 F 
ENDROOT
TORSDOF 0
ENDMDL
