MODEL 1
REMARK minimizedAffinity 15.8464928
REMARK minimizedRMSD -1
REMARK  0 active torsions:
REMARK  status: ('A' for Active; 'I' for Inactive)
ROOT
ATOM      1  C   UNL d   1      -2.450   2.030  -5.668  0.00  0.00     0.124 A 
ATOM      2  C1  UNL d   1      -3.829   1.898  -5.756  0.00  0.00     0.062 A 
ATOM      3  C2  UNL d   1      -4.636   3.029  -5.850  0.00  0.00     0.162 A 
ATOM      4  C3  UNL d   1      -4.065   4.302  -5.858  0.00  0.00    -0.034 A 
ATOM      5  C4  UNL d   1      -2.678   4.426  -5.768  0.00  0.00     0.162 A 
ATOM      6  C5  UNL d   1      -1.876   3.293  -5.674  0.00  0.00     0.062 A 
ATOM      7  F   UNL d   1      -0.544   3.423  -5.589  0.00  0.00    -0.097 F 
ATOM      8  F1  UNL d   1      -2.096   5.635  -5.773  0.00  0.00    -0.096 F 
ATOM      9  I   UNL d   1      -5.268   5.994  -5.999  0.00  0.00    -0.060 I 
ATOM     10  F2  UNL d   1      -5.965   2.871  -5.934  0.00  0.00    -0.096 F 
ATOM     11  F3  UNL d   1      -4.386   0.679  -5.749  0.00  0.00    -0.097 F 
ATOM     12  F4  UNL d   1      -1.676   0.941  -5.576  0.00  0.00    -0.092 F 
ENDROOT
TORSDOF 0
ENDMDL
