MODEL 1
REMARK minimizedAffinity 15.7944975
REMARK minimizedRMSD -1
REMARK  0 active torsions:
REMARK  status: ('A' for Active; 'I' for Inactive)
ROOT
ATOM      1  C   UNL d   1      -2.515   1.989  -3.245  0.00  0.00     0.124 A 
ATOM      2  C1  UNL d   1      -3.469   2.075  -4.249  0.00  0.00     0.062 A 
ATOM      3  C2  UNL d   1      -3.556   3.219  -5.036  0.00  0.00     0.162 A 
ATOM      4  C3  UNL d   1      -2.684   4.287  -4.824  0.00  0.00    -0.034 A 
ATOM      5  C4  UNL d   1      -1.727   4.194  -3.812  0.00  0.00     0.162 A 
ATOM      6  C5  UNL d   1      -1.645   3.048  -3.027  0.00  0.00     0.062 A 
ATOM      7  F   UNL d   1      -0.722   2.967  -2.057  0.00  0.00    -0.097 F 
ATOM      8  F1  UNL d   1      -0.873   5.202  -3.581  0.00  0.00    -0.096 F 
ATOM      9  I   UNL d   1      -2.810   6.000  -6.000  0.00  0.00    -0.060 I 
ATOM     10  F2  UNL d   1      -4.488   3.274  -5.999  0.00  0.00    -0.096 F 
ATOM     11  F3  UNL d   1      -4.311   1.053  -4.460  0.00  0.00    -0.097 F 
ATOM     12  F4  UNL d   1      -2.434   0.887  -2.487  0.00  0.00    -0.092 F 
ENDROOT
TORSDOF 0
ENDMDL
