MODEL 1
REMARK minimizedAffinity 13.7695885
REMARK minimizedRMSD -1
REMARK  0 active torsions:
REMARK  status: ('A' for Active; 'I' for Inactive)
ROOT
ATOM      1  C   UNL d   1      -2.152   4.168  -5.382  0.00  0.00     0.124 A 
ATOM      2  C1  UNL d   1      -3.417   4.673  -5.646  0.00  0.00     0.062 A 
ATOM      3  C2  UNL d   1      -4.508   3.814  -5.744  0.00  0.00     0.162 A 
ATOM      4  C3  UNL d   1      -4.338   2.439  -5.577  0.00  0.00    -0.034 A 
ATOM      5  C4  UNL d   1      -3.062   1.939  -5.312  0.00  0.00     0.162 A 
ATOM      6  C5  UNL d   1      -1.975   2.802  -5.215  0.00  0.00     0.062 A 
ATOM      7  F   UNL d   1      -0.753   2.312  -4.960  0.00  0.00    -0.097 F 
ATOM      8  F1  UNL d   1      -2.863   0.623  -5.146  0.00  0.00    -0.096 F 
ATOM      9  I   UNL d   1      -5.966   1.151  -5.722  0.00  0.00    -0.060 I 
ATOM     10  F2  UNL d   1      -5.719   4.330  -6.000  0.00  0.00    -0.096 F 
ATOM     11  F3  UNL d   1      -3.590   5.993  -5.808  0.00  0.00    -0.097 F 
ATOM     12  F4  UNL d   1      -1.104   4.997  -5.289  0.00  0.00    -0.092 F 
ENDROOT
TORSDOF 0
ENDMDL
