MODEL 1
REMARK minimizedAffinity 25.3739071
REMARK minimizedRMSD -1
REMARK  0 active torsions:
REMARK  status: ('A' for Active; 'I' for Inactive)
ROOT
ATOM      1  C   UNL d   1       1.407  -3.920  -1.049  0.00  0.00     0.124 A 
ATOM      2  C1  UNL d   1       1.789  -3.121   0.020  0.00  0.00     0.062 A 
ATOM      3  C2  UNL d   1       3.040  -3.288   0.606  0.00  0.00     0.162 A 
ATOM      4  C3  UNL d   1       3.920  -4.257   0.123  0.00  0.00    -0.034 A 
ATOM      5  C4  UNL d   1       3.528  -5.057  -0.951  0.00  0.00     0.162 A 
ATOM      6  C5  UNL d   1       2.276  -4.887  -1.534  0.00  0.00     0.062 A 
ATOM      7  F   UNL d   1       1.909  -5.659  -2.566  0.00  0.00    -0.097 F 
ATOM      8  F1  UNL d   1       4.349  -5.998  -1.440  0.00  0.00    -0.096 F 
ATOM      9  I   UNL d   1       5.792  -4.509   0.996  0.00  0.00    -0.060 I 
ATOM     10  F2  UNL d   1       3.383  -2.502   1.637  0.00  0.00    -0.096 F 
ATOM     11  F3  UNL d   1       0.950  -2.187   0.491  0.00  0.00    -0.097 F 
ATOM     12  F4  UNL d   1       0.201  -3.758  -1.610  0.00  0.00    -0.092 F 
ENDROOT
TORSDOF 0
ENDMDL
