MODEL 1
REMARK minimizedAffinity 25.3542995
REMARK minimizedRMSD -1
REMARK  0 active torsions:
REMARK  status: ('A' for Active; 'I' for Inactive)
ROOT
ATOM      1  C   UNL d   1      -2.840   1.814   1.074  0.00  0.00     0.124 A 
ATOM      2  C1  UNL d   1      -2.716   1.149   2.286  0.00  0.00     0.062 A 
ATOM      3  C2  UNL d   1      -1.468   0.717   2.723  0.00  0.00     0.162 A 
ATOM      4  C3  UNL d   1      -0.331   0.949   1.948  0.00  0.00    -0.034 A 
ATOM      5  C4  UNL d   1      -0.464   1.617   0.729  0.00  0.00     0.162 A 
ATOM      6  C5  UNL d   1      -1.714   2.047   0.297  0.00  0.00     0.062 A 
ATOM      7  F   UNL d   1      -1.831   2.689  -0.875  0.00  0.00    -0.097 F 
ATOM      8  F1  UNL d   1       0.608   1.856  -0.041  0.00  0.00    -0.096 F 
ATOM      9  I   UNL d   1       1.537   0.304   2.598  0.00  0.00    -0.060 I 
ATOM     10  F2  UNL d   1      -1.378   0.078   3.899  0.00  0.00    -0.096 F 
ATOM     11  F3  UNL d   1      -3.803   0.922   3.038  0.00  0.00    -0.097 F 
ATOM     12  F4  UNL d   1      -4.043   2.228   0.655  0.00  0.00    -0.092 F 
ENDROOT
TORSDOF 0
ENDMDL
