MODEL 1
REMARK minimizedAffinity 2.52432752
REMARK minimizedRMSD -1
REMARK  0 active torsions:
REMARK  status: ('A' for Active; 'I' for Inactive)
ROOT
ATOM      1  C   UNL d   1      -5.989  -5.628   5.494  0.00  0.00     0.020 A 
ATOM      2  C1  UNL d   1      -5.368  -5.996   4.301  0.00  0.00     0.020 A 
ATOM      3  C2  UNL d   1      -4.576  -5.075   3.613  0.00  0.00     0.034 A 
ATOM      4  C3  UNL d   1      -4.403  -3.781   4.118  0.00  0.00     0.017 A 
ATOM      5  C4  UNL d   1      -5.026  -3.412   5.315  0.00  0.00     0.017 A 
ATOM      6  C5  UNL d   1      -5.818  -4.339   6.000  0.00  0.00     0.034 A 
ATOM      7 Cl   UNL d   1      -4.860  -1.834   6.000  0.00  0.00    -0.070 Cl
ATOM      8 Cl1  UNL d   1      -3.409  -2.693   3.215  0.00  0.00    -0.070 Cl
ENDROOT
TORSDOF 0
ENDMDL
