MODEL 1
REMARK minimizedAffinity 11.5415134
REMARK minimizedRMSD -1
REMARK  0 active torsions:
REMARK  status: ('A' for Active; 'I' for Inactive)
ROOT
ATOM      1  C   UNL d   1       2.672   0.171   1.398  0.00  0.00     0.020 A 
ATOM      2  C1  UNL d   1       2.551   1.238   0.508  0.00  0.00     0.020 A 
ATOM      3  C2  UNL d   1       3.395   2.344   0.626  0.00  0.00     0.034 A 
ATOM      4  C3  UNL d   1       4.364   2.387   1.635  0.00  0.00     0.017 A 
ATOM      5  C4  UNL d   1       4.485   1.315   2.527  0.00  0.00     0.017 A 
ATOM      6  C5  UNL d   1       3.637   0.210   2.405  0.00  0.00     0.034 A 
ATOM      7 Cl   UNL d   1       5.656   1.295   3.798  0.00  0.00    -0.070 Cl
ATOM      8 Cl1  UNL d   1       5.374   3.786   1.721  0.00  0.00    -0.070 Cl
ENDROOT
TORSDOF 0
ENDMDL
