MODEL 1
REMARK minimizedAffinity 13.2742023
REMARK minimizedRMSD -1
REMARK  0 active torsions:
REMARK  status: ('A' for Active; 'I' for Inactive)
ROOT
ATOM      1  C   UNL d   1       1.552  -1.335   4.029  0.00  0.00     0.020 A 
ATOM      2  C1  UNL d   1       1.402  -2.397   3.139  0.00  0.00     0.020 A 
ATOM      3  C2  UNL d   1       0.314  -2.426   2.263  0.00  0.00     0.034 A 
ATOM      4  C3  UNL d   1      -0.627  -1.390   2.276  0.00  0.00     0.017 A 
ATOM      5  C4  UNL d   1      -0.475  -0.324   3.170  0.00  0.00     0.017 A 
ATOM      6  C5  UNL d   1       0.616  -0.300   4.044  0.00  0.00     0.034 A 
ATOM      7 Cl   UNL d   1      -1.594   0.991   3.244  0.00  0.00    -0.070 Cl
ATOM      8 Cl1  UNL d   1      -1.947  -1.489   1.165  0.00  0.00    -0.070 Cl
ENDROOT
TORSDOF 0
ENDMDL
