MODEL 1
REMARK minimizedAffinity 10.6789083
REMARK minimizedRMSD -1
REMARK  0 active torsions:
REMARK  status: ('A' for Active; 'I' for Inactive)
ROOT
ATOM      1  C   UNL d   1       2.296   2.823  -3.323  0.00  0.00     0.020 A 
ATOM      2  C1  UNL d   1       3.086   2.524  -4.433  0.00  0.00     0.020 A 
ATOM      3  C2  UNL d   1       4.210   3.302  -4.720  0.00  0.00     0.034 A 
ATOM      4  C3  UNL d   1       4.547   4.383  -3.897  0.00  0.00     0.017 A 
ATOM      5  C4  UNL d   1       3.753   4.682  -2.783  0.00  0.00     0.017 A 
ATOM      6  C5  UNL d   1       2.629   3.900  -2.501  0.00  0.00     0.034 A 
ATOM      7 Cl   UNL d   1       4.105   6.000  -1.722  0.00  0.00    -0.070 Cl
ATOM      8 Cl1  UNL d   1       5.950   5.302  -4.311  0.00  0.00    -0.070 Cl
ENDROOT
TORSDOF 0
ENDMDL
