MODEL 1
REMARK minimizedAffinity -1.31159556
REMARK minimizedRMSD -1
REMARK  0 active torsions:
REMARK  status: ('A' for Active; 'I' for Inactive)
ROOT
ATOM      1  C   UNL d   1       5.067  -5.997  -0.752  0.00  0.00     0.020 A 
ATOM      2  C1  UNL d   1       6.000  -5.044  -1.158  0.00  0.00     0.020 A 
ATOM      3  C2  UNL d   1       5.647  -3.693  -1.195  0.00  0.00     0.034 A 
ATOM      4  C3  UNL d   1       4.358  -3.292  -0.825  0.00  0.00     0.017 A 
ATOM      5  C4  UNL d   1       3.422  -4.249  -0.418  0.00  0.00     0.017 A 
ATOM      6  C5  UNL d   1       3.781  -5.600  -0.382  0.00  0.00     0.034 A 
ATOM      7 Cl   UNL d   1       1.813  -3.830   0.053  0.00  0.00    -0.070 Cl
ATOM      8 Cl1  UNL d   1       3.991  -1.605  -0.895  0.00  0.00    -0.070 Cl
ENDROOT
TORSDOF 0
ENDMDL
