MODEL 1
REMARK minimizedAffinity 14.9303036
REMARK minimizedRMSD -1
REMARK  0 active torsions:
REMARK  status: ('A' for Active; 'I' for Inactive)
ROOT
ATOM      1  C   UNL d   1      -0.572  -1.977   1.493  0.00  0.00     0.020 A 
ATOM      2  C1  UNL d   1       0.088  -1.249   2.482  0.00  0.00     0.020 A 
ATOM      3  C2  UNL d   1      -0.537  -0.149   3.074  0.00  0.00     0.034 A 
ATOM      4  C3  UNL d   1      -1.826   0.226   2.677  0.00  0.00     0.017 A 
ATOM      5  C4  UNL d   1      -2.487  -0.505   1.684  0.00  0.00     0.017 A 
ATOM      6  C5  UNL d   1      -1.857  -1.605   1.095  0.00  0.00     0.034 A 
ATOM      7 Cl   UNL d   1      -4.078  -0.102   1.141  0.00  0.00    -0.070 Cl
ATOM      8 Cl1  UNL d   1      -2.538   1.597   3.452  0.00  0.00    -0.070 Cl
ENDROOT
TORSDOF 0
ENDMDL
