MODEL 1
REMARK minimizedAffinity 7.85796833
REMARK minimizedRMSD -1
REMARK  0 active torsions:
REMARK  status: ('A' for Active; 'I' for Inactive)
ROOT
ATOM      1  C   UNL d   1      -1.696   0.335   3.835  0.00  0.00     0.020 A 
ATOM      2  C1  UNL d   1      -1.867   0.910   5.093  0.00  0.00     0.020 A 
ATOM      3  C2  UNL d   1      -3.124   1.376   5.483  0.00  0.00     0.034 A 
ATOM      4  C3  UNL d   1      -4.216   1.267   4.614  0.00  0.00     0.017 A 
ATOM      5  C4  UNL d   1      -4.043   0.689   3.351  0.00  0.00     0.017 A 
ATOM      6  C5  UNL d   1      -2.782   0.225   2.966  0.00  0.00     0.034 A 
ATOM      7 Cl   UNL d   1      -5.343   0.520   2.224  0.00  0.00    -0.070 Cl
ATOM      8 Cl1  UNL d   1      -5.742   1.864   5.162  0.00  0.00    -0.070 Cl
ENDROOT
TORSDOF 0
ENDMDL
