MODEL 1
REMARK minimizedAffinity 14.791893
REMARK minimizedRMSD -1
REMARK  0 active torsions:
REMARK  status: ('A' for Active; 'I' for Inactive)
ROOT
ATOM      1  C   UNL d   1      -0.124   3.981  -2.240  0.00  0.00     0.020 A 
ATOM      2  C1  UNL d   1       0.078   5.253  -1.705  0.00  0.00     0.020 A 
ATOM      3  C2  UNL d   1       1.369   5.780  -1.627  0.00  0.00     0.034 A 
ATOM      4  C3  UNL d   1       2.463   5.036  -2.083  0.00  0.00     0.017 A 
ATOM      5  C4  UNL d   1       2.259   3.759  -2.619  0.00  0.00     0.017 A 
ATOM      6  C5  UNL d   1       0.964   3.236  -2.696  0.00  0.00     0.034 A 
ATOM      7 Cl   UNL d   1       3.559   2.780  -3.203  0.00  0.00    -0.070 Cl
ATOM      8 Cl1  UNL d   1       4.031   5.750  -1.955  0.00  0.00    -0.070 Cl
ENDROOT
TORSDOF 0
ENDMDL
