MODEL 1
REMARK minimizedAffinity 7.7486496
REMARK minimizedRMSD -1
REMARK  0 active torsions:
REMARK  status: ('A' for Active; 'I' for Inactive)
ROOT
ATOM      1  C   UNL d   1      -6.000  -0.378  -3.804  0.00  0.00     0.020 A 
ATOM      2  C1  UNL d   1      -5.977  -1.563  -3.070  0.00  0.00     0.020 A 
ATOM      3  C2  UNL d   1      -5.934  -1.519  -1.674  0.00  0.00     0.034 A 
ATOM      4  C3  UNL d   1      -5.914  -0.288  -1.009  0.00  0.00     0.017 A 
ATOM      5  C4  UNL d   1      -5.936   0.901  -1.747  0.00  0.00     0.017 A 
ATOM      6  C5  UNL d   1      -5.979   0.852  -3.144  0.00  0.00     0.034 A 
ATOM      7 Cl   UNL d   1      -5.913   2.458  -0.997  0.00  0.00    -0.070 Cl
ATOM      8 Cl1  UNL d   1      -5.861  -0.308   0.718  0.00  0.00    -0.070 Cl
ENDROOT
TORSDOF 0
ENDMDL
