MODEL 1
REMARK minimizedAffinity 11.1721706
REMARK minimizedRMSD -1
REMARK  0 active torsions:
REMARK  status: ('A' for Active; 'I' for Inactive)
ROOT
ATOM      1  C   UNL d   1       0.910   1.510  -2.615  0.00  0.00     0.020 A 
ATOM      2  C1  UNL d   1       1.894   2.081  -1.808  0.00  0.00     0.020 A 
ATOM      3  C2  UNL d   1       1.970   3.469  -1.677  0.00  0.00     0.034 A 
ATOM      4  C3  UNL d   1       1.060   4.291  -2.353  0.00  0.00     0.017 A 
ATOM      5  C4  UNL d   1       0.073   3.717  -3.162  0.00  0.00     0.017 A 
ATOM      6  C5  UNL d   1       0.002   2.326  -3.290  0.00  0.00     0.034 A 
ATOM      7 Cl   UNL d   1      -1.084   4.666  -4.026  0.00  0.00    -0.070 Cl
ATOM      8 Cl1  UNL d   1       1.213   6.000  -2.144  0.00  0.00    -0.070 Cl
ENDROOT
TORSDOF 0
ENDMDL
