MODEL 1
REMARK minimizedAffinity 15.2888985
REMARK minimizedRMSD -1
REMARK  0 active torsions:
REMARK  status: ('A' for Active; 'I' for Inactive)
ROOT
ATOM      1  C   UNL d   1      -2.280   5.329  -4.773  0.00  0.00     0.020 A 
ATOM      2  C1  UNL d   1      -1.265   4.567  -5.350  0.00  0.00     0.020 A 
ATOM      3  C2  UNL d   1      -0.334   3.915  -4.538  0.00  0.00     0.034 A 
ATOM      4  C3  UNL d   1      -0.417   4.023  -3.145  0.00  0.00     0.017 A 
ATOM      5  C4  UNL d   1      -1.437   4.788  -2.567  0.00  0.00     0.017 A 
ATOM      6  C5  UNL d   1      -2.366   5.439  -3.385  0.00  0.00     0.034 A 
ATOM      7 Cl   UNL d   1      -1.605   4.968  -0.856  0.00  0.00    -0.070 Cl
ATOM      8 Cl1  UNL d   1       0.767   3.190  -2.202  0.00  0.00    -0.070 Cl
ENDROOT
TORSDOF 0
ENDMDL
