MODEL 1
REMARK minimizedAffinity 13.2629309
REMARK minimizedRMSD -1
REMARK  0 active torsions:
REMARK  status: ('A' for Active; 'I' for Inactive)
ROOT
ATOM      1  C   UNL d   1       0.527   4.079  -2.354  0.00  0.00     0.020 A 
ATOM      2  C1  UNL d   1       0.334   3.000  -1.493  0.00  0.00     0.020 A 
ATOM      3  C2  UNL d   1       1.349   2.057  -1.317  0.00  0.00     0.034 A 
ATOM      4  C3  UNL d   1       2.562   2.192  -2.004  0.00  0.00     0.017 A 
ATOM      5  C4  UNL d   1       2.754   3.276  -2.868  0.00  0.00     0.017 A 
ATOM      6  C5  UNL d   1       1.734   4.217  -3.040  0.00  0.00     0.034 A 
ATOM      7 Cl   UNL d   1       4.222   3.510  -3.749  0.00  0.00    -0.070 Cl
ATOM      8 Cl1  UNL d   1       3.773   0.989  -1.738  0.00  0.00    -0.070 Cl
ENDROOT
TORSDOF 0
ENDMDL
