MODEL 1
REMARK minimizedAffinity 12.0684214
REMARK minimizedRMSD -1
REMARK  0 active torsions:
REMARK  status: ('A' for Active; 'I' for Inactive)
ROOT
ATOM      1  C   UNL d   1       5.409   5.231  -2.498  0.00  0.00     0.020 A 
ATOM      2  C1  UNL d   1       6.000   5.278  -3.760  0.00  0.00     0.020 A 
ATOM      3  C2  UNL d   1       5.423   4.587  -4.827  0.00  0.00     0.034 A 
ATOM      4  C3  UNL d   1       4.252   3.845  -4.634  0.00  0.00     0.017 A 
ATOM      5  C4  UNL d   1       3.659   3.799  -3.367  0.00  0.00     0.017 A 
ATOM      6  C5  UNL d   1       4.241   4.493  -2.302  0.00  0.00     0.034 A 
ATOM      7 Cl   UNL d   1       2.214   2.905  -3.052  0.00  0.00    -0.070 Cl
ATOM      8 Cl1  UNL d   1       3.593   3.015  -5.999  0.00  0.00    -0.070 Cl
ENDROOT
TORSDOF 0
ENDMDL
