MODEL 1
REMARK minimizedAffinity 14.7399645
REMARK minimizedRMSD -1
REMARK  0 active torsions:
REMARK  status: ('A' for Active; 'I' for Inactive)
ROOT
ATOM      1  C   UNL d   1      -0.329  -0.769   2.362  0.00  0.00     0.020 A 
ATOM      2  C1  UNL d   1      -1.676  -0.913   2.034  0.00  0.00     0.020 A 
ATOM      3  C2  UNL d   1      -2.106  -2.039   1.327  0.00  0.00     0.034 A 
ATOM      4  C3  UNL d   1      -1.188  -3.024   0.946  0.00  0.00     0.017 A 
ATOM      5  C4  UNL d   1       0.165  -2.877   1.276  0.00  0.00     0.017 A 
ATOM      6  C5  UNL d   1       0.589  -1.749   1.983  0.00  0.00     0.034 A 
ATOM      7 Cl   UNL d   1       1.357  -4.051   0.840  0.00  0.00    -0.070 Cl
ATOM      8 Cl1  UNL d   1      -1.789  -4.389   0.074  0.00  0.00    -0.070 Cl
ENDROOT
TORSDOF 0
ENDMDL
