MODEL 1
REMARK minimizedAffinity 10.3287811
REMARK minimizedRMSD -1
REMARK  0 active torsions:
REMARK  status: ('A' for Active; 'I' for Inactive)
ROOT
ATOM      1  C   UNL d   1       5.999   4.189  -4.967  0.00  0.00     0.020 A 
ATOM      2  C1  UNL d   1       4.922   3.465  -5.477  0.00  0.00     0.020 A 
ATOM      3  C2  UNL d   1       3.842   3.145  -4.651  0.00  0.00     0.034 A 
ATOM      4  C3  UNL d   1       3.837   3.548  -3.311  0.00  0.00     0.017 A 
ATOM      5  C4  UNL d   1       4.919   4.274  -2.800  0.00  0.00     0.017 A 
ATOM      6  C5  UNL d   1       5.997   4.592  -3.631  0.00  0.00     0.034 A 
ATOM      7 Cl   UNL d   1       4.985   4.806  -1.156  0.00  0.00    -0.070 Cl
ATOM      8 Cl1  UNL d   1       2.469   3.117  -2.347  0.00  0.00    -0.070 Cl
ENDROOT
TORSDOF 0
ENDMDL
