MODEL 1
REMARK minimizedAffinity 9.28829002
REMARK minimizedRMSD -1
REMARK  0 active torsions:
REMARK  status: ('A' for Active; 'I' for Inactive)
ROOT
ATOM      1  C   UNL d   1      -0.013   4.113  -2.706  0.00  0.00     0.020 A 
ATOM      2  C1  UNL d   1       0.430   5.383  -2.339  0.00  0.00     0.020 A 
ATOM      3  C2  UNL d   1       1.797   5.633  -2.202  0.00  0.00     0.034 A 
ATOM      4  C3  UNL d   1       2.726   4.610  -2.431  0.00  0.00     0.017 A 
ATOM      5  C4  UNL d   1       2.279   3.336  -2.799  0.00  0.00     0.017 A 
ATOM      6  C5  UNL d   1       0.909   3.092  -2.935  0.00  0.00     0.034 A 
ATOM      7 Cl   UNL d   1       3.365   2.025  -3.098  0.00  0.00    -0.070 Cl
ATOM      8 Cl1  UNL d   1       4.401   4.990  -2.242  0.00  0.00    -0.070 Cl
ENDROOT
TORSDOF 0
ENDMDL
