MODEL 1
REMARK minimizedAffinity 5.1117177
REMARK minimizedRMSD -1
REMARK  0 active torsions:
REMARK  status: ('A' for Active; 'I' for Inactive)
ROOT
ATOM      1  C   UNL d   1       5.273   3.125   1.733  0.00  0.00     0.020 A 
ATOM      2  C1  UNL d   1       5.893   3.240   0.489  0.00  0.00     0.020 A 
ATOM      3  C2  UNL d   1       5.327   2.627  -0.631  0.00  0.00     0.034 A 
ATOM      4  C3  UNL d   1       4.140   1.897  -0.510  0.00  0.00     0.017 A 
ATOM      5  C4  UNL d   1       3.519   1.782   0.739  0.00  0.00     0.017 A 
ATOM      6  C5  UNL d   1       4.089   2.398   1.858  0.00  0.00     0.034 A 
ATOM      7 Cl   UNL d   1       2.052   0.897   0.968  0.00  0.00    -0.070 Cl
ATOM      8 Cl1  UNL d   1       3.497   1.166  -1.937  0.00  0.00    -0.070 Cl
ENDROOT
TORSDOF 0
ENDMDL
