MODEL 1
REMARK minimizedAffinity 11.3558388
REMARK minimizedRMSD -1
REMARK  0 active torsions:
REMARK  status: ('A' for Active; 'I' for Inactive)
ROOT
ATOM      1  C   UNL d   1      -5.999  -1.437  -1.706  0.00  0.00     0.020 A 
ATOM      2  C1  UNL d   1      -5.999  -0.523  -2.758  0.00  0.00     0.020 A 
ATOM      3  C2  UNL d   1      -5.772   0.832  -2.506  0.00  0.00     0.034 A 
ATOM      4  C3  UNL d   1      -5.544   1.276  -1.199  0.00  0.00     0.017 A 
ATOM      5  C4  UNL d   1      -5.544   0.357  -0.143  0.00  0.00     0.017 A 
ATOM      6  C5  UNL d   1      -5.772  -0.998  -0.401  0.00  0.00     0.034 A 
ATOM      7 Cl   UNL d   1      -5.270   0.830   1.497  0.00  0.00    -0.070 Cl
ATOM      8 Cl1  UNL d   1      -5.269   2.965  -0.960  0.00  0.00    -0.070 Cl
ENDROOT
TORSDOF 0
ENDMDL
