MODEL 1
REMARK minimizedAffinity 4.20016813
REMARK minimizedRMSD -1
REMARK  1 active torsions:
REMARK  status: ('A' for Active; 'I' for Inactive)
REMARK    1  A    between atoms: C3_4  and  O_7 
ROOT
ATOM      1  C   UNL d   1       5.354  -3.223  -3.123  0.00  0.00    -0.033 A 
ATOM      2  C1  UNL d   1       4.382  -2.282  -3.469  0.00  0.00     0.039 A 
ATOM      3  C2  UNL d   1       3.656  -1.626  -2.473  0.00  0.00    -0.080 A 
ATOM      4  C3  UNL d   1       3.911  -1.920  -1.136  0.00  0.00     0.150 A 
ATOM      5  C4  UNL d   1       4.880  -2.853  -0.784  0.00  0.00    -0.007 A 
ATOM      6  C5  UNL d   1       5.604  -3.508  -1.780  0.00  0.00     0.039 A 
ENDROOT
BRANCH   4   7
ATOM      7  O   UNL d   1       3.225  -1.309  -0.129  0.00  0.00    -0.526 OA
ATOM      8  H5  UNL d   1       2.568  -0.710  -0.523  0.00  0.00     0.418 HD
ENDBRANCH   4   7
TORSDOF 1
ENDMDL
