MODEL 1
REMARK minimizedAffinity -0.50636667
REMARK minimizedRMSD -1
REMARK  1 active torsions:
REMARK  status: ('A' for Active; 'I' for Inactive)
REMARK    1  A    between atoms: C3_4  and  O_7 
ROOT
ATOM      1  C   UNL d   1       4.624  -3.109  -0.625  0.00  0.00    -0.033 A 
ATOM      2  C1  UNL d   1       3.377  -2.837  -1.192  0.00  0.00     0.039 A 
ATOM      3  C2  UNL d   1       3.296  -2.166  -2.414  0.00  0.00    -0.080 A 
ATOM      4  C3  UNL d   1       4.466  -1.774  -3.058  0.00  0.00     0.150 A 
ATOM      5  C4  UNL d   1       5.712  -2.044  -2.500  0.00  0.00    -0.007 A 
ATOM      6  C5  UNL d   1       5.791  -2.714  -1.279  0.00  0.00     0.039 A 
ENDROOT
BRANCH   4   7
ATOM      7  O   UNL d   1       4.437  -1.112  -4.249  0.00  0.00    -0.526 OA
ATOM      8  H5  UNL d   1       3.509  -0.969  -4.499  0.00  0.00     0.418 HD
ENDBRANCH   4   7
TORSDOF 1
ENDMDL
