MODEL 1
REMARK minimizedAffinity -1.69427359
REMARK minimizedRMSD -1
REMARK  1 active torsions:
REMARK  status: ('A' for Active; 'I' for Inactive)
REMARK    1  A    between atoms: C3_4  and  O_7 
ROOT
ATOM      1  C   UNL d   1       4.611  -5.876  -1.528  0.00  0.00    -0.033 A 
ATOM      2  C1  UNL d   1       3.333  -5.325  -1.643  0.00  0.00     0.039 A 
ATOM      3  C2  UNL d   1       3.155  -4.097  -2.282  0.00  0.00    -0.080 A 
ATOM      4  C3  UNL d   1       4.261  -3.430  -2.802  0.00  0.00     0.150 A 
ATOM      5  C4  UNL d   1       5.537  -3.975  -2.694  0.00  0.00    -0.007 A 
ATOM      6  C5  UNL d   1       5.712  -5.202  -2.055  0.00  0.00     0.039 A 
ENDROOT
BRANCH   4   7
ATOM      7  O   UNL d   1       4.138  -2.227  -3.430  0.00  0.00    -0.526 OA
ATOM      8  H5  UNL d   1       3.204  -1.960  -3.404  0.00  0.00     0.418 HD
ENDBRANCH   4   7
TORSDOF 1
ENDMDL
