MODEL 1
REMARK minimizedAffinity 4.01848078
REMARK minimizedRMSD -1
REMARK  1 active torsions:
REMARK  status: ('A' for Active; 'I' for Inactive)
REMARK    1  A    between atoms: C3_4  and  O_7 
ROOT
ATOM      1  C   UNL d   1       2.994  -4.791  -1.474  0.00  0.00    -0.033 A 
ATOM      2  C1  UNL d   1       3.006  -4.130  -2.704  0.00  0.00     0.039 A 
ATOM      3  C2  UNL d   1       4.011  -4.401  -3.635  0.00  0.00    -0.080 A 
ATOM      4  C3  UNL d   1       4.995  -5.335  -3.324  0.00  0.00     0.150 A 
ATOM      5  C4  UNL d   1       4.987  -6.000  -2.103  0.00  0.00    -0.007 A 
ATOM      6  C5  UNL d   1       3.983  -5.727  -1.174  0.00  0.00     0.039 A 
ENDROOT
BRANCH   4   7
ATOM      7  O   UNL d   1       5.999  -5.630  -4.198  0.00  0.00    -0.526 OA
ATOM      8  H5  UNL d   1       5.893  -5.073  -4.988  0.00  0.00     0.418 HD
ENDBRANCH   4   7
TORSDOF 1
ENDMDL
