MODEL 1
REMARK minimizedAffinity 0.870397687
REMARK minimizedRMSD -1
REMARK  1 active torsions:
REMARK  status: ('A' for Active; 'I' for Inactive)
REMARK    1  A    between atoms: C3_4  and  O_7 
ROOT
ATOM      1  C   UNL d   1       2.997  -3.118  -2.226  0.00  0.00    -0.033 A 
ATOM      2  C1  UNL d   1       3.912  -2.454  -3.046  0.00  0.00     0.039 A 
ATOM      3  C2  UNL d   1       4.927  -3.170  -3.684  0.00  0.00    -0.080 A 
ATOM      4  C3  UNL d   1       5.016  -4.546  -3.495  0.00  0.00     0.150 A 
ATOM      5  C4  UNL d   1       4.106  -5.214  -2.682  0.00  0.00    -0.007 A 
ATOM      6  C5  UNL d   1       3.093  -4.498  -2.046  0.00  0.00     0.039 A 
ENDROOT
BRANCH   4   7
ATOM      7  O   UNL d   1       5.993  -5.286  -4.092  0.00  0.00    -0.526 OA
ATOM      8  H5  UNL d   1       6.566  -4.687  -4.600  0.00  0.00     0.418 HD
ENDBRANCH   4   7
TORSDOF 1
ENDMDL
