MODEL 1
REMARK minimizedAffinity -1.05790722
REMARK minimizedRMSD -1
REMARK  0 active torsions:
REMARK  status: ('A' for Active; 'I' for Inactive)
ROOT
ATOM      1  C1  DEN d   1       3.269  -4.881  -3.837  0.00  0.00     0.130 A 
ATOM      2  C2  DEN d   1       2.796  -3.568  -4.268  0.00  0.00    -0.031 A 
ATOM      3  C3  DEN d   1       3.387  -2.553  -3.373  0.00  0.00     0.027 A 
ATOM      4  C4  DEN d   1       4.985  -2.884  -1.376  0.00  0.00     0.027 A 
ATOM      5  C5  DEN d   1       5.658  -3.818  -0.620  0.00  0.00    -0.003 A 
ATOM      6  C6  DEN d   1       5.556  -5.163  -0.860  0.00  0.00     0.001 A 
ATOM      7  C7  DEN d   1       4.799  -5.609  -1.910  0.00  0.00     0.017 A 
ATOM      8  C8  DEN d   1       4.111  -4.674  -2.672  0.00  0.00    -0.094 A 
ATOM      9  C9  DEN d   1       4.237  -3.319  -2.421  0.00  0.00    -0.072 A 
ENDROOT
TORSDOF 0
ENDMDL
