MODEL 1
REMARK minimizedAffinity 0.102144875
REMARK minimizedRMSD -1
REMARK  0 active torsions:
REMARK  status: ('A' for Active; 'I' for Inactive)
ROOT
ATOM      1  C1  DEN d   1       4.532  -1.933  -2.533  0.00  0.00     0.130 A 
ATOM      2  C2  DEN d   1       3.736  -1.922  -3.757  0.00  0.00    -0.031 A 
ATOM      3  C3  DEN d   1       3.385  -3.319  -4.086  0.00  0.00     0.027 A 
ATOM      4  C4  DEN d   1       3.989  -5.484  -2.822  0.00  0.00     0.027 A 
ATOM      5  C5  DEN d   1       4.659  -6.000  -1.734  0.00  0.00    -0.003 A 
ATOM      6  C6  DEN d   1       5.356  -5.206  -0.863  0.00  0.00     0.001 A 
ATOM      7  C7  DEN d   1       5.362  -3.847  -1.039  0.00  0.00     0.017 A 
ATOM      8  C8  DEN d   1       4.695  -3.321  -2.137  0.00  0.00    -0.094 A 
ATOM      9  C9  DEN d   1       3.985  -4.139  -3.000  0.00  0.00    -0.072 A 
ENDROOT
TORSDOF 0
ENDMDL
