MODEL 1
REMARK minimizedAffinity 6.52508068
REMARK minimizedRMSD -1
REMARK  0 active torsions:
REMARK  status: ('A' for Active; 'I' for Inactive)
ROOT
ATOM      1  C1  DEN d   1       3.160  -3.942  -3.766  0.00  0.00     0.130 A 
ATOM      2  C2  DEN d   1       3.382  -5.374  -3.948  0.00  0.00    -0.031 A 
ATOM      3  C3  DEN d   1       4.231  -5.850  -2.837  0.00  0.00     0.027 A 
ATOM      4  C4  DEN d   1       5.213  -4.516  -0.860  0.00  0.00     0.027 A 
ATOM      5  C5  DEN d   1       5.308  -3.268  -0.285  0.00  0.00    -0.003 A 
ATOM      6  C6  DEN d   1       4.727  -2.160  -0.843  0.00  0.00     0.001 A 
ATOM      7  C7  DEN d   1       3.986  -2.287  -1.988  0.00  0.00     0.017 A 
ATOM      8  C8  DEN d   1       3.892  -3.540  -2.578  0.00  0.00    -0.094 A 
ATOM      9  C9  DEN d   1       4.476  -4.650  -1.992  0.00  0.00    -0.072 A 
ENDROOT
TORSDOF 0
ENDMDL
