MODEL 1
REMARK minimizedAffinity 2.19873118
REMARK minimizedRMSD -1
REMARK  0 active torsions:
REMARK  status: ('A' for Active; 'I' for Inactive)
ROOT
ATOM      1  C1  DEN d   1       4.910  -4.703  -2.551  0.00  0.00     0.130 A 
ATOM      2  C2  DEN d   1       3.743  -5.579  -2.598  0.00  0.00    -0.031 A 
ATOM      3  C3  DEN d   1       2.745  -5.062  -1.640  0.00  0.00     0.027 A 
ATOM      4  C4  DEN d   1       2.892  -2.997  -0.101  0.00  0.00     0.027 A 
ATOM      5  C5  DEN d   1       3.692  -1.950   0.298  0.00  0.00    -0.003 A 
ATOM      6  C6  DEN d   1       4.957  -1.767  -0.195  0.00  0.00     0.001 A 
ATOM      7  C7  DEN d   1       5.442  -2.621  -1.150  0.00  0.00     0.017 A 
ATOM      8  C8  DEN d   1       4.644  -3.683  -1.553  0.00  0.00    -0.094 A 
ATOM      9  C9  DEN d   1       3.364  -3.843  -1.051  0.00  0.00    -0.072 A 
ENDROOT
TORSDOF 0
ENDMDL
