MODEL 1
REMARK minimizedAffinity -1.66668987
REMARK minimizedRMSD -1
REMARK  0 active torsions:
REMARK  status: ('A' for Active; 'I' for Inactive)
ROOT
ATOM      1  C1  DEN d   1       2.869  -2.067  -1.999  0.00  0.00     0.130 A 
ATOM      2  C2  DEN d   1       3.686  -1.396  -0.991  0.00  0.00    -0.031 A 
ATOM      3  C3  DEN d   1       4.941  -2.159  -0.840  0.00  0.00     0.027 A 
ATOM      4  C4  DEN d   1       5.698  -4.298  -2.065  0.00  0.00     0.027 A 
ATOM      5  C5  DEN d   1       5.338  -5.243  -3.000  0.00  0.00    -0.003 A 
ATOM      6  C6  DEN d   1       4.126  -5.215  -3.637  0.00  0.00     0.001 A 
ATOM      7  C7  DEN d   1       3.248  -4.196  -3.380  0.00  0.00     0.017 A 
ATOM      8  C8  DEN d   1       3.601  -3.243  -2.433  0.00  0.00    -0.094 A 
ATOM      9  C9  DEN d   1       4.836  -3.282  -1.809  0.00  0.00    -0.072 A 
ENDROOT
TORSDOF 0
ENDMDL
