MODEL 1
REMARK minimizedAffinity 4.37629175
REMARK minimizedRMSD -1
REMARK  0 active torsions:
REMARK  status: ('A' for Active; 'I' for Inactive)
ROOT
ATOM      1  C1  DEN d   1       2.299  -5.063   0.037  0.00  0.00     0.130 A 
ATOM      2  C2  DEN d   1       1.609  -5.677  -1.095  0.00  0.00    -0.031 A 
ATOM      3  C3  DEN d   1       2.092  -5.028  -2.330  0.00  0.00     0.027 A 
ATOM      4  C4  DEN d   1       3.835  -3.147  -2.601  0.00  0.00     0.027 A 
ATOM      5  C5  DEN d   1       4.684  -2.298  -1.926  0.00  0.00    -0.003 A 
ATOM      6  C6  DEN d   1       4.773  -2.288  -0.559  0.00  0.00     0.001 A 
ATOM      7  C7  DEN d   1       4.031  -3.175   0.176  0.00  0.00     0.017 A 
ATOM      8  C8  DEN d   1       3.167  -4.029  -0.497  0.00  0.00    -0.094 A 
ATOM      9  C9  DEN d   1       3.101  -4.032  -1.880  0.00  0.00    -0.072 A 
ENDROOT
TORSDOF 0
ENDMDL
