MODEL 1
REMARK minimizedAffinity -0.223077446
REMARK minimizedRMSD -1
REMARK  0 active torsions:
REMARK  status: ('A' for Active; 'I' for Inactive)
ROOT
ATOM      1  C1  DEN d   1       5.162  -5.606  -3.011  0.00  0.00     0.130 A 
ATOM      2  C2  DEN d   1       4.340  -5.576  -4.218  0.00  0.00    -0.031 A 
ATOM      3  C3  DEN d   1       3.522  -4.348  -4.183  0.00  0.00     0.027 A 
ATOM      4  C4  DEN d   1       3.450  -2.497  -2.388  0.00  0.00     0.027 A 
ATOM      5  C5  DEN d   1       3.960  -2.089  -1.175  0.00  0.00    -0.003 A 
ATOM      6  C6  DEN d   1       4.874  -2.835  -0.479  0.00  0.00     0.001 A 
ATOM      7  C7  DEN d   1       5.340  -4.008  -1.012  0.00  0.00     0.017 A 
ATOM      8  C8  DEN d   1       4.825  -4.429  -2.231  0.00  0.00    -0.094 A 
ATOM      9  C9  DEN d   1       3.911  -3.655  -2.925  0.00  0.00    -0.072 A 
ENDROOT
TORSDOF 0
ENDMDL
