MODEL 1
REMARK minimizedAffinity 4.76119423
REMARK minimizedRMSD -1
REMARK  0 active torsions:
REMARK  status: ('A' for Active; 'I' for Inactive)
ROOT
ATOM      1  C1  DEN d   1       5.004  -2.746  -0.719  0.00  0.00     0.130 A 
ATOM      2  C2  DEN d   1       5.067  -2.612  -2.172  0.00  0.00    -0.031 A 
ATOM      3  C3  DEN d   1       3.940  -3.372  -2.750  0.00  0.00     0.027 A 
ATOM      4  C4  DEN d   1       2.111  -4.731  -1.542  0.00  0.00     0.027 A 
ATOM      5  C5  DEN d   1       1.649  -5.146  -0.313  0.00  0.00    -0.003 A 
ATOM      6  C6  DEN d   1       2.286  -4.822   0.855  0.00  0.00     0.001 A 
ATOM      7  C7  DEN d   1       3.398  -4.022   0.822  0.00  0.00     0.017 A 
ATOM      8  C8  DEN d   1       3.874  -3.605  -0.414  0.00  0.00    -0.094 A 
ATOM      9  C9  DEN d   1       3.208  -3.934  -1.583  0.00  0.00    -0.072 A 
ENDROOT
TORSDOF 0
ENDMDL
