MODEL 1
REMARK minimizedAffinity 7.69631386
REMARK minimizedRMSD -1
REMARK  0 active torsions:
REMARK  status: ('A' for Active; 'I' for Inactive)
ROOT
ATOM      1  C1  DEN d   1       3.569  -1.551  -2.326  0.00  0.00     0.130 A 
ATOM      2  C2  DEN d   1       3.928  -1.234  -3.706  0.00  0.00    -0.031 A 
ATOM      3  C3  DEN d   1       4.264  -2.497  -4.392  0.00  0.00     0.027 A 
ATOM      4  C4  DEN d   1       4.261  -4.902  -3.458  0.00  0.00     0.027 A 
ATOM      5  C5  DEN d   1       4.039  -5.670  -2.336  0.00  0.00    -0.003 A 
ATOM      6  C6  DEN d   1       3.680  -5.120  -1.134  0.00  0.00     0.001 A 
ATOM      7  C7  DEN d   1       3.489  -3.767  -1.036  0.00  0.00     0.017 A 
ATOM      8  C8  DEN d   1       3.719  -2.985  -2.161  0.00  0.00    -0.094 A 
ATOM      9  C9  DEN d   1       4.069  -3.561  -3.370  0.00  0.00    -0.072 A 
ENDROOT
TORSDOF 0
ENDMDL
