MODEL 1
REMARK minimizedAffinity 9.14846706
REMARK minimizedRMSD -1
REMARK  0 active torsions:
REMARK  status: ('A' for Active; 'I' for Inactive)
ROOT
ATOM      1  C1  DEN d   1       0.271   2.518   1.564  0.00  0.00     0.130 A 
ATOM      2  C2  DEN d   1      -0.172   1.127   1.571  0.00  0.00    -0.031 A 
ATOM      3  C3  DEN d   1      -0.648   0.793   0.213  0.00  0.00     0.027 A 
ATOM      4  C4  DEN d   1      -0.737   2.286  -1.888  0.00  0.00     0.027 A 
ATOM      5  C5  DEN d   1      -0.480   3.546  -2.382  0.00  0.00    -0.003 A 
ATOM      6  C6  DEN d   1       0.009   4.553  -1.593  0.00  0.00     0.001 A 
ATOM      7  C7  DEN d   1       0.299   4.305  -0.277  0.00  0.00     0.017 A 
ATOM      8  C8  DEN d   1       0.036   3.039   0.229  0.00  0.00    -0.094 A 
ATOM      9  C9  DEN d   1      -0.447   2.030  -0.587  0.00  0.00    -0.072 A 
ENDROOT
TORSDOF 0
ENDMDL
