MODEL 1
REMARK minimizedAffinity 1.04712307
REMARK minimizedRMSD -1
REMARK  0 active torsions:
REMARK  status: ('A' for Active; 'I' for Inactive)
ROOT
ATOM      1  C1  DEN d   1       3.749  -2.113  -0.863  0.00  0.00     0.130 A 
ATOM      2  C2  DEN d   1       4.902  -1.873  -0.000  0.00  0.00    -0.031 A 
ATOM      3  C3  DEN d   1       5.734  -3.092   0.001  0.00  0.00     0.027 A 
ATOM      4  C4  DEN d   1       5.353  -5.317  -1.248  0.00  0.00     0.027 A 
ATOM      5  C5  DEN d   1       4.506  -5.999  -2.093  0.00  0.00    -0.003 A 
ATOM      6  C6  DEN d   1       3.340  -5.451  -2.557  0.00  0.00     0.001 A 
ATOM      7  C7  DEN d   1       3.010  -4.166  -2.213  0.00  0.00     0.017 A 
ATOM      8  C8  DEN d   1       3.856  -3.475  -1.356  0.00  0.00    -0.094 A 
ATOM      9  C9  DEN d   1       5.037  -4.042  -0.908  0.00  0.00    -0.072 A 
ENDROOT
TORSDOF 0
ENDMDL
