MODEL 1
REMARK minimizedAffinity 9.56738281
REMARK minimizedRMSD -1
REMARK  0 active torsions:
REMARK  status: ('A' for Active; 'I' for Inactive)
ROOT
ATOM      1  C1  DEN d   1       0.647   5.387   0.250  0.00  0.00     0.130 A 
ATOM      2  C2  DEN d   1       0.765   5.879  -1.120  0.00  0.00    -0.031 A 
ATOM      3  C3  DEN d   1       0.422   4.771  -2.034  0.00  0.00     0.027 A 
ATOM      4  C4  DEN d   1      -0.282   2.356  -1.464  0.00  0.00     0.027 A 
ATOM      5  C5  DEN d   1      -0.512   1.467  -0.438  0.00  0.00    -0.003 A 
ATOM      6  C6  DEN d   1      -0.341   1.809   0.878  0.00  0.00     0.001 A 
ATOM      7  C7  DEN d   1       0.029   3.087   1.204  0.00  0.00     0.017 A 
ATOM      8  C8  DEN d   1       0.271   3.987   0.174  0.00  0.00    -0.094 A 
ATOM      9  C9  DEN d   1       0.080   3.625  -1.148  0.00  0.00    -0.072 A 
ENDROOT
TORSDOF 0
ENDMDL
