MODEL 1
REMARK minimizedAffinity 10.9440861
REMARK minimizedRMSD -1
REMARK  1 active torsions:
REMARK  status: ('A' for Active; 'I' for Inactive)
REMARK    1  A    between atoms: C1_2  and  C2_3 
ROOT
ATOM      1  C2  UNL d   1       2.770  -1.747   1.016  0.00  0.00    -0.081 A 
ATOM      2  C3  UNL d   1       1.623  -2.269   0.407  0.00  0.00     0.006 A 
ATOM      3  C4  UNL d   1       0.390  -2.225   1.063  0.00  0.00     0.002 A 
ATOM      4  C5  UNL d   1       0.283  -1.651   2.334  0.00  0.00    -0.080 A 
ATOM      5  C6  UNL d   1      -1.040  -1.570   3.036  0.00  0.00     0.076 C 
ATOM      6  C7  UNL d   1       1.432  -1.145   2.950  0.00  0.00     0.002 A 
ATOM      7  C8  UNL d   1       2.665  -1.190   2.296  0.00  0.00     0.006 A 
ENDROOT
BRANCH   1   8
ATOM      8  C1  UNL d   1       4.088  -1.734   0.285  0.00  0.00     0.054 C 
ATOM      9  C   UNL d   1       5.124  -2.592   0.998  0.00  0.00     0.018 C 
ENDBRANCH   1   8
TORSDOF 1
ENDMDL
