MODEL 1
REMARK minimizedAffinity 12.8644428
REMARK minimizedRMSD -1
REMARK  1 active torsions:
REMARK  status: ('A' for Active; 'I' for Inactive)
REMARK    1  A    between atoms: C1_2  and  C2_3 
ROOT
ATOM      1  C2  UNL d   1      -1.409   0.113   3.271  0.00  0.00    -0.081 A 
ATOM      2  C3  UNL d   1      -1.625  -1.105   2.614  0.00  0.00     0.006 A 
ATOM      3  C4  UNL d   1      -0.559  -1.791   2.026  0.00  0.00     0.002 A 
ATOM      4  C5  UNL d   1       0.740  -1.275   2.092  0.00  0.00    -0.080 A 
ATOM      5  C6  UNL d   1       1.897  -2.017   1.491  0.00  0.00     0.076 C 
ATOM      6  C7  UNL d   1       0.953  -0.050   2.733  0.00  0.00     0.002 A 
ATOM      7  C8  UNL d   1      -0.112   0.636   3.320  0.00  0.00     0.006 A 
ENDROOT
BRANCH   1   8
ATOM      8  C1  UNL d   1      -2.545   0.823   3.962  0.00  0.00     0.054 C 
ATOM      9  C   UNL d   1      -3.635   1.213   2.975  0.00  0.00     0.018 C 
ENDBRANCH   1   8
TORSDOF 1
ENDMDL
