MODEL 1
REMARK minimizedAffinity 7.06625509
REMARK minimizedRMSD -1
REMARK  1 active torsions:
REMARK  status: ('A' for Active; 'I' for Inactive)
REMARK    1  A    between atoms: C1_2  and  C2_3 
ROOT
ATOM      1  C2  UNL d   1       2.326  -3.000   0.939  0.00  0.00    -0.081 A 
ATOM      2  C3  UNL d   1       2.045  -4.356   0.734  0.00  0.00     0.006 A 
ATOM      3  C4  UNL d   1       3.078  -5.264   0.491  0.00  0.00     0.002 A 
ATOM      4  C5  UNL d   1       4.409  -4.834   0.459  0.00  0.00    -0.080 A 
ATOM      5  C6  UNL d   1       5.530  -5.804   0.230  0.00  0.00     0.076 C 
ATOM      6  C7  UNL d   1       4.688  -3.476   0.647  0.00  0.00     0.002 A 
ATOM      7  C8  UNL d   1       3.656  -2.567   0.888  0.00  0.00     0.006 A 
ENDROOT
BRANCH   1   8
ATOM      8  C1  UNL d   1       1.220  -2.029   1.265  0.00  0.00     0.054 C 
ATOM      9  C   UNL d   1       1.562  -1.190   2.488  0.00  0.00     0.018 C 
ENDBRANCH   1   8
TORSDOF 1
ENDMDL
