MODEL 1
REMARK minimizedAffinity 15.3232527
REMARK minimizedRMSD -1
REMARK  1 active torsions:
REMARK  status: ('A' for Active; 'I' for Inactive)
REMARK    1  A    between atoms: C1_2  and  C2_3 
ROOT
ATOM      1  C2  UNL d   1      -2.527   3.234  -3.442  0.00  0.00    -0.081 A 
ATOM      2  C3  UNL d   1      -1.164   2.935  -3.568  0.00  0.00     0.006 A 
ATOM      3  C4  UNL d   1      -0.623   1.816  -2.929  0.00  0.00     0.002 A 
ATOM      4  C5  UNL d   1      -1.436   0.975  -2.162  0.00  0.00    -0.080 A 
ATOM      5  C6  UNL d   1      -0.873  -0.246  -1.496  0.00  0.00     0.076 C 
ATOM      6  C7  UNL d   1      -2.793   1.283  -2.022  0.00  0.00     0.002 A 
ATOM      7  C8  UNL d   1      -3.335   2.402  -2.660  0.00  0.00     0.006 A 
ENDROOT
BRANCH   1   8
ATOM      8  C1  UNL d   1      -3.126   4.402  -4.182  0.00  0.00     0.054 C 
ATOM      9  C   UNL d   1      -4.329   4.968  -3.441  0.00  0.00     0.018 C 
ENDBRANCH   1   8
TORSDOF 1
ENDMDL
