MODEL 1
REMARK minimizedAffinity -0.40780881
REMARK minimizedRMSD -1
REMARK  0 active torsions:
REMARK  status: ('A' for Active; 'I' for Inactive)
ROOT
ATOM      1  C   UNL d   1       2.555   4.069  -0.856  0.00  0.00     0.077 C 
ATOM      2  C1  UNL d   1       3.719   4.531  -1.681  0.00  0.00    -0.074 A 
ATOM      3  C2  UNL d   1       4.915   4.930  -1.077  0.00  0.00    -0.005 A 
ATOM      4  C3  UNL d   1       5.992   5.347  -1.859  0.00  0.00     0.006 A 
ATOM      5  C4  UNL d   1       5.884   5.370  -3.250  0.00  0.00    -0.005 A 
ATOM      6  C5  UNL d   1       4.696   4.974  -3.872  0.00  0.00    -0.074 A 
ATOM      7  C6  UNL d   1       4.566   4.984  -5.366  0.00  0.00     0.077 C 
ATOM      8  C7  UNL d   1       3.620   4.549  -3.080  0.00  0.00    -0.001 A 
ENDROOT
TORSDOF 0
ENDMDL
