MODEL 1
REMARK minimizedAffinity -4.29595089
REMARK minimizedRMSD -1
REMARK  0 active torsions:
REMARK  status: ('A' for Active; 'I' for Inactive)
ROOT
ATOM      1  C   UNL d   1       5.998   5.851  -1.587  0.00  0.00     0.077 C 
ATOM      2  C1  UNL d   1       5.245   5.248  -2.735  0.00  0.00    -0.074 A 
ATOM      3  C2  UNL d   1       3.866   5.436  -2.868  0.00  0.00    -0.005 A 
ATOM      4  C3  UNL d   1       3.180   4.877  -3.947  0.00  0.00     0.006 A 
ATOM      5  C4  UNL d   1       3.866   4.126  -4.902  0.00  0.00    -0.005 A 
ATOM      6  C5  UNL d   1       5.246   3.928  -4.786  0.00  0.00    -0.074 A 
ATOM      7  C6  UNL d   1       6.000   3.131  -5.809  0.00  0.00     0.077 C 
ATOM      8  C7  UNL d   1       5.929   4.498  -3.703  0.00  0.00    -0.001 A 
ENDROOT
TORSDOF 0
ENDMDL
