MODEL 1
REMARK minimizedAffinity -1.89973259
REMARK minimizedRMSD -1
REMARK  0 active torsions:
REMARK  status: ('A' for Active; 'I' for Inactive)
ROOT
ATOM      1  C   UNL d   1       5.999   5.257  -2.053  0.00  0.00     0.077 C 
ATOM      2  C1  UNL d   1       5.399   4.711  -3.315  0.00  0.00    -0.074 A 
ATOM      3  C2  UNL d   1       4.310   5.342  -3.924  0.00  0.00    -0.005 A 
ATOM      4  C3  UNL d   1       3.769   4.829  -5.103  0.00  0.00     0.006 A 
ATOM      5  C4  UNL d   1       4.310   3.680  -5.682  0.00  0.00    -0.005 A 
ATOM      6  C5  UNL d   1       5.399   3.036  -5.088  0.00  0.00    -0.074 A 
ATOM      7  C6  UNL d   1       5.999   1.807  -5.703  0.00  0.00     0.077 C 
ATOM      8  C7  UNL d   1       5.942   3.563  -3.908  0.00  0.00    -0.001 A 
ENDROOT
TORSDOF 0
ENDMDL
