MODEL 1
REMARK minimizedAffinity -3.32108784
REMARK minimizedRMSD -1
REMARK  0 active torsions:
REMARK  status: ('A' for Active; 'I' for Inactive)
ROOT
ATOM      1  C   UNL d   1       5.236   5.242  -1.988  0.00  0.00     0.077 C 
ATOM      2  C1  UNL d   1       5.052   4.730  -3.385  0.00  0.00    -0.074 A 
ATOM      3  C2  UNL d   1       4.447   5.522  -4.367  0.00  0.00    -0.005 A 
ATOM      4  C3  UNL d   1       4.291   5.037  -5.665  0.00  0.00     0.006 A 
ATOM      5  C4  UNL d   1       4.738   3.756  -5.994  0.00  0.00    -0.005 A 
ATOM      6  C5  UNL d   1       5.346   2.950  -5.027  0.00  0.00    -0.074 A 
ATOM      7  C6  UNL d   1       5.840   1.576  -5.367  0.00  0.00     0.077 C 
ATOM      8  C7  UNL d   1       5.505   3.448  -3.726  0.00  0.00    -0.001 A 
ENDROOT
TORSDOF 0
ENDMDL
