MODEL 1
REMARK minimizedAffinity -3.14847231
REMARK minimizedRMSD -1
REMARK  0 active torsions:
REMARK  status: ('A' for Active; 'I' for Inactive)
ROOT
ATOM      1  C   UNL d   1       5.609   5.619  -1.988  0.00  0.00     0.077 C 
ATOM      2  C1  UNL d   1       5.279   5.180  -3.384  0.00  0.00    -0.074 A 
ATOM      3  C2  UNL d   1       4.534   5.999  -4.238  0.00  0.00    -0.005 A 
ATOM      4  C3  UNL d   1       4.243   5.582  -5.536  0.00  0.00     0.006 A 
ATOM      5  C4  UNL d   1       4.693   4.343  -5.993  0.00  0.00    -0.005 A 
ATOM      6  C5  UNL d   1       5.441   3.510  -5.154  0.00  0.00    -0.074 A 
ATOM      7  C6  UNL d   1       5.941   2.180  -5.633  0.00  0.00     0.077 C 
ATOM      8  C7  UNL d   1       5.735   3.940  -3.853  0.00  0.00    -0.001 A 
ENDROOT
TORSDOF 0
ENDMDL
