MODEL 1
REMARK minimizedAffinity -1.8027575
REMARK minimizedRMSD -1
REMARK  0 active torsions:
REMARK  status: ('A' for Active; 'I' for Inactive)
ROOT
ATOM      1  C   UNL d   1       5.989   2.442  -5.140  0.00  0.00     0.077 C 
ATOM      2  C1  UNL d   1       5.405   3.687  -4.540  0.00  0.00    -0.074 A 
ATOM      3  C2  UNL d   1       4.317   4.330  -5.138  0.00  0.00    -0.005 A 
ATOM      4  C3  UNL d   1       3.778   5.481  -4.563  0.00  0.00     0.006 A 
ATOM      5  C4  UNL d   1       4.321   6.000  -3.387  0.00  0.00    -0.005 A 
ATOM      6  C5  UNL d   1       5.409   5.369  -2.774  0.00  0.00    -0.074 A 
ATOM      7  C6  UNL d   1       5.998   5.908  -1.505  0.00  0.00     0.077 C 
ATOM      8  C7  UNL d   1       5.940   4.209  -3.354  0.00  0.00    -0.001 A 
ENDROOT
TORSDOF 0
ENDMDL
