MODEL 1
REMARK minimizedAffinity -4.99041367
REMARK minimizedRMSD -1
REMARK  0 active torsions:
REMARK  status: ('A' for Active; 'I' for Inactive)
ROOT
ATOM      1  C   UNL d   1       4.760   5.468  -1.265  0.00  0.00     0.077 C 
ATOM      2  C1  UNL d   1       4.424   4.999  -2.649  0.00  0.00    -0.074 A 
ATOM      3  C2  UNL d   1       3.239   5.399  -3.276  0.00  0.00    -0.005 A 
ATOM      4  C3  UNL d   1       2.944   4.962  -4.567  0.00  0.00     0.006 A 
ATOM      5  C4  UNL d   1       3.830   4.122  -5.244  0.00  0.00    -0.005 A 
ATOM      6  C5  UNL d   1       5.019   3.712  -4.633  0.00  0.00    -0.074 A 
ATOM      7  C6  UNL d   1       5.986   2.817  -5.350  0.00  0.00     0.077 C 
ATOM      8  C7  UNL d   1       5.312   4.161  -3.338  0.00  0.00    -0.001 A 
ENDROOT
TORSDOF 0
ENDMDL
