MODEL 1
REMARK minimizedAffinity -2.96626234
REMARK minimizedRMSD -1
REMARK  0 active torsions:
REMARK  status: ('A' for Active; 'I' for Inactive)
ROOT
ATOM      1  C   UNL d   1       6.000   2.094  -5.630  0.00  0.00     0.077 C 
ATOM      2  C1  UNL d   1       5.481   3.342  -4.981  0.00  0.00    -0.074 A 
ATOM      3  C2  UNL d   1       4.517   4.134  -5.613  0.00  0.00    -0.005 A 
ATOM      4  C3  UNL d   1       4.037   5.287  -4.992  0.00  0.00     0.006 A 
ATOM      5  C4  UNL d   1       4.516   5.660  -3.736  0.00  0.00    -0.005 A 
ATOM      6  C5  UNL d   1       5.479   4.881  -3.088  0.00  0.00    -0.074 A 
ATOM      7  C6  UNL d   1       5.997   5.262  -1.733  0.00  0.00     0.077 C 
ATOM      8  C7  UNL d   1       5.951   3.719  -3.715  0.00  0.00    -0.001 A 
ENDROOT
TORSDOF 0
ENDMDL
