MODEL 1
REMARK minimizedAffinity -3.29459286
REMARK minimizedRMSD -1
REMARK  0 active torsions:
REMARK  status: ('A' for Active; 'I' for Inactive)
ROOT
ATOM      1  C   UNL d   1       5.992   2.607  -5.778  0.00  0.00     0.077 C 
ATOM      2  C1  UNL d   1       5.424   3.787  -5.047  0.00  0.00    -0.074 A 
ATOM      3  C2  UNL d   1       4.364   4.524  -5.586  0.00  0.00    -0.005 A 
ATOM      4  C3  UNL d   1       3.840   5.613  -4.891  0.00  0.00     0.006 A 
ATOM      5  C4  UNL d   1       4.368   5.976  -3.651  0.00  0.00    -0.005 A 
ATOM      6  C5  UNL d   1       5.427   5.250  -3.096  0.00  0.00    -0.074 A 
ATOM      7  C6  UNL d   1       6.000   5.620  -1.760  0.00  0.00     0.077 C 
ATOM      8  C7  UNL d   1       5.944   4.152  -3.798  0.00  0.00    -0.001 A 
ENDROOT
TORSDOF 0
ENDMDL
