MODEL 1
REMARK minimizedAffinity 3.35904098
REMARK minimizedRMSD -1
REMARK  0 active torsions:
REMARK  status: ('A' for Active; 'I' for Inactive)
ROOT
ATOM      1  C   UNL d   1       5.864   5.129  -1.026  0.00  0.00     0.077 C 
ATOM      2  C1  UNL d   1       5.138   5.353  -2.320  0.00  0.00    -0.074 A 
ATOM      3  C2  UNL d   1       3.744   5.459  -2.352  0.00  0.00    -0.005 A 
ATOM      4  C3  UNL d   1       3.083   5.676  -3.562  0.00  0.00     0.006 A 
ATOM      5  C4  UNL d   1       3.809   5.790  -4.748  0.00  0.00    -0.005 A 
ATOM      6  C5  UNL d   1       5.203   5.687  -4.735  0.00  0.00    -0.074 A 
ATOM      7  C6  UNL d   1       5.999   5.816  -6.000  0.00  0.00     0.077 C 
ATOM      8  C7  UNL d   1       5.860   5.476  -3.515  0.00  0.00    -0.001 A 
ENDROOT
TORSDOF 0
ENDMDL
