MODEL 1
REMARK minimizedAffinity 0.0868673995
REMARK minimizedRMSD -1
REMARK  0 active torsions:
REMARK  status: ('A' for Active; 'I' for Inactive)
ROOT
ATOM      1  C   UNL d   1       5.995   1.722  -5.060  0.00  0.00     0.077 C 
ATOM      2  C1  UNL d   1       5.994   3.212  -4.889  0.00  0.00    -0.074 A 
ATOM      3  C2  UNL d   1       5.980   4.063  -5.999  0.00  0.00    -0.005 A 
ATOM      4  C3  UNL d   1       5.969   5.447  -5.825  0.00  0.00     0.006 A 
ATOM      5  C4  UNL d   1       5.971   5.993  -4.541  0.00  0.00    -0.005 A 
ATOM      6  C5  UNL d   1       5.984   5.158  -3.419  0.00  0.00    -0.074 A 
ATOM      7  C6  UNL d   1       5.976   5.728  -2.032  0.00  0.00     0.077 C 
ATOM      8  C7  UNL d   1       5.988   3.769  -3.603  0.00  0.00    -0.001 A 
ENDROOT
TORSDOF 0
ENDMDL
