MODEL 1
REMARK minimizedAffinity 1.25097144
REMARK minimizedRMSD -1
REMARK  0 active torsions:
REMARK  status: ('A' for Active; 'I' for Inactive)
ROOT
ATOM      1  C   UNL d   1       3.105  -2.991  -4.832  0.00  0.00     0.077 C 
ATOM      2  C1  UNL d   1       4.114  -3.425  -3.810  0.00  0.00    -0.074 A 
ATOM      3  C2  UNL d   1       5.037  -4.436  -4.095  0.00  0.00    -0.005 A 
ATOM      4  C3  UNL d   1       5.975  -4.822  -3.138  0.00  0.00     0.006 A 
ATOM      5  C4  UNL d   1       6.000  -4.202  -1.888  0.00  0.00    -0.005 A 
ATOM      6  C5  UNL d   1       5.086  -3.188  -1.586  0.00  0.00    -0.074 A 
ATOM      7  C6  UNL d   1       5.105  -2.505  -0.251  0.00  0.00     0.077 C 
ATOM      8  C7  UNL d   1       4.150  -2.801  -2.555  0.00  0.00    -0.001 A 
ENDROOT
TORSDOF 0
ENDMDL
