MODEL 1
REMARK minimizedAffinity 0.985098183
REMARK minimizedRMSD -1
REMARK  0 active torsions:
REMARK  status: ('A' for Active; 'I' for Inactive)
ROOT
ATOM      1  C   UNL d   1       2.333   4.055  -1.780  0.00  0.00     0.077 C 
ATOM      2  C1  UNL d   1       3.614   4.418  -2.472  0.00  0.00    -0.074 A 
ATOM      3  C2  UNL d   1       4.815   4.503  -1.762  0.00  0.00    -0.005 A 
ATOM      4  C3  UNL d   1       6.000   4.832  -2.420  0.00  0.00     0.006 A 
ATOM      5  C4  UNL d   1       5.995   5.078  -3.794  0.00  0.00    -0.005 A 
ATOM      6  C5  UNL d   1       4.803   4.997  -4.521  0.00  0.00    -0.074 A 
ATOM      7  C6  UNL d   1       4.782   5.250  -5.999  0.00  0.00     0.077 C 
ATOM      8  C7  UNL d   1       3.618   4.659  -3.853  0.00  0.00    -0.001 A 
ENDROOT
TORSDOF 0
ENDMDL
