MODEL 1
REMARK minimizedAffinity 0.0688430369
REMARK minimizedRMSD -1
REMARK  0 active torsions:
REMARK  status: ('A' for Active; 'I' for Inactive)
ROOT
ATOM      1  C   UNL d   1       5.349   2.223  -5.641  0.00  0.00     0.077 C 
ATOM      2  C1  UNL d   1       5.006   3.545  -5.020  0.00  0.00    -0.074 A 
ATOM      3  C2  UNL d   1       4.059   4.390  -5.605  0.00  0.00    -0.005 A 
ATOM      4  C3  UNL d   1       3.744   5.612  -5.011  0.00  0.00     0.006 A 
ATOM      5  C4  UNL d   1       4.371   6.000  -3.826  0.00  0.00    -0.005 A 
ATOM      6  C5  UNL d   1       5.321   5.167  -3.226  0.00  0.00    -0.074 A 
ATOM      7  C6  UNL d   1       5.998   5.564  -1.948  0.00  0.00     0.077 C 
ATOM      8  C7  UNL d   1       5.627   3.938  -3.826  0.00  0.00    -0.001 A 
ENDROOT
TORSDOF 0
ENDMDL
