MODEL 1
REMARK minimizedAffinity -2.5239923
REMARK minimizedRMSD -1
REMARK  0 active torsions:
REMARK  status: ('A' for Active; 'I' for Inactive)
ROOT
ATOM      1  C   UNL d   1       2.615   4.500  -1.589  0.00  0.00     0.077 C 
ATOM      2  C1  UNL d   1       3.796   4.898  -2.423  0.00  0.00    -0.074 A 
ATOM      3  C2  UNL d   1       4.844   5.645  -1.874  0.00  0.00    -0.005 A 
ATOM      4  C3  UNL d   1       5.940   6.000  -2.660  0.00  0.00     0.006 A 
ATOM      5  C4  UNL d   1       6.000   5.613  -3.999  0.00  0.00    -0.005 A 
ATOM      6  C5  UNL d   1       4.962   4.866  -4.564  0.00  0.00    -0.074 A 
ATOM      7  C6  UNL d   1       5.015   4.433  -6.000  0.00  0.00     0.077 C 
ATOM      8  C7  UNL d   1       3.867   4.506  -3.767  0.00  0.00    -0.001 A 
ENDROOT
TORSDOF 0
ENDMDL
