MODEL 1
REMARK minimizedAffinity -1.01987076
REMARK minimizedRMSD -1
REMARK  0 active torsions:
REMARK  status: ('A' for Active; 'I' for Inactive)
ROOT
ATOM      1  C   UNL d   1       5.999   5.969  -1.379  0.00  0.00     0.077 C 
ATOM      2  C1  UNL d   1       5.263   5.645  -2.646  0.00  0.00    -0.074 A 
ATOM      3  C2  UNL d   1       3.919   5.994  -2.805  0.00  0.00    -0.005 A 
ATOM      4  C3  UNL d   1       3.250   5.694  -3.992  0.00  0.00     0.006 A 
ATOM      5  C4  UNL d   1       3.919   5.042  -5.030  0.00  0.00    -0.005 A 
ATOM      6  C5  UNL d   1       5.264   4.686  -4.888  0.00  0.00    -0.074 A 
ATOM      7  C6  UNL d   1       6.000   3.994  -5.997  0.00  0.00     0.077 C 
ATOM      8  C7  UNL d   1       5.930   4.997  -3.695  0.00  0.00    -0.001 A 
ENDROOT
TORSDOF 0
ENDMDL
