MODEL 1
REMARK minimizedAffinity -0.161070943
REMARK minimizedRMSD -1
REMARK  0 active torsions:
REMARK  status: ('A' for Active; 'I' for Inactive)
ROOT
ATOM      1  C   UNL d   1       6.000   5.911  -1.618  0.00  0.00     0.077 C 
ATOM      2  C1  UNL d   1       4.853   5.309  -2.375  0.00  0.00    -0.074 A 
ATOM      3  C2  UNL d   1       3.794   4.690  -1.703  0.00  0.00    -0.005 A 
ATOM      4  C3  UNL d   1       2.730   4.144  -2.419  0.00  0.00     0.006 A 
ATOM      5  C4  UNL d   1       2.713   4.211  -3.813  0.00  0.00    -0.005 A 
ATOM      6  C5  UNL d   1       3.763   4.827  -4.502  0.00  0.00    -0.074 A 
ATOM      7  C6  UNL d   1       3.756   4.916  -5.999  0.00  0.00     0.077 C 
ATOM      8  C7  UNL d   1       4.825   5.380  -3.774  0.00  0.00    -0.001 A 
ENDROOT
TORSDOF 0
ENDMDL
