MODEL 1
REMARK minimizedAffinity -0.0880184323
REMARK minimizedRMSD -1
REMARK  0 active torsions:
REMARK  status: ('A' for Active; 'I' for Inactive)
ROOT
ATOM      1  C   UNL d   1       6.000   5.998  -0.670  0.00  0.00     0.077 C 
ATOM      2  C1  UNL d   1       5.473   5.307  -1.892  0.00  0.00    -0.074 A 
ATOM      3  C2  UNL d   1       5.938   4.039  -2.257  0.00  0.00    -0.005 A 
ATOM      4  C3  UNL d   1       5.432   3.404  -3.391  0.00  0.00     0.006 A 
ATOM      5  C4  UNL d   1       4.458   4.029  -4.171  0.00  0.00    -0.005 A 
ATOM      6  C5  UNL d   1       3.981   5.297  -3.821  0.00  0.00    -0.074 A 
ATOM      7  C6  UNL d   1       2.928   5.979  -4.643  0.00  0.00     0.077 C 
ATOM      8  C7  UNL d   1       4.489   5.925  -2.676  0.00  0.00    -0.001 A 
ENDROOT
TORSDOF 0
ENDMDL
