MODEL 1
REMARK minimizedAffinity 2.68236494
REMARK minimizedRMSD -1
REMARK  1 active torsions:
REMARK  status: ('A' for Active; 'I' for Inactive)
REMARK    1  A    between atoms: C3_4  and  O_7 
ROOT
ATOM      1  C   UNL d   1       5.728  -1.486  -1.100  0.00  0.00    -0.033 A 
ATOM      2  C1  UNL d   1       4.612  -1.205  -0.310  0.00  0.00     0.039 A 
ATOM      3  C2  UNL d   1       3.513  -2.065  -0.320  0.00  0.00    -0.080 A 
ATOM      4  C3  UNL d   1       3.542  -3.202  -1.122  0.00  0.00     0.150 A 
ATOM      5  C4  UNL d   1       4.652  -3.491  -1.909  0.00  0.00    -0.007 A 
ATOM      6  C5  UNL d   1       5.749  -2.630  -1.899  0.00  0.00     0.039 A 
ENDROOT
BRANCH   4   7
ATOM      7  O   UNL d   1       2.491  -4.069  -1.169  0.00  0.00    -0.526 OA
ATOM      8  H5  UNL d   1       1.784  -3.726  -0.596  0.00  0.00     0.418 HD
ENDBRANCH   4   7
TORSDOF 1
ENDMDL
