MODEL 1
REMARK minimizedAffinity 1.28124392
REMARK minimizedRMSD -1
REMARK  1 active torsions:
REMARK  status: ('A' for Active; 'I' for Inactive)
REMARK    1  A    between atoms: C3_4  and  O_7 
ROOT
ATOM      1  C   UNL d   1      -2.346  -0.725  -1.098  0.00  0.00    -0.033 A 
ATOM      2  C1  UNL d   1      -0.961  -0.866  -0.993  0.00  0.00     0.039 A 
ATOM      3  C2  UNL d   1      -0.142   0.264  -0.957  0.00  0.00    -0.080 A 
ATOM      4  C3  UNL d   1      -0.721   1.529  -1.027  0.00  0.00     0.150 A 
ATOM      5  C4  UNL d   1      -2.100   1.677  -1.128  0.00  0.00    -0.007 A 
ATOM      6  C5  UNL d   1      -2.916   0.547  -1.164  0.00  0.00     0.039 A 
ENDROOT
BRANCH   4   7
ATOM      7  O   UNL d   1       0.038   2.661  -1.000  0.00  0.00    -0.526 OA
ATOM      8  H5  UNL d   1       0.974   2.404  -0.957  0.00  0.00     0.418 HD
ENDBRANCH   4   7
TORSDOF 1
ENDMDL
