MODEL 1
REMARK minimizedAffinity -0.330409169
REMARK minimizedRMSD -1
REMARK  1 active torsions:
REMARK  status: ('A' for Active; 'I' for Inactive)
REMARK    1  A    between atoms: C3_4  and  O_7 
ROOT
ATOM      1  C   UNL d   1      -0.898   2.495   0.358  0.00  0.00    -0.033 A 
ATOM      2  C1  UNL d   1      -0.905   1.657   1.474  0.00  0.00     0.039 A 
ATOM      3  C2  UNL d   1      -0.058   1.919   2.552  0.00  0.00    -0.080 A 
ATOM      4  C3  UNL d   1       0.790   3.022   2.502  0.00  0.00     0.150 A 
ATOM      5  C4  UNL d   1       0.800   3.864   1.395  0.00  0.00    -0.007 A 
ATOM      6  C5  UNL d   1      -0.046   3.600   0.319  0.00  0.00     0.039 A 
ENDROOT
BRANCH   4   7
ATOM      7  O   UNL d   1       1.639   3.316   3.528  0.00  0.00    -0.526 OA
ATOM      8  H5  UNL d   1       1.543   2.632   4.212  0.00  0.00     0.418 HD
ENDBRANCH   4   7
TORSDOF 1
ENDMDL
