MODEL 1
REMARK minimizedAffinity 2.97961688
REMARK minimizedRMSD -1
REMARK  1 active torsions:
REMARK  status: ('A' for Active; 'I' for Inactive)
REMARK    1  A    between atoms: C3_4  and  O_7 
ROOT
ATOM      1  C   UNL d   1      -0.561   3.763  -1.114  0.00  0.00    -0.033 A 
ATOM      2  C1  UNL d   1      -0.981   2.445  -0.929  0.00  0.00     0.039 A 
ATOM      3  C2  UNL d   1      -0.958   1.876   0.346  0.00  0.00    -0.080 A 
ATOM      4  C3  UNL d   1      -0.514   2.635   1.426  0.00  0.00     0.150 A 
ATOM      5  C4  UNL d   1      -0.098   3.950   1.249  0.00  0.00    -0.007 A 
ATOM      6  C5  UNL d   1      -0.121   4.517  -0.025  0.00  0.00     0.039 A 
ENDROOT
BRANCH   4   7
ATOM      7  O   UNL d   1      -0.470   2.121   2.688  0.00  0.00    -0.526 OA
ATOM      8  H5  UNL d   1      -0.759   1.194   2.653  0.00  0.00     0.418 HD
ENDBRANCH   4   7
TORSDOF 1
ENDMDL
