MODEL 1
REMARK minimizedAffinity 1.66243756
REMARK minimizedRMSD -1
REMARK  1 active torsions:
REMARK  status: ('A' for Active; 'I' for Inactive)
REMARK    1  A    between atoms: C3_4  and  O_7 
ROOT
ATOM      1  C   UNL d   1       0.003   3.027  -0.726  0.00  0.00    -0.033 A 
ATOM      2  C1  UNL d   1       0.668   3.815   0.215  0.00  0.00     0.039 A 
ATOM      3  C2  UNL d   1       0.557   3.523   1.576  0.00  0.00    -0.080 A 
ATOM      4  C3  UNL d   1      -0.218   2.440   1.982  0.00  0.00     0.150 A 
ATOM      5  C4  UNL d   1      -0.880   1.648   1.049  0.00  0.00    -0.007 A 
ATOM      6  C5  UNL d   1      -0.769   1.942  -0.309  0.00  0.00     0.039 A 
ENDROOT
BRANCH   4   7
ATOM      7  O   UNL d   1      -0.360   2.119   3.299  0.00  0.00    -0.526 OA
ATOM      8  H5  UNL d   1       0.130   2.770   3.829  0.00  0.00     0.418 HD
ENDBRANCH   4   7
TORSDOF 1
ENDMDL
