MODEL 1
REMARK minimizedAffinity 4.05830526
REMARK minimizedRMSD -1
REMARK  1 active torsions:
REMARK  status: ('A' for Active; 'I' for Inactive)
REMARK    1  A    between atoms: C3_4  and  O_7 
ROOT
ATOM      1  C   UNL d   1       0.693   2.297   3.084  0.00  0.00    -0.033 A 
ATOM      2  C1  UNL d   1       1.437   3.416   2.703  0.00  0.00     0.039 A 
ATOM      3  C2  UNL d   1       1.109   4.109   1.536  0.00  0.00    -0.080 A 
ATOM      4  C3  UNL d   1       0.038   3.674   0.761  0.00  0.00     0.150 A 
ATOM      5  C4  UNL d   1      -0.710   2.563   1.137  0.00  0.00    -0.007 A 
ATOM      6  C5  UNL d   1      -0.381   1.872   2.302  0.00  0.00     0.039 A 
ENDROOT
BRANCH   4   7
ATOM      7  O   UNL d   1      -0.317   4.315  -0.389  0.00  0.00    -0.526 OA
ATOM      8  H5  UNL d   1       0.306   5.047  -0.538  0.00  0.00     0.418 HD
ENDBRANCH   4   7
TORSDOF 1
ENDMDL
