MODEL 1
REMARK minimizedAffinity -0.605209589
REMARK minimizedRMSD -1
REMARK  1 active torsions:
REMARK  status: ('A' for Active; 'I' for Inactive)
REMARK    1  A    between atoms: C3_4  and  O_7 
ROOT
ATOM      1  C   UNL d   1      -0.382  -0.025  -1.111  0.00  0.00    -0.033 A 
ATOM      2  C1  UNL d   1      -1.147   1.093  -0.776  0.00  0.00     0.039 A 
ATOM      3  C2  UNL d   1      -2.538   0.994  -0.708  0.00  0.00    -0.080 A 
ATOM      4  C3  UNL d   1      -3.150  -0.227  -0.977  0.00  0.00     0.150 A 
ATOM      5  C4  UNL d   1      -2.393  -1.346  -1.309  0.00  0.00    -0.007 A 
ATOM      6  C5  UNL d   1      -1.004  -1.245  -1.376  0.00  0.00     0.039 A 
ENDROOT
BRANCH   4   7
ATOM      7  O   UNL d   1      -4.505  -0.371  -0.929  0.00  0.00    -0.526 OA
ATOM      8  H5  UNL d   1      -4.899   0.491  -0.716  0.00  0.00     0.418 HD
ENDBRANCH   4   7
TORSDOF 1
ENDMDL
