MODEL 1
REMARK minimizedAffinity 0.680832624
REMARK minimizedRMSD -1
REMARK  1 active torsions:
REMARK  status: ('A' for Active; 'I' for Inactive)
REMARK    1  A    between atoms: C1_2  and  C2_3 
ROOT
ATOM      1  C2  UNL d   1      -1.743  -1.725   3.134  0.00  0.00    -0.081 A 
ATOM      2  C3  UNL d   1      -2.336  -1.017   2.082  0.00  0.00     0.006 A 
ATOM      3  C4  UNL d   1      -1.963  -1.269   0.760  0.00  0.00     0.002 A 
ATOM      4  C5  UNL d   1      -0.998  -2.238   0.467  0.00  0.00    -0.080 A 
ATOM      5  C6  UNL d   1      -0.610  -2.539  -0.950  0.00  0.00     0.076 C 
ATOM      6  C7  UNL d   1      -0.392  -2.933   1.519  0.00  0.00     0.002 A 
ATOM      7  C8  UNL d   1      -0.765  -2.681   2.842  0.00  0.00     0.006 A 
ENDROOT
BRANCH   1   8
ATOM      8  C1  UNL d   1      -2.190  -1.502   4.557  0.00  0.00     0.054 C 
ATOM      9  C   UNL d   1      -2.041  -0.042   4.960  0.00  0.00     0.018 C 
ENDBRANCH   1   8
TORSDOF 1
ENDMDL
