MODEL 1
REMARK minimizedAffinity 6.98021317
REMARK minimizedRMSD -1
REMARK  1 active torsions:
REMARK  status: ('A' for Active; 'I' for Inactive)
REMARK    1  A    between atoms: C1_2  and  C2_3 
ROOT
ATOM      1  C2  UNL d   1      -2.312  -2.553  -0.503  0.00  0.00    -0.081 A 
ATOM      2  C3  UNL d   1      -1.091  -2.426   0.171  0.00  0.00     0.006 A 
ATOM      3  C4  UNL d   1       0.113  -2.429  -0.538  0.00  0.00     0.002 A 
ATOM      4  C5  UNL d   1       0.116  -2.551  -1.931  0.00  0.00    -0.080 A 
ATOM      5  C6  UNL d   1       1.399  -2.525  -2.707  0.00  0.00     0.076 C 
ATOM      6  C7  UNL d   1      -1.103  -2.696  -2.603  0.00  0.00     0.002 A 
ATOM      7  C8  UNL d   1      -2.307  -2.693  -1.895  0.00  0.00     0.006 A 
ENDROOT
BRANCH   1   8
ATOM      8  C1  UNL d   1      -3.614  -2.485   0.253  0.00  0.00     0.054 C 
ATOM      9  C   UNL d   1      -3.385  -2.533   1.757  0.00  0.00     0.018 C 
ENDBRANCH   1   8
TORSDOF 1
ENDMDL
