MODEL 1
REMARK minimizedAffinity 10.426548
REMARK minimizedRMSD -1
REMARK  1 active torsions:
REMARK  status: ('A' for Active; 'I' for Inactive)
REMARK    1  A    between atoms: C1_2  and  C2_3 
ROOT
ATOM      1  C2  UNL d   1      -2.048   3.680   1.010  0.00  0.00    -0.081 A 
ATOM      2  C3  UNL d   1      -2.848   2.680   0.442  0.00  0.00     0.006 A 
ATOM      3  C4  UNL d   1      -4.132   2.978  -0.020  0.00  0.00     0.002 A 
ATOM      4  C5  UNL d   1      -4.634   4.281   0.070  0.00  0.00    -0.080 A 
ATOM      5  C6  UNL d   1      -5.999   4.621  -0.450  0.00  0.00     0.076 C 
ATOM      6  C7  UNL d   1      -3.842   5.276   0.653  0.00  0.00     0.002 A 
ATOM      7  C8  UNL d   1      -2.558   4.978   1.116  0.00  0.00     0.006 A 
ENDROOT
BRANCH   1   8
ATOM      8  C1  UNL d   1      -0.639   3.375   1.450  0.00  0.00     0.054 C 
ATOM      9  C   UNL d   1       0.297   4.538   1.152  0.00  0.00     0.018 C 
ENDBRANCH   1   8
TORSDOF 1
ENDMDL
