MODEL 1
REMARK minimizedAffinity 16.1631775
REMARK minimizedRMSD -1
REMARK  1 active torsions:
REMARK  status: ('A' for Active; 'I' for Inactive)
REMARK    1  A    between atoms: C1_2  and  C2_3 
ROOT
ATOM      1  C2  UNL d   1       2.514  -2.259  -1.977  0.00  0.00    -0.081 A 
ATOM      2  C3  UNL d   1       1.427  -1.845  -1.197  0.00  0.00     0.006 A 
ATOM      3  C4  UNL d   1       0.122  -2.172  -1.571  0.00  0.00     0.002 A 
ATOM      4  C5  UNL d   1      -0.119  -2.923  -2.726  0.00  0.00    -0.080 A 
ATOM      5  C6  UNL d   1      -1.514  -3.306  -3.122  0.00  0.00     0.076 C 
ATOM      6  C7  UNL d   1       0.965  -3.321  -3.515  0.00  0.00     0.002 A 
ATOM      7  C8  UNL d   1       2.271  -2.995  -3.142  0.00  0.00     0.006 A 
ENDROOT
BRANCH   1   8
ATOM      8  C1  UNL d   1       3.926  -1.964  -1.542  0.00  0.00     0.054 C 
ATOM      9  C   UNL d   1       4.107  -2.204  -0.050  0.00  0.00     0.018 C 
ENDBRANCH   1   8
TORSDOF 1
ENDMDL
