MODEL 1
REMARK minimizedAffinity 10.4613085
REMARK minimizedRMSD -1
REMARK  1 active torsions:
REMARK  status: ('A' for Active; 'I' for Inactive)
REMARK    1  A    between atoms: C1_2  and  C2_3 
ROOT
ATOM      1  C2  UNL d   1      -0.880  -2.695  -0.694  0.00  0.00    -0.081 A 
ATOM      2  C3  UNL d   1       0.255  -2.349  -1.437  0.00  0.00     0.006 A 
ATOM      3  C4  UNL d   1       0.262  -2.489  -2.826  0.00  0.00     0.002 A 
ATOM      4  C5  UNL d   1      -0.867  -2.970  -3.497  0.00  0.00    -0.080 A 
ATOM      5  C6  UNL d   1      -0.883  -3.096  -4.992  0.00  0.00     0.076 C 
ATOM      6  C7  UNL d   1      -1.995  -3.332  -2.754  0.00  0.00     0.002 A 
ATOM      7  C8  UNL d   1      -2.003  -3.193  -1.364  0.00  0.00     0.006 A 
ENDROOT
BRANCH   1   8
ATOM      8  C1  UNL d   1      -0.914  -2.485   0.798  0.00  0.00     0.054 C 
ATOM      9  C   UNL d   1      -2.339  -2.294   1.298  0.00  0.00     0.018 C 
ENDBRANCH   1   8
TORSDOF 1
ENDMDL
