MODEL 1
REMARK minimizedAffinity 4.19558382
REMARK minimizedRMSD -1
REMARK  1 active torsions:
REMARK  status: ('A' for Active; 'I' for Inactive)
REMARK    1  A    between atoms: C1_2  and  C2_3 
ROOT
ATOM      1  C2  UNL d   1      -0.077  -3.095  -2.421  0.00  0.00    -0.081 A 
ATOM      2  C3  UNL d   1       0.050  -2.696  -3.757  0.00  0.00     0.006 A 
ATOM      3  C4  UNL d   1      -0.032  -3.635  -4.788  0.00  0.00     0.002 A 
ATOM      4  C5  UNL d   1      -0.251  -4.986  -4.502  0.00  0.00    -0.080 A 
ATOM      5  C6  UNL d   1      -0.372  -6.000  -5.600  0.00  0.00     0.076 C 
ATOM      6  C7  UNL d   1      -0.361  -5.388  -3.166  0.00  0.00     0.002 A 
ATOM      7  C8  UNL d   1      -0.278  -4.450  -2.135  0.00  0.00     0.006 A 
ENDROOT
BRANCH   1   8
ATOM      8  C1  UNL d   1      -0.053  -2.076  -1.311  0.00  0.00     0.054 C 
ATOM      9  C   UNL d   1      -0.667  -2.634  -0.035  0.00  0.00     0.018 C 
ENDBRANCH   1   8
TORSDOF 1
ENDMDL
