MODEL 1
REMARK minimizedAffinity 13.1286306
REMARK minimizedRMSD -1
REMARK  1 active torsions:
REMARK  status: ('A' for Active; 'I' for Inactive)
REMARK    1  A    between atoms: C1_2  and  C2_3 
ROOT
ATOM      1  C2  UNL d   1       0.699  -3.280  -3.515  0.00  0.00    -0.081 A 
ATOM      2  C3  UNL d   1      -0.628  -2.866  -3.685  0.00  0.00     0.006 A 
ATOM      3  C4  UNL d   1      -1.341  -2.316  -2.617  0.00  0.00     0.002 A 
ATOM      4  C5  UNL d   1      -0.738  -2.164  -1.364  0.00  0.00    -0.080 A 
ATOM      5  C6  UNL d   1      -1.482  -1.547  -0.218  0.00  0.00     0.076 C 
ATOM      6  C7  UNL d   1       0.582  -2.593  -1.189  0.00  0.00     0.002 A 
ATOM      7  C8  UNL d   1       1.295  -3.144  -2.257  0.00  0.00     0.006 A 
ENDROOT
BRANCH   1   8
ATOM      8  C1  UNL d   1       1.491  -3.813  -4.681  0.00  0.00     0.054 C 
ATOM      9  C   UNL d   1       2.982  -3.834  -4.374  0.00  0.00     0.018 C 
ENDBRANCH   1   8
TORSDOF 1
ENDMDL
