MODEL 1
REMARK minimizedAffinity 5.14657164
REMARK minimizedRMSD -1
REMARK  1 active torsions:
REMARK  status: ('A' for Active; 'I' for Inactive)
REMARK    1  A    between atoms: C1_2  and  C2_3 
ROOT
ATOM      1  C2  UNL d   1      -2.729  -5.462  -5.173  0.00  0.00    -0.081 A 
ATOM      2  C3  UNL d   1      -2.407  -4.385  -4.338  0.00  0.00     0.006 A 
ATOM      3  C4  UNL d   1      -1.117  -3.849  -4.338  0.00  0.00     0.002 A 
ATOM      4  C5  UNL d   1      -0.130  -4.376  -5.178  0.00  0.00    -0.080 A 
ATOM      5  C6  UNL d   1       1.251  -3.791  -5.210  0.00  0.00     0.076 C 
ATOM      6  C7  UNL d   1      -0.447  -5.463  -6.000  0.00  0.00     0.002 A 
ATOM      7  C8  UNL d   1      -1.736  -5.999  -6.000  0.00  0.00     0.006 A 
ENDROOT
BRANCH   1   8
ATOM      8  C1  UNL d   1      -4.136  -5.999  -5.223  0.00  0.00     0.054 C 
ATOM      9  C   UNL d   1      -5.095  -5.114  -4.439  0.00  0.00     0.018 C 
ENDBRANCH   1   8
TORSDOF 1
ENDMDL
