MODEL 1
REMARK minimizedAffinity 19.7572155
REMARK minimizedRMSD -1
REMARK  1 active torsions:
REMARK  status: ('A' for Active; 'I' for Inactive)
REMARK    1  A    between atoms: C1_2  and  C2_3 
ROOT
ATOM      1  C2  UNL d   1      -0.603  -2.393  -1.941  0.00  0.00    -0.081 A 
ATOM      2  C3  UNL d   1      -0.866  -1.353  -1.040  0.00  0.00     0.006 A 
ATOM      3  C4  UNL d   1      -0.518  -1.478   0.307  0.00  0.00     0.002 A 
ATOM      4  C5  UNL d   1       0.104  -2.641   0.774  0.00  0.00    -0.080 A 
ATOM      5  C6  UNL d   1       0.510  -2.776   2.212  0.00  0.00     0.076 C 
ATOM      6  C7  UNL d   1       0.351  -3.686  -0.122  0.00  0.00     0.002 A 
ATOM      7  C8  UNL d   1       0.003  -3.562  -1.469  0.00  0.00     0.006 A 
ENDROOT
BRANCH   1   8
ATOM      8  C1  UNL d   1      -0.918  -2.235  -3.407  0.00  0.00     0.054 C 
ATOM      9  C   UNL d   1      -1.956  -3.251  -3.862  0.00  0.00     0.018 C 
ENDBRANCH   1   8
TORSDOF 1
ENDMDL
