MODEL 1
REMARK minimizedAffinity 5.65277004
REMARK minimizedRMSD -1
REMARK  1 active torsions:
REMARK  status: ('A' for Active; 'I' for Inactive)
REMARK    1  A    between atoms: C1_2  and  C2_3 
ROOT
ATOM      1  C2  UNL d   1      -2.736  -2.212  -0.086  0.00  0.00    -0.081 A 
ATOM      2  C3  UNL d   1      -3.005  -2.516  -1.426  0.00  0.00     0.006 A 
ATOM      3  C4  UNL d   1      -1.968  -2.587  -2.358  0.00  0.00     0.002 A 
ATOM      4  C5  UNL d   1      -0.644  -2.364  -1.965  0.00  0.00    -0.080 A 
ATOM      5  C6  UNL d   1       0.483  -2.467  -2.950  0.00  0.00     0.076 C 
ATOM      6  C7  UNL d   1      -0.376  -2.042  -0.630  0.00  0.00     0.002 A 
ATOM      7  C8  UNL d   1      -1.413  -1.970   0.302  0.00  0.00     0.006 A 
ENDROOT
BRANCH   1   8
ATOM      8  C1  UNL d   1      -3.845  -2.198   0.935  0.00  0.00     0.054 C 
ATOM      9  C   UNL d   1      -3.830  -0.913   1.750  0.00  0.00     0.018 C 
ENDBRANCH   1   8
TORSDOF 1
ENDMDL
