MODEL 1
REMARK minimizedAffinity 15.3122311
REMARK minimizedRMSD -1
REMARK  1 active torsions:
REMARK  status: ('A' for Active; 'I' for Inactive)
REMARK    1  A    between atoms: C1_2  and  C2_3 
ROOT
ATOM      1  C2  UNL d   1      -0.298   4.652   1.119  0.00  0.00    -0.081 A 
ATOM      2  C3  UNL d   1      -0.178   3.258   1.048  0.00  0.00     0.006 A 
ATOM      3  C4  UNL d   1      -1.282   2.469   0.717  0.00  0.00     0.002 A 
ATOM      4  C5  UNL d   1      -2.521   3.059   0.445  0.00  0.00    -0.080 A 
ATOM      5  C6  UNL d   1      -3.707   2.225   0.059  0.00  0.00     0.076 C 
ATOM      6  C7  UNL d   1      -2.645   4.450   0.533  0.00  0.00     0.002 A 
ATOM      7  C8  UNL d   1      -1.542   5.239   0.864  0.00  0.00     0.006 A 
ENDROOT
BRANCH   1   8
ATOM      8  C1  UNL d   1       0.906   5.510   1.411  0.00  0.00     0.054 C 
ATOM      9  C   UNL d   1       2.132   5.019   0.655  0.00  0.00     0.018 C 
ENDBRANCH   1   8
TORSDOF 1
ENDMDL
