MODEL 1
REMARK minimizedAffinity 13.1409407
REMARK minimizedRMSD -1
REMARK  1 active torsions:
REMARK  status: ('A' for Active; 'I' for Inactive)
REMARK    1  A    between atoms: C1_2  and  C2_3 
ROOT
ATOM      1  C2  UNL d   1      -1.227  -3.313  -3.564  0.00  0.00    -0.081 A 
ATOM      2  C3  UNL d   1       0.108  -3.614  -3.265  0.00  0.00     0.006 A 
ATOM      3  C4  UNL d   1       0.652  -3.267  -2.026  0.00  0.00     0.002 A 
ATOM      4  C5  UNL d   1      -0.131  -2.620  -1.063  0.00  0.00    -0.080 A 
ATOM      5  C6  UNL d   1       0.432  -2.269   0.282  0.00  0.00     0.076 C 
ATOM      6  C7  UNL d   1      -1.459  -2.304  -1.369  0.00  0.00     0.002 A 
ATOM      7  C8  UNL d   1      -2.003  -2.650  -2.607  0.00  0.00     0.006 A 
ENDROOT
BRANCH   1   8
ATOM      8  C1  UNL d   1      -1.834  -3.743  -4.875  0.00  0.00     0.054 C 
ATOM      9  C   UNL d   1      -0.805  -3.723  -5.995  0.00  0.00     0.018 C 
ENDBRANCH   1   8
TORSDOF 1
ENDMDL
