MODEL 1
REMARK minimizedAffinity 9.71585655
REMARK minimizedRMSD -1
REMARK  1 active torsions:
REMARK  status: ('A' for Active; 'I' for Inactive)
REMARK    1  A    between atoms: C1_2  and  C2_3 
ROOT
ATOM      1  C2  UNL d   1      -4.958   2.437   5.917  0.00  0.00    -0.081 A 
ATOM      2  C3  UNL d   1      -3.583   2.606   5.711  0.00  0.00     0.006 A 
ATOM      3  C4  UNL d   1      -2.746   1.496   5.577  0.00  0.00     0.002 A 
ATOM      4  C5  UNL d   1      -3.269   0.200   5.638  0.00  0.00    -0.080 A 
ATOM      5  C6  UNL d   1      -2.386  -0.999   5.465  0.00  0.00     0.076 C 
ATOM      6  C7  UNL d   1      -4.640   0.031   5.862  0.00  0.00     0.002 A 
ATOM      7  C8  UNL d   1      -5.478   1.140   5.997  0.00  0.00     0.006 A 
ENDROOT
BRANCH   1   8
ATOM      8  C1  UNL d   1      -5.873   3.632   5.998  0.00  0.00     0.054 C 
ATOM      9  C   UNL d   1      -5.089   4.935   5.943  0.00  0.00     0.018 C 
ENDBRANCH   1   8
TORSDOF 1
ENDMDL
