MODEL 1
REMARK minimizedAffinity -4.86307716
REMARK minimizedRMSD -1
REMARK  2 active torsions:
REMARK  status: ('A' for Active; 'I' for Inactive)
REMARK    1  A    between atoms: C2'_3  and  C1'_4 
REMARK    2  A    between atoms: C1'_4  and  C1_5 
ROOT
ATOM      1  C1  I4B d   1      -0.565  -0.278  -0.235  0.00  0.00    -0.075 A 
ATOM      2  C2  I4B d   1       0.132  -1.411   0.104  0.00  0.00     0.003 A 
ATOM      3  C3  I4B d   1       1.501  -1.328   0.455  0.00  0.00     0.002 A 
ATOM      4  C4  I4B d   1       2.143  -0.108   0.405  0.00  0.00    -0.004 A 
ATOM      5  C5  I4B d   1       1.429   1.043   0.084  0.00  0.00     0.002 A 
ATOM      6  C6  I4B d   1       0.064   0.960  -0.226  0.00  0.00     0.003 A 
ENDROOT
BRANCH   1   7
ATOM      7  C1' I4B d   1      -2.001  -0.407  -0.632  0.00  0.00     0.060 C 
BRANCH   7   8
ATOM      8  C2' I4B d   1      -2.087  -0.239  -2.135  0.00  0.00    -0.013 C 
ATOM      9  C4' I4B d   1      -2.143  -1.573  -2.831  0.00  0.00     0.013 C 
ATOM     10  C3' I4B d   1      -3.303   0.583  -2.441  0.00  0.00     0.013 C 
ENDBRANCH   7   8
ENDBRANCH   1   7
TORSDOF 2
ENDMDL
