MODEL 1
REMARK minimizedAffinity -6.10169029
REMARK minimizedRMSD -1
REMARK  2 active torsions:
REMARK  status: ('A' for Active; 'I' for Inactive)
REMARK    1  A    between atoms: C2'_3  and  C1'_4 
REMARK    2  A    between atoms: C1'_4  and  C1_5 
ROOT
ATOM      1  C1  I4B d   1       0.289   0.088   0.215  0.00  0.00    -0.075 A 
ATOM      2  C2  I4B d   1       1.510   0.703   0.086  0.00  0.00     0.003 A 
ATOM      3  C3  I4B d   1       2.690   0.036   0.496  0.00  0.00     0.002 A 
ATOM      4  C4  I4B d   1       2.599  -1.215   1.072  0.00  0.00    -0.004 A 
ATOM      5  C5  I4B d   1       1.362  -1.845   1.180  0.00  0.00     0.002 A 
ATOM      6  C6  I4B d   1       0.201  -1.195   0.738  0.00  0.00     0.003 A 
ENDROOT
BRANCH   1   7
ATOM      7  C1' I4B d   1      -0.940   0.835  -0.198  0.00  0.00     0.060 C 
BRANCH   7   8
ATOM      8  C2' I4B d   1      -1.588   0.072  -1.336  0.00  0.00    -0.013 C 
ATOM      9  C4' I4B d   1      -2.934  -0.470  -0.932  0.00  0.00     0.013 C 
ATOM     10  C3' I4B d   1      -1.709   1.002  -2.507  0.00  0.00     0.013 C 
ENDBRANCH   7   8
ENDBRANCH   1   7
TORSDOF 2
ENDMDL
