MODEL 1
REMARK minimizedAffinity -4.86671829
REMARK minimizedRMSD -1
REMARK  2 active torsions:
REMARK  status: ('A' for Active; 'I' for Inactive)
REMARK    1  A    between atoms: C2'_3  and  C1'_4 
REMARK    2  A    between atoms: C1'_4  and  C1_5 
ROOT
ATOM      1  C1  I4B d   1      -0.126   0.543  -0.236  0.00  0.00    -0.075 A 
ATOM      2  C2  I4B d   1       0.397   1.739   0.190  0.00  0.00     0.003 A 
ATOM      3  C3  I4B d   1       1.670   1.780   0.809  0.00  0.00     0.002 A 
ATOM      4  C4  I4B d   1       2.358   0.604   1.026  0.00  0.00    -0.004 A 
ATOM      5  C5  I4B d   1       1.837  -0.604   0.573  0.00  0.00     0.002 A 
ATOM      6  C6  I4B d   1       0.593  -0.634  -0.073  0.00  0.00     0.003 A 
ENDROOT
BRANCH   1   7
ATOM      7  C1' I4B d   1      -1.487   0.532  -0.857  0.00  0.00     0.060 C 
BRANCH   7   8
ATOM      8  C2' I4B d   1      -1.339   0.094  -2.299  0.00  0.00    -0.013 C 
ATOM      9  C4' I4B d   1      -1.367  -1.407  -2.419  0.00  0.00     0.013 C 
ATOM     10  C3' I4B d   1      -2.448   0.721  -3.090  0.00  0.00     0.013 C 
ENDBRANCH   7   8
ENDBRANCH   1   7
TORSDOF 2
ENDMDL
