MODEL 1
REMARK minimizedAffinity -4.8694725
REMARK minimizedRMSD -1
REMARK  2 active torsions:
REMARK  status: ('A' for Active; 'I' for Inactive)
REMARK    1  A    between atoms: C2'_3  and  C1'_4 
REMARK    2  A    between atoms: C1'_4  and  C1_5 
ROOT
ATOM      1  C1  I4B d   1       0.956  -0.807   0.357  0.00  0.00    -0.075 A 
ATOM      2  C2  I4B d   1       1.749   0.182  -0.170  0.00  0.00     0.003 A 
ATOM      3  C3  I4B d   1       3.040   0.420   0.361  0.00  0.00     0.002 A 
ATOM      4  C4  I4B d   1       3.475  -0.316   1.444  0.00  0.00    -0.004 A 
ATOM      5  C5  I4B d   1       2.679  -1.334   1.963  0.00  0.00     0.002 A 
ATOM      6  C6  I4B d   1       1.417  -1.589   1.408  0.00  0.00     0.003 A 
ENDROOT
BRANCH   1   7
ATOM      7  C1' I4B d   1      -0.415  -1.010  -0.207  0.00  0.00     0.060 C 
BRANCH   7   8
ATOM      8  C2' I4B d   1      -0.943   0.341  -0.646  0.00  0.00    -0.013 C 
ATOM      9  C4' I4B d   1      -2.250   0.203  -1.381  0.00  0.00     0.013 C 
ATOM     10  C3' I4B d   1      -1.097   1.197   0.576  0.00  0.00     0.013 C 
ENDBRANCH   7   8
ENDBRANCH   1   7
TORSDOF 2
ENDMDL
