MODEL 1
REMARK minimizedAffinity -5.80139589
REMARK minimizedRMSD -1
REMARK  2 active torsions:
REMARK  status: ('A' for Active; 'I' for Inactive)
REMARK    1  A    between atoms: C2'_3  and  C1'_4 
REMARK    2  A    between atoms: C1'_4  and  C1_5 
ROOT
ATOM      1  C1  I4B d   1       0.680   0.587   0.099  0.00  0.00    -0.075 A 
ATOM      2  C2  I4B d   1       1.253  -0.592  -0.309  0.00  0.00     0.003 A 
ATOM      3  C3  I4B d   1       2.488  -1.013   0.240  0.00  0.00     0.002 A 
ATOM      4  C4  I4B d   1       3.137  -0.205   1.152  0.00  0.00    -0.004 A 
ATOM      5  C5  I4B d   1       2.544   0.978   1.582  0.00  0.00     0.002 A 
ATOM      6  C6  I4B d   1       1.302   1.371   1.062  0.00  0.00     0.003 A 
ENDROOT
BRANCH   1   7
ATOM      7  C1' I4B d   1      -0.609   1.017  -0.526  0.00  0.00     0.060 C 
BRANCH   7   8
ATOM      8  C2' I4B d   1      -1.466  -0.217  -0.724  0.00  0.00    -0.013 C 
ATOM      9  C4' I4B d   1      -2.040  -0.697   0.583  0.00  0.00     0.013 C 
ATOM     10  C3' I4B d   1      -2.553   0.126  -1.699  0.00  0.00     0.013 C 
ENDBRANCH   7   8
ENDBRANCH   1   7
TORSDOF 2
ENDMDL
