MODEL 1
REMARK minimizedAffinity 4.78961229
REMARK minimizedRMSD -1
REMARK  0 active torsions:
REMARK  status: ('A' for Active; 'I' for Inactive)
ROOT
ATOM      1  C   UNL d   1       4.534   1.130  -1.890  0.00  0.00     0.077 C 
ATOM      2  C1  UNL d   1       4.613   1.582  -3.317  0.00  0.00    -0.074 A 
ATOM      3  C2  UNL d   1       5.827   1.563  -4.011  0.00  0.00    -0.005 A 
ATOM      4  C3  UNL d   1       5.884   1.978  -5.342  0.00  0.00     0.006 A 
ATOM      5  C4  UNL d   1       4.729   2.416  -5.991  0.00  0.00    -0.005 A 
ATOM      6  C5  UNL d   1       3.506   2.441  -5.313  0.00  0.00    -0.074 A 
ATOM      7  C6  UNL d   1       2.253   2.900  -5.999  0.00  0.00     0.077 C 
ATOM      8  C7  UNL d   1       3.456   2.016  -3.979  0.00  0.00    -0.001 A 
ENDROOT
TORSDOF 0
ENDMDL
