MODEL 1
REMARK minimizedAffinity 8.17962742
REMARK minimizedRMSD -1
REMARK  0 active torsions:
REMARK  status: ('A' for Active; 'I' for Inactive)
ROOT
ATOM      1  C   UNL d   1      -6.000  -1.340   4.094  0.00  0.00     0.077 C 
ATOM      2  C1  UNL d   1      -5.150  -0.395   3.297  0.00  0.00    -0.074 A 
ATOM      3  C2  UNL d   1      -3.767  -0.578   3.203  0.00  0.00    -0.005 A 
ATOM      4  C3  UNL d   1      -2.991   0.304   2.450  0.00  0.00     0.006 A 
ATOM      5  C4  UNL d   1      -3.589   1.376   1.787  0.00  0.00    -0.005 A 
ATOM      6  C5  UNL d   1      -4.971   1.574   1.869  0.00  0.00    -0.074 A 
ATOM      7  C6  UNL d   1      -5.632   2.715   1.154  0.00  0.00     0.077 C 
ATOM      8  C7  UNL d   1      -5.745   0.679   2.621  0.00  0.00    -0.001 A 
ENDROOT
TORSDOF 0
ENDMDL
