MODEL 1
REMARK minimizedAffinity 5.72891426
REMARK minimizedRMSD -1
REMARK  0 active torsions:
REMARK  status: ('A' for Active; 'I' for Inactive)
ROOT
ATOM      1  C   UNL d   1       4.936  -5.999  -2.284  0.00  0.00     0.077 C 
ATOM      2  C1  UNL d   1       4.172  -5.955  -3.574  0.00  0.00    -0.074 A 
ATOM      3  C2  UNL d   1       4.838  -5.973  -4.804  0.00  0.00    -0.005 A 
ATOM      4  C3  UNL d   1       4.114  -5.941  -5.996  0.00  0.00     0.006 A 
ATOM      5  C4  UNL d   1       2.719  -5.892  -5.970  0.00  0.00    -0.005 A 
ATOM      6  C5  UNL d   1       2.037  -5.874  -4.750  0.00  0.00    -0.074 A 
ATOM      7  C6  UNL d   1       0.538  -5.831  -4.704  0.00  0.00     0.077 C 
ATOM      8  C7  UNL d   1       2.771  -5.914  -3.557  0.00  0.00    -0.001 A 
ENDROOT
TORSDOF 0
ENDMDL
