MODEL 1
REMARK minimizedAffinity 10.3309917
REMARK minimizedRMSD -1
REMARK  0 active torsions:
REMARK  status: ('A' for Active; 'I' for Inactive)
ROOT
ATOM      1  C   UNL d   1      -4.331   5.997  -6.000  0.00  0.00     0.077 C 
ATOM      2  C1  UNL d   1      -4.022   4.530  -5.982  0.00  0.00    -0.074 A 
ATOM      3  C2  UNL d   1      -5.047   3.579  -5.985  0.00  0.00    -0.005 A 
ATOM      4  C3  UNL d   1      -4.744   2.217  -5.978  0.00  0.00     0.006 A 
ATOM      5  C4  UNL d   1      -3.414   1.794  -5.968  0.00  0.00    -0.005 A 
ATOM      6  C5  UNL d   1      -2.375   2.730  -5.966  0.00  0.00    -0.074 A 
ATOM      7  C6  UNL d   1      -0.941   2.292  -5.965  0.00  0.00     0.077 C 
ATOM      8  C7  UNL d   1      -2.688   4.096  -5.980  0.00  0.00    -0.001 A 
ENDROOT
TORSDOF 0
ENDMDL
