MODEL 1
REMARK minimizedAffinity 5.64124298
REMARK minimizedRMSD -1
REMARK  0 active torsions:
REMARK  status: ('A' for Active; 'I' for Inactive)
ROOT
ATOM      1  C   UNL d   1      -1.241   2.213  -5.999  0.00  0.00     0.077 C 
ATOM      2  C1  UNL d   1      -2.664   2.685  -5.990  0.00  0.00    -0.074 A 
ATOM      3  C2  UNL d   1      -3.724   1.773  -5.955  0.00  0.00    -0.005 A 
ATOM      4  C3  UNL d   1      -5.042   2.227  -5.937  0.00  0.00     0.006 A 
ATOM      5  C4  UNL d   1      -5.315   3.595  -5.953  0.00  0.00    -0.005 A 
ATOM      6  C5  UNL d   1      -4.268   4.522  -5.987  0.00  0.00    -0.074 A 
ATOM      7  C6  UNL d   1      -4.543   5.997  -5.996  0.00  0.00     0.077 C 
ATOM      8  C7  UNL d   1      -2.946   4.058  -5.998  0.00  0.00    -0.001 A 
ENDROOT
TORSDOF 0
ENDMDL
