MODEL 1
REMARK minimizedAffinity 4.90196037
REMARK minimizedRMSD -1
REMARK  0 active torsions:
REMARK  status: ('A' for Active; 'I' for Inactive)
ROOT
ATOM      1  C   UNL d   1       2.512   1.354   1.439  0.00  0.00     0.077 C 
ATOM      2  C1  UNL d   1       2.407   1.606  -0.035  0.00  0.00    -0.074 A 
ATOM      3  C2  UNL d   1       3.401   1.161  -0.913  0.00  0.00    -0.005 A 
ATOM      4  C3  UNL d   1       3.285   1.394  -2.283  0.00  0.00     0.006 A 
ATOM      5  C4  UNL d   1       2.177   2.074  -2.789  0.00  0.00    -0.005 A 
ATOM      6  C5  UNL d   1       1.173   2.526  -1.927  0.00  0.00    -0.074 A 
ATOM      7  C6  UNL d   1      -0.030   3.249  -2.455  0.00  0.00     0.077 C 
ATOM      8  C7  UNL d   1       1.293   2.281  -0.552  0.00  0.00    -0.001 A 
ENDROOT
TORSDOF 0
ENDMDL
