MODEL 1
REMARK minimizedAffinity 6.43826056
REMARK minimizedRMSD -1
REMARK  0 active torsions:
REMARK  status: ('A' for Active; 'I' for Inactive)
ROOT
ATOM      1  C   UNL d   1      -0.200   0.365   0.652  0.00  0.00     0.077 C 
ATOM      2  C1  UNL d   1       1.012   1.248   0.659  0.00  0.00    -0.074 A 
ATOM      3  C2  UNL d   1       1.331   2.038  -0.451  0.00  0.00    -0.005 A 
ATOM      4  C3  UNL d   1       2.456   2.862  -0.426  0.00  0.00     0.006 A 
ATOM      5  C4  UNL d   1       3.272   2.905   0.705  0.00  0.00    -0.005 A 
ATOM      6  C5  UNL d   1       2.968   2.123   1.824  0.00  0.00    -0.074 A 
ATOM      7  C6  UNL d   1       3.828   2.164   3.051  0.00  0.00     0.077 C 
ATOM      8  C7  UNL d   1       1.832   1.303   1.794  0.00  0.00    -0.001 A 
ENDROOT
TORSDOF 0
ENDMDL
