MODEL 1
REMARK minimizedAffinity 3.96271229
REMARK minimizedRMSD -1
REMARK  0 active torsions:
REMARK  status: ('A' for Active; 'I' for Inactive)
ROOT
ATOM      1  C   UNL d   1       2.602   2.495   0.843  0.00  0.00     0.077 C 
ATOM      2  C1  UNL d   1       2.933   1.242   0.088  0.00  0.00    -0.074 A 
ATOM      3  C2  UNL d   1       3.660   1.293  -1.106  0.00  0.00    -0.005 A 
ATOM      4  C3  UNL d   1       3.968   0.118  -1.792  0.00  0.00     0.006 A 
ATOM      5  C4  UNL d   1       3.552  -1.117  -1.293  0.00  0.00    -0.005 A 
ATOM      6  C5  UNL d   1       2.825  -1.187  -0.100  0.00  0.00    -0.074 A 
ATOM      7  C6  UNL d   1       2.380  -2.507   0.456  0.00  0.00     0.077 C 
ATOM      8  C7  UNL d   1       2.526  -0.003   0.587  0.00  0.00    -0.001 A 
ENDROOT
TORSDOF 0
ENDMDL
