MODEL 1
REMARK minimizedAffinity 0.990835905
REMARK minimizedRMSD -1
REMARK  0 active torsions:
REMARK  status: ('A' for Active; 'I' for Inactive)
ROOT
ATOM      1  C   UNL d   1       5.176   4.312   6.000  0.00  0.00     0.077 C 
ATOM      2  C1  UNL d   1       4.011   4.871   5.239  0.00  0.00    -0.074 A 
ATOM      3  C2  UNL d   1       2.940   5.475   5.905  0.00  0.00    -0.005 A 
ATOM      4  C3  UNL d   1       1.868   6.000   5.183  0.00  0.00     0.006 A 
ATOM      5  C4  UNL d   1       1.856   5.925   3.790  0.00  0.00    -0.005 A 
ATOM      6  C5  UNL d   1       2.919   5.326   3.106  0.00  0.00    -0.074 A 
ATOM      7  C6  UNL d   1       2.926   5.247   1.608  0.00  0.00     0.077 C 
ATOM      8  C7  UNL d   1       3.996   4.808   3.838  0.00  0.00    -0.001 A 
ENDROOT
TORSDOF 0
ENDMDL
