MODEL 1
REMARK minimizedAffinity 9.20189857
REMARK minimizedRMSD -1
REMARK  0 active torsions:
REMARK  status: ('A' for Active; 'I' for Inactive)
ROOT
ATOM      1  C   UNL d   1       2.362   2.960  -0.370  0.00  0.00     0.077 C 
ATOM      2  C1  UNL d   1       3.627   2.784  -1.155  0.00  0.00    -0.074 A 
ATOM      3  C2  UNL d   1       4.482   3.865  -1.393  0.00  0.00    -0.005 A 
ATOM      4  C3  UNL d   1       5.660   3.684  -2.117  0.00  0.00     0.006 A 
ATOM      5  C4  UNL d   1       5.995   2.422  -2.609  0.00  0.00    -0.005 A 
ATOM      6  C5  UNL d   1       5.154   1.329  -2.381  0.00  0.00    -0.074 A 
ATOM      7  C6  UNL d   1       5.504  -0.036  -2.895  0.00  0.00     0.077 C 
ATOM      8  C7  UNL d   1       3.975   1.518  -1.646  0.00  0.00    -0.001 A 
ENDROOT
TORSDOF 0
ENDMDL
