MODEL 1
REMARK minimizedAffinity 3.32098651
REMARK minimizedRMSD -1
REMARK  0 active torsions:
REMARK  status: ('A' for Active; 'I' for Inactive)
ROOT
ATOM      1  C   UNL d   1       3.963   3.703  -5.998  0.00  0.00     0.077 C 
ATOM      2  C1  UNL d   1       2.671   2.942  -5.949  0.00  0.00    -0.074 A 
ATOM      3  C2  UNL d   1       2.662   1.547  -5.841  0.00  0.00    -0.005 A 
ATOM      4  C3  UNL d   1       1.453   0.854  -5.787  0.00  0.00     0.006 A 
ATOM      5  C4  UNL d   1       0.243   1.547  -5.841  0.00  0.00    -0.005 A 
ATOM      6  C5  UNL d   1       0.233   2.941  -5.948  0.00  0.00    -0.074 A 
ATOM      7  C6  UNL d   1      -1.059   3.701  -5.997  0.00  0.00     0.077 C 
ATOM      8  C7  UNL d   1       1.452   3.631  -5.995  0.00  0.00    -0.001 A 
ENDROOT
TORSDOF 0
ENDMDL
