MODEL 1
REMARK minimizedAffinity -0.235441133
REMARK minimizedRMSD -1
REMARK  0 active torsions:
REMARK  status: ('A' for Active; 'I' for Inactive)
ROOT
ATOM      1  C   UNL d   1       2.787   6.000   5.254  0.00  0.00     0.077 C 
ATOM      2  C1  UNL d   1       3.504   4.833   4.644  0.00  0.00    -0.074 A 
ATOM      3  C2  UNL d   1       4.857   4.601   4.912  0.00  0.00    -0.005 A 
ATOM      4  C3  UNL d   1       5.509   3.505   4.345  0.00  0.00     0.006 A 
ATOM      5  C4  UNL d   1       4.815   2.633   3.506  0.00  0.00    -0.005 A 
ATOM      6  C5  UNL d   1       3.462   2.848   3.227  0.00  0.00    -0.074 A 
ATOM      7  C6  UNL d   1       2.700   1.914   2.334  0.00  0.00     0.077 C 
ATOM      8  C7  UNL d   1       2.813   3.947   3.806  0.00  0.00    -0.001 A 
ENDROOT
TORSDOF 0
ENDMDL
