MODEL 1
REMARK minimizedAffinity 6.06775188
REMARK minimizedRMSD -1
REMARK  0 active torsions:
REMARK  status: ('A' for Active; 'I' for Inactive)
ROOT
ATOM      1  C   UNL d   1      -5.940   5.592  -5.958  0.00  0.00     0.077 C 
ATOM      2  C1  UNL d   1      -4.524   5.098  -5.924  0.00  0.00    -0.074 A 
ATOM      3  C2  UNL d   1      -3.452   5.994  -5.859  0.00  0.00    -0.005 A 
ATOM      4  C3  UNL d   1      -2.141   5.519  -5.819  0.00  0.00     0.006 A 
ATOM      5  C4  UNL d   1      -1.889   4.147  -5.844  0.00  0.00    -0.005 A 
ATOM      6  C5  UNL d   1      -2.949   3.236  -5.908  0.00  0.00    -0.074 A 
ATOM      7  C6  UNL d   1      -2.696   1.758  -5.925  0.00  0.00     0.077 C 
ATOM      8  C7  UNL d   1      -4.264   3.721  -5.941  0.00  0.00    -0.001 A 
ENDROOT
TORSDOF 0
ENDMDL
