MODEL 1
REMARK minimizedAffinity 11.353981
REMARK minimizedRMSD -1
REMARK  0 active torsions:
REMARK  status: ('A' for Active; 'I' for Inactive)
ROOT
ATOM      1  C   UNL d   1       6.000   5.142   5.643  0.00  0.00     0.077 C 
ATOM      2  C1  UNL d   1       4.717   4.946   4.891  0.00  0.00    -0.074 A 
ATOM      3  C2  UNL d   1       3.700   5.906   4.942  0.00  0.00    -0.005 A 
ATOM      4  C3  UNL d   1       2.517   5.714   4.230  0.00  0.00     0.006 A 
ATOM      5  C4  UNL d   1       2.337   4.564   3.461  0.00  0.00    -0.005 A 
ATOM      6  C5  UNL d   1       3.343   3.594   3.397  0.00  0.00    -0.074 A 
ATOM      7  C6  UNL d   1       3.170   2.357   2.567  0.00  0.00     0.077 C 
ATOM      8  C7  UNL d   1       4.533   3.797   4.110  0.00  0.00    -0.001 A 
ENDROOT
TORSDOF 0
ENDMDL
