MODEL 1
REMARK minimizedAffinity 17.8475437
REMARK minimizedRMSD -1
REMARK  0 active torsions:
REMARK  status: ('A' for Active; 'I' for Inactive)
ROOT
ATOM      1  C   UNL d   1       4.228   2.774  -5.999  0.00  0.00     0.077 C 
ATOM      2  C1  UNL d   1       2.954   2.132  -5.536  0.00  0.00    -0.074 A 
ATOM      3  C2  UNL d   1       2.976   1.025  -4.682  0.00  0.00    -0.005 A 
ATOM      4  C3  UNL d   1       1.782   0.445  -4.252  0.00  0.00     0.006 A 
ATOM      5  C4  UNL d   1       0.557   0.965  -4.672  0.00  0.00    -0.005 A 
ATOM      6  C5  UNL d   1       0.516   2.072  -5.525  0.00  0.00    -0.074 A 
ATOM      7  C6  UNL d   1      -0.792   2.649  -5.978  0.00  0.00     0.077 C 
ATOM      8  C7  UNL d   1       1.719   2.654  -5.947  0.00  0.00    -0.001 A 
ENDROOT
TORSDOF 0
ENDMDL
