MODEL 1
REMARK minimizedAffinity 17.5284939
REMARK minimizedRMSD -1
REMARK  0 active torsions:
REMARK  status: ('A' for Active; 'I' for Inactive)
ROOT
ATOM      1  C   UNL d   1      -2.336  -1.579   2.253  0.00  0.00     0.077 C 
ATOM      2  C1  UNL d   1      -3.616  -1.820   2.998  0.00  0.00    -0.074 A 
ATOM      3  C2  UNL d   1      -4.773  -1.097   2.691  0.00  0.00    -0.005 A 
ATOM      4  C3  UNL d   1      -5.958  -1.338   3.385  0.00  0.00     0.006 A 
ATOM      5  C4  UNL d   1      -5.999  -2.304   4.391  0.00  0.00    -0.005 A 
ATOM      6  C5  UNL d   1      -4.852  -3.038   4.712  0.00  0.00    -0.074 A 
ATOM      7  C6  UNL d   1      -4.881  -4.086   5.784  0.00  0.00     0.077 C 
ATOM      8  C7  UNL d   1      -3.666  -2.794   4.005  0.00  0.00    -0.001 A 
ENDROOT
TORSDOF 0
ENDMDL
