MODEL 1
REMARK minimizedAffinity 13.1817694
REMARK minimizedRMSD -1
REMARK  0 active torsions:
REMARK  status: ('A' for Active; 'I' for Inactive)
ROOT
ATOM      1  O1  BZF d   1      -3.210  -2.265   4.180  0.00  0.00    -0.204 OA
ATOM      2  C2  BZF d   1      -3.807  -2.658   2.998  0.00  0.00     0.174 A 
ATOM      3  C3  BZF d   1      -3.011  -2.383   1.945  0.00  0.00    -0.012 A 
ATOM      4  C3A BZF d   1      -1.804  -1.864   2.511  0.00  0.00    -0.107 A 
ATOM      5  C4  BZF d   1      -0.627  -1.426   1.973  0.00  0.00     0.055 A 
ATOM      6  C5  BZF d   1       0.325  -0.913   2.797  0.00  0.00    -0.016 A 
ATOM      7  C6  BZF d   1       0.132  -0.819   4.160  0.00  0.00     0.022 A 
ATOM      8  C7  BZF d   1      -1.017  -1.246   4.739  0.00  0.00     0.029 A 
ATOM      9  C7A BZF d   1      -1.967  -1.795   3.914  0.00  0.00     0.058 A 
ENDROOT
TORSDOF 0
ENDMDL
