MODEL 1
REMARK minimizedAffinity 18.5690365
REMARK minimizedRMSD -1
REMARK  0 active torsions:
REMARK  status: ('A' for Active; 'I' for Inactive)
ROOT
ATOM      1  O1  BZF d   1       1.443  -5.733   1.859  0.00  0.00    -0.204 OA
ATOM      2  C2  BZF d   1       1.125  -6.000   3.176  0.00  0.00     0.174 A 
ATOM      3  C3  BZF d   1       0.535  -4.932   3.752  0.00  0.00    -0.012 A 
ATOM      4  C3A BZF d   1       0.398  -3.968   2.703  0.00  0.00    -0.107 A 
ATOM      5  C4  BZF d   1      -0.129  -2.709   2.649  0.00  0.00     0.055 A 
ATOM      6  C5  BZF d   1      -0.041  -2.006   1.489  0.00  0.00    -0.016 A 
ATOM      7  C6  BZF d   1       0.571  -2.528   0.368  0.00  0.00     0.022 A 
ATOM      8  C7  BZF d   1       1.104  -3.775   0.373  0.00  0.00     0.029 A 
ATOM      9  C7A BZF d   1       0.987  -4.500   1.533  0.00  0.00     0.058 A 
ENDROOT
TORSDOF 0
ENDMDL
