MODEL 1
REMARK minimizedAffinity 19.5368214
REMARK minimizedRMSD -1
REMARK  0 active torsions:
REMARK  status: ('A' for Active; 'I' for Inactive)
ROOT
ATOM      1  O1  BZF d   1       0.205   1.404  -0.352  0.00  0.00    -0.204 OA
ATOM      2  C2  BZF d   1       0.443   2.694  -0.784  0.00  0.00     0.174 A 
ATOM      3  C3  BZF d   1       1.644   3.130  -0.352  0.00  0.00    -0.012 A 
ATOM      4  C3A BZF d   1       2.231   2.011   0.319  0.00  0.00    -0.107 A 
ATOM      5  C4  BZF d   1       3.427   1.816   0.950  0.00  0.00     0.055 A 
ATOM      6  C5  BZF d   1       3.661   0.628   1.567  0.00  0.00    -0.016 A 
ATOM      7  C6  BZF d   1       2.722  -0.382   1.578  0.00  0.00     0.022 A 
ATOM      8  C7  BZF d   1       1.524  -0.237   0.962  0.00  0.00     0.029 A 
ATOM      9  C7A BZF d   1       1.297   0.950   0.309  0.00  0.00     0.058 A 
ENDROOT
TORSDOF 0
ENDMDL
