MODEL 1
REMARK minimizedAffinity 13.6418152
REMARK minimizedRMSD -1
REMARK  0 active torsions:
REMARK  status: ('A' for Active; 'I' for Inactive)
ROOT
ATOM      1  O1  BZF d   1      -1.167   1.720  -2.255  0.00  0.00    -0.204 OA
ATOM      2  C2  BZF d   1      -1.771   2.653  -3.075  0.00  0.00     0.174 A 
ATOM      3  C3  BZF d   1      -1.372   3.901  -2.755  0.00  0.00    -0.012 A 
ATOM      4  C3A BZF d   1      -0.392   3.731  -1.727  0.00  0.00    -0.107 A 
ATOM      5  C4  BZF d   1       0.381   4.601  -1.013  0.00  0.00     0.055 A 
ATOM      6  C5  BZF d   1       1.184   4.118  -0.029  0.00  0.00    -0.016 A 
ATOM      7  C6  BZF d   1       1.236   2.772   0.270  0.00  0.00     0.022 A 
ATOM      8  C7  BZF d   1       0.492   1.869  -0.414  0.00  0.00     0.029 A 
ATOM      9  C7A BZF d   1      -0.296   2.351  -1.431  0.00  0.00     0.058 A 
ENDROOT
TORSDOF 0
ENDMDL
