MODEL 1
REMARK minimizedAffinity 14.7111692
REMARK minimizedRMSD -1
REMARK  0 active torsions:
REMARK  status: ('A' for Active; 'I' for Inactive)
ROOT
ATOM      1  O1  BZF d   1       1.539  -3.682  -5.181  0.00  0.00    -0.204 OA
ATOM      2  C2  BZF d   1       1.891  -4.738  -5.999  0.00  0.00     0.174 A 
ATOM      3  C3  BZF d   1       1.126  -5.819  -5.741  0.00  0.00    -0.012 A 
ATOM      4  C3A BZF d   1       0.180  -5.384  -4.760  0.00  0.00    -0.107 A 
ATOM      5  C4  BZF d   1      -0.854  -6.000  -4.115  0.00  0.00     0.055 A 
ATOM      6  C5  BZF d   1      -1.538  -5.317  -3.159  0.00  0.00    -0.016 A 
ATOM      7  C6  BZF d   1      -1.211  -4.020  -2.820  0.00  0.00     0.022 A 
ATOM      8  C7  BZF d   1      -0.196  -3.365  -3.436  0.00  0.00     0.029 A 
ATOM      9  C7A BZF d   1       0.475  -4.042  -4.425  0.00  0.00     0.058 A 
ENDROOT
TORSDOF 0
ENDMDL
