MODEL 1
REMARK minimizedAffinity 17.0692768
REMARK minimizedRMSD -1
REMARK  0 active torsions:
REMARK  status: ('A' for Active; 'I' for Inactive)
ROOT
ATOM      1  O1  BZF d   1       1.344  -4.107   1.207  0.00  0.00    -0.204 OA
ATOM      2  C2  BZF d   1       0.687  -5.131   1.862  0.00  0.00     0.174 A 
ATOM      3  C3  BZF d   1      -0.323  -4.647   2.614  0.00  0.00    -0.012 A 
ATOM      4  C3A BZF d   1      -0.354  -3.242   2.344  0.00  0.00    -0.107 A 
ATOM      5  C4  BZF d   1      -1.148  -2.220   2.780  0.00  0.00     0.055 A 
ATOM      6  C5  BZF d   1      -0.868  -0.951   2.382  0.00  0.00    -0.016 A 
ATOM      7  C6  BZF d   1       0.199  -0.668   1.554  0.00  0.00     0.022 A 
ATOM      8  C7  BZF d   1       1.011  -1.650   1.092  0.00  0.00     0.029 A 
ATOM      9  C7A BZF d   1       0.711  -2.937   1.466  0.00  0.00     0.058 A 
ENDROOT
TORSDOF 0
ENDMDL
