MODEL 1
REMARK minimizedAffinity 14.1980085
REMARK minimizedRMSD -1
REMARK  0 active torsions:
REMARK  status: ('A' for Active; 'I' for Inactive)
ROOT
ATOM      1  O1  BZF d   1      -2.098  -2.583   0.941  0.00  0.00    -0.204 OA
ATOM      2  C2  BZF d   1      -3.093  -2.776   1.879  0.00  0.00     0.174 A 
ATOM      3  C3  BZF d   1      -2.738  -2.247   3.068  0.00  0.00    -0.012 A 
ATOM      4  C3A BZF d   1      -1.480  -1.608   2.835  0.00  0.00    -0.107 A 
ATOM      5  C4  BZF d   1      -0.628  -0.894   3.629  0.00  0.00     0.055 A 
ATOM      6  C5  BZF d   1       0.555  -0.469   3.114  0.00  0.00    -0.016 A 
ATOM      7  C6  BZF d   1       0.921  -0.744   1.813  0.00  0.00     0.022 A 
ATOM      8  C7  BZF d   1       0.108  -1.445   0.986  0.00  0.00     0.029 A 
ATOM      9  C7A BZF d   1      -1.104  -1.847   1.493  0.00  0.00     0.058 A 
ENDROOT
TORSDOF 0
ENDMDL
