MODEL 1
REMARK minimizedAffinity 19.254055
REMARK minimizedRMSD -1
REMARK  0 active torsions:
REMARK  status: ('A' for Active; 'I' for Inactive)
ROOT
ATOM      1  O1  BZF d   1       2.198   0.459   2.986  0.00  0.00    -0.204 OA
ATOM      2  C2  BZF d   1       3.234   0.201   2.110  0.00  0.00     0.174 A 
ATOM      3  C3  BZF d   1       2.936  -0.843   1.310  0.00  0.00    -0.012 A 
ATOM      4  C3A BZF d   1       1.595  -1.206   1.649  0.00  0.00    -0.107 A 
ATOM      5  C4  BZF d   1       0.736  -2.162   1.188  0.00  0.00     0.055 A 
ATOM      6  C5  BZF d   1      -0.479  -2.301   1.782  0.00  0.00    -0.016 A 
ATOM      7  C6  BZF d   1      -0.864  -1.506   2.841  0.00  0.00     0.022 A 
ATOM      8  C7  BZF d   1      -0.048  -0.540   3.330  0.00  0.00     0.029 A 
ATOM      9  C7A BZF d   1       1.167  -0.376   2.711  0.00  0.00     0.058 A 
ENDROOT
TORSDOF 0
ENDMDL
