MODEL 1
REMARK minimizedAffinity 18.4332047
REMARK minimizedRMSD -1
REMARK  0 active torsions:
REMARK  status: ('A' for Active; 'I' for Inactive)
ROOT
ATOM      1  O1  BZF d   1       4.634  -1.623  -1.780  0.00  0.00    -0.204 OA
ATOM      2  C2  BZF d   1       5.316  -0.804  -2.659  0.00  0.00     0.174 A 
ATOM      3  C3  BZF d   1       5.252   0.483  -2.261  0.00  0.00    -0.012 A 
ATOM      4  C3A BZF d   1       4.559   0.456  -1.010  0.00  0.00    -0.107 A 
ATOM      5  C4  BZF d   1       4.199   1.422  -0.115  0.00  0.00     0.055 A 
ATOM      6  C5  BZF d   1       3.466   1.074   0.975  0.00  0.00    -0.016 A 
ATOM      7  C6  BZF d   1       3.072  -0.229   1.198  0.00  0.00     0.022 A 
ATOM      8  C7  BZF d   1       3.409  -1.224   0.341  0.00  0.00     0.029 A 
ATOM      9  C7A BZF d   1       4.178  -0.880  -0.744  0.00  0.00     0.058 A 
ENDROOT
TORSDOF 0
ENDMDL
