MODEL 1
REMARK minimizedAffinity 15.5925646
REMARK minimizedRMSD -1
REMARK  0 active torsions:
REMARK  status: ('A' for Active; 'I' for Inactive)
ROOT
ATOM      1  O1  BZF d   1       1.807  -5.195   1.376  0.00  0.00    -0.204 OA
ATOM      2  C2  BZF d   1       1.453  -6.000   2.441  0.00  0.00     0.174 A 
ATOM      3  C3  BZF d   1       0.659  -5.332   3.302  0.00  0.00    -0.012 A 
ATOM      4  C3A BZF d   1       0.432  -4.058   2.694  0.00  0.00    -0.107 A 
ATOM      5  C4  BZF d   1      -0.292  -2.958   3.059  0.00  0.00     0.055 A 
ATOM      6  C5  BZF d   1      -0.247  -1.848   2.276  0.00  0.00    -0.016 A 
ATOM      7  C6  BZF d   1       0.513  -1.801   1.126  0.00  0.00     0.022 A 
ATOM      8  C7  BZF d   1       1.244  -2.868   0.721  0.00  0.00     0.029 A 
ATOM      9  C7A BZF d   1       1.175  -4.002   1.492  0.00  0.00     0.058 A 
ENDROOT
TORSDOF 0
ENDMDL
