MODEL 1
REMARK minimizedAffinity 15.1198244
REMARK minimizedRMSD -1
REMARK  0 active torsions:
REMARK  status: ('A' for Active; 'I' for Inactive)
ROOT
ATOM      1  O1  BZF d   1      -3.141  -1.912   3.618  0.00  0.00    -0.204 OA
ATOM      2  C2  BZF d   1      -3.662  -3.011   2.962  0.00  0.00     0.174 A 
ATOM      3  C3  BZF d   1      -2.778  -3.497   2.067  0.00  0.00    -0.012 A 
ATOM      4  C3A BZF d   1      -1.598  -2.706   2.236  0.00  0.00    -0.107 A 
ATOM      5  C4  BZF d   1      -0.367  -2.716   1.644  0.00  0.00     0.055 A 
ATOM      6  C5  BZF d   1       0.538  -1.762   1.985  0.00  0.00    -0.016 A 
ATOM      7  C6  BZF d   1       0.246  -0.781   2.910  0.00  0.00     0.022 A 
ATOM      8  C7  BZF d   1      -0.959  -0.733   3.528  0.00  0.00     0.029 A 
ATOM      9  C7A BZF d   1      -1.865  -1.715   3.210  0.00  0.00     0.058 A 
ENDROOT
TORSDOF 0
ENDMDL
