MODEL 1
REMARK minimizedAffinity 13.5675306
REMARK minimizedRMSD -1
REMARK  0 active torsions:
REMARK  status: ('A' for Active; 'I' for Inactive)
ROOT
ATOM      1  O1  BZF d   1       2.967  -1.451   0.262  0.00  0.00    -0.204 OA
ATOM      2  C2  BZF d   1       2.869  -2.697  -0.327  0.00  0.00     0.174 A 
ATOM      3  C3  BZF d   1       1.774  -3.349   0.114  0.00  0.00    -0.012 A 
ATOM      4  C3A BZF d   1       1.099  -2.420   0.966  0.00  0.00    -0.107 A 
ATOM      5  C4  BZF d   1      -0.058  -2.478   1.689  0.00  0.00     0.055 A 
ATOM      6  C5  BZF d   1      -0.399  -1.423   2.476  0.00  0.00    -0.016 A 
ATOM      7  C6  BZF d   1       0.396  -0.299   2.568  0.00  0.00     0.022 A 
ATOM      8  C7  BZF d   1       1.550  -0.194   1.866  0.00  0.00     0.029 A 
ATOM      9  C7A BZF d   1       1.880  -1.244   1.045  0.00  0.00     0.058 A 
ENDROOT
TORSDOF 0
ENDMDL
