MODEL 1
REMARK minimizedAffinity 14.6213837
REMARK minimizedRMSD -1
REMARK  0 active torsions:
REMARK  status: ('A' for Active; 'I' for Inactive)
ROOT
ATOM      1  O1  BZF d   1      -3.911   3.262  -3.129  0.00  0.00    -0.204 OA
ATOM      2  C2  BZF d   1      -3.810   3.796  -1.858  0.00  0.00     0.174 A 
ATOM      3  C3  BZF d   1      -2.997   4.872  -1.855  0.00  0.00    -0.012 A 
ATOM      4  C3A BZF d   1      -2.637   5.076  -3.225  0.00  0.00    -0.107 A 
ATOM      5  C4  BZF d   1      -1.861   6.000  -3.864  0.00  0.00     0.055 A 
ATOM      6  C5  BZF d   1      -1.653   5.876  -5.202  0.00  0.00    -0.016 A 
ATOM      7  C6  BZF d   1      -2.200   4.839  -5.929  0.00  0.00     0.022 A 
ATOM      8  C7  BZF d   1      -2.981   3.901  -5.339  0.00  0.00     0.029 A 
ATOM      9  C7A BZF d   1      -3.220   4.042  -3.994  0.00  0.00     0.058 A 
ENDROOT
TORSDOF 0
ENDMDL
