MODEL 1
REMARK minimizedAffinity 5.74867058
REMARK minimizedRMSD -1
REMARK  0 active torsions:
REMARK  status: ('A' for Active; 'I' for Inactive)
ROOT
ATOM      1  O1  BZF d   1       2.301  -5.951  -5.953  0.00  0.00    -0.204 OA
ATOM      2  C2  BZF d   1       1.297  -5.002  -5.929  0.00  0.00     0.174 A 
ATOM      3  C3  BZF d   1       1.816  -3.758  -5.878  0.00  0.00    -0.012 A 
ATOM      4  C3A BZF d   1       3.233  -3.938  -5.964  0.00  0.00    -0.107 A 
ATOM      5  C4  BZF d   1       4.290  -3.073  -5.980  0.00  0.00     0.055 A 
ATOM      6  C5  BZF d   1       5.553  -3.574  -5.998  0.00  0.00    -0.016 A 
ATOM      7  C6  BZF d   1       5.796  -4.932  -5.995  0.00  0.00     0.022 A 
ATOM      8  C7  BZF d   1       4.780  -5.829  -5.984  0.00  0.00     0.029 A 
ATOM      9  C7A BZF d   1       3.502  -5.326  -5.999  0.00  0.00     0.058 A 
ENDROOT
TORSDOF 0
ENDMDL
