MODEL 1
REMARK minimizedAffinity 16.0608559
REMARK minimizedRMSD -1
REMARK  0 active torsions:
REMARK  status: ('A' for Active; 'I' for Inactive)
ROOT
ATOM      1  O1  BZF d   1      -1.518   5.997  -4.982  0.00  0.00    -0.204 OA
ATOM      2  C2  BZF d   1      -1.411   5.043  -5.975  0.00  0.00     0.174 A 
ATOM      3  C3  BZF d   1      -1.930   3.867  -5.566  0.00  0.00    -0.012 A 
ATOM      4  C3A BZF d   1      -2.474   4.127  -4.268  0.00  0.00    -0.107 A 
ATOM      5  C4  BZF d   1      -3.136   3.355  -3.357  0.00  0.00     0.055 A 
ATOM      6  C5  BZF d   1      -3.467   3.893  -2.153  0.00  0.00    -0.016 A 
ATOM      7  C6  BZF d   1      -3.147   5.194  -1.827  0.00  0.00     0.022 A 
ATOM      8  C7  BZF d   1      -2.495   6.000  -2.700  0.00  0.00     0.029 A 
ATOM      9  C7A BZF d   1      -2.188   5.470  -3.930  0.00  0.00     0.058 A 
ENDROOT
TORSDOF 0
ENDMDL
