MODEL 1
REMARK minimizedAffinity 10.9740801
REMARK minimizedRMSD -1
REMARK  0 active torsions:
REMARK  status: ('A' for Active; 'I' for Inactive)
ROOT
ATOM      1  O1  BZF d   1      -2.243   3.814  -5.403  0.00  0.00    -0.204 OA
ATOM      2  C2  BZF d   1      -1.734   4.951  -6.000  0.00  0.00     0.174 A 
ATOM      3  C3  BZF d   1      -1.773   5.996  -5.148  0.00  0.00    -0.012 A 
ATOM      4  C3A BZF d   1      -2.256   5.458  -3.913  0.00  0.00    -0.107 A 
ATOM      5  C4  BZF d   1      -2.497   6.000  -2.683  0.00  0.00     0.055 A 
ATOM      6  C5  BZF d   1      -3.036   5.218  -1.711  0.00  0.00    -0.016 A 
ATOM      7  C6  BZF d   1      -3.351   3.894  -1.936  0.00  0.00     0.022 A 
ATOM      8  C7  BZF d   1      -3.126   3.311  -3.139  0.00  0.00     0.029 A 
ATOM      9  C7A BZF d   1      -2.550   4.089  -4.113  0.00  0.00     0.058 A 
ENDROOT
TORSDOF 0
ENDMDL
