MODEL 1
REMARK minimizedAffinity 4.76297617
REMARK minimizedRMSD -1
REMARK  0 active torsions:
REMARK  status: ('A' for Active; 'I' for Inactive)
ROOT
ATOM      1  O1  BZF d   1      -4.375  -5.965   0.342  0.00  0.00    -0.204 OA
ATOM      2  C2  BZF d   1      -3.906  -5.126  -0.650  0.00  0.00     0.174 A 
ATOM      3  C3  BZF d   1      -3.580  -3.920  -0.141  0.00  0.00    -0.012 A 
ATOM      4  C3A BZF d   1      -3.777  -4.041   1.271  0.00  0.00    -0.107 A 
ATOM      5  C4  BZF d   1      -3.607  -3.183   2.320  0.00  0.00     0.055 A 
ATOM      6  C5  BZF d   1      -3.959  -3.588   3.568  0.00  0.00    -0.016 A 
ATOM      7  C6  BZF d   1      -4.488  -4.840   3.803  0.00  0.00     0.022 A 
ATOM      8  C7  BZF d   1      -4.671  -5.728   2.795  0.00  0.00     0.029 A 
ATOM      9  C7A BZF d   1      -4.285  -5.333   1.537  0.00  0.00     0.058 A 
ENDROOT
TORSDOF 0
ENDMDL
