MODEL 1
REMARK minimizedAffinity 1.2436012
REMARK minimizedRMSD -1
REMARK  0 active torsions:
REMARK  status: ('A' for Active; 'I' for Inactive)
ROOT
ATOM      1  O1  BZF d   1      -3.857  -5.180   2.314  0.00  0.00    -0.204 OA
ATOM      2  C2  BZF d   1      -4.933  -4.567   2.927  0.00  0.00     0.174 A 
ATOM      3  C3  BZF d   1      -5.912  -4.316   2.035  0.00  0.00    -0.012 A 
ATOM      4  C3A BZF d   1      -5.455  -4.885   0.804  0.00  0.00    -0.107 A 
ATOM      5  C4  BZF d   1      -5.995  -4.972  -0.447  0.00  0.00     0.055 A 
ATOM      6  C5  BZF d   1      -5.259  -5.527  -1.446  0.00  0.00    -0.016 A 
ATOM      7  C6  BZF d   1      -3.981  -6.000  -1.231  0.00  0.00     0.022 A 
ATOM      8  C7  BZF d   1      -3.406  -5.939  -0.005  0.00  0.00     0.029 A 
ATOM      9  C7A BZF d   1      -4.159  -5.409   1.014  0.00  0.00     0.058 A 
ENDROOT
TORSDOF 0
ENDMDL
