MODEL 1
REMARK minimizedAffinity -0.139197528
REMARK minimizedRMSD -1
REMARK  2 active torsions:
REMARK  status: ('A' for Active; 'I' for Inactive)
REMARK    1  A    between atoms: C2'_3  and  C1'_4 
REMARK    2  A    between atoms: C1'_4  and  C1_5 
ROOT
ATOM      1  C1  I4B d   1       0.780  -1.209   0.714  0.00  0.00    -0.075 A 
ATOM      2  C2  I4B d   1      -0.420  -1.252   0.049  0.00  0.00     0.003 A 
ATOM      3  C3  I4B d   1      -1.489  -0.416   0.453  0.00  0.00     0.002 A 
ATOM      4  C4  I4B d   1      -1.332   0.406   1.551  0.00  0.00    -0.004 A 
ATOM      5  C5  I4B d   1      -0.107   0.465   2.209  0.00  0.00     0.002 A 
ATOM      6  C6  I4B d   1       0.960  -0.338   1.781  0.00  0.00     0.003 A 
ENDROOT
BRANCH   1   7
ATOM      7  C1' I4B d   1       1.877  -2.130   0.281  0.00  0.00     0.060 C 
BRANCH   7   8
ATOM      8  C2' I4B d   1       1.420  -3.552   0.535  0.00  0.00    -0.013 C 
ATOM      9  C4' I4B d   1       0.142  -3.854  -0.203  0.00  0.00     0.013 C 
ATOM     10  C3' I4B d   1       2.522  -4.475   0.109  0.00  0.00     0.013 C 
ENDBRANCH   7   8
ENDBRANCH   1   7
TORSDOF 2
ENDMDL
