MODEL 1
REMARK minimizedAffinity -1.85219467
REMARK minimizedRMSD -1
REMARK  2 active torsions:
REMARK  status: ('A' for Active; 'I' for Inactive)
REMARK    1  A    between atoms: C2'_3  and  C1'_4 
REMARK    2  A    between atoms: C1'_4  and  C1_5 
ROOT
ATOM      1  C1  I4B d   1       1.108  -2.556  -0.032  0.00  0.00    -0.075 A 
ATOM      2  C2  I4B d   1       0.089  -3.070   0.730  0.00  0.00     0.003 A 
ATOM      3  C3  I4B d   1      -0.762  -2.205   1.459  0.00  0.00     0.002 A 
ATOM      4  C4  I4B d   1      -0.529  -0.845   1.437  0.00  0.00    -0.004 A 
ATOM      5  C5  I4B d   1       0.490  -0.323   0.646  0.00  0.00     0.002 A 
ATOM      6  C6  I4B d   1       1.306  -1.183  -0.104  0.00  0.00     0.003 A 
ENDROOT
BRANCH   1   7
ATOM      7  C1' I4B d   1       2.009  -3.500  -0.763  0.00  0.00     0.060 C 
BRANCH   7   8
ATOM      8  C2' I4B d   1       3.266  -3.679   0.063  0.00  0.00    -0.013 C 
ATOM      9  C4' I4B d   1       4.061  -4.870  -0.405  0.00  0.00     0.013 C 
ATOM     10  C3' I4B d   1       4.071  -2.418  -0.039  0.00  0.00     0.013 C 
ENDBRANCH   7   8
ENDBRANCH   1   7
TORSDOF 2
ENDMDL
