MODEL 1
REMARK minimizedAffinity -5.72482061
REMARK minimizedRMSD -1
REMARK  2 active torsions:
REMARK  status: ('A' for Active; 'I' for Inactive)
REMARK    1  A    between atoms: C2'_3  and  C1'_4 
REMARK    2  A    between atoms: C1'_4  and  C1_5 
ROOT
ATOM      1  C1  I4B d   1       0.861  -2.096   0.312  0.00  0.00    -0.075 A 
ATOM      2  C2  I4B d   1       1.086  -3.448   0.371  0.00  0.00     0.003 A 
ATOM      3  C3  I4B d   1       2.410  -3.951   0.365  0.00  0.00     0.002 A 
ATOM      4  C4  I4B d   1       3.469  -3.074   0.248  0.00  0.00    -0.004 A 
ATOM      5  C5  I4B d   1       3.239  -1.702   0.212  0.00  0.00     0.002 A 
ATOM      6  C6  I4B d   1       1.928  -1.208   0.257  0.00  0.00     0.003 A 
ENDROOT
BRANCH   1   7
ATOM      7  C1' I4B d   1      -0.551  -1.601   0.288  0.00  0.00     0.060 C 
BRANCH   7   8
ATOM      8  C2' I4B d   1      -0.588  -0.259   0.991  0.00  0.00    -0.013 C 
ATOM      9  C4' I4B d   1      -1.982   0.078   1.449  0.00  0.00     0.013 C 
ATOM     10  C3' I4B d   1       0.363  -0.318   2.149  0.00  0.00     0.013 C 
ENDBRANCH   7   8
ENDBRANCH   1   7
TORSDOF 2
ENDMDL
