MODEL 1
REMARK minimizedAffinity 10.1116762
REMARK minimizedRMSD -1
REMARK  2 active torsions:
REMARK  status: ('A' for Active; 'I' for Inactive)
REMARK    1  A    between atoms: C2'_3  and  C1'_4 
REMARK    2  A    between atoms: C1'_4  and  C1_5 
ROOT
ATOM      1  C1  I4B d   1       0.067  -2.701  -0.781  0.00  0.00    -0.075 A 
ATOM      2  C2  I4B d   1       0.328  -1.824  -1.804  0.00  0.00     0.003 A 
ATOM      3  C3  I4B d   1       0.507  -2.301  -3.125  0.00  0.00     0.002 A 
ATOM      4  C4  I4B d   1       0.467  -3.659  -3.368  0.00  0.00    -0.004 A 
ATOM      5  C5  I4B d   1       0.179  -4.545  -2.334  0.00  0.00     0.002 A 
ATOM      6  C6  I4B d   1      -0.034  -4.063  -1.034  0.00  0.00     0.003 A 
ENDROOT
BRANCH   1   7
ATOM      7  C1' I4B d   1      -0.083  -2.166   0.607  0.00  0.00     0.060 C 
BRANCH   7   8
ATOM      8  C2' I4B d   1       0.310  -0.703   0.589  0.00  0.00    -0.013 C 
ATOM      9  C4' I4B d   1      -0.637   0.127   1.414  0.00  0.00     0.013 C 
ATOM     10  C3' I4B d   1       1.714  -0.594   1.103  0.00  0.00     0.013 C 
ENDBRANCH   7   8
ENDBRANCH   1   7
TORSDOF 2
ENDMDL
