MODEL 1
REMARK minimizedAffinity -3.42011786
REMARK minimizedRMSD -1
REMARK  2 active torsions:
REMARK  status: ('A' for Active; 'I' for Inactive)
REMARK    1  A    between atoms: C2'_3  and  C1'_4 
REMARK    2  A    between atoms: C1'_4  and  C1_5 
ROOT
ATOM      1  C1  I4B d   1       1.305  -2.724   0.036  0.00  0.00    -0.075 A 
ATOM      2  C2  I4B d   1       0.146  -3.094   0.672  0.00  0.00     0.003 A 
ATOM      3  C3  I4B d   1      -0.683  -2.115   1.271  0.00  0.00     0.002 A 
ATOM      4  C4  I4B d   1      -0.292  -0.792   1.255  0.00  0.00    -0.004 A 
ATOM      5  C5  I4B d   1       0.872  -0.415   0.590  0.00  0.00     0.002 A 
ATOM      6  C6  I4B d   1       1.669  -1.386  -0.034  0.00  0.00     0.003 A 
ENDROOT
BRANCH   1   7
ATOM      7  C1' I4B d   1       2.173  -3.788  -0.557  0.00  0.00     0.060 C 
BRANCH   7   8
ATOM      8  C2' I4B d   1       3.466  -3.828   0.231  0.00  0.00    -0.013 C 
ATOM      9  C4' I4B d   1       4.288  -5.037  -0.132  0.00  0.00     0.013 C 
ATOM     10  C3' I4B d   1       4.217  -2.560  -0.045  0.00  0.00     0.013 C 
ENDBRANCH   7   8
ENDBRANCH   1   7
TORSDOF 2
ENDMDL
