MODEL 1
REMARK minimizedAffinity -1.16105056
REMARK minimizedRMSD -1
REMARK  2 active torsions:
REMARK  status: ('A' for Active; 'I' for Inactive)
REMARK    1  A    between atoms: C2'_3  and  C1'_4 
REMARK    2  A    between atoms: C1'_4  and  C1_5 
ROOT
ATOM      1  C1  I4B d   1       1.944  -1.622   0.302  0.00  0.00    -0.075 A 
ATOM      2  C2  I4B d   1       2.337  -0.570   1.091  0.00  0.00     0.003 A 
ATOM      3  C3  I4B d   1       1.389   0.390   1.522  0.00  0.00     0.002 A 
ATOM      4  C4  I4B d   1       0.079   0.288   1.101  0.00  0.00    -0.004 A 
ATOM      5  C5  I4B d   1      -0.321  -0.792   0.320  0.00  0.00     0.002 A 
ATOM      6  C6  I4B d   1       0.614  -1.760  -0.073  0.00  0.00     0.003 A 
ENDROOT
BRANCH   1   7
ATOM      7  C1' I4B d   1       2.977  -2.600  -0.163  0.00  0.00     0.060 C 
BRANCH   7   8
ATOM      8  C2' I4B d   1       2.519  -3.988   0.235  0.00  0.00    -0.013 C 
ATOM      9  C4' I4B d   1       1.207  -4.336  -0.418  0.00  0.00     0.013 C 
ATOM     10  C3' I4B d   1       3.592  -4.960  -0.155  0.00  0.00     0.013 C 
ENDBRANCH   7   8
ENDBRANCH   1   7
TORSDOF 2
ENDMDL
