MODEL 1
REMARK minimizedAffinity 3.70898557
REMARK minimizedRMSD -1
REMARK  2 active torsions:
REMARK  status: ('A' for Active; 'I' for Inactive)
REMARK    1  A    between atoms: C2'_3  and  C1'_4 
REMARK    2  A    between atoms: C1'_4  and  C1_5 
ROOT
ATOM      1  C1  I4B d   1       1.026  -2.881   0.815  0.00  0.00    -0.075 A 
ATOM      2  C2  I4B d   1      -0.215  -2.807   0.234  0.00  0.00     0.003 A 
ATOM      3  C3  I4B d   1      -0.858  -1.555   0.081  0.00  0.00     0.002 A 
ATOM      4  C4  I4B d   1      -0.249  -0.415   0.567  0.00  0.00    -0.004 A 
ATOM      5  C5  I4B d   1       1.019  -0.489   1.135  0.00  0.00     0.002 A 
ATOM      6  C6  I4B d   1       1.667  -1.728   1.249  0.00  0.00     0.003 A 
ENDROOT
BRANCH   1   7
ATOM      7  C1' I4B d   1       1.662  -4.224   0.989  0.00  0.00     0.060 C 
BRANCH   7   8
ATOM      8  C2' I4B d   1       2.393  -4.565  -0.293  0.00  0.00    -0.013 C 
ATOM      9  C4' I4B d   1       3.588  -5.441  -0.023  0.00  0.00     0.013 C 
ATOM     10  C3' I4B d   1       1.422  -5.242  -1.214  0.00  0.00     0.013 C 
ENDBRANCH   7   8
ENDBRANCH   1   7
TORSDOF 2
ENDMDL
