MODEL 1
REMARK minimizedAffinity -2.85463858
REMARK minimizedRMSD -1
REMARK  2 active torsions:
REMARK  status: ('A' for Active; 'I' for Inactive)
REMARK    1  A    between atoms: C2'_3  and  C1'_4 
REMARK    2  A    between atoms: C1'_4  and  C1_5 
ROOT
ATOM      1  C1  I4B d   1       2.367  -3.209   0.103  0.00  0.00    -0.075 A 
ATOM      2  C2  I4B d   1       0.999  -3.231   0.212  0.00  0.00     0.003 A 
ATOM      3  C3  I4B d   1       0.295  -2.059   0.584  0.00  0.00     0.002 A 
ATOM      4  C4  I4B d   1       0.998  -0.911   0.885  0.00  0.00    -0.004 A 
ATOM      5  C5  I4B d   1       2.384  -0.885   0.751  0.00  0.00     0.002 A 
ATOM      6  C6  I4B d   1       3.072  -2.037   0.346  0.00  0.00     0.003 A 
ENDROOT
BRANCH   1   7
ATOM      7  C1' I4B d   1       3.081  -4.473  -0.260  0.00  0.00     0.060 C 
BRANCH   7   8
ATOM      8  C2' I4B d   1       4.445  -4.444   0.399  0.00  0.00    -0.013 C 
ATOM      9  C4' I4B d   1       4.903  -5.831   0.766  0.00  0.00     0.013 C 
ATOM     10  C3' I4B d   1       5.404  -3.791  -0.550  0.00  0.00     0.013 C 
ENDBRANCH   7   8
ENDBRANCH   1   7
TORSDOF 2
ENDMDL
