MODEL 1
REMARK minimizedAffinity -2.15535975
REMARK minimizedRMSD -1
REMARK  2 active torsions:
REMARK  status: ('A' for Active; 'I' for Inactive)
REMARK    1  A    between atoms: C2'_3  and  C1'_4 
REMARK    2  A    between atoms: C1'_4  and  C1_5 
ROOT
ATOM      1  C1  I4B d   1      -0.275  -1.522   0.591  0.00  0.00    -0.075 A 
ATOM      2  C2  I4B d   1      -0.030  -2.852   0.353  0.00  0.00     0.003 A 
ATOM      3  C3  I4B d   1       1.299  -3.315   0.194  0.00  0.00     0.002 A 
ATOM      4  C4  I4B d   1       2.342  -2.411   0.229  0.00  0.00    -0.004 A 
ATOM      5  C5  I4B d   1       2.093  -1.067   0.493  0.00  0.00     0.002 A 
ATOM      6  C6  I4B d   1       0.778  -0.622   0.687  0.00  0.00     0.003 A 
ENDROOT
BRANCH   1   7
ATOM      7  C1' I4B d   1      -1.693  -1.063   0.721  0.00  0.00     0.060 C 
BRANCH   7   8
ATOM      8  C2' I4B d   1      -1.675   0.402   1.109  0.00  0.00    -0.013 C 
ATOM      9  C4' I4B d   1      -2.949   1.091   0.696  0.00  0.00     0.013 C 
ATOM     10  C3' I4B d   1      -1.469   0.486   2.592  0.00  0.00     0.013 C 
ENDBRANCH   7   8
ENDBRANCH   1   7
TORSDOF 2
ENDMDL
