MODEL 1
REMARK minimizedAffinity -3.07537889
REMARK minimizedRMSD -1
REMARK  2 active torsions:
REMARK  status: ('A' for Active; 'I' for Inactive)
REMARK    1  A    between atoms: C2'_3  and  C1'_4 
REMARK    2  A    between atoms: C1'_4  and  C1_5 
ROOT
ATOM      1  C1  I4B d   1       0.003  -1.755   0.387  0.00  0.00    -0.075 A 
ATOM      2  C2  I4B d   1       0.301  -3.087   0.247  0.00  0.00     0.003 A 
ATOM      3  C3  I4B d   1       1.643  -3.504   0.070  0.00  0.00     0.002 A 
ATOM      4  C4  I4B d   1       2.643  -2.556  -0.011  0.00  0.00    -0.004 A 
ATOM      5  C5  I4B d   1       2.342  -1.207   0.154  0.00  0.00     0.002 A 
ATOM      6  C6  I4B d   1       1.016  -0.804   0.367  0.00  0.00     0.003 A 
ENDROOT
BRANCH   1   7
ATOM      7  C1' I4B d   1      -1.428  -1.348   0.540  0.00  0.00     0.060 C 
BRANCH   7   8
ATOM      8  C2' I4B d   1      -1.456   0.069   1.075  0.00  0.00    -0.013 C 
ATOM      9  C4' I4B d   1      -2.734   0.770   0.696  0.00  0.00     0.013 C 
ATOM     10  C3' I4B d   1      -1.294   0.005   2.564  0.00  0.00     0.013 C 
ENDBRANCH   7   8
ENDBRANCH   1   7
TORSDOF 2
ENDMDL
