MODEL 1
REMARK minimizedAffinity -2.55322909
REMARK minimizedRMSD -1
REMARK  2 active torsions:
REMARK  status: ('A' for Active; 'I' for Inactive)
REMARK    1  A    between atoms: C2'_3  and  C1'_4 
REMARK    2  A    between atoms: C1'_4  and  C1_5 
ROOT
ATOM      1  C1  I4B d   1       1.985  -1.580   0.454  0.00  0.00    -0.075 A 
ATOM      2  C2  I4B d   1       0.920  -2.028  -0.287  0.00  0.00     0.003 A 
ATOM      3  C3  I4B d   1      -0.374  -1.496  -0.068  0.00  0.00     0.002 A 
ATOM      4  C4  I4B d   1      -0.565  -0.561   0.929  0.00  0.00    -0.004 A 
ATOM      5  C5  I4B d   1       0.520  -0.091   1.663  0.00  0.00     0.002 A 
ATOM      6  C6  I4B d   1       1.806  -0.595   1.416  0.00  0.00     0.003 A 
ENDROOT
BRANCH   1   7
ATOM      7  C1' I4B d   1       3.332  -2.188   0.219  0.00  0.00     0.060 C 
BRANCH   7   8
ATOM      8  C2' I4B d   1       3.139  -3.671  -0.025  0.00  0.00    -0.013 C 
ATOM      9  C4' I4B d   1       4.435  -4.422   0.133  0.00  0.00     0.013 C 
ATOM     10  C3' I4B d   1       2.104  -4.168   0.940  0.00  0.00     0.013 C 
ENDBRANCH   7   8
ENDBRANCH   1   7
TORSDOF 2
ENDMDL
