MODEL 1
REMARK minimizedAffinity 8.08164024
REMARK minimizedRMSD -1
REMARK  2 active torsions:
REMARK  status: ('A' for Active; 'I' for Inactive)
REMARK    1  A    between atoms: C2'_3  and  C1'_4 
REMARK    2  A    between atoms: C1'_4  and  C1_5 
ROOT
ATOM      1  C1  I4B d   1      -4.801  -5.028   3.387  0.00  0.00    -0.075 A 
ATOM      2  C2  I4B d   1      -5.029  -3.784   3.920  0.00  0.00     0.003 A 
ATOM      3  C3  I4B d   1      -4.607  -3.484   5.238  0.00  0.00     0.002 A 
ATOM      4  C4  I4B d   1      -4.009  -4.467   6.000  0.00  0.00    -0.004 A 
ATOM      5  C5  I4B d   1      -3.758  -5.721   5.450  0.00  0.00     0.002 A 
ATOM      6  C6  I4B d   1      -4.145  -6.000   4.131  0.00  0.00     0.003 A 
ENDROOT
BRANCH   1   7
ATOM      7  C1' I4B d   1      -5.290  -5.320   2.004  0.00  0.00     0.060 C 
BRANCH   7   8
ATOM      8  C2' I4B d   1      -5.089  -4.075   1.165  0.00  0.00    -0.013 C 
ATOM      9  C4' I4B d   1      -3.651  -3.929   0.741  0.00  0.00     0.013 C 
ATOM     10  C3' I4B d   1      -5.997  -4.166  -0.025  0.00  0.00     0.013 C 
ENDBRANCH   7   8
ENDBRANCH   1   7
TORSDOF 2
ENDMDL
