MODEL 1
REMARK minimizedAffinity -3.22685266
REMARK minimizedRMSD -1
REMARK  2 active torsions:
REMARK  status: ('A' for Active; 'I' for Inactive)
REMARK    1  A    between atoms: C1_2  and  C2_3 
REMARK    2  A    between atoms: C2_3  and  C3_4 
ROOT
ATOM      1  C3  UNL d   1      -0.314   0.167  -0.313  0.00  0.00    -0.075 A 
ATOM      2  C4  UNL d   1      -1.155   1.251  -0.024  0.00  0.00     0.002 A 
ATOM      3  C5  UNL d   1      -0.671   2.358   0.674  0.00  0.00     0.002 A 
ATOM      4  C6  UNL d   1       0.656   2.391   1.099  0.00  0.00    -0.004 A 
ATOM      5  C7  UNL d   1       1.496   1.312   0.832  0.00  0.00     0.002 A 
ATOM      6  C8  UNL d   1       1.015   0.206   0.130  0.00  0.00     0.002 A 
ENDROOT
BRANCH   1   7
ATOM      7  C2  UNL d   1      -0.824  -1.020  -1.094  0.00  0.00     0.056 C 
BRANCH   7   8
ATOM      8  C1  UNL d   1      -0.801  -2.337  -0.311  0.00  0.00     0.007 C 
ATOM      9  C   UNL d   1      -2.105  -3.117  -0.410  0.00  0.00     0.009 C 
ENDBRANCH   7   8
ENDBRANCH   1   7
TORSDOF 2
ENDMDL
