MODEL 1
REMARK minimizedAffinity -3.26510119
REMARK minimizedRMSD -1
REMARK  2 active torsions:
REMARK  status: ('A' for Active; 'I' for Inactive)
REMARK    1  A    between atoms: C1_2  and  C2_3 
REMARK    2  A    between atoms: C2_3  and  C3_4 
ROOT
ATOM      1  C3  UNL d   1      -0.311  -0.513  -0.156  0.00  0.00    -0.075 A 
ATOM      2  C4  UNL d   1       0.481   0.615  -0.413  0.00  0.00     0.002 A 
ATOM      3  C5  UNL d   1       0.119   1.865   0.089  0.00  0.00     0.002 A 
ATOM      4  C6  UNL d   1      -1.044   2.005   0.844  0.00  0.00    -0.004 A 
ATOM      5  C7  UNL d   1      -1.848   0.894   1.091  0.00  0.00     0.002 A 
ATOM      6  C8  UNL d   1      -1.485  -0.359   0.593  0.00  0.00     0.002 A 
ENDROOT
BRANCH   1   7
ATOM      7  C2  UNL d   1       0.091  -1.874  -0.672  0.00  0.00     0.056 C 
BRANCH   7   8
ATOM      8  C1  UNL d   1      -1.089  -2.816  -0.935  0.00  0.00     0.007 C 
ATOM      9  C   UNL d   1      -1.037  -3.475  -2.307  0.00  0.00     0.009 C 
ENDBRANCH   7   8
ENDBRANCH   1   7
TORSDOF 2
ENDMDL
