MODEL 1
REMARK minimizedAffinity -2.80491161
REMARK minimizedRMSD -1
REMARK  2 active torsions:
REMARK  status: ('A' for Active; 'I' for Inactive)
REMARK    1  A    between atoms: C1_2  and  C2_3 
REMARK    2  A    between atoms: C2_3  and  C3_4 
ROOT
ATOM      1  C3  UNL d   1      -0.369   0.052   0.354  0.00  0.00    -0.075 A 
ATOM      2  C4  UNL d   1       0.352   1.213   0.666  0.00  0.00     0.002 A 
ATOM      3  C5  UNL d   1      -0.313   2.386   1.024  0.00  0.00     0.002 A 
ATOM      4  C6  UNL d   1      -1.706   2.415   1.065  0.00  0.00    -0.004 A 
ATOM      5  C7  UNL d   1      -2.433   1.272   0.741  0.00  0.00     0.002 A 
ATOM      6  C8  UNL d   1      -1.769   0.096   0.387  0.00  0.00     0.002 A 
ENDROOT
BRANCH   1   7
ATOM      7  C2  UNL d   1       0.346  -1.229  -0.006  0.00  0.00     0.056 C 
BRANCH   7   8
ATOM      8  C1  UNL d   1      -0.537  -2.256  -0.723  0.00  0.00     0.007 C 
ATOM      9  C   UNL d   1       0.183  -2.984  -1.850  0.00  0.00     0.009 C 
ENDBRANCH   7   8
ENDBRANCH   1   7
TORSDOF 2
ENDMDL
