MODEL 1
REMARK minimizedAffinity -5.59453726
REMARK minimizedRMSD -1
REMARK  2 active torsions:
REMARK  status: ('A' for Active; 'I' for Inactive)
REMARK    1  A    between atoms: C1_2  and  C2_3 
REMARK    2  A    between atoms: C2_3  and  C3_4 
ROOT
ATOM      1  C3  UNL d   1       0.001  -0.336  -0.015  0.00  0.00    -0.075 A 
ATOM      2  C4  UNL d   1       0.901   0.678  -0.377  0.00  0.00     0.002 A 
ATOM      3  C5  UNL d   1       0.567   2.020  -0.194  0.00  0.00     0.002 A 
ATOM      4  C6  UNL d   1      -0.672   2.366   0.342  0.00  0.00    -0.004 A 
ATOM      5  C7  UNL d   1      -1.580   1.368   0.689  0.00  0.00     0.002 A 
ATOM      6  C8  UNL d   1      -1.247   0.024   0.511  0.00  0.00     0.002 A 
ENDROOT
BRANCH   1   7
ATOM      7  C2  UNL d   1       0.368  -1.791  -0.184  0.00  0.00     0.056 C 
BRANCH   7   8
ATOM      8  C1  UNL d   1       0.304  -2.287  -1.632  0.00  0.00     0.007 C 
ATOM      9  C   UNL d   1      -0.820  -3.285  -1.875  0.00  0.00     0.009 C 
ENDBRANCH   7   8
ENDBRANCH   1   7
TORSDOF 2
ENDMDL
