MODEL 1
REMARK minimizedAffinity -4.29875994
REMARK minimizedRMSD -1
REMARK  2 active torsions:
REMARK  status: ('A' for Active; 'I' for Inactive)
REMARK    1  A    between atoms: C1_2  and  C2_3 
REMARK    2  A    between atoms: C2_3  and  C3_4 
ROOT
ATOM      1  C3  UNL d   1      -0.415  -0.286   0.310  0.00  0.00    -0.075 A 
ATOM      2  C4  UNL d   1       0.247   0.886  -0.082  0.00  0.00     0.002 A 
ATOM      3  C5  UNL d   1      -0.282   2.138   0.234  0.00  0.00     0.002 A 
ATOM      4  C6  UNL d   1      -1.482   2.233   0.935  0.00  0.00    -0.004 A 
ATOM      5  C7  UNL d   1      -2.157   1.075   1.315  0.00  0.00     0.002 A 
ATOM      6  C8  UNL d   1      -1.627  -0.179   1.004  0.00  0.00     0.002 A 
ENDROOT
BRANCH   1   7
ATOM      7  C2  UNL d   1       0.168  -1.644  -0.003  0.00  0.00     0.056 C 
BRANCH   7   8
ATOM      8  C1  UNL d   1      -0.882  -2.741  -0.208  0.00  0.00     0.007 C 
ATOM      9  C   UNL d   1      -0.833  -3.368  -1.595  0.00  0.00     0.009 C 
ENDBRANCH   7   8
ENDBRANCH   1   7
TORSDOF 2
ENDMDL
