MODEL 1
REMARK minimizedAffinity -5.16945934
REMARK minimizedRMSD -1
REMARK  2 active torsions:
REMARK  status: ('A' for Active; 'I' for Inactive)
REMARK    1  A    between atoms: C1_2  and  C2_3 
REMARK    2  A    between atoms: C2_3  and  C3_4 
ROOT
ATOM      1  C3  UNL d   1      -0.340   0.016   0.301  0.00  0.00    -0.075 A 
ATOM      2  C4  UNL d   1       0.436   1.012  -0.309  0.00  0.00     0.002 A 
ATOM      3  C5  UNL d   1       0.195   2.360  -0.041  0.00  0.00     0.002 A 
ATOM      4  C6  UNL d   1      -0.829   2.729   0.828  0.00  0.00    -0.004 A 
ATOM      5  C7  UNL d   1      -1.617   1.748   1.427  0.00  0.00     0.002 A 
ATOM      6  C8  UNL d   1      -1.375   0.398   1.165  0.00  0.00     0.002 A 
ENDROOT
BRANCH   1   7
ATOM      7  C2  UNL d   1      -0.065  -1.446   0.039  0.00  0.00     0.056 C 
BRANCH   7   8
ATOM      8  C1  UNL d   1      -0.081  -1.827  -1.445  0.00  0.00     0.007 C 
ATOM      9  C   UNL d   1      -0.494  -3.273  -1.689  0.00  0.00     0.009 C 
ENDBRANCH   7   8
ENDBRANCH   1   7
TORSDOF 2
ENDMDL
