MODEL 1
REMARK minimizedAffinity -3.67267752
REMARK minimizedRMSD -1
REMARK  2 active torsions:
REMARK  status: ('A' for Active; 'I' for Inactive)
REMARK    1  A    between atoms: C1_2  and  C2_3 
REMARK    2  A    between atoms: C2_3  and  C3_4 
ROOT
ATOM      1  C3  UNL d   1       0.445   0.284   0.565  0.00  0.00    -0.075 A 
ATOM      2  C4  UNL d   1       1.622   1.040   0.669  0.00  0.00     0.002 A 
ATOM      3  C5  UNL d   1       1.562   2.423   0.841  0.00  0.00     0.002 A 
ATOM      4  C6  UNL d   1       0.328   3.068   0.901  0.00  0.00    -0.004 A 
ATOM      5  C7  UNL d   1      -0.847   2.329   0.782  0.00  0.00     0.002 A 
ATOM      6  C8  UNL d   1      -0.790   0.944   0.614  0.00  0.00     0.002 A 
ENDROOT
BRANCH   1   7
ATOM      7  C2  UNL d   1       0.503  -1.217   0.408  0.00  0.00     0.056 C 
BRANCH   7   8
ATOM      8  C1  UNL d   1      -0.722  -1.818  -0.290  0.00  0.00     0.007 C 
ATOM      9  C   UNL d   1      -0.377  -2.985  -1.207  0.00  0.00     0.009 C 
ENDBRANCH   7   8
ENDBRANCH   1   7
TORSDOF 2
ENDMDL
