MODEL 1
REMARK minimizedAffinity -5.88411331
REMARK minimizedRMSD -1
REMARK  2 active torsions:
REMARK  status: ('A' for Active; 'I' for Inactive)
REMARK    1  A    between atoms: C1_2  and  C2_3 
REMARK    2  A    between atoms: C2_3  and  C3_4 
ROOT
ATOM      1  C3  UNL d   1      -0.273   0.865   0.229  0.00  0.00    -0.075 A 
ATOM      2  C4  UNL d   1       1.031   1.079  -0.241  0.00  0.00     0.002 A 
ATOM      3  C5  UNL d   1       1.576   2.363  -0.260  0.00  0.00     0.002 A 
ATOM      4  C6  UNL d   1       0.822   3.449   0.180  0.00  0.00    -0.004 A 
ATOM      5  C7  UNL d   1      -0.480   3.251   0.633  0.00  0.00     0.002 A 
ATOM      6  C8  UNL d   1      -1.026   1.966   0.657  0.00  0.00     0.002 A 
ENDROOT
BRANCH   1   7
ATOM      7  C2  UNL d   1      -0.858  -0.526   0.280  0.00  0.00     0.056 C 
BRANCH   7   8
ATOM      8  C1  UNL d   1       0.107  -1.625  -0.178  0.00  0.00     0.007 C 
ATOM      9  C   UNL d   1      -0.334  -2.315  -1.462  0.00  0.00     0.009 C 
ENDBRANCH   7   8
ENDBRANCH   1   7
TORSDOF 2
ENDMDL
