MODEL 1
REMARK minimizedAffinity 2.96148038
REMARK minimizedRMSD -1
REMARK  2 active torsions:
REMARK  status: ('A' for Active; 'I' for Inactive)
REMARK    1  A    between atoms: C1_2  and  C2_3 
REMARK    2  A    between atoms: C2_3  and  C3_4 
ROOT
ATOM      1  C3  UNL d   1      -1.160  -0.020   0.977  0.00  0.00    -0.075 A 
ATOM      2  C4  UNL d   1      -0.099   0.795   1.397  0.00  0.00     0.002 A 
ATOM      3  C5  UNL d   1      -0.343   2.079   1.887  0.00  0.00     0.002 A 
ATOM      4  C6  UNL d   1      -1.647   2.566   1.953  0.00  0.00    -0.004 A 
ATOM      5  C7  UNL d   1      -2.707   1.772   1.522  0.00  0.00     0.002 A 
ATOM      6  C8  UNL d   1      -2.466   0.485   1.036  0.00  0.00     0.002 A 
ENDROOT
BRANCH   1   7
ATOM      7  C2  UNL d   1      -0.906  -1.420   0.473  0.00  0.00     0.056 C 
BRANCH   7   8
ATOM      8  C1  UNL d   1      -1.274  -1.630  -0.999  0.00  0.00     0.007 C 
ATOM      9  C   UNL d   1      -1.536  -3.089  -1.351  0.00  0.00     0.009 C 
ENDBRANCH   7   8
ENDBRANCH   1   7
TORSDOF 2
ENDMDL
