MODEL 1
REMARK minimizedAffinity 2.88850713
REMARK minimizedRMSD -1
REMARK  2 active torsions:
REMARK  status: ('A' for Active; 'I' for Inactive)
REMARK    1  A    between atoms: C1_2  and  C2_3 
REMARK    2  A    between atoms: C2_3  and  C3_4 
ROOT
ATOM      1  C3  UNL d   1      -0.298  -0.226   0.517  0.00  0.00    -0.075 A 
ATOM      2  C4  UNL d   1       1.031  -0.110   0.951  0.00  0.00     0.002 A 
ATOM      3  C5  UNL d   1       2.086  -0.435   0.098  0.00  0.00     0.002 A 
ATOM      4  C6  UNL d   1       1.827  -0.889  -1.194  0.00  0.00    -0.004 A 
ATOM      5  C7  UNL d   1       0.510  -1.024  -1.630  0.00  0.00     0.002 A 
ATOM      6  C8  UNL d   1      -0.547  -0.695  -0.780  0.00  0.00     0.002 A 
ENDROOT
BRANCH   1   7
ATOM      7  C2  UNL d   1      -1.443   0.153   1.425  0.00  0.00     0.056 C 
BRANCH   7   8
ATOM      8  C1  UNL d   1      -2.017   1.548   1.157  0.00  0.00     0.007 C 
ATOM      9  C   UNL d   1      -1.038   2.671   1.471  0.00  0.00     0.009 C 
ENDBRANCH   7   8
ENDBRANCH   1   7
TORSDOF 2
ENDMDL
