MODEL 1
REMARK minimizedAffinity -3.66858363
REMARK minimizedRMSD -1
REMARK  2 active torsions:
REMARK  status: ('A' for Active; 'I' for Inactive)
REMARK    1  A    between atoms: C1_2  and  C2_3 
REMARK    2  A    between atoms: C2_3  and  C3_4 
ROOT
ATOM      1  C3  UNL d   1      -0.517  -0.752  -0.003  0.00  0.00    -0.075 A 
ATOM      2  C4  UNL d   1      -1.859  -0.591   0.371  0.00  0.00     0.002 A 
ATOM      3  C5  UNL d   1      -2.353   0.668   0.715  0.00  0.00     0.002 A 
ATOM      4  C6  UNL d   1      -1.511   1.777   0.701  0.00  0.00    -0.004 A 
ATOM      5  C7  UNL d   1      -0.171   1.626   0.348  0.00  0.00     0.002 A 
ATOM      6  C8  UNL d   1       0.324   0.369  -0.001  0.00  0.00     0.002 A 
ENDROOT
BRANCH   1   7
ATOM      7  C2  UNL d   1       0.016  -2.106  -0.405  0.00  0.00     0.056 C 
BRANCH   7   8
ATOM      8  C1  UNL d   1      -1.029  -3.020  -1.054  0.00  0.00     0.007 C 
ATOM      9  C   UNL d   1      -0.947  -3.040  -2.575  0.00  0.00     0.009 C 
ENDBRANCH   7   8
ENDBRANCH   1   7
TORSDOF 2
ENDMDL
