MODEL 1
REMARK minimizedAffinity -4.97610188
REMARK minimizedRMSD -1
REMARK  2 active torsions:
REMARK  status: ('A' for Active; 'I' for Inactive)
REMARK    1  A    between atoms: C1_2  and  C2_3 
REMARK    2  A    between atoms: C2_3  and  C3_4 
ROOT
ATOM      1  C3  UNL d   1       0.097   0.573   0.272  0.00  0.00    -0.075 A 
ATOM      2  C4  UNL d   1       1.070   1.278  -0.451  0.00  0.00     0.002 A 
ATOM      3  C5  UNL d   1       1.146   2.668  -0.367  0.00  0.00     0.002 A 
ATOM      4  C6  UNL d   1       0.247   3.371   0.432  0.00  0.00    -0.004 A 
ATOM      5  C7  UNL d   1      -0.734   2.682   1.142  0.00  0.00     0.002 A 
ATOM      6  C8  UNL d   1      -0.810   1.290   1.063  0.00  0.00     0.002 A 
ENDROOT
BRANCH   1   7
ATOM      7  C2  UNL d   1       0.028  -0.934   0.207  0.00  0.00     0.056 C 
BRANCH   7   8
ATOM      8  C1  UNL d   1      -0.435  -1.480  -1.148  0.00  0.00     0.007 C 
ATOM      9  C   UNL d   1      -0.747  -2.971  -1.120  0.00  0.00     0.009 C 
ENDBRANCH   7   8
ENDBRANCH   1   7
TORSDOF 2
ENDMDL
