MODEL 1
REMARK minimizedAffinity -3.94088888
REMARK minimizedRMSD -1
REMARK  2 active torsions:
REMARK  status: ('A' for Active; 'I' for Inactive)
REMARK    1  A    between atoms: C1_2  and  C2_3 
REMARK    2  A    between atoms: C2_3  and  C3_4 
ROOT
ATOM      1  C3  UNL d   1      -0.173   0.381   0.262  0.00  0.00    -0.075 A 
ATOM      2  C4  UNL d   1       0.253   0.469  -1.072  0.00  0.00     0.002 A 
ATOM      3  C5  UNL d   1       0.753   1.669  -1.578  0.00  0.00     0.002 A 
ATOM      4  C6  UNL d   1       0.825   2.796  -0.763  0.00  0.00    -0.004 A 
ATOM      5  C7  UNL d   1       0.390   2.725   0.559  0.00  0.00     0.002 A 
ATOM      6  C8  UNL d   1      -0.107   1.525   1.069  0.00  0.00     0.002 A 
ENDROOT
BRANCH   1   7
ATOM      7  C2  UNL d   1      -0.688  -0.922   0.824  0.00  0.00     0.056 C 
BRANCH   7   8
ATOM      8  C1  UNL d   1      -0.257  -2.159   0.028  0.00  0.00     0.007 C 
ATOM      9  C   UNL d   1      -1.423  -3.056  -0.365  0.00  0.00     0.009 C 
ENDBRANCH   7   8
ENDBRANCH   1   7
TORSDOF 2
ENDMDL
