MODEL 1
REMARK minimizedAffinity -4.63244247
REMARK minimizedRMSD -1
REMARK  2 active torsions:
REMARK  status: ('A' for Active; 'I' for Inactive)
REMARK    1  A    between atoms: C1_2  and  C2_3 
REMARK    2  A    between atoms: C2_3  and  C3_4 
ROOT
ATOM      1  C3  UNL d   1      -0.363   0.299  -0.303  0.00  0.00    -0.075 A 
ATOM      2  C4  UNL d   1      -1.322   1.251   0.073  0.00  0.00     0.002 A 
ATOM      3  C5  UNL d   1      -0.958   2.583   0.272  0.00  0.00     0.002 A 
ATOM      4  C6  UNL d   1       0.368   2.977   0.109  0.00  0.00    -0.004 A 
ATOM      5  C7  UNL d   1       1.332   2.037  -0.248  0.00  0.00     0.002 A 
ATOM      6  C8  UNL d   1       0.970   0.705  -0.453  0.00  0.00     0.002 A 
ENDROOT
BRANCH   1   7
ATOM      7  C2  UNL d   1      -0.756  -1.138  -0.549  0.00  0.00     0.056 C 
BRANCH   7   8
ATOM      8  C1  UNL d   1      -1.529  -1.358  -1.854  0.00  0.00     0.007 C 
ATOM      9  C   UNL d   1      -1.127  -2.635  -2.581  0.00  0.00     0.009 C 
ENDBRANCH   7   8
ENDBRANCH   1   7
TORSDOF 2
ENDMDL
