MODEL 1
REMARK minimizedAffinity 8.28374481
REMARK minimizedRMSD -1
REMARK  2 active torsions:
REMARK  status: ('A' for Active; 'I' for Inactive)
REMARK    1  A    between atoms: C1_2  and  C2_3 
REMARK    2  A    between atoms: C2_3  and  C3_4 
ROOT
ATOM      1  C3  UNL d   1      -4.552   2.071   1.984  0.00  0.00    -0.075 A 
ATOM      2  C4  UNL d   1      -4.890   0.844   2.571  0.00  0.00     0.002 A 
ATOM      3  C5  UNL d   1      -3.897  -0.010   3.051  0.00  0.00     0.002 A 
ATOM      4  C6  UNL d   1      -2.555   0.347   2.942  0.00  0.00    -0.004 A 
ATOM      5  C7  UNL d   1      -2.206   1.557   2.346  0.00  0.00     0.002 A 
ATOM      6  C8  UNL d   1      -3.198   2.415   1.868  0.00  0.00     0.002 A 
ENDROOT
BRANCH   1   7
ATOM      7  C2  UNL d   1      -5.624   3.013   1.489  0.00  0.00     0.056 C 
BRANCH   7   8
ATOM      8  C1  UNL d   1      -5.365   3.570   0.085  0.00  0.00     0.007 C 
ATOM      9  C   UNL d   1      -5.993   2.731  -1.019  0.00  0.00     0.009 C 
ENDBRANCH   7   8
ENDBRANCH   1   7
TORSDOF 2
ENDMDL
