MODEL 1
REMARK minimizedAffinity 6.50441837
REMARK minimizedRMSD -1
REMARK  2 active torsions:
REMARK  status: ('A' for Active; 'I' for Inactive)
REMARK    1  A    between atoms: C1_2  and  C2_3 
REMARK    2  A    between atoms: C2_3  and  C3_4 
ROOT
ATOM      1  C3  UNL d   1      -1.035   4.608  -2.664  0.00  0.00    -0.075 A 
ATOM      2  C4  UNL d   1      -2.420   4.702  -2.470  0.00  0.00     0.002 A 
ATOM      3  C5  UNL d   1      -3.274   3.716  -2.967  0.00  0.00     0.002 A 
ATOM      4  C6  UNL d   1      -2.755   2.632  -3.672  0.00  0.00    -0.004 A 
ATOM      5  C7  UNL d   1      -1.381   2.537  -3.885  0.00  0.00     0.002 A 
ATOM      6  C8  UNL d   1      -0.525   3.520  -3.384  0.00  0.00     0.002 A 
ENDROOT
BRANCH   1   7
ATOM      7  C2  UNL d   1      -0.103   5.656  -2.103  0.00  0.00     0.056 C 
BRANCH   7   8
ATOM      8  C1  UNL d   1      -0.316   5.947  -0.614  0.00  0.00     0.007 C 
ATOM      9  C   UNL d   1       0.057   4.776   0.286  0.00  0.00     0.009 C 
ENDBRANCH   7   8
ENDBRANCH   1   7
TORSDOF 2
ENDMDL
