MODEL 1
REMARK minimizedAffinity 4.69935513
REMARK minimizedRMSD -1
REMARK  2 active torsions:
REMARK  status: ('A' for Active; 'I' for Inactive)
REMARK    1  A    between atoms: C1_2  and  C2_3 
REMARK    2  A    between atoms: C2_3  and  C3_4 
ROOT
ATOM      1  C3  UNL d   1       3.997  -0.945  -1.431  0.00  0.00    -0.075 A 
ATOM      2  C4  UNL d   1       3.646   0.401  -1.605  0.00  0.00     0.002 A 
ATOM      3  C5  UNL d   1       4.459   1.253  -2.354  0.00  0.00     0.002 A 
ATOM      4  C6  UNL d   1       5.634   0.774  -2.928  0.00  0.00    -0.004 A 
ATOM      5  C7  UNL d   1       6.000  -0.558  -2.748  0.00  0.00     0.002 A 
ATOM      6  C8  UNL d   1       5.187  -1.414  -2.002  0.00  0.00     0.002 A 
ENDROOT
BRANCH   1   7
ATOM      7  C2  UNL d   1       3.107  -1.880  -0.646  0.00  0.00     0.056 C 
BRANCH   7   8
ATOM      8  C1  UNL d   1       2.669  -3.124  -1.424  0.00  0.00     0.007 C 
ATOM      9  C   UNL d   1       2.138  -2.806  -2.816  0.00  0.00     0.009 C 
ENDBRANCH   7   8
ENDBRANCH   1   7
TORSDOF 2
ENDMDL
