MODEL 1
REMARK minimizedAffinity 6.40198088
REMARK minimizedRMSD -1
REMARK  2 active torsions:
REMARK  status: ('A' for Active; 'I' for Inactive)
REMARK    1  A    between atoms: C1_2  and  C2_3 
REMARK    2  A    between atoms: C2_3  and  C3_4 
ROOT
ATOM      1  C3  UNL d   1      -4.021  -0.154   1.750  0.00  0.00    -0.075 A 
ATOM      2  C4  UNL d   1      -5.043   0.785   1.547  0.00  0.00     0.002 A 
ATOM      3  C5  UNL d   1      -4.744   2.140   1.411  0.00  0.00     0.002 A 
ATOM      4  C6  UNL d   1      -3.423   2.576   1.486  0.00  0.00    -0.004 A 
ATOM      5  C7  UNL d   1      -2.400   1.655   1.703  0.00  0.00     0.002 A 
ATOM      6  C8  UNL d   1      -2.697   0.297   1.835  0.00  0.00     0.002 A 
ENDROOT
BRANCH   1   7
ATOM      7  C2  UNL d   1      -4.335  -1.626   1.869  0.00  0.00     0.056 C 
BRANCH   7   8
ATOM      8  C1  UNL d   1      -3.453  -2.524   0.996  0.00  0.00     0.007 C 
ATOM      9  C   UNL d   1      -3.830  -3.998   1.078  0.00  0.00     0.009 C 
ENDBRANCH   7   8
ENDBRANCH   1   7
TORSDOF 2
ENDMDL
