MODEL 1
REMARK minimizedAffinity -3.92871356
REMARK minimizedRMSD -1
REMARK  2 active torsions:
REMARK  status: ('A' for Active; 'I' for Inactive)
REMARK    1  A    between atoms: C1_2  and  C2_3 
REMARK    2  A    between atoms: C2_3  and  C3_4 
ROOT
ATOM      1  C3  UNL d   1      -2.631   3.977   0.326  0.00  0.00    -0.075 A 
ATOM      2  C4  UNL d   1      -2.880   5.012   1.238  0.00  0.00     0.002 A 
ATOM      3  C5  UNL d   1      -1.922   6.000   1.467  0.00  0.00     0.002 A 
ATOM      4  C6  UNL d   1      -0.702   5.960   0.796  0.00  0.00    -0.004 A 
ATOM      5  C7  UNL d   1      -0.437   4.926  -0.101  0.00  0.00     0.002 A 
ATOM      6  C8  UNL d   1      -1.396   3.939  -0.335  0.00  0.00     0.002 A 
ENDROOT
BRANCH   1   7
ATOM      7  C2  UNL d   1      -3.676   2.921   0.052  0.00  0.00     0.056 C 
BRANCH   7   8
ATOM      8  C1  UNL d   1      -4.067   2.096   1.283  0.00  0.00     0.007 C 
ATOM      9  C   UNL d   1      -2.889   1.370   1.918  0.00  0.00     0.009 C 
ENDBRANCH   7   8
ENDBRANCH   1   7
TORSDOF 2
ENDMDL
