MODEL 1
REMARK minimizedAffinity 2.91790891
REMARK minimizedRMSD -1
REMARK  2 active torsions:
REMARK  status: ('A' for Active; 'I' for Inactive)
REMARK    1  A    between atoms: C1_2  and  C2_3 
REMARK    2  A    between atoms: C2_3  and  C3_4 
ROOT
ATOM      1  C3  UNL d   1      -1.090   5.421  -0.924  0.00  0.00    -0.075 A 
ATOM      2  C4  UNL d   1      -1.967   4.328  -0.877  0.00  0.00     0.002 A 
ATOM      3  C5  UNL d   1      -2.427   3.840   0.346  0.00  0.00     0.002 A 
ATOM      4  C6  UNL d   1      -2.008   4.430   1.537  0.00  0.00    -0.004 A 
ATOM      5  C7  UNL d   1      -1.123   5.506   1.503  0.00  0.00     0.002 A 
ATOM      6  C8  UNL d   1      -0.665   5.999   0.280  0.00  0.00     0.002 A 
ENDROOT
BRANCH   1   7
ATOM      7  C2  UNL d   1      -0.612   5.973  -2.245  0.00  0.00     0.056 C 
BRANCH   7   8
ATOM      8  C1  UNL d   1      -1.152   5.222  -3.467  0.00  0.00     0.007 C 
ATOM      9  C   UNL d   1      -0.101   4.365  -4.159  0.00  0.00     0.009 C 
ENDBRANCH   7   8
ENDBRANCH   1   7
TORSDOF 2
ENDMDL
