MODEL 1
REMARK minimizedAffinity 0.682966828
REMARK minimizedRMSD -1
REMARK  2 active torsions:
REMARK  status: ('A' for Active; 'I' for Inactive)
REMARK    1  A    between atoms: C1_2  and  C2_3 
REMARK    2  A    between atoms: C2_3  and  C3_4 
ROOT
ATOM      1  C3  UNL d   1      -1.424   5.933  -0.938  0.00  0.00    -0.075 A 
ATOM      2  C4  UNL d   1      -2.734   5.966  -0.440  0.00  0.00     0.002 A 
ATOM      3  C5  UNL d   1      -2.968   6.000   0.935  0.00  0.00     0.002 A 
ATOM      4  C6  UNL d   1      -1.898   5.990   1.827  0.00  0.00    -0.004 A 
ATOM      5  C7  UNL d   1      -0.593   5.940   1.344  0.00  0.00     0.002 A 
ATOM      6  C8  UNL d   1      -0.355   5.911  -0.032  0.00  0.00     0.002 A 
ENDROOT
BRANCH   1   7
ATOM      7  C2  UNL d   1      -1.163   5.926  -2.426  0.00  0.00     0.056 C 
BRANCH   7   8
ATOM      8  C1  UNL d   1      -0.863   4.537  -3.000  0.00  0.00     0.007 C 
ATOM      9  C   UNL d   1      -2.118   3.757  -3.370  0.00  0.00     0.009 C 
ENDBRANCH   7   8
ENDBRANCH   1   7
TORSDOF 2
ENDMDL
