MODEL 1
REMARK minimizedAffinity 4.93949509
REMARK minimizedRMSD -1
REMARK  2 active torsions:
REMARK  status: ('A' for Active; 'I' for Inactive)
REMARK    1  A    between atoms: C1_2  and  C2_3 
REMARK    2  A    between atoms: C2_3  and  C3_4 
ROOT
ATOM      1  C3  UNL d   1      -0.837   4.485  -2.675  0.00  0.00    -0.075 A 
ATOM      2  C4  UNL d   1      -2.008   3.781  -2.991  0.00  0.00     0.002 A 
ATOM      3  C5  UNL d   1      -1.965   2.687  -3.856  0.00  0.00     0.002 A 
ATOM      4  C6  UNL d   1      -0.756   2.291  -4.424  0.00  0.00    -0.004 A 
ATOM      5  C7  UNL d   1       0.410   2.994  -4.131  0.00  0.00     0.002 A 
ATOM      6  C8  UNL d   1       0.371   4.086  -3.261  0.00  0.00     0.002 A 
ENDROOT
BRANCH   1   7
ATOM      7  C2  UNL d   1      -0.872   5.651  -1.716  0.00  0.00     0.056 C 
BRANCH   7   8
ATOM      8  C1  UNL d   1      -0.737   5.251  -0.243  0.00  0.00     0.007 C 
ATOM      9  C   UNL d   1      -1.696   6.000   0.673  0.00  0.00     0.009 C 
ENDBRANCH   7   8
ENDBRANCH   1   7
TORSDOF 2
ENDMDL
