MODEL 1
REMARK minimizedAffinity 5.82023811
REMARK minimizedRMSD -1
REMARK  2 active torsions:
REMARK  status: ('A' for Active; 'I' for Inactive)
REMARK    1  A    between atoms: C1_2  and  C2_3 
REMARK    2  A    between atoms: C2_3  and  C3_4 
ROOT
ATOM      1  C3  UNL d   1      -1.431   4.970  -1.849  0.00  0.00    -0.075 A 
ATOM      2  C4  UNL d   1      -2.321   4.033  -2.393  0.00  0.00     0.002 A 
ATOM      3  C5  UNL d   1      -1.873   3.076  -3.304  0.00  0.00     0.002 A 
ATOM      4  C6  UNL d   1      -0.534   3.051  -3.690  0.00  0.00    -0.004 A 
ATOM      5  C7  UNL d   1       0.355   3.987  -3.169  0.00  0.00     0.002 A 
ATOM      6  C8  UNL d   1      -0.090   4.943  -2.253  0.00  0.00     0.002 A 
ENDROOT
BRANCH   1   7
ATOM      7  C2  UNL d   1      -1.904   5.989  -0.840  0.00  0.00     0.056 C 
BRANCH   7   8
ATOM      8  C1  UNL d   1      -1.098   5.998   0.463  0.00  0.00     0.007 C 
ATOM      9  C   UNL d   1      -1.033   4.634   1.138  0.00  0.00     0.009 C 
ENDBRANCH   7   8
ENDBRANCH   1   7
TORSDOF 2
ENDMDL
