MODEL 1
REMARK minimizedAffinity 6.65705919
REMARK minimizedRMSD -1
REMARK  2 active torsions:
REMARK  status: ('A' for Active; 'I' for Inactive)
REMARK    1  A    between atoms: C1_2  and  C2_3 
REMARK    2  A    between atoms: C2_3  and  C3_4 
ROOT
ATOM      1  C3  UNL d   1      -1.162   4.666  -2.983  0.00  0.00    -0.075 A 
ATOM      2  C4  UNL d   1      -2.367   3.968  -3.149  0.00  0.00     0.002 A 
ATOM      3  C5  UNL d   1      -2.385   2.731  -3.793  0.00  0.00     0.002 A 
ATOM      4  C6  UNL d   1      -1.204   2.181  -4.287  0.00  0.00    -0.004 A 
ATOM      5  C7  UNL d   1      -0.004   2.874  -4.142  0.00  0.00     0.002 A 
ATOM      6  C8  UNL d   1       0.018   4.110  -3.494  0.00  0.00     0.002 A 
ENDROOT
BRANCH   1   7
ATOM      7  C2  UNL d   1      -1.131   5.992  -2.261  0.00  0.00     0.056 C 
BRANCH   7   8
ATOM      8  C1  UNL d   1      -1.901   5.999  -0.937  0.00  0.00     0.007 C 
ATOM      9  C   UNL d   1      -1.503   4.863  -0.004  0.00  0.00     0.009 C 
ENDBRANCH   7   8
ENDBRANCH   1   7
TORSDOF 2
ENDMDL
