MODEL 1
REMARK minimizedAffinity 5.76297045
REMARK minimizedRMSD -1
REMARK  2 active torsions:
REMARK  status: ('A' for Active; 'I' for Inactive)
REMARK    1  A    between atoms: C1_2  and  C2_3 
REMARK    2  A    between atoms: C2_3  and  C3_4 
ROOT
ATOM      1  C3  UNL d   1      -0.239   3.512  -2.457  0.00  0.00    -0.075 A 
ATOM      2  C4  UNL d   1       0.887   3.188  -3.227  0.00  0.00     0.002 A 
ATOM      3  C5  UNL d   1       0.833   2.151  -4.159  0.00  0.00     0.002 A 
ATOM      4  C6  UNL d   1      -0.341   1.420  -4.326  0.00  0.00    -0.004 A 
ATOM      5  C7  UNL d   1      -1.461   1.722  -3.554  0.00  0.00     0.002 A 
ATOM      6  C8  UNL d   1      -1.411   2.762  -2.623  0.00  0.00     0.002 A 
ENDROOT
BRANCH   1   7
ATOM      7  C2  UNL d   1      -0.197   4.652  -1.467  0.00  0.00     0.056 C 
BRANCH   7   8
ATOM      8  C1  UNL d   1      -0.182   4.205  -0.001  0.00  0.00     0.007 C 
ATOM      9  C   UNL d   1       0.767   3.043   0.263  0.00  0.00     0.009 C 
ENDBRANCH   7   8
ENDBRANCH   1   7
TORSDOF 2
ENDMDL
