MODEL 1
REMARK minimizedAffinity 5.34648561
REMARK minimizedRMSD -1
REMARK  2 active torsions:
REMARK  status: ('A' for Active; 'I' for Inactive)
REMARK    1  A    between atoms: C1_2  and  C2_3 
REMARK    2  A    between atoms: C2_3  and  C3_4 
ROOT
ATOM      1  C3  UNL d   1       4.436  -1.097  -1.921  0.00  0.00    -0.075 A 
ATOM      2  C4  UNL d   1       3.757  -0.735  -0.748  0.00  0.00     0.002 A 
ATOM      3  C5  UNL d   1       2.573  -1.379  -0.388  0.00  0.00     0.002 A 
ATOM      4  C6  UNL d   1       2.048  -2.383  -1.199  0.00  0.00    -0.004 A 
ATOM      5  C7  UNL d   1       2.705  -2.739  -2.375  0.00  0.00     0.002 A 
ATOM      6  C8  UNL d   1       3.893  -2.100  -2.735  0.00  0.00     0.002 A 
ENDROOT
BRANCH   1   7
ATOM      7  C2  UNL d   1       5.734  -0.425  -2.301  0.00  0.00     0.056 C 
BRANCH   7   8
ATOM      8  C1  UNL d   1       5.993  -0.378  -3.810  0.00  0.00     0.007 C 
ATOM      9  C   UNL d   1       6.000  -1.755  -4.462  0.00  0.00     0.009 C 
ENDBRANCH   7   8
ENDBRANCH   1   7
TORSDOF 2
ENDMDL
