MODEL 1
REMARK minimizedAffinity 5.01790047
REMARK minimizedRMSD -1
REMARK  2 active torsions:
REMARK  status: ('A' for Active; 'I' for Inactive)
REMARK    1  A    between atoms: C1_2  and  C2_3 
REMARK    2  A    between atoms: C2_3  and  C3_4 
ROOT
ATOM      1  C3  UNL d   1      -1.265   4.254  -2.503  0.00  0.00    -0.075 A 
ATOM      2  C4  UNL d   1      -2.502   3.715  -2.885  0.00  0.00     0.002 A 
ATOM      3  C5  UNL d   1      -2.564   2.663  -3.799  0.00  0.00     0.002 A 
ATOM      4  C6  UNL d   1      -1.394   2.144  -4.349  0.00  0.00    -0.004 A 
ATOM      5  C7  UNL d   1      -0.161   2.683  -3.989  0.00  0.00     0.002 A 
ATOM      6  C8  UNL d   1      -0.095   3.733  -3.071  0.00  0.00     0.002 A 
ENDROOT
BRANCH   1   7
ATOM      7  C2  UNL d   1      -1.190   5.373  -1.492  0.00  0.00     0.056 C 
BRANCH   7   8
ATOM      8  C1  UNL d   1      -1.088   4.896  -0.039  0.00  0.00     0.007 C 
ATOM      9  C   UNL d   1      -1.476   5.966   0.973  0.00  0.00     0.009 C 
ENDBRANCH   7   8
ENDBRANCH   1   7
TORSDOF 2
ENDMDL
