MODEL 1
REMARK minimizedAffinity 1.47603822
REMARK minimizedRMSD -1
REMARK  2 active torsions:
REMARK  status: ('A' for Active; 'I' for Inactive)
REMARK    1  A    between atoms: C1_2  and  C2_3 
REMARK    2  A    between atoms: C2_3  and  C3_4 
ROOT
ATOM      1  C3  UNL d   1       3.451  -1.451  -0.055  0.00  0.00    -0.075 A 
ATOM      2  C4  UNL d   1       2.785  -2.683  -0.139  0.00  0.00     0.002 A 
ATOM      3  C5  UNL d   1       1.724  -2.974   0.720  0.00  0.00     0.002 A 
ATOM      4  C6  UNL d   1       1.324  -2.046   1.677  0.00  0.00    -0.004 A 
ATOM      5  C7  UNL d   1       1.989  -0.826   1.781  0.00  0.00     0.002 A 
ATOM      6  C8  UNL d   1       3.048  -0.530   0.921  0.00  0.00     0.002 A 
ENDROOT
BRANCH   1   7
ATOM      7  C2  UNL d   1       4.580  -1.118  -1.000  0.00  0.00     0.056 C 
BRANCH   7   8
ATOM      8  C1  UNL d   1       4.219  -0.069  -2.057  0.00  0.00     0.007 C 
ATOM      9  C   UNL d   1       5.309   0.130  -3.102  0.00  0.00     0.009 C 
ENDBRANCH   7   8
ENDBRANCH   1   7
TORSDOF 2
ENDMDL
