MODEL 1
REMARK minimizedAffinity 6.40879965
REMARK minimizedRMSD -1
REMARK  2 active torsions:
REMARK  status: ('A' for Active; 'I' for Inactive)
REMARK    1  A    between atoms: C1_2  and  C2_3 
REMARK    2  A    between atoms: C2_3  and  C3_4 
ROOT
ATOM      1  C3  UNL d   1      -0.758   4.030  -1.680  0.00  0.00    -0.075 A 
ATOM      2  C4  UNL d   1      -0.725   3.257  -0.511  0.00  0.00     0.002 A 
ATOM      3  C5  UNL d   1      -0.933   3.849   0.735  0.00  0.00     0.002 A 
ATOM      4  C6  UNL d   1      -1.166   5.219   0.829  0.00  0.00    -0.004 A 
ATOM      5  C7  UNL d   1      -1.184   6.000  -0.325  0.00  0.00     0.002 A 
ATOM      6  C8  UNL d   1      -0.980   5.410  -1.574  0.00  0.00     0.002 A 
ENDROOT
BRANCH   1   7
ATOM      7  C2  UNL d   1      -0.562   3.391  -3.035  0.00  0.00     0.056 C 
BRANCH   7   8
ATOM      8  C1  UNL d   1       0.575   2.365  -3.082  0.00  0.00     0.007 C 
ATOM      9  C   UNL d   1       0.175   1.057  -3.752  0.00  0.00     0.009 C 
ENDBRANCH   7   8
ENDBRANCH   1   7
TORSDOF 2
ENDMDL
