MODEL 1
REMARK minimizedAffinity 9.53124428
REMARK minimizedRMSD -1
REMARK  2 active torsions:
REMARK  status: ('A' for Active; 'I' for Inactive)
REMARK    1  A    between atoms: C1_2  and  C2_3 
REMARK    2  A    between atoms: C2_3  and  C3_4 
ROOT
ATOM      1  C3  UNL d   1      -3.784  -0.176   2.004  0.00  0.00    -0.075 A 
ATOM      2  C4  UNL d   1      -2.573   0.490   2.237  0.00  0.00     0.002 A 
ATOM      3  C5  UNL d   1      -2.470   1.866   2.034  0.00  0.00     0.002 A 
ATOM      4  C6  UNL d   1      -3.573   2.591   1.586  0.00  0.00    -0.004 A 
ATOM      5  C7  UNL d   1      -4.777   1.937   1.335  0.00  0.00     0.002 A 
ATOM      6  C8  UNL d   1      -4.883   0.560   1.541  0.00  0.00     0.002 A 
ENDROOT
BRANCH   1   7
ATOM      7  C2  UNL d   1      -3.910  -1.661   2.250  0.00  0.00     0.056 C 
BRANCH   7   8
ATOM      8  C1  UNL d   1      -4.158  -2.485   0.982  0.00  0.00     0.007 C 
ATOM      9  C   UNL d   1      -4.164  -3.987   1.233  0.00  0.00     0.009 C 
ENDBRANCH   7   8
ENDBRANCH   1   7
TORSDOF 2
ENDMDL
