MODEL 1
REMARK minimizedAffinity 10.0617418
REMARK minimizedRMSD -1
REMARK  2 active torsions:
REMARK  status: ('A' for Active; 'I' for Inactive)
REMARK    1  A    between atoms: C1_2  and  C2_3 
REMARK    2  A    between atoms: C2_3  and  C3_4 
ROOT
ATOM      1  C3  UNL d   1      -0.791   3.077  -2.356  0.00  0.00    -0.075 A 
ATOM      2  C4  UNL d   1      -1.677   2.197  -2.992  0.00  0.00     0.002 A 
ATOM      3  C5  UNL d   1      -1.301   1.535  -4.162  0.00  0.00     0.002 A 
ATOM      4  C6  UNL d   1      -0.040   1.752  -4.714  0.00  0.00    -0.004 A 
ATOM      5  C7  UNL d   1       0.843   2.637  -4.099  0.00  0.00     0.002 A 
ATOM      6  C8  UNL d   1       0.470   3.298  -2.926  0.00  0.00     0.002 A 
ENDROOT
BRANCH   1   7
ATOM      7  C2  UNL d   1      -1.181   3.774  -1.074  0.00  0.00     0.056 C 
BRANCH   7   8
ATOM      8  C1  UNL d   1      -0.844   2.982   0.194  0.00  0.00     0.007 C 
ATOM      9  C   UNL d   1      -2.073   2.599   1.007  0.00  0.00     0.009 C 
ENDBRANCH   7   8
ENDBRANCH   1   7
TORSDOF 2
ENDMDL
