MODEL 1
REMARK minimizedAffinity 5.31847334
REMARK minimizedRMSD -1
REMARK  1 active torsions:
REMARK  status: ('A' for Active; 'I' for Inactive)
REMARK    1  A    between atoms: N_2  and  C1_3 
ROOT
ATOM      1  C1  UNL d   1      -0.880   2.244  -1.022  0.00  0.00     0.143 A 
ATOM      2  C2  UNL d   1      -0.946   3.343  -1.886  0.00  0.00    -0.057 A 
ATOM      3  C3  UNL d   1      -0.697   4.643  -1.427  0.00  0.00     0.033 A 
ATOM      4  C4  UNL d   1      -0.406   4.870  -0.086  0.00  0.00    -0.042 A 
ATOM      5  C5  UNL d   1      -0.359   3.796   0.795  0.00  0.00     0.033 A 
ATOM      6  C6  UNL d   1      -0.602   2.499   0.330  0.00  0.00    -0.057 A 
ENDROOT
BRANCH   1   7
ATOM      7  N   UNL d   1      -1.213   0.940  -1.396  0.00  0.00    -0.732 N 
ATOM      8  C   UNL d   1      -0.185  -0.066  -1.558  0.00  0.00     0.284 C 
ATOM      9  H3  UNL d   1      -2.053   0.605  -0.930  0.00  0.00     0.395 HD
ENDBRANCH   1   7
TORSDOF 1
ENDMDL
