MODEL 1
REMARK minimizedAffinity 0.27550143
REMARK minimizedRMSD -1
REMARK  1 active torsions:
REMARK  status: ('A' for Active; 'I' for Inactive)
REMARK    1  A    between atoms: N_2  and  C1_3 
ROOT
ATOM      1  C1  UNL d   1       0.607   2.432   1.288  0.00  0.00     0.143 A 
ATOM      2  C2  UNL d   1      -0.371   1.982   0.395  0.00  0.00    -0.057 A 
ATOM      3  C3  UNL d   1      -0.738   2.743  -0.722  0.00  0.00     0.033 A 
ATOM      4  C4  UNL d   1      -0.152   3.984  -0.949  0.00  0.00    -0.042 A 
ATOM      5  C5  UNL d   1       0.804   4.461  -0.061  0.00  0.00     0.033 A 
ATOM      6  C6  UNL d   1       1.172   3.694   1.049  0.00  0.00    -0.057 A 
ENDROOT
BRANCH   1   7
ATOM      7  N   UNL d   1       0.946   1.767   2.470  0.00  0.00    -0.732 N 
ATOM      8  C   UNL d   1       0.019   1.720   3.580  0.00  0.00     0.284 C 
ATOM      9  H3  UNL d   1       1.432   0.891   2.297  0.00  0.00     0.395 HD
ENDBRANCH   1   7
TORSDOF 1
ENDMDL
