MODEL 1
REMARK minimizedAffinity 4.0698967
REMARK minimizedRMSD -1
REMARK  1 active torsions:
REMARK  status: ('A' for Active; 'I' for Inactive)
REMARK    1  A    between atoms: N_2  and  C1_3 
ROOT
ATOM      1  C1  UNL d   1      -1.162   3.070   0.950  0.00  0.00     0.143 A 
ATOM      2  C2  UNL d   1      -1.444   4.436   0.851  0.00  0.00    -0.057 A 
ATOM      3  C3  UNL d   1      -1.177   5.149  -0.325  0.00  0.00     0.033 A 
ATOM      4  C4  UNL d   1      -0.595   4.512  -1.415  0.00  0.00    -0.042 A 
ATOM      5  C5  UNL d   1      -0.283   3.159  -1.330  0.00  0.00     0.033 A 
ATOM      6  C6  UNL d   1      -0.558   2.451  -0.156  0.00  0.00    -0.057 A 
ENDROOT
BRANCH   1   7
ATOM      7  N   UNL d   1      -1.313   2.328   2.124  0.00  0.00    -0.732 N 
ATOM      8  C   UNL d   1      -0.154   1.885   2.870  0.00  0.00     0.284 C 
ATOM      9  H3  UNL d   1      -2.075   2.670   2.705  0.00  0.00     0.395 HD
ENDBRANCH   1   7
TORSDOF 1
ENDMDL
