MODEL 1
REMARK minimizedAffinity 4.27110529
REMARK minimizedRMSD -1
REMARK  1 active torsions:
REMARK  status: ('A' for Active; 'I' for Inactive)
REMARK    1  A    between atoms: N_2  and  C1_3 
ROOT
ATOM      1  C1  UNL d   1      -0.028   2.346   1.020  0.00  0.00     0.143 A 
ATOM      2  C2  UNL d   1      -0.829   1.530   1.827  0.00  0.00    -0.057 A 
ATOM      3  C3  UNL d   1      -0.435   1.181   3.124  0.00  0.00     0.033 A 
ATOM      4  C4  UNL d   1       0.785   1.619   3.629  0.00  0.00    -0.042 A 
ATOM      5  C5  UNL d   1       1.609   2.410   2.836  0.00  0.00     0.033 A 
ATOM      6  C6  UNL d   1       1.207   2.761   1.544  0.00  0.00    -0.057 A 
ENDROOT
BRANCH   1   7
ATOM      7  N   UNL d   1      -0.318   2.647  -0.313  0.00  0.00    -0.732 N 
ATOM      8  C   UNL d   1      -0.402   4.022  -0.756  0.00  0.00     0.284 C 
ATOM      9  H3  UNL d   1       0.161   2.029  -0.964  0.00  0.00     0.395 HD
ENDBRANCH   1   7
TORSDOF 1
ENDMDL
