MODEL 1
REMARK minimizedAffinity 3.05027699
REMARK minimizedRMSD -1
REMARK  1 active torsions:
REMARK  status: ('A' for Active; 'I' for Inactive)
REMARK    1  A    between atoms: N_2  and  C1_3 
ROOT
ATOM      1  C1  UNL d   1      -0.696   1.428  -0.721  0.00  0.00     0.143 A 
ATOM      2  C2  UNL d   1       0.153   0.395  -1.131  0.00  0.00    -0.057 A 
ATOM      3  C3  UNL d   1      -0.353  -0.854  -1.511  0.00  0.00     0.033 A 
ATOM      4  C4  UNL d   1      -1.721  -1.102  -1.460  0.00  0.00    -0.042 A 
ATOM      5  C5  UNL d   1      -2.582  -0.097  -1.033  0.00  0.00     0.033 A 
ATOM      6  C6  UNL d   1      -2.071   1.150  -0.661  0.00  0.00    -0.057 A 
ENDROOT
BRANCH   1   7
ATOM      7  N   UNL d   1      -0.247   2.659  -0.238  0.00  0.00    -0.732 N 
ATOM      8  C   UNL d   1      -0.611   3.891  -0.905  0.00  0.00     0.284 C 
ATOM      9  H3  UNL d   1      -0.277   2.712   0.778  0.00  0.00     0.395 HD
ENDBRANCH   1   7
TORSDOF 1
ENDMDL
