MODEL 1
REMARK minimizedAffinity -4.07691097
REMARK minimizedRMSD -1
REMARK  0 active torsions:
REMARK  status: ('A' for Active; 'I' for Inactive)
ROOT
ATOM      1  C   UNL d   1      -0.595  -1.960   1.222  0.00  0.00     0.020 A 
ATOM      2  C1  UNL d   1      -1.486  -0.889   1.182  0.00  0.00     0.020 A 
ATOM      3  C2  UNL d   1      -1.037   0.379   0.808  0.00  0.00     0.034 A 
ATOM      4  C3  UNL d   1       0.307   0.580   0.473  0.00  0.00     0.017 A 
ATOM      5  C4  UNL d   1       1.201  -0.496   0.513  0.00  0.00     0.017 A 
ATOM      6  C5  UNL d   1       0.746  -1.764   0.888  0.00  0.00     0.034 A 
ATOM      7 Cl   UNL d   1       2.874  -0.327   0.113  0.00  0.00    -0.070 Cl
ATOM      8 Cl1  UNL d   1       0.793   2.175   0.019  0.00  0.00    -0.070 Cl
ENDROOT
TORSDOF 0
ENDMDL
