MODEL 1
REMARK minimizedAffinity -2.72338009
REMARK minimizedRMSD -1
REMARK  0 active torsions:
REMARK  status: ('A' for Active; 'I' for Inactive)
ROOT
ATOM      1  C   UNL d   1      -0.120   1.355  -0.304  0.00  0.00     0.020 A 
ATOM      2  C1  UNL d   1      -1.120   0.384  -0.273  0.00  0.00     0.020 A 
ATOM      3  C2  UNL d   1      -0.820  -0.915   0.144  0.00  0.00     0.034 A 
ATOM      4  C3  UNL d   1       0.483  -1.246   0.532  0.00  0.00     0.017 A 
ATOM      5  C4  UNL d   1       1.486  -0.271   0.501  0.00  0.00     0.017 A 
ATOM      6  C5  UNL d   1       1.181   1.028   0.083  0.00  0.00     0.034 A 
ATOM      7 Cl   UNL d   1       3.118  -0.604   0.966  0.00  0.00    -0.070 Cl
ATOM      8 Cl1  UNL d   1       0.783  -2.871   1.038  0.00  0.00    -0.070 Cl
ENDROOT
TORSDOF 0
ENDMDL
