MODEL 1
REMARK minimizedAffinity -3.15053797
REMARK minimizedRMSD -1
REMARK  0 active torsions:
REMARK  status: ('A' for Active; 'I' for Inactive)
ROOT
ATOM      1  C   UNL d   1      -1.353   0.782  -3.131  0.00  0.00     0.020 A 
ATOM      2  C1  UNL d   1      -2.639   0.404  -2.745  0.00  0.00     0.020 A 
ATOM      3  C2  UNL d   1      -2.887   0.018  -1.427  0.00  0.00     0.034 A 
ATOM      4  C3  UNL d   1      -1.849   0.007  -0.489  0.00  0.00     0.017 A 
ATOM      5  C4  UNL d   1      -0.558   0.386  -0.877  0.00  0.00     0.017 A 
ATOM      6  C5  UNL d   1      -0.315   0.772  -2.198  0.00  0.00     0.034 A 
ATOM      7 Cl   UNL d   1       0.774   0.399   0.224  0.00  0.00    -0.070 Cl
ATOM      8 Cl1  UNL d   1      -2.228  -0.481   1.125  0.00  0.00    -0.070 Cl
ENDROOT
TORSDOF 0
ENDMDL
