MODEL 1
REMARK minimizedAffinity -1.88960314
REMARK minimizedRMSD -1
REMARK  0 active torsions:
REMARK  status: ('A' for Active; 'I' for Inactive)
ROOT
ATOM      1  C   UNL d   1       1.894  -1.376   0.362  0.00  0.00     0.020 A 
ATOM      2  C1  UNL d   1       2.475  -0.326   1.071  0.00  0.00     0.020 A 
ATOM      3  C2  UNL d   1       1.870   0.933   1.075  0.00  0.00     0.034 A 
ATOM      4  C3  UNL d   1       0.680   1.144   0.368  0.00  0.00     0.017 A 
ATOM      5  C4  UNL d   1       0.098   0.089  -0.344  0.00  0.00     0.017 A 
ATOM      6  C5  UNL d   1       0.708  -1.169  -0.344  0.00  0.00     0.034 A 
ATOM      7 Cl   UNL d   1      -1.369   0.273  -1.239  0.00  0.00    -0.070 Cl
ATOM      8 Cl1  UNL d   1      -0.013   2.726   0.417  0.00  0.00    -0.070 Cl
ENDROOT
TORSDOF 0
ENDMDL
