MODEL 1
REMARK minimizedAffinity -5.42080116
REMARK minimizedRMSD -1
REMARK  0 active torsions:
REMARK  status: ('A' for Active; 'I' for Inactive)
ROOT
ATOM      1  C   UNL d   1       3.279  -0.796   1.473  0.00  0.00     0.020 A 
ATOM      2  C1  UNL d   1       2.953  -1.793   2.392  0.00  0.00     0.020 A 
ATOM      3  C2  UNL d   1       1.639  -2.258   2.482  0.00  0.00     0.034 A 
ATOM      4  C3  UNL d   1       0.646  -1.725   1.652  0.00  0.00     0.017 A 
ATOM      5  C4  UNL d   1       0.974  -0.725   0.729  0.00  0.00     0.017 A 
ATOM      6  C5  UNL d   1       2.291  -0.264   0.644  0.00  0.00     0.034 A 
ATOM      7 Cl   UNL d   1      -0.197  -0.020  -0.329  0.00  0.00    -0.070 Cl
ATOM      8 Cl1  UNL d   1      -0.958  -2.347   1.817  0.00  0.00    -0.070 Cl
ENDROOT
TORSDOF 0
ENDMDL
