MODEL 1
REMARK minimizedAffinity -2.55695438
REMARK minimizedRMSD -1
REMARK  0 active torsions:
REMARK  status: ('A' for Active; 'I' for Inactive)
ROOT
ATOM      1  C   UNL d   1       0.861   1.484   0.063  0.00  0.00     0.020 A 
ATOM      2  C1  UNL d   1       2.069   1.079   0.629  0.00  0.00     0.020 A 
ATOM      3  C2  UNL d   1       2.119  -0.075   1.415  0.00  0.00     0.034 A 
ATOM      4  C3  UNL d   1       0.959  -0.827   1.637  0.00  0.00     0.017 A 
ATOM      5  C4  UNL d   1      -0.253  -0.418   1.068  0.00  0.00     0.017 A 
ATOM      6  C5  UNL d   1      -0.297   0.738   0.282  0.00  0.00     0.034 A 
ATOM      7 Cl   UNL d   1      -1.725  -1.294   1.297  0.00  0.00    -0.070 Cl
ATOM      8 Cl1  UNL d   1       1.095  -2.242   2.618  0.00  0.00    -0.070 Cl
ENDROOT
TORSDOF 0
ENDMDL
