MODEL 1
REMARK minimizedAffinity -1.00673282
REMARK minimizedRMSD -1
REMARK  0 active torsions:
REMARK  status: ('A' for Active; 'I' for Inactive)
ROOT
ATOM      1  C   UNL d   1       3.250  -0.341   2.158  0.00  0.00     0.020 A 
ATOM      2  C1  UNL d   1       2.893  -1.549   2.755  0.00  0.00     0.020 A 
ATOM      3  C2  UNL d   1       1.646  -2.119   2.488  0.00  0.00     0.034 A 
ATOM      4  C3  UNL d   1       0.751  -1.479   1.622  0.00  0.00     0.017 A 
ATOM      5  C4  UNL d   1       1.111  -0.266   1.023  0.00  0.00     0.017 A 
ATOM      6  C5  UNL d   1       2.360   0.299   1.294  0.00  0.00     0.034 A 
ATOM      7 Cl   UNL d   1       0.060   0.582  -0.056  0.00  0.00    -0.070 Cl
ATOM      8 Cl1  UNL d   1      -0.773  -2.240   1.337  0.00  0.00    -0.070 Cl
ENDROOT
TORSDOF 0
ENDMDL
