MODEL 1
REMARK minimizedAffinity -5.03402615
REMARK minimizedRMSD -1
REMARK  0 active torsions:
REMARK  status: ('A' for Active; 'I' for Inactive)
ROOT
ATOM      1  C   UNL d   1       2.515   0.884   1.082  0.00  0.00     0.020 A 
ATOM      2  C1  UNL d   1       1.532   1.767   0.635  0.00  0.00     0.020 A 
ATOM      3  C2  UNL d   1       0.267   1.286   0.290  0.00  0.00     0.034 A 
ATOM      4  C3  UNL d   1      -0.018  -0.080   0.390  0.00  0.00     0.017 A 
ATOM      5  C4  UNL d   1       0.969  -0.965   0.838  0.00  0.00     0.017 A 
ATOM      6  C5  UNL d   1       2.234  -0.479   1.183  0.00  0.00     0.034 A 
ATOM      7 Cl   UNL d   1       0.691  -2.665   0.988  0.00  0.00    -0.070 Cl
ATOM      8 Cl1  UNL d   1      -1.604  -0.604  -0.054  0.00  0.00    -0.070 Cl
ENDROOT
TORSDOF 0
ENDMDL
