MODEL 1
REMARK minimizedAffinity 24.290453
REMARK minimizedRMSD -1
REMARK  0 active torsions:
REMARK  status: ('A' for Active; 'I' for Inactive)
ROOT
ATOM      1  C   UNL d   1       0.852  -0.061   4.026  0.00  0.00     0.124 A 
ATOM      2  C1  UNL d   1       0.360  -0.734   2.916  0.00  0.00     0.062 A 
ATOM      3  C2  UNL d   1       1.195  -1.009   1.837  0.00  0.00     0.162 A 
ATOM      4  C3  UNL d   1       2.532  -0.611   1.862  0.00  0.00    -0.034 A 
ATOM      5  C4  UNL d   1       3.019   0.067   2.981  0.00  0.00     0.162 A 
ATOM      6  C5  UNL d   1       2.181   0.339   4.057  0.00  0.00     0.062 A 
ATOM      7  F   UNL d   1       2.658   0.990   5.128  0.00  0.00    -0.097 F 
ATOM      8  F1  UNL d   1       4.299   0.464   3.038  0.00  0.00    -0.096 F 
ATOM      9  I   UNL d   1       3.784  -1.019   0.250  0.00  0.00    -0.060 I 
ATOM     10  F2  UNL d   1       0.693  -1.661   0.778  0.00  0.00    -0.096 F 
ATOM     11  F3  UNL d   1      -0.923  -1.120   2.883  0.00  0.00    -0.097 F 
ATOM     12  F4  UNL d   1       0.047   0.203   5.062  0.00  0.00    -0.092 F 
ENDROOT
TORSDOF 0
ENDMDL
