MODEL 1
REMARK minimizedAffinity 21.2894802
REMARK minimizedRMSD -1
REMARK  0 active torsions:
REMARK  status: ('A' for Active; 'I' for Inactive)
ROOT
ATOM      1  C   UNL d   1      -3.151  -2.639   2.667  0.00  0.00     0.124 A 
ATOM      2  C1  UNL d   1      -2.509  -3.863   2.537  0.00  0.00     0.062 A 
ATOM      3  C2  UNL d   1      -3.006  -4.824   1.661  0.00  0.00     0.162 A 
ATOM      4  C3  UNL d   1      -4.151  -4.565   0.908  0.00  0.00    -0.034 A 
ATOM      5  C4  UNL d   1      -4.792  -3.332   1.045  0.00  0.00     0.162 A 
ATOM      6  C5  UNL d   1      -4.291  -2.375   1.922  0.00  0.00     0.062 A 
ATOM      7  F   UNL d   1      -4.913  -1.193   2.046  0.00  0.00    -0.097 F 
ATOM      8  F1  UNL d   1      -5.895  -3.050   0.336  0.00  0.00    -0.096 F 
ATOM      9  I   UNL d   1      -4.897  -6.000  -0.402  0.00  0.00    -0.060 I 
ATOM     10  F2  UNL d   1      -2.366  -5.998   1.556  0.00  0.00    -0.096 F 
ATOM     11  F3  UNL d   1      -1.408  -4.121   3.257  0.00  0.00    -0.097 F 
ATOM     12  F4  UNL d   1      -2.671  -1.716   3.511  0.00  0.00    -0.092 F 
ENDROOT
TORSDOF 0
ENDMDL
