MODEL 1
REMARK minimizedAffinity 30.2685356
REMARK minimizedRMSD -1
REMARK  0 active torsions:
REMARK  status: ('A' for Active; 'I' for Inactive)
ROOT
ATOM      1  C   UNL d   1      -0.483   2.432  -1.129  0.00  0.00     0.124 A 
ATOM      2  C1  UNL d   1      -1.477   2.168  -2.061  0.00  0.00     0.062 A 
ATOM      3  C2  UNL d   1      -1.806   3.119  -3.023  0.00  0.00     0.162 A 
ATOM      4  C3  UNL d   1      -1.138   4.343  -3.059  0.00  0.00    -0.034 A 
ATOM      5  C4  UNL d   1      -0.140   4.602  -2.118  0.00  0.00     0.162 A 
ATOM      6  C5  UNL d   1       0.185   3.648  -1.159  0.00  0.00     0.062 A 
ATOM      7  F   UNL d   1       1.146   3.905  -0.259  0.00  0.00    -0.097 F 
ATOM      8  F1  UNL d   1       0.522   5.768  -2.124  0.00  0.00    -0.096 F 
ATOM      9  I   UNL d   1      -1.626   5.767  -4.496  0.00  0.00    -0.060 I 
ATOM     10  F2  UNL d   1      -2.771   2.837  -3.911  0.00  0.00    -0.096 F 
ATOM     11  F3  UNL d   1      -2.125   0.994  -2.034  0.00  0.00    -0.097 F 
ATOM     12  F4  UNL d   1      -0.170   1.516  -0.204  0.00  0.00    -0.092 F 
ENDROOT
TORSDOF 0
ENDMDL
