MODEL 1
REMARK minimizedAffinity 26.2060242
REMARK minimizedRMSD -1
REMARK  0 active torsions:
REMARK  status: ('A' for Active; 'I' for Inactive)
ROOT
ATOM      1  C   UNL d   1       2.628  -0.202   2.941  0.00  0.00     0.124 A 
ATOM      2  C1  UNL d   1       1.663   0.034   3.910  0.00  0.00     0.062 A 
ATOM      3  C2  UNL d   1       0.459  -0.663   3.883  0.00  0.00     0.162 A 
ATOM      4  C3  UNL d   1       0.213  -1.604   2.883  0.00  0.00    -0.034 A 
ATOM      5  C4  UNL d   1       1.188  -1.835   1.911  0.00  0.00     0.162 A 
ATOM      6  C5  UNL d   1       2.390  -1.136   1.942  0.00  0.00     0.062 A 
ATOM      7  F   UNL d   1       3.321  -1.365   1.005  0.00  0.00    -0.097 F 
ATOM      8  F1  UNL d   1       0.984  -2.733   0.935  0.00  0.00    -0.096 F 
ATOM      9  I   UNL d   1      -1.587  -2.648   2.839  0.00  0.00    -0.060 I 
ATOM     10  F2  UNL d   1      -0.456  -0.415   4.832  0.00  0.00    -0.096 F 
ATOM     11  F3  UNL d   1       1.891   0.936   4.875  0.00  0.00    -0.097 F 
ATOM     12  F4  UNL d   1       3.786   0.471   2.969  0.00  0.00    -0.092 F 
ENDROOT
TORSDOF 0
ENDMDL
