MODEL 1
REMARK minimizedAffinity 30.6862717
REMARK minimizedRMSD -1
REMARK  0 active torsions:
REMARK  status: ('A' for Active; 'I' for Inactive)
ROOT
ATOM      1  C   UNL d   1       2.103  -0.751   2.354  0.00  0.00     0.124 A 
ATOM      2  C1  UNL d   1       2.391  -0.014   3.495  0.00  0.00     0.062 A 
ATOM      3  C2  UNL d   1       1.471   0.051   4.537  0.00  0.00     0.162 A 
ATOM      4  C3  UNL d   1       0.254  -0.624   4.444  0.00  0.00    -0.034 A 
ATOM      5  C4  UNL d   1      -0.029  -1.362   3.293  0.00  0.00     0.162 A 
ATOM      6  C5  UNL d   1       0.894  -1.424   2.255  0.00  0.00     0.062 A 
ATOM      7  F   UNL d   1       0.614  -2.137   1.154  0.00  0.00    -0.097 F 
ATOM      8  F1  UNL d   1      -1.190  -2.023   3.171  0.00  0.00    -0.096 F 
ATOM      9  I   UNL d   1      -1.125  -0.528   6.000  0.00  0.00    -0.060 I 
ATOM     10  F2  UNL d   1       1.775   0.771   5.627  0.00  0.00    -0.096 F 
ATOM     11  F3  UNL d   1       3.559   0.638   3.593  0.00  0.00    -0.097 F 
ATOM     12  F4  UNL d   1       2.991  -0.811   1.353  0.00  0.00    -0.092 F 
ENDROOT
TORSDOF 0
ENDMDL
