MODEL 1
REMARK minimizedAffinity 18.0513039
REMARK minimizedRMSD -1
REMARK  0 active torsions:
REMARK  status: ('A' for Active; 'I' for Inactive)
ROOT
ATOM      1  C   UNL d   1      -3.391  -3.163   2.654  0.00  0.00     0.124 A 
ATOM      2  C1  UNL d   1      -4.548  -2.907   1.932  0.00  0.00     0.062 A 
ATOM      3  C2  UNL d   1      -4.875  -3.694   0.832  0.00  0.00     0.162 A 
ATOM      4  C3  UNL d   1      -4.044  -4.746   0.447  0.00  0.00    -0.034 A 
ATOM      5  C4  UNL d   1      -2.881  -4.997   1.178  0.00  0.00     0.162 A 
ATOM      6  C5  UNL d   1      -2.558  -4.207   2.277  0.00  0.00     0.062 A 
ATOM      7  F   UNL d   1      -1.440  -4.455   2.973  0.00  0.00    -0.097 F 
ATOM      8  F1  UNL d   1      -2.059  -6.000   0.835  0.00  0.00    -0.096 F 
ATOM      9  I   UNL d   1      -4.529  -5.926  -1.197  0.00  0.00    -0.060 I 
ATOM     10  F2  UNL d   1      -6.000  -3.424   0.153  0.00  0.00    -0.096 F 
ATOM     11  F3  UNL d   1      -5.354  -1.898   2.294  0.00  0.00    -0.097 F 
ATOM     12  F4  UNL d   1      -3.078  -2.403   3.712  0.00  0.00    -0.092 F 
ENDROOT
TORSDOF 0
ENDMDL
