MODEL 1
REMARK minimizedAffinity 17.2918568
REMARK minimizedRMSD -1
REMARK  0 active torsions:
REMARK  status: ('A' for Active; 'I' for Inactive)
ROOT
ATOM      1  C   UNL d   1      -0.264  -2.438   1.873  0.00  0.00     0.124 A 
ATOM      2  C1  UNL d   1       0.418  -1.418   2.522  0.00  0.00     0.062 A 
ATOM      3  C2  UNL d   1      -0.088  -0.877   3.700  0.00  0.00     0.162 A 
ATOM      4  C3  UNL d   1      -1.283  -1.356   4.238  0.00  0.00    -0.034 A 
ATOM      5  C4  UNL d   1      -1.964  -2.381   3.579  0.00  0.00     0.162 A 
ATOM      6  C5  UNL d   1      -1.454  -2.918   2.402  0.00  0.00     0.062 A 
ATOM      7  F   UNL d   1      -2.114  -3.904   1.776  0.00  0.00    -0.097 F 
ATOM      8  F1  UNL d   1      -3.115  -2.865   4.068  0.00  0.00    -0.096 F 
ATOM      9  I   UNL d   1      -2.043  -0.549   6.000  0.00  0.00    -0.060 I 
ATOM     10  F2  UNL d   1       0.592   0.108   4.306  0.00  0.00    -0.096 F 
ATOM     11  F3  UNL d   1       1.567  -0.952   2.012  0.00  0.00    -0.097 F 
ATOM     12  F4  UNL d   1       0.225  -2.956   0.739  0.00  0.00    -0.092 F 
ENDROOT
TORSDOF 0
ENDMDL
