MODEL 1
REMARK minimizedAffinity 21.6644783
REMARK minimizedRMSD -1
REMARK  0 active torsions:
REMARK  status: ('A' for Active; 'I' for Inactive)
ROOT
ATOM      1  C   UNL d   1       3.484  -1.376   1.329  0.00  0.00     0.124 A 
ATOM      2  C1  UNL d   1       3.434  -0.311   2.218  0.00  0.00     0.062 A 
ATOM      3  C2  UNL d   1       2.238   0.022   2.846  0.00  0.00     0.162 A 
ATOM      4  C3  UNL d   1       1.080  -0.712   2.588  0.00  0.00    -0.034 A 
ATOM      5  C4  UNL d   1       1.137  -1.781   1.692  0.00  0.00     0.162 A 
ATOM      6  C5  UNL d   1       2.335  -2.110   1.066  0.00  0.00     0.062 A 
ATOM      7  F   UNL d   1       2.381  -3.139   0.208  0.00  0.00    -0.097 F 
ATOM      8  F1  UNL d   1       0.043  -2.508   1.421  0.00  0.00    -0.096 F 
ATOM      9  I   UNL d   1      -0.712  -0.218   3.525  0.00  0.00    -0.060 I 
ATOM     10  F2  UNL d   1       2.219   1.055   3.700  0.00  0.00    -0.096 F 
ATOM     11  F3  UNL d   1       4.542   0.400   2.472  0.00  0.00    -0.097 F 
ATOM     12  F4  UNL d   1       4.636  -1.693   0.725  0.00  0.00    -0.092 F 
ENDROOT
TORSDOF 0
ENDMDL
