MODEL 1
REMARK minimizedAffinity 17.480278
REMARK minimizedRMSD -1
REMARK  0 active torsions:
REMARK  status: ('A' for Active; 'I' for Inactive)
ROOT
ATOM      1  C   UNL d   1       0.476  -0.126   4.333  0.00  0.00     0.124 A 
ATOM      2  C1  UNL d   1       0.005  -0.790   3.209  0.00  0.00     0.062 A 
ATOM      3  C2  UNL d   1       0.879  -1.133   2.181  0.00  0.00     0.162 A 
ATOM      4  C3  UNL d   1       2.233  -0.814   2.273  0.00  0.00    -0.034 A 
ATOM      5  C4  UNL d   1       2.700  -0.145   3.406  0.00  0.00     0.162 A 
ATOM      6  C5  UNL d   1       1.823   0.196   4.430  0.00  0.00     0.062 A 
ATOM      7  F   UNL d   1       2.280   0.838   5.516  0.00  0.00    -0.097 F 
ATOM      8  F1  UNL d   1       3.996   0.177   3.527  0.00  0.00    -0.096 F 
ATOM      9  I   UNL d   1       3.543  -1.326   0.739  0.00  0.00    -0.060 I 
ATOM     10  F2  UNL d   1       0.396  -1.775   1.107  0.00  0.00    -0.096 F 
ATOM     11  F3  UNL d   1      -1.296  -1.101   3.112  0.00  0.00    -0.097 F 
ATOM     12  F4  UNL d   1      -0.367   0.204   5.320  0.00  0.00    -0.092 F 
ENDROOT
TORSDOF 0
ENDMDL
