MODEL 1
REMARK minimizedAffinity 31.3080006
REMARK minimizedRMSD -1
REMARK  0 active torsions:
REMARK  status: ('A' for Active; 'I' for Inactive)
ROOT
ATOM      1  C   UNL d   1       1.967  -0.548   2.169  0.00  0.00     0.124 A 
ATOM      2  C1  UNL d   1       0.744  -1.200   2.098  0.00  0.00     0.062 A 
ATOM      3  C2  UNL d   1      -0.119  -1.191   3.190  0.00  0.00     0.162 A 
ATOM      4  C3  UNL d   1       0.238  -0.527   4.364  0.00  0.00    -0.034 A 
ATOM      5  C4  UNL d   1       1.470   0.126   4.428  0.00  0.00     0.162 A 
ATOM      6  C5  UNL d   1       2.329   0.114   3.334  0.00  0.00     0.062 A 
ATOM      7  F   UNL d   1       3.510   0.745   3.405  0.00  0.00    -0.097 F 
ATOM      8  F1  UNL d   1       1.845   0.774   5.541  0.00  0.00    -0.096 F 
ATOM      9  I   UNL d   1      -1.049  -0.512   5.999  0.00  0.00    -0.060 I 
ATOM     10  F2  UNL d   1      -1.294  -1.830   3.093  0.00  0.00    -0.096 F 
ATOM     11  F3  UNL d   1       0.392  -1.841   0.974  0.00  0.00    -0.097 F 
ATOM     12  F4  UNL d   1       2.795  -0.558   1.117  0.00  0.00    -0.092 F 
ENDROOT
TORSDOF 0
ENDMDL
