MODEL 1
REMARK minimizedAffinity 8.5728941
REMARK minimizedRMSD -1
REMARK  0 active torsions:
REMARK  status: ('A' for Active; 'I' for Inactive)
ROOT
ATOM      1  C   UNL d   1       0.290  -1.079   2.655  0.00  0.00     0.124 A 
ATOM      2  C1  UNL d   1      -0.573  -2.035   2.137  0.00  0.00     0.062 A 
ATOM      3  C2  UNL d   1      -1.606  -2.543   2.918  0.00  0.00     0.162 A 
ATOM      4  C3  UNL d   1      -1.784  -2.096   4.227  0.00  0.00    -0.034 A 
ATOM      5  C4  UNL d   1      -0.912  -1.135   4.742  0.00  0.00     0.162 A 
ATOM      6  C5  UNL d   1       0.119  -0.630   3.957  0.00  0.00     0.062 A 
ATOM      7  F   UNL d   1       0.952   0.293   4.460  0.00  0.00    -0.097 F 
ATOM      8  F1  UNL d   1      -1.054  -0.682   5.997  0.00  0.00    -0.096 F 
ATOM      9  I   UNL d   1      -3.328  -2.853   5.400  0.00  0.00    -0.060 I 
ATOM     10  F2  UNL d   1      -2.424  -3.466   2.391  0.00  0.00    -0.096 F 
ATOM     11  F3  UNL d   1      -0.410  -2.471   0.879  0.00  0.00    -0.097 F 
ATOM     12  F4  UNL d   1       1.284  -0.593   1.901  0.00  0.00    -0.092 F 
ENDROOT
TORSDOF 0
ENDMDL
