MODEL 1
REMARK minimizedAffinity 17.9843388
REMARK minimizedRMSD -1
REMARK  0 active torsions:
REMARK  status: ('A' for Active; 'I' for Inactive)
ROOT
ATOM      1  C   UNL d   1       3.492  -1.131   1.572  0.00  0.00     0.124 A 
ATOM      2  C1  UNL d   1       2.371  -1.913   1.333  0.00  0.00     0.062 A 
ATOM      3  C2  UNL d   1       1.185  -1.665   2.017  0.00  0.00     0.162 A 
ATOM      4  C3  UNL d   1       1.113  -0.627   2.947  0.00  0.00    -0.034 A 
ATOM      5  C4  UNL d   1       2.245   0.155   3.183  0.00  0.00     0.162 A 
ATOM      6  C5  UNL d   1       3.428  -0.097   2.496  0.00  0.00     0.062 A 
ATOM      7  F   UNL d   1       4.510   0.660   2.729  0.00  0.00    -0.097 F 
ATOM      8  F1  UNL d   1       2.210   1.161   4.070  0.00  0.00    -0.096 F 
ATOM      9  I   UNL d   1      -0.659  -0.252   3.972  0.00  0.00    -0.060 I 
ATOM     10  F2  UNL d   1       0.117  -2.437   1.766  0.00  0.00    -0.096 F 
ATOM     11  F3  UNL d   1       2.431  -2.913   0.441  0.00  0.00    -0.097 F 
ATOM     12  F4  UNL d   1       4.632  -1.373   0.913  0.00  0.00    -0.092 F 
ENDROOT
TORSDOF 0
ENDMDL
