MODEL 1
REMARK minimizedAffinity 23.2233467
REMARK minimizedRMSD -1
REMARK  0 active torsions:
REMARK  status: ('A' for Active; 'I' for Inactive)
ROOT
ATOM      1  C   UNL d   1       2.276   0.022   3.283  0.00  0.00     0.124 A 
ATOM      2  C1  UNL d   1       1.939  -0.667   2.126  0.00  0.00     0.062 A 
ATOM      3  C2  UNL d   1       0.675  -1.233   1.991  0.00  0.00     0.162 A 
ATOM      4  C3  UNL d   1      -0.263  -1.112   3.016  0.00  0.00    -0.034 A 
ATOM      5  C4  UNL d   1       0.083  -0.419   4.178  0.00  0.00     0.162 A 
ATOM      6  C5  UNL d   1       1.348   0.145   4.307  0.00  0.00     0.062 A 
ATOM      7  F   UNL d   1       1.672   0.810   5.426  0.00  0.00    -0.097 F 
ATOM      8  F1  UNL d   1      -0.794  -0.283   5.183  0.00  0.00    -0.096 F 
ATOM      9  I   UNL d   1      -2.155  -1.956   2.819  0.00  0.00    -0.060 I 
ATOM     10  F2  UNL d   1       0.376  -1.892   0.862  0.00  0.00    -0.096 F 
ATOM     11  F3  UNL d   1       2.834  -0.788   1.135  0.00  0.00    -0.097 F 
ATOM     12  F4  UNL d   1       3.494   0.564   3.410  0.00  0.00    -0.092 F 
ENDROOT
TORSDOF 0
ENDMDL
