MODEL 1
REMARK minimizedAffinity 31.631218
REMARK minimizedRMSD -1
REMARK  0 active torsions:
REMARK  status: ('A' for Active; 'I' for Inactive)
ROOT
ATOM      1  C   UNL d   1       1.956   0.033   3.418  0.00  0.00     0.124 A 
ATOM      2  C1  UNL d   1       0.703  -0.503   3.156  0.00  0.00     0.062 A 
ATOM      3  C2  UNL d   1       0.529  -1.388   2.096  0.00  0.00     0.162 A 
ATOM      4  C3  UNL d   1       1.611  -1.744   1.291  0.00  0.00    -0.034 A 
ATOM      5  C4  UNL d   1       2.868  -1.200   1.561  0.00  0.00     0.162 A 
ATOM      6  C5  UNL d   1       3.037  -0.316   2.621  0.00  0.00     0.062 A 
ATOM      7  F   UNL d   1       4.248   0.201   2.873  0.00  0.00    -0.097 F 
ATOM      8  F1  UNL d   1       3.930  -1.521   0.806  0.00  0.00    -0.096 F 
ATOM      9  I   UNL d   1       1.354  -3.067  -0.295  0.00  0.00    -0.060 I 
ATOM     10  F2  UNL d   1      -0.693  -1.891   1.865  0.00  0.00    -0.096 F 
ATOM     11  F3  UNL d   1      -0.343  -0.166   3.924  0.00  0.00    -0.097 F 
ATOM     12  F4  UNL d   1       2.121   0.886   4.438  0.00  0.00    -0.092 F 
ENDROOT
TORSDOF 0
ENDMDL
