MODEL 1
REMARK minimizedAffinity 15.4105301
REMARK minimizedRMSD -1
REMARK  0 active torsions:
REMARK  status: ('A' for Active; 'I' for Inactive)
ROOT
ATOM      1  C   UNL d   1      -3.272   2.490  -1.028  0.00  0.00     0.124 A 
ATOM      2  C1  UNL d   1      -2.255   2.212  -1.931  0.00  0.00     0.062 A 
ATOM      3  C2  UNL d   1      -1.770   3.212  -2.769  0.00  0.00     0.162 A 
ATOM      4  C3  UNL d   1      -2.302   4.500  -2.709  0.00  0.00    -0.034 A 
ATOM      5  C4  UNL d   1      -3.325   4.772  -1.799  0.00  0.00     0.162 A 
ATOM      6  C5  UNL d   1      -3.806   3.769  -0.963  0.00  0.00     0.062 A 
ATOM      7  F   UNL d   1      -4.789   4.040  -0.092  0.00  0.00    -0.097 F 
ATOM      8  F1  UNL d   1      -3.859   6.000  -1.715  0.00  0.00    -0.096 F 
ATOM      9  I   UNL d   1      -1.580   5.998  -3.961  0.00  0.00    -0.060 I 
ATOM     10  F2  UNL d   1      -0.787   2.915  -3.631  0.00  0.00    -0.096 F 
ATOM     11  F3  UNL d   1      -1.738   0.977  -1.996  0.00  0.00    -0.097 F 
ATOM     12  F4  UNL d   1      -3.737   1.526  -0.223  0.00  0.00    -0.092 F 
ENDROOT
TORSDOF 0
ENDMDL
