MODEL 1
REMARK minimizedAffinity 19.3916149
REMARK minimizedRMSD -1
REMARK  0 active torsions:
REMARK  status: ('A' for Active; 'I' for Inactive)
ROOT
ATOM      1  C   UNL d   1       2.795  -1.226   2.137  0.00  0.00     0.124 A 
ATOM      2  C1  UNL d   1       2.865  -0.291   3.160  0.00  0.00     0.062 A 
ATOM      3  C2  UNL d   1       1.836  -0.194   4.093  0.00  0.00     0.162 A 
ATOM      4  C3  UNL d   1       0.728  -1.036   4.007  0.00  0.00    -0.034 A 
ATOM      5  C4  UNL d   1       0.663  -1.973   2.974  0.00  0.00     0.162 A 
ATOM      6  C5  UNL d   1       1.694  -2.066   2.045  0.00  0.00     0.062 A 
ATOM      7  F   UNL d   1       1.625  -2.970   1.057  0.00  0.00    -0.097 F 
ATOM      8  F1  UNL d   1      -0.388  -2.799   2.862  0.00  0.00    -0.096 F 
ATOM      9  I   UNL d   1      -0.813  -0.895   5.399  0.00  0.00    -0.060 I 
ATOM     10  F2  UNL d   1       1.931   0.719   5.071  0.00  0.00    -0.096 F 
ATOM     11  F3  UNL d   1       3.927   0.523   3.251  0.00  0.00    -0.097 F 
ATOM     12  F4  UNL d   1       3.786  -1.316   1.241  0.00  0.00    -0.092 F 
ENDROOT
TORSDOF 0
ENDMDL
