MODEL 1
REMARK minimizedAffinity 23.3821983
REMARK minimizedRMSD -1
REMARK  0 active torsions:
REMARK  status: ('A' for Active; 'I' for Inactive)
ROOT
ATOM      1  C   UNL d   1      -3.003   2.723  -1.192  0.00  0.00     0.124 A 
ATOM      2  C1  UNL d   1      -3.510   3.998  -1.401  0.00  0.00     0.062 A 
ATOM      3  C2  UNL d   1      -3.048   4.770  -2.463  0.00  0.00     0.162 A 
ATOM      4  C3  UNL d   1      -2.074   4.267  -3.327  0.00  0.00    -0.034 A 
ATOM      5  C4  UNL d   1      -1.569   2.984  -3.110  0.00  0.00     0.162 A 
ATOM      6  C5  UNL d   1      -2.034   2.217  -2.046  0.00  0.00     0.062 A 
ATOM      7  F   UNL d   1      -1.543   0.986  -1.846  0.00  0.00    -0.097 F 
ATOM      8  F1  UNL d   1      -0.632   2.471  -3.920  0.00  0.00    -0.096 F 
ATOM      9  I   UNL d   1      -1.381   5.418  -4.916  0.00  0.00    -0.060 I 
ATOM     10  F2  UNL d   1      -3.556   5.999  -2.641  0.00  0.00    -0.096 F 
ATOM     11  F3  UNL d   1      -4.446   4.490  -0.576  0.00  0.00    -0.097 F 
ATOM     12  F4  UNL d   1      -3.449   1.983  -0.168  0.00  0.00    -0.092 F 
ENDROOT
TORSDOF 0
ENDMDL
