MODEL 1
REMARK minimizedAffinity 4.30745268
REMARK minimizedRMSD -1
REMARK  0 active torsions:
REMARK  status: ('A' for Active; 'I' for Inactive)
ROOT
ATOM      1  C   UNL d   1       1.171   0.564   0.274  0.00  0.00     0.124 A 
ATOM      2  C1  UNL d   1       1.479  -0.748  -0.059  0.00  0.00     0.062 A 
ATOM      3  C2  UNL d   1       0.527  -1.752   0.095  0.00  0.00     0.162 A 
ATOM      4  C3  UNL d   1      -0.744  -1.447   0.583  0.00  0.00    -0.034 A 
ATOM      5  C4  UNL d   1      -1.046  -0.126   0.916  0.00  0.00     0.162 A 
ATOM      6  C5  UNL d   1      -0.091   0.874   0.760  0.00  0.00     0.062 A 
ATOM      7  F   UNL d   1      -0.391   2.140   1.082  0.00  0.00    -0.097 F 
ATOM      8  F1  UNL d   1      -2.259   0.202   1.387  0.00  0.00    -0.096 F 
ATOM      9  I   UNL d   1      -2.170  -2.945   0.814  0.00  0.00    -0.060 I 
ATOM     10  F2  UNL d   1       0.853  -3.011  -0.234  0.00  0.00    -0.096 F 
ATOM     11  F3  UNL d   1       2.698  -1.050  -0.528  0.00  0.00    -0.097 F 
ATOM     12  F4  UNL d   1       2.089   1.527   0.126  0.00  0.00    -0.092 F 
ENDROOT
TORSDOF 0
ENDMDL
