MODEL 1
REMARK minimizedAffinity -1.8448348
REMARK minimizedRMSD -1
REMARK  0 active torsions:
REMARK  status: ('A' for Active; 'I' for Inactive)
ROOT
ATOM      1  C   UNL d   1       2.305  -1.305   0.599  0.00  0.00    -0.002 A 
ATOM      2  C1  UNL d   1       1.227  -1.992   1.140  0.00  0.00     0.010 A 
ATOM      3  C2  UNL d   1      -0.081  -1.569   0.894  0.00  0.00     0.041 A 
ATOM      4  C3  UNL d   1      -0.289  -0.433   0.087  0.00  0.00    -0.075 A 
ATOM      5  S   UNL d   1      -1.802   0.267  -0.350  0.00  0.00     0.015 SA
ATOM      6  C4  UNL d   1      -1.054   1.495  -1.265  0.00  0.00     0.022 A 
ATOM      7  C5  UNL d   1       0.316   1.388  -1.249  0.00  0.00     0.026 A 
ATOM      8  C6  UNL d   1       0.780   0.275  -0.469  0.00  0.00    -0.082 A 
ATOM      9  C7  UNL d   1       2.094  -0.179  -0.201  0.00  0.00     0.045 A 
ENDROOT
TORSDOF 0
ENDMDL
