MODEL 1
REMARK minimizedAffinity -3.94185019
REMARK minimizedRMSD -1
REMARK  0 active torsions:
REMARK  status: ('A' for Active; 'I' for Inactive)
ROOT
ATOM      1  C   UNL d   1       1.940  -1.834   1.046  0.00  0.00    -0.002 A 
ATOM      2  C1  UNL d   1       1.123  -2.734   0.377  0.00  0.00     0.010 A 
ATOM      3  C2  UNL d   1       0.050  -2.283  -0.393  0.00  0.00     0.041 A 
ATOM      4  C3  UNL d   1      -0.190  -0.898  -0.483  0.00  0.00    -0.075 A 
ATOM      5  S   UNL d   1      -1.445  -0.115  -1.369  0.00  0.00     0.015 SA
ATOM      6  C4  UNL d   1      -0.926   1.434  -0.881  0.00  0.00     0.022 A 
ATOM      7  C5  UNL d   1       0.177   1.373  -0.062  0.00  0.00     0.026 A 
ATOM      8  C6  UNL d   1       0.619   0.029   0.181  0.00  0.00    -0.082 A 
ATOM      9  C7  UNL d   1       1.699  -0.460   0.955  0.00  0.00     0.045 A 
ENDROOT
TORSDOF 0
ENDMDL
