MODEL 1
REMARK minimizedAffinity 0.118120328
REMARK minimizedRMSD -1
REMARK  0 active torsions:
REMARK  status: ('A' for Active; 'I' for Inactive)
ROOT
ATOM      1  C   UNL d   1       1.682  -2.252   1.136  0.00  0.00    -0.002 A 
ATOM      2  C1  UNL d   1       0.320  -2.481   1.270  0.00  0.00     0.010 A 
ATOM      3  C2  UNL d   1      -0.605  -1.677   0.600  0.00  0.00     0.041 A 
ATOM      4  C3  UNL d   1      -0.133  -0.631  -0.217  0.00  0.00    -0.075 A 
ATOM      5  S   UNL d   1      -1.081   0.480  -1.133  0.00  0.00     0.015 SA
ATOM      6  C4  UNL d   1       0.300   1.284  -1.726  0.00  0.00     0.022 A 
ATOM      7  C5  UNL d   1       1.464   0.732  -1.247  0.00  0.00     0.026 A 
ATOM      8  C6  UNL d   1       1.234  -0.382  -0.369  0.00  0.00    -0.082 A 
ATOM      9  C7  UNL d   1       2.146  -1.213   0.324  0.00  0.00     0.045 A 
ENDROOT
TORSDOF 0
ENDMDL
