MODEL 1
REMARK minimizedAffinity -6.03779697
REMARK minimizedRMSD -1
REMARK  0 active torsions:
REMARK  status: ('A' for Active; 'I' for Inactive)
ROOT
ATOM      1  C   UNL d   1       1.023  -3.007   2.048  0.00  0.00    -0.002 A 
ATOM      2  C1  UNL d   1      -0.170  -2.542   2.584  0.00  0.00     0.010 A 
ATOM      3  C2  UNL d   1      -0.731  -1.345   2.135  0.00  0.00     0.041 A 
ATOM      4  C3  UNL d   1      -0.068  -0.616   1.128  0.00  0.00    -0.075 A 
ATOM      5  S   UNL d   1      -0.568   0.876   0.424  0.00  0.00     0.015 SA
ATOM      6  C4  UNL d   1       0.789   0.931  -0.606  0.00  0.00     0.022 A 
ATOM      7  C5  UNL d   1       1.614  -0.154  -0.429  0.00  0.00     0.026 A 
ATOM      8  C6  UNL d   1       1.134  -1.064   0.573  0.00  0.00    -0.082 A 
ATOM      9  C7  UNL d   1       1.678  -2.281   1.049  0.00  0.00     0.045 A 
ENDROOT
TORSDOF 0
ENDMDL
