MODEL 1
REMARK minimizedAffinity -2.62109351
REMARK minimizedRMSD -1
REMARK  0 active torsions:
REMARK  status: ('A' for Active; 'I' for Inactive)
ROOT
ATOM      1  C   UNL d   1       1.678  -1.603   1.118  0.00  0.00    -0.002 A 
ATOM      2  C1  UNL d   1       1.060  -2.393   0.159  0.00  0.00     0.010 A 
ATOM      3  C2  UNL d   1       0.090  -1.852  -0.688  0.00  0.00     0.041 A 
ATOM      4  C3  UNL d   1      -0.249  -0.492  -0.555  0.00  0.00    -0.075 A 
ATOM      5  S   UNL d   1      -1.408   0.386  -1.482  0.00  0.00     0.015 SA
ATOM      6  C4  UNL d   1      -1.108   1.830  -0.628  0.00  0.00     0.022 A 
ATOM      7  C5  UNL d   1      -0.151   1.664   0.345  0.00  0.00     0.026 A 
ATOM      8  C6  UNL d   1       0.360   0.324   0.403  0.00  0.00    -0.082 A 
ATOM      9  C7  UNL d   1       1.339  -0.254   1.247  0.00  0.00     0.045 A 
ENDROOT
TORSDOF 0
ENDMDL
