MODEL 1
REMARK minimizedAffinity -2.65264511
REMARK minimizedRMSD -1
REMARK  0 active torsions:
REMARK  status: ('A' for Active; 'I' for Inactive)
ROOT
ATOM      1  C   UNL d   1       1.455  -3.091   1.113  0.00  0.00    -0.002 A 
ATOM      2  C1  UNL d   1       0.072  -3.186   1.045  0.00  0.00     0.010 A 
ATOM      3  C2  UNL d   1      -0.687  -2.134   0.529  0.00  0.00     0.041 A 
ATOM      4  C3  UNL d   1      -0.027  -0.975   0.076  0.00  0.00    -0.075 A 
ATOM      5  S   UNL d   1      -0.751   0.439  -0.595  0.00  0.00     0.015 SA
ATOM      6  C4  UNL d   1       0.758   1.201  -0.808  0.00  0.00     0.022 A 
ATOM      7  C5  UNL d   1       1.799   0.412  -0.383  0.00  0.00     0.026 A 
ATOM      8  C6  UNL d   1       1.364  -0.856   0.134  0.00  0.00    -0.082 A 
ATOM      9  C7  UNL d   1       2.106  -1.939   0.663  0.00  0.00     0.045 A 
ENDROOT
TORSDOF 0
ENDMDL
