MODEL 1
REMARK minimizedAffinity 0.388016701
REMARK minimizedRMSD -1
REMARK  0 active torsions:
REMARK  status: ('A' for Active; 'I' for Inactive)
ROOT
ATOM      1  C   UNL d   1       1.429  -1.829  -0.070  0.00  0.00    -0.002 A 
ATOM      2  C1  UNL d   1       0.681  -1.991   1.088  0.00  0.00     0.010 A 
ATOM      3  C2  UNL d   1      -0.359  -1.109   1.390  0.00  0.00     0.041 A 
ATOM      4  C3  UNL d   1      -0.639  -0.054   0.501  0.00  0.00    -0.075 A 
ATOM      5  S   UNL d   1      -1.865   1.147   0.665  0.00  0.00     0.015 SA
ATOM      6  C4  UNL d   1      -1.426   1.903  -0.798  0.00  0.00     0.022 A 
ATOM      7  C5  UNL d   1      -0.371   1.268  -1.410  0.00  0.00     0.026 A 
ATOM      8  C6  UNL d   1       0.100   0.130  -0.672  0.00  0.00    -0.082 A 
ATOM      9  C7  UNL d   1       1.148  -0.780  -0.950  0.00  0.00     0.045 A 
ENDROOT
TORSDOF 0
ENDMDL
