MODEL 1
REMARK minimizedAffinity 1.20789278
REMARK minimizedRMSD -1
REMARK  0 active torsions:
REMARK  status: ('A' for Active; 'I' for Inactive)
ROOT
ATOM      1  C   UNL d   1      -1.153  -2.201   0.701  0.00  0.00    -0.002 A 
ATOM      2  C1  UNL d   1      -0.218  -3.171   0.368  0.00  0.00     0.010 A 
ATOM      3  C2  UNL d   1       1.070  -2.809  -0.033  0.00  0.00     0.041 A 
ATOM      4  C3  UNL d   1       1.405  -1.442  -0.093  0.00  0.00    -0.075 A 
ATOM      5  S   UNL d   1       2.921  -0.763  -0.555  0.00  0.00     0.015 SA
ATOM      6  C4  UNL d   1       2.363   0.831  -0.321  0.00  0.00     0.022 A 
ATOM      7  C5  UNL d   1       1.055   0.862   0.100  0.00  0.00     0.026 A 
ATOM      8  C6  UNL d   1       0.481  -0.447   0.239  0.00  0.00    -0.082 A 
ATOM      9  C7  UNL d   1      -0.816  -0.847   0.641  0.00  0.00     0.045 A 
ENDROOT
TORSDOF 0
ENDMDL
