MODEL 1
REMARK minimizedAffinity 0.438034177
REMARK minimizedRMSD -1
REMARK  0 active torsions:
REMARK  status: ('A' for Active; 'I' for Inactive)
ROOT
ATOM      1  C   UNL d   1       1.771  -2.524   0.217  0.00  0.00    -0.002 A 
ATOM      2  C1  UNL d   1       0.421  -2.842   0.205  0.00  0.00     0.010 A 
ATOM      3  C2  UNL d   1      -0.545  -1.835   0.164  0.00  0.00     0.041 A 
ATOM      4  C3  UNL d   1      -0.127  -0.490   0.132  0.00  0.00    -0.075 A 
ATOM      5  S   UNL d   1      -1.131   0.910   0.078  0.00  0.00     0.015 SA
ATOM      6  C4  UNL d   1       0.209   1.963   0.068  0.00  0.00     0.022 A 
ATOM      7  C5  UNL d   1       1.401   1.280   0.105  0.00  0.00     0.026 A 
ATOM      8  C6  UNL d   1       1.228  -0.145   0.142  0.00  0.00    -0.082 A 
ATOM      9  C7  UNL d   1       2.183  -1.189   0.185  0.00  0.00     0.045 A 
ENDROOT
TORSDOF 0
ENDMDL
