MODEL 1
REMARK minimizedAffinity -3.70618987
REMARK minimizedRMSD -1
REMARK  0 active torsions:
REMARK  status: ('A' for Active; 'I' for Inactive)
ROOT
ATOM      1  C   UNL d   1      -1.383   0.883  -0.668  0.00  0.00    -0.002 A 
ATOM      2  C1  UNL d   1      -0.174   1.564  -0.709  0.00  0.00     0.010 A 
ATOM      3  C2  UNL d   1       1.010   0.932  -0.321  0.00  0.00     0.041 A 
ATOM      4  C3  UNL d   1       0.958  -0.408   0.109  0.00  0.00    -0.075 A 
ATOM      5  S   UNL d   1       2.280  -1.384   0.630  0.00  0.00     0.015 SA
ATOM      6  C4  UNL d   1       1.272  -2.728   0.917  0.00  0.00     0.022 A 
ATOM      7  C5  UNL d   1      -0.045  -2.456   0.629  0.00  0.00     0.026 A 
ATOM      8  C6  UNL d   1      -0.247  -1.114   0.158  0.00  0.00    -0.082 A 
ATOM      9  C7  UNL d   1      -1.430  -0.446  -0.240  0.00  0.00     0.045 A 
ENDROOT
TORSDOF 0
ENDMDL
