MODEL 1
REMARK minimizedAffinity 4.03878069
REMARK minimizedRMSD -1
REMARK  0 active torsions:
REMARK  status: ('A' for Active; 'I' for Inactive)
ROOT
ATOM      1  C   UNL d   1      -1.668  -0.305   1.210  0.00  0.00     0.124 A 
ATOM      2  C1  UNL d   1      -0.646  -1.223   1.012  0.00  0.00     0.062 A 
ATOM      3  C2  UNL d   1       0.224  -1.079  -0.066  0.00  0.00     0.162 A 
ATOM      4  C3  UNL d   1       0.075  -0.013  -0.953  0.00  0.00    -0.034 A 
ATOM      5  C4  UNL d   1      -0.956   0.905  -0.747  0.00  0.00     0.162 A 
ATOM      6  C5  UNL d   1      -1.822   0.757   0.331  0.00  0.00     0.062 A 
ATOM      7  F   UNL d   1      -2.810   1.644   0.522  0.00  0.00    -0.097 F 
ATOM      8  F1  UNL d   1      -1.127   1.942  -1.580  0.00  0.00    -0.096 F 
ATOM      9  I   UNL d   1       1.373   0.205  -2.565  0.00  0.00    -0.060 I 
ATOM     10  F2  UNL d   1       1.203  -1.980  -0.233  0.00  0.00    -0.096 F 
ATOM     11  F3  UNL d   1      -0.495  -2.251   1.859  0.00  0.00    -0.097 F 
ATOM     12  F4  UNL d   1      -2.504  -0.447   2.247  0.00  0.00    -0.092 F 
ENDROOT
TORSDOF 0
ENDMDL
