MODEL 1
REMARK minimizedAffinity -1.87655056
REMARK minimizedRMSD -1
REMARK  0 active torsions:
REMARK  status: ('A' for Active; 'I' for Inactive)
ROOT
ATOM      1  C   UNL d   1       1.330   0.189  -2.043  0.00  0.00     0.124 A 
ATOM      2  C1  UNL d   1       1.463   1.348  -1.292  0.00  0.00     0.062 A 
ATOM      3  C2  UNL d   1       0.590   1.605  -0.239  0.00  0.00     0.162 A 
ATOM      4  C3  UNL d   1      -0.425   0.699   0.070  0.00  0.00    -0.034 A 
ATOM      5  C4  UNL d   1      -0.553  -0.465  -0.690  0.00  0.00     0.162 A 
ATOM      6  C5  UNL d   1       0.322  -0.716  -1.741  0.00  0.00     0.062 A 
ATOM      7  F   UNL d   1       0.191  -1.837  -2.466  0.00  0.00    -0.097 F 
ATOM      8  F1  UNL d   1      -1.518  -1.357  -0.420  0.00  0.00    -0.096 F 
ATOM      9  I   UNL d   1      -1.733   1.079   1.644  0.00  0.00    -0.060 I 
ATOM     10  F2  UNL d   1       0.742   2.733   0.470  0.00  0.00    -0.096 F 
ATOM     11  F3  UNL d   1       2.435   2.225  -1.582  0.00  0.00    -0.097 F 
ATOM     12  F4  UNL d   1       2.171  -0.055  -3.056  0.00  0.00    -0.092 F 
ENDROOT
TORSDOF 0
ENDMDL
