MODEL 1
REMARK minimizedAffinity -2.92855644
REMARK minimizedRMSD -1
REMARK  0 active torsions:
REMARK  status: ('A' for Active; 'I' for Inactive)
ROOT
ATOM      1  C   UNL d   1       1.575  -0.905  -2.482  0.00  0.00     0.124 A 
ATOM      2  C1  UNL d   1       1.303   0.390  -2.063  0.00  0.00     0.062 A 
ATOM      3  C2  UNL d   1       0.622   0.610  -0.869  0.00  0.00     0.162 A 
ATOM      4  C3  UNL d   1       0.209  -0.467  -0.085  0.00  0.00    -0.034 A 
ATOM      5  C4  UNL d   1       0.486  -1.767  -0.514  0.00  0.00     0.162 A 
ATOM      6  C5  UNL d   1       1.167  -1.982  -1.707  0.00  0.00     0.062 A 
ATOM      7  F   UNL d   1       1.430  -3.233  -2.111  0.00  0.00    -0.097 F 
ATOM      8  F1  UNL d   1       0.104  -2.825   0.216  0.00  0.00    -0.096 F 
ATOM      9  I   UNL d   1      -0.810  -0.142   1.701  0.00  0.00    -0.060 I 
ATOM     10  F2  UNL d   1       0.372   1.872  -0.489  0.00  0.00    -0.096 F 
ATOM     11  F3  UNL d   1       1.695   1.431  -2.810  0.00  0.00    -0.097 F 
ATOM     12  F4  UNL d   1       2.230  -1.114  -3.632  0.00  0.00    -0.092 F 
ENDROOT
TORSDOF 0
ENDMDL
