MODEL 1
REMARK minimizedAffinity -1.37245464
REMARK minimizedRMSD -1
REMARK  0 active torsions:
REMARK  status: ('A' for Active; 'I' for Inactive)
ROOT
ATOM      1  C   UNL d   1       1.377  -0.785  -1.050  0.00  0.00     0.124 A 
ATOM      2  C1  UNL d   1       0.745  -1.731  -0.255  0.00  0.00     0.062 A 
ATOM      3  C2  UNL d   1      -0.265  -1.346   0.622  0.00  0.00     0.162 A 
ATOM      4  C3  UNL d   1      -0.651  -0.008   0.707  0.00  0.00    -0.034 A 
ATOM      5  C4  UNL d   1      -0.010   0.937  -0.095  0.00  0.00     0.162 A 
ATOM      6  C5  UNL d   1       0.999   0.548  -0.970  0.00  0.00     0.062 A 
ATOM      7  F   UNL d   1       1.608   1.463  -1.738  0.00  0.00    -0.097 F 
ATOM      8  F1  UNL d   1      -0.356   2.232  -0.039  0.00  0.00    -0.096 F 
ATOM      9  I   UNL d   1      -2.161   0.571   2.017  0.00  0.00    -0.060 I 
ATOM     10  F2  UNL d   1      -0.858  -2.281   1.378  0.00  0.00    -0.096 F 
ATOM     11  F3  UNL d   1       1.110  -3.019  -0.330  0.00  0.00    -0.097 F 
ATOM     12  F4  UNL d   1       2.350  -1.158  -1.892  0.00  0.00    -0.092 F 
ENDROOT
TORSDOF 0
ENDMDL
