MODEL 1
REMARK minimizedAffinity -2.35258865
REMARK minimizedRMSD -1
REMARK  0 active torsions:
REMARK  status: ('A' for Active; 'I' for Inactive)
ROOT
ATOM      1  C   UNL d   1       1.825  -0.908  -2.528  0.00  0.00     0.124 A 
ATOM      2  C1  UNL d   1       1.494   0.384  -2.142  0.00  0.00     0.062 A 
ATOM      3  C2  UNL d   1       0.644   0.594  -1.060  0.00  0.00     0.162 A 
ATOM      4  C3  UNL d   1       0.119  -0.490  -0.356  0.00  0.00    -0.034 A 
ATOM      5  C4  UNL d   1       0.455  -1.785  -0.752  0.00  0.00     0.162 A 
ATOM      6  C5  UNL d   1       1.306  -1.991  -1.833  0.00  0.00     0.062 A 
ATOM      7  F   UNL d   1       1.624  -3.239  -2.206  0.00  0.00    -0.097 F 
ATOM      8  F1  UNL d   1      -0.032  -2.850  -0.097  0.00  0.00    -0.096 F 
ATOM      9  I   UNL d   1      -1.153  -0.179   1.262  0.00  0.00    -0.060 I 
ATOM     10  F2  UNL d   1       0.341   1.853  -0.708  0.00  0.00    -0.096 F 
ATOM     11  F3  UNL d   1       1.994   1.432  -2.812  0.00  0.00    -0.097 F 
ATOM     12  F4  UNL d   1       2.643  -1.107  -3.570  0.00  0.00    -0.092 F 
ENDROOT
TORSDOF 0
ENDMDL
