MODEL 1
REMARK minimizedAffinity 3.40308928
REMARK minimizedRMSD -1
REMARK  0 active torsions:
REMARK  status: ('A' for Active; 'I' for Inactive)
ROOT
ATOM      1  C   UNL d   1       1.348  -0.103  -1.514  0.00  0.00     0.124 A 
ATOM      2  C1  UNL d   1       0.263  -0.926  -1.242  0.00  0.00     0.062 A 
ATOM      3  C2  UNL d   1      -0.683  -0.545  -0.295  0.00  0.00     0.162 A 
ATOM      4  C3  UNL d   1      -0.550   0.665   0.386  0.00  0.00    -0.034 A 
ATOM      5  C4  UNL d   1       0.544   1.486   0.107  0.00  0.00     0.162 A 
ATOM      6  C5  UNL d   1       1.487   1.101  -0.840  0.00  0.00     0.062 A 
ATOM      7  F   UNL d   1       2.534   1.897  -1.102  0.00  0.00    -0.097 F 
ATOM      8  F1  UNL d   1       0.702   2.656   0.744  0.00  0.00    -0.096 F 
ATOM      9  I   UNL d   1      -1.964   1.238   1.802  0.00  0.00    -0.060 I 
ATOM     10  F2  UNL d   1      -1.721  -1.359  -0.052  0.00  0.00    -0.096 F 
ATOM     11  F3  UNL d   1       0.127  -2.091  -1.891  0.00  0.00    -0.097 F 
ATOM     12  F4  UNL d   1       2.258  -0.473  -2.425  0.00  0.00    -0.092 F 
ENDROOT
TORSDOF 0
ENDMDL
