MODEL 1
REMARK minimizedAffinity -0.680902004
REMARK minimizedRMSD -1
REMARK  0 active torsions:
REMARK  status: ('A' for Active; 'I' for Inactive)
ROOT
ATOM      1  C   UNL d   1       1.731  -0.069  -2.481  0.00  0.00     0.124 A 
ATOM      2  C1  UNL d   1       0.855  -1.145  -2.427  0.00  0.00     0.062 A 
ATOM      3  C2  UNL d   1       0.029  -1.319  -1.320  0.00  0.00     0.162 A 
ATOM      4  C3  UNL d   1       0.074  -0.415  -0.259  0.00  0.00    -0.034 A 
ATOM      5  C4  UNL d   1       0.958   0.664  -0.321  0.00  0.00     0.162 A 
ATOM      6  C5  UNL d   1       1.782   0.834  -1.429  0.00  0.00     0.062 A 
ATOM      7  F   UNL d   1       2.627   1.873  -1.480  0.00  0.00    -0.097 F 
ATOM      8  F1  UNL d   1       1.027   1.552   0.682  0.00  0.00    -0.096 F 
ATOM      9  I   UNL d   1      -1.160  -0.672   1.397  0.00  0.00    -0.060 I 
ATOM     10  F2  UNL d   1      -0.808  -2.367  -1.294  0.00  0.00    -0.096 F 
ATOM     11  F3  UNL d   1       0.805  -2.019  -3.442  0.00  0.00    -0.097 F 
ATOM     12  F4  UNL d   1       2.525   0.095  -3.547  0.00  0.00    -0.092 F 
ENDROOT
TORSDOF 0
ENDMDL
