MODEL 1
REMARK minimizedAffinity -2.63299298
REMARK minimizedRMSD -1
REMARK  0 active torsions:
REMARK  status: ('A' for Active; 'I' for Inactive)
ROOT
ATOM      1  C   UNL d   1       1.162  -1.917  -1.753  0.00  0.00     0.124 A 
ATOM      2  C1  UNL d   1       0.893  -1.962  -0.392  0.00  0.00     0.062 A 
ATOM      3  C2  UNL d   1       0.920  -0.796   0.366  0.00  0.00     0.162 A 
ATOM      4  C3  UNL d   1       1.217   0.428  -0.235  0.00  0.00    -0.034 A 
ATOM      5  C4  UNL d   1       1.487   0.465  -1.604  0.00  0.00     0.162 A 
ATOM      6  C5  UNL d   1       1.459  -0.704  -2.357  0.00  0.00     0.062 A 
ATOM      7  F   UNL d   1       1.719  -0.658  -3.672  0.00  0.00    -0.097 F 
ATOM      8  F1  UNL d   1       1.776   1.625  -2.214  0.00  0.00    -0.096 F 
ATOM      9  I   UNL d   1       1.258   2.175   0.896  0.00  0.00    -0.060 I 
ATOM     10  F2  UNL d   1       0.657  -0.869   1.680  0.00  0.00    -0.096 F 
ATOM     11  F3  UNL d   1       0.607  -3.134   0.195  0.00  0.00    -0.097 F 
ATOM     12  F4  UNL d   1       1.137  -3.041  -2.480  0.00  0.00    -0.092 F 
ENDROOT
TORSDOF 0
ENDMDL
