MODEL 1
REMARK minimizedAffinity 3.23130631
REMARK minimizedRMSD -1
REMARK  0 active torsions:
REMARK  status: ('A' for Active; 'I' for Inactive)
ROOT
ATOM      1  C   UNL d   1       0.464   0.001   0.456  0.00  0.00     0.124 A 
ATOM      2  C1  UNL d   1      -0.059   0.983  -0.373  0.00  0.00     0.062 A 
ATOM      3  C2  UNL d   1      -1.365   1.430  -0.193  0.00  0.00     0.162 A 
ATOM      4  C3  UNL d   1      -2.158   0.895   0.823  0.00  0.00    -0.034 A 
ATOM      5  C4  UNL d   1      -1.625  -0.094   1.652  0.00  0.00     0.162 A 
ATOM      6  C5  UNL d   1      -0.319  -0.537   1.467  0.00  0.00     0.062 A 
ATOM      7  F   UNL d   1       0.184  -1.487   2.269  0.00  0.00    -0.097 F 
ATOM      8  F1  UNL d   1      -2.360  -0.630   2.638  0.00  0.00    -0.096 F 
ATOM      9  I   UNL d   1      -4.111   1.560   1.096  0.00  0.00    -0.060 I 
ATOM     10  F2  UNL d   1      -1.844   2.381  -1.009  0.00  0.00    -0.096 F 
ATOM     11  F3  UNL d   1       0.695   1.504  -1.352  0.00  0.00    -0.097 F 
ATOM     12  F4  UNL d   1       1.720  -0.428   0.279  0.00  0.00    -0.092 F 
ENDROOT
TORSDOF 0
ENDMDL
