MODEL 1
REMARK minimizedAffinity 0.763410807
REMARK minimizedRMSD -1
REMARK  0 active torsions:
REMARK  status: ('A' for Active; 'I' for Inactive)
ROOT
ATOM      1  C   UNL d   1       1.366  -0.111  -1.411  0.00  0.00     0.124 A 
ATOM      2  C1  UNL d   1       1.607   1.040  -0.674  0.00  0.00     0.062 A 
ATOM      3  C2  UNL d   1       0.719   1.431   0.325  0.00  0.00     0.162 A 
ATOM      4  C3  UNL d   1      -0.418   0.668   0.593  0.00  0.00    -0.034 A 
ATOM      5  C4  UNL d   1      -0.654  -0.488  -0.154  0.00  0.00     0.162 A 
ATOM      6  C5  UNL d   1       0.236  -0.873  -1.151  0.00  0.00     0.062 A 
ATOM      7  F   UNL d   1       0.002  -1.986  -1.862  0.00  0.00    -0.097 F 
ATOM      8  F1  UNL d   1      -1.737  -1.244   0.078  0.00  0.00    -0.096 F 
ATOM      9  I   UNL d   1      -1.747   1.248   2.085  0.00  0.00    -0.060 I 
ATOM     10  F2  UNL d   1       0.977   2.547   1.021  0.00  0.00    -0.096 F 
ATOM     11  F3  UNL d   1       2.697   1.779  -0.925  0.00  0.00    -0.097 F 
ATOM     12  F4  UNL d   1       2.221  -0.483  -2.372  0.00  0.00    -0.092 F 
ENDROOT
TORSDOF 0
ENDMDL
