MODEL 1
REMARK minimizedAffinity -0.219529256
REMARK minimizedRMSD -1
REMARK  0 active torsions:
REMARK  status: ('A' for Active; 'I' for Inactive)
ROOT
ATOM      1  C   UNL d   1       0.938  -0.653  -1.798  0.00  0.00     0.124 A 
ATOM      2  C1  UNL d   1       0.522  -1.611  -0.884  0.00  0.00     0.062 A 
ATOM      3  C2  UNL d   1      -0.287  -1.249   0.189  0.00  0.00     0.162 A 
ATOM      4  C3  UNL d   1      -0.686   0.078   0.354  0.00  0.00    -0.034 A 
ATOM      5  C4  UNL d   1      -0.263   1.035  -0.569  0.00  0.00     0.162 A 
ATOM      6  C5  UNL d   1       0.546   0.669  -1.640  0.00  0.00     0.062 A 
ATOM      7  F   UNL d   1       0.947   1.596  -2.522  0.00  0.00    -0.097 F 
ATOM      8  F1  UNL d   1      -0.628   2.320  -0.441  0.00  0.00    -0.096 F 
ATOM      9  I   UNL d   1      -1.896   0.623   1.957  0.00  0.00    -0.060 I 
ATOM     10  F2  UNL d   1      -0.675  -2.195   1.057  0.00  0.00    -0.096 F 
ATOM     11  F3  UNL d   1       0.900  -2.888  -1.034  0.00  0.00    -0.097 F 
ATOM     12  F4  UNL d   1       1.717  -1.003  -2.830  0.00  0.00    -0.092 F 
ENDROOT
TORSDOF 0
ENDMDL
