MODEL 1
REMARK minimizedAffinity -2.5638845
REMARK minimizedRMSD -1
REMARK  0 active torsions:
REMARK  status: ('A' for Active; 'I' for Inactive)
ROOT
ATOM      1  C   UNL d   1       1.828  -1.018  -2.574  0.00  0.00     0.124 A 
ATOM      2  C1  UNL d   1       1.216  -2.124  -2.000  0.00  0.00     0.062 A 
ATOM      3  C2  UNL d   1       0.410  -1.972  -0.876  0.00  0.00     0.162 A 
ATOM      4  C3  UNL d   1       0.211  -0.710  -0.317  0.00  0.00    -0.034 A 
ATOM      5  C4  UNL d   1       0.831   0.397  -0.900  0.00  0.00     0.162 A 
ATOM      6  C5  UNL d   1       1.635   0.241  -2.024  0.00  0.00     0.062 A 
ATOM      7  F   UNL d   1       2.226   1.310  -2.577  0.00  0.00    -0.097 F 
ATOM      8  F1  UNL d   1       0.661   1.626  -0.389  0.00  0.00    -0.096 F 
ATOM      9  I   UNL d   1      -0.993  -0.479   1.364  0.00  0.00    -0.060 I 
ATOM     10  F2  UNL d   1      -0.170  -3.058  -0.342  0.00  0.00    -0.096 F 
ATOM     11  F3  UNL d   1       1.401  -3.342  -2.530  0.00  0.00    -0.097 F 
ATOM     12  F4  UNL d   1       2.604  -1.167  -3.656  0.00  0.00    -0.092 F 
ENDROOT
TORSDOF 0
ENDMDL
