MODEL 1
REMARK minimizedAffinity -3.4664309
REMARK minimizedRMSD -1
REMARK  0 active torsions:
REMARK  status: ('A' for Active; 'I' for Inactive)
ROOT
ATOM      1  C   UNL d   1       1.156  -0.630  -2.052  0.00  0.00     0.124 A 
ATOM      2  C1  UNL d   1       0.584  -1.632  -1.281  0.00  0.00     0.062 A 
ATOM      3  C2  UNL d   1      -0.112  -1.310  -0.119  0.00  0.00     0.162 A 
ATOM      4  C3  UNL d   1      -0.240   0.021   0.279  0.00  0.00    -0.034 A 
ATOM      5  C4  UNL d   1       0.339   1.023  -0.501  0.00  0.00     0.162 A 
ATOM      6  C5  UNL d   1       1.033   0.696  -1.662  0.00  0.00     0.062 A 
ATOM      7  F   UNL d   1       1.585   1.666  -2.406  0.00  0.00    -0.097 F 
ATOM      8  F1  UNL d   1       0.235   2.313  -0.148  0.00  0.00    -0.096 F 
ATOM      9  I   UNL d   1      -1.279   0.506   2.016  0.00  0.00    -0.060 I 
ATOM     10  F2  UNL d   1      -0.654  -2.299   0.607  0.00  0.00    -0.096 F 
ATOM     11  F3  UNL d   1       0.702  -2.914  -1.655  0.00  0.00    -0.097 F 
ATOM     12  F4  UNL d   1       1.825  -0.942  -3.169  0.00  0.00    -0.092 F 
ENDROOT
TORSDOF 0
ENDMDL
