MODEL 1
REMARK minimizedAffinity -1.11934996
REMARK minimizedRMSD -1
REMARK  0 active torsions:
REMARK  status: ('A' for Active; 'I' for Inactive)
ROOT
ATOM      1  C   UNL d   1       1.021  -0.437  -2.425  0.00  0.00     0.124 A 
ATOM      2  C1  UNL d   1       0.322  -1.375  -1.679  0.00  0.00     0.062 A 
ATOM      3  C2  UNL d   1      -0.207  -1.028  -0.439  0.00  0.00     0.162 A 
ATOM      4  C3  UNL d   1      -0.040   0.263   0.062  0.00  0.00    -0.034 A 
ATOM      5  C4  UNL d   1       0.666   1.200  -0.694  0.00  0.00     0.162 A 
ATOM      6  C5  UNL d   1       1.193   0.849  -1.933  0.00  0.00     0.062 A 
ATOM      7  F   UNL d   1       1.869   1.756  -2.653  0.00  0.00    -0.097 F 
ATOM      8  F1  UNL d   1       0.846   2.450  -0.242  0.00  0.00    -0.096 F 
ATOM      9  I   UNL d   1      -0.829   0.784   1.916  0.00  0.00    -0.060 I 
ATOM     10  F2  UNL d   1      -0.879  -1.955   0.262  0.00  0.00    -0.096 F 
ATOM     11  F3  UNL d   1       0.155  -2.618  -2.152  0.00  0.00    -0.097 F 
ATOM     12  F4  UNL d   1       1.530  -0.773  -3.618  0.00  0.00    -0.092 F 
ENDROOT
TORSDOF 0
ENDMDL
