MODEL 1
REMARK minimizedAffinity -4.05613136
REMARK minimizedRMSD -1
REMARK  0 active torsions:
REMARK  status: ('A' for Active; 'I' for Inactive)
ROOT
ATOM      1  C   UNL d   1       0.058  -2.733  -0.770  0.00  0.00     0.124 A 
ATOM      2  C1  UNL d   1       0.409  -1.792  -1.729  0.00  0.00     0.062 A 
ATOM      3  C2  UNL d   1       0.503  -0.446  -1.387  0.00  0.00     0.162 A 
ATOM      4  C3  UNL d   1       0.247  -0.032  -0.080  0.00  0.00    -0.034 A 
ATOM      5  C4  UNL d   1      -0.106  -0.984   0.878  0.00  0.00     0.162 A 
ATOM      6  C5  UNL d   1      -0.199  -2.328   0.532  0.00  0.00     0.062 A 
ATOM      7  F   UNL d   1      -0.538  -3.235   1.459  0.00  0.00    -0.097 F 
ATOM      8  F1  UNL d   1      -0.359  -0.620   2.144  0.00  0.00    -0.096 F 
ATOM      9  I   UNL d   1       0.387   1.979   0.435  0.00  0.00    -0.060 I 
ATOM     10  F2  UNL d   1       0.844   0.441  -2.334  0.00  0.00    -0.096 F 
ATOM     11  F3  UNL d   1       0.657  -2.181  -2.988  0.00  0.00    -0.097 F 
ATOM     12  F4  UNL d   1      -0.033  -4.027  -1.102  0.00  0.00    -0.092 F 
ENDROOT
TORSDOF 0
ENDMDL
