MODEL 1
REMARK minimizedAffinity -1.12533617
REMARK minimizedRMSD -1
REMARK  0 active torsions:
REMARK  status: ('A' for Active; 'I' for Inactive)
ROOT
ATOM      1  C   UNL d   1      -1.691  -0.653   1.698  0.00  0.00     0.124 A 
ATOM      2  C1  UNL d   1      -0.821  -1.644   1.264  0.00  0.00     0.062 A 
ATOM      3  C2  UNL d   1       0.052  -1.397   0.209  0.00  0.00     0.162 A 
ATOM      4  C3  UNL d   1       0.061  -0.152  -0.419  0.00  0.00    -0.034 A 
ATOM      5  C4  UNL d   1      -0.816   0.840   0.022  0.00  0.00     0.162 A 
ATOM      6  C5  UNL d   1      -1.687   0.588   1.077  0.00  0.00     0.062 A 
ATOM      7  F   UNL d   1      -2.526   1.547   1.495  0.00  0.00    -0.097 F 
ATOM      8  F1  UNL d   1      -0.834   2.049  -0.559  0.00  0.00    -0.096 F 
ATOM      9  I   UNL d   1       1.366   0.223  -1.997  0.00  0.00    -0.060 I 
ATOM     10  F2  UNL d   1       0.881  -2.373  -0.189  0.00  0.00    -0.096 F 
ATOM     11  F3  UNL d   1      -0.823  -2.845   1.862  0.00  0.00    -0.097 F 
ATOM     12  F4  UNL d   1      -2.531  -0.894   2.713  0.00  0.00    -0.092 F 
ENDROOT
TORSDOF 0
ENDMDL
