MODEL 1
REMARK minimizedAffinity 1.18652058
REMARK minimizedRMSD -1
REMARK  0 active torsions:
REMARK  status: ('A' for Active; 'I' for Inactive)
ROOT
ATOM      1  C   UNL d   1      -0.553  -0.513   1.628  0.00  0.00     0.124 A 
ATOM      2  C1  UNL d   1      -0.265   0.734   1.091  0.00  0.00     0.062 A 
ATOM      3  C2  UNL d   1       0.349   0.834  -0.154  0.00  0.00     0.162 A 
ATOM      4  C3  UNL d   1       0.679  -0.316  -0.871  0.00  0.00    -0.034 A 
ATOM      5  C4  UNL d   1       0.387  -1.567  -0.324  0.00  0.00     0.162 A 
ATOM      6  C5  UNL d   1      -0.227  -1.662   0.921  0.00  0.00     0.062 A 
ATOM      7  F   UNL d   1      -0.504  -2.867   1.439  0.00  0.00    -0.097 F 
ATOM      8  F1  UNL d   1       0.691  -2.693  -0.986  0.00  0.00    -0.096 F 
ATOM      9  I   UNL d   1       1.598  -0.170  -2.733  0.00  0.00    -0.060 I 
ATOM     10  F2  UNL d   1       0.616   2.052  -0.649  0.00  0.00    -0.096 F 
ATOM     11  F3  UNL d   1      -0.578   1.845   1.773  0.00  0.00    -0.097 F 
ATOM     12  F4  UNL d   1      -1.143  -0.607   2.827  0.00  0.00    -0.092 F 
ENDROOT
TORSDOF 0
ENDMDL
