MODEL 1
REMARK minimizedAffinity -5.06865406
REMARK minimizedRMSD -1
REMARK  0 active torsions:
REMARK  status: ('A' for Active; 'I' for Inactive)
ROOT
ATOM      1  C   UNL d   1      -2.246   0.640   1.031  0.00  0.00     0.077 C 
ATOM      2  C1  UNL d   1      -0.849   1.005   0.625  0.00  0.00    -0.074 A 
ATOM      3  C2  UNL d   1      -0.557   2.274   0.114  0.00  0.00    -0.005 A 
ATOM      4  C3  UNL d   1       0.748   2.602  -0.250  0.00  0.00     0.006 A 
ATOM      5  C4  UNL d   1       1.774   1.666  -0.108  0.00  0.00    -0.005 A 
ATOM      6  C5  UNL d   1       1.501   0.393   0.401  0.00  0.00    -0.074 A 
ATOM      7  C6  UNL d   1       2.593  -0.621   0.569  0.00  0.00     0.077 C 
ATOM      8  C7  UNL d   1       0.188   0.073   0.772  0.00  0.00    -0.001 A 
ENDROOT
TORSDOF 0
ENDMDL
