MODEL 1
REMARK minimizedAffinity -2.51536608
REMARK minimizedRMSD -1
REMARK  0 active torsions:
REMARK  status: ('A' for Active; 'I' for Inactive)
ROOT
ATOM      1  C   UNL d   1       0.165  -1.331  -0.385  0.00  0.00     0.077 C 
ATOM      2  C1  UNL d   1       0.312   0.061   0.152  0.00  0.00    -0.074 A 
ATOM      3  C2  UNL d   1      -0.802   0.893   0.306  0.00  0.00    -0.005 A 
ATOM      4  C3  UNL d   1      -0.651   2.183   0.816  0.00  0.00     0.006 A 
ATOM      5  C4  UNL d   1       0.612   2.652   1.177  0.00  0.00    -0.005 A 
ATOM      6  C5  UNL d   1       1.737   1.834   1.032  0.00  0.00    -0.074 A 
ATOM      7  C6  UNL d   1       3.101   2.319   1.425  0.00  0.00     0.077 C 
ATOM      8  C7  UNL d   1       1.577   0.537   0.525  0.00  0.00    -0.001 A 
ENDROOT
TORSDOF 0
ENDMDL
