MODEL 1
REMARK minimizedAffinity -4.22611475
REMARK minimizedRMSD -1
REMARK  0 active torsions:
REMARK  status: ('A' for Active; 'I' for Inactive)
ROOT
ATOM      1  C   UNL d   1      -0.659   1.546  -0.067  0.00  0.00     0.077 C 
ATOM      2  C1  UNL d   1      -0.269   0.104  -0.205  0.00  0.00    -0.074 A 
ATOM      3  C2  UNL d   1       0.869  -0.398   0.435  0.00  0.00    -0.005 A 
ATOM      4  C3  UNL d   1       1.213  -1.743   0.305  0.00  0.00     0.006 A 
ATOM      5  C4  UNL d   1       0.425  -2.599  -0.466  0.00  0.00    -0.005 A 
ATOM      6  C5  UNL d   1      -0.716  -2.115  -1.113  0.00  0.00    -0.074 A 
ATOM      7  C6  UNL d   1      -1.580  -3.023  -1.937  0.00  0.00     0.077 C 
ATOM      8  C7  UNL d   1      -1.060  -0.763  -0.972  0.00  0.00    -0.001 A 
ENDROOT
TORSDOF 0
ENDMDL
