MODEL 1
REMARK minimizedAffinity -4.18877268
REMARK minimizedRMSD -1
REMARK  0 active torsions:
REMARK  status: ('A' for Active; 'I' for Inactive)
ROOT
ATOM      1  C   UNL d   1       3.015   1.656   0.598  0.00  0.00     0.077 C 
ATOM      2  C1  UNL d   1       1.573   1.341   0.334  0.00  0.00    -0.074 A 
ATOM      3  C2  UNL d   1       0.567   2.260   0.650  0.00  0.00    -0.005 A 
ATOM      4  C3  UNL d   1      -0.769   1.957   0.390  0.00  0.00     0.006 A 
ATOM      5  C4  UNL d   1      -1.113   0.734  -0.188  0.00  0.00    -0.005 A 
ATOM      6  C5  UNL d   1      -0.121  -0.196  -0.512  0.00  0.00    -0.074 A 
ATOM      7  C6  UNL d   1      -0.472  -1.511  -1.143  0.00  0.00     0.077 C 
ATOM      8  C7  UNL d   1       1.220   0.118  -0.254  0.00  0.00    -0.001 A 
ENDROOT
TORSDOF 0
ENDMDL
