MODEL 1
REMARK minimizedAffinity -3.29512644
REMARK minimizedRMSD -1
REMARK  0 active torsions:
REMARK  status: ('A' for Active; 'I' for Inactive)
ROOT
ATOM      1  C   UNL d   1      -0.735  -3.421  -1.707  0.00  0.00     0.077 C 
ATOM      2  C1  UNL d   1      -0.235  -2.319  -0.821  0.00  0.00    -0.074 A 
ATOM      3  C2  UNL d   1       1.033  -2.389  -0.233  0.00  0.00    -0.005 A 
ATOM      4  C3  UNL d   1       1.488  -1.353   0.582  0.00  0.00     0.006 A 
ATOM      5  C4  UNL d   1       0.683  -0.238   0.816  0.00  0.00    -0.005 A 
ATOM      6  C5  UNL d   1      -0.587  -0.150   0.236  0.00  0.00    -0.074 A 
ATOM      7  C6  UNL d   1      -1.461   1.046   0.470  0.00  0.00     0.077 C 
ATOM      8  C7  UNL d   1      -1.035  -1.192  -0.586  0.00  0.00    -0.001 A 
ENDROOT
TORSDOF 0
ENDMDL
