MODEL 1
REMARK minimizedAffinity -3.16859937
REMARK minimizedRMSD -1
REMARK  0 active torsions:
REMARK  status: ('A' for Active; 'I' for Inactive)
ROOT
ATOM      1  C   UNL d   1      -0.285  -3.349  -0.683  0.00  0.00     0.077 C 
ATOM      2  C1  UNL d   1       0.142  -1.960  -0.313  0.00  0.00    -0.074 A 
ATOM      3  C2  UNL d   1       1.492  -1.652  -0.112  0.00  0.00    -0.005 A 
ATOM      4  C3  UNL d   1       1.875  -0.353   0.222  0.00  0.00     0.006 A 
ATOM      5  C4  UNL d   1       0.914   0.649   0.359  0.00  0.00    -0.005 A 
ATOM      6  C5  UNL d   1      -0.440   0.361   0.161  0.00  0.00    -0.074 A 
ATOM      7  C6  UNL d   1      -1.484   1.429   0.294  0.00  0.00     0.077 C 
ATOM      8  C7  UNL d   1      -0.816  -0.945  -0.182  0.00  0.00    -0.001 A 
ENDROOT
TORSDOF 0
ENDMDL
