MODEL 1
REMARK minimizedAffinity -4.041327
REMARK minimizedRMSD -1
REMARK  0 active torsions:
REMARK  status: ('A' for Active; 'I' for Inactive)
ROOT
ATOM      1  C   UNL d   1       0.692   3.574   0.298  0.00  0.00     0.077 C 
ATOM      2  C1  UNL d   1      -0.172   2.354   0.417  0.00  0.00    -0.074 A 
ATOM      3  C2  UNL d   1      -1.510   2.456   0.810  0.00  0.00    -0.005 A 
ATOM      4  C3  UNL d   1      -2.304   1.313   0.907  0.00  0.00     0.006 A 
ATOM      5  C4  UNL d   1      -1.768   0.059   0.612  0.00  0.00    -0.005 A 
ATOM      6  C5  UNL d   1      -0.433  -0.063   0.216  0.00  0.00    -0.074 A 
ATOM      7  C6  UNL d   1       0.156  -1.402  -0.114  0.00  0.00     0.077 C 
ATOM      8  C7  UNL d   1       0.357   1.091   0.115  0.00  0.00    -0.001 A 
ENDROOT
TORSDOF 0
ENDMDL
