MODEL 1
REMARK minimizedAffinity -1.94349408
REMARK minimizedRMSD -1
REMARK  0 active torsions:
REMARK  status: ('A' for Active; 'I' for Inactive)
ROOT
ATOM      1  C   UNL d   1       2.948   2.514   1.231  0.00  0.00     0.077 C 
ATOM      2  C1  UNL d   1       1.633   1.867   0.912  0.00  0.00    -0.074 A 
ATOM      3  C2  UNL d   1       0.441   2.595   0.974  0.00  0.00    -0.005 A 
ATOM      4  C3  UNL d   1      -0.774   1.982   0.665  0.00  0.00     0.006 A 
ATOM      5  C4  UNL d   1      -0.808   0.638   0.291  0.00  0.00    -0.005 A 
ATOM      6  C5  UNL d   1       0.375  -0.105   0.222  0.00  0.00    -0.074 A 
ATOM      7  C6  UNL d   1       0.357  -1.548  -0.188  0.00  0.00     0.077 C 
ATOM      8  C7  UNL d   1       1.592   0.519   0.528  0.00  0.00    -0.001 A 
ENDROOT
TORSDOF 0
ENDMDL
