MODEL 1
REMARK minimizedAffinity -3.90578222
REMARK minimizedRMSD -1
REMARK  0 active torsions:
REMARK  status: ('A' for Active; 'I' for Inactive)
ROOT
ATOM      1  C   UNL d   1       2.932   2.702   1.402  0.00  0.00     0.077 C 
ATOM      2  C1  UNL d   1       1.571   2.270   0.943  0.00  0.00    -0.074 A 
ATOM      3  C2  UNL d   1       0.489   3.156   0.970  0.00  0.00    -0.005 A 
ATOM      4  C3  UNL d   1      -0.769   2.744   0.531  0.00  0.00     0.006 A 
ATOM      5  C4  UNL d   1      -0.957   1.444   0.061  0.00  0.00    -0.005 A 
ATOM      6  C5  UNL d   1       0.113   0.544   0.025  0.00  0.00    -0.074 A 
ATOM      7  C6  UNL d   1      -0.071  -0.854  -0.486  0.00  0.00     0.077 C 
ATOM      8  C7  UNL d   1       1.375   0.968   0.462  0.00  0.00    -0.001 A 
ENDROOT
TORSDOF 0
ENDMDL
