MODEL 1
REMARK minimizedAffinity -1.74260759
REMARK minimizedRMSD -1
REMARK  0 active torsions:
REMARK  status: ('A' for Active; 'I' for Inactive)
ROOT
ATOM      1  C   UNL d   1      -0.349  -1.308  -0.264  0.00  0.00     0.077 C 
ATOM      2  C1  UNL d   1      -0.333   0.140   0.129  0.00  0.00    -0.074 A 
ATOM      3  C2  UNL d   1      -1.491   0.920   0.046  0.00  0.00    -0.005 A 
ATOM      4  C3  UNL d   1      -1.463   2.262   0.424  0.00  0.00     0.006 A 
ATOM      5  C4  UNL d   1      -0.279   2.837   0.887  0.00  0.00    -0.005 A 
ATOM      6  C5  UNL d   1       0.888   2.073   0.977  0.00  0.00    -0.074 A 
ATOM      7  C6  UNL d   1       2.167   2.673   1.481  0.00  0.00     0.077 C 
ATOM      8  C7  UNL d   1       0.851   0.723   0.602  0.00  0.00    -0.001 A 
ENDROOT
TORSDOF 0
ENDMDL
