MODEL 1
REMARK minimizedAffinity -3.68424892
REMARK minimizedRMSD -1
REMARK  0 active torsions:
REMARK  status: ('A' for Active; 'I' for Inactive)
ROOT
ATOM      1  C   UNL d   1       1.859   0.288   0.730  0.00  0.00     0.077 C 
ATOM      2  C1  UNL d   1       0.484  -0.125   0.299  0.00  0.00    -0.074 A 
ATOM      3  C2  UNL d   1      -0.599   0.752   0.411  0.00  0.00    -0.005 A 
ATOM      4  C3  UNL d   1      -1.871   0.357  -0.003  0.00  0.00     0.006 A 
ATOM      5  C4  UNL d   1      -2.073  -0.919  -0.532  0.00  0.00    -0.005 A 
ATOM      6  C5  UNL d   1      -1.002  -1.810  -0.653  0.00  0.00    -0.074 A 
ATOM      7  C6  UNL d   1      -1.199  -3.181  -1.228  0.00  0.00     0.077 C 
ATOM      8  C7  UNL d   1       0.275  -1.402  -0.241  0.00  0.00    -0.001 A 
ENDROOT
TORSDOF 0
ENDMDL
