MODEL 1
REMARK minimizedAffinity -2.05767059
REMARK minimizedRMSD -1
REMARK  0 active torsions:
REMARK  status: ('A' for Active; 'I' for Inactive)
ROOT
ATOM      1  C   UNL d   1      -0.518  -2.659  -0.566  0.00  0.00     0.077 C 
ATOM      2  C1  UNL d   1       0.085  -1.352  -0.145  0.00  0.00    -0.074 A 
ATOM      3  C2  UNL d   1       1.438  -1.262   0.197  0.00  0.00    -0.005 A 
ATOM      4  C3  UNL d   1       1.988  -0.038   0.578  0.00  0.00     0.006 A 
ATOM      5  C4  UNL d   1       1.191   1.107   0.621  0.00  0.00    -0.005 A 
ATOM      6  C5  UNL d   1      -0.163   1.037   0.281  0.00  0.00    -0.074 A 
ATOM      7  C6  UNL d   1      -1.031   2.259   0.312  0.00  0.00     0.077 C 
ATOM      8  C7  UNL d   1      -0.707  -0.196  -0.107  0.00  0.00    -0.001 A 
ENDROOT
TORSDOF 0
ENDMDL
