MODEL 1
REMARK minimizedAffinity -4.91839218
REMARK minimizedRMSD -1
REMARK  0 active torsions:
REMARK  status: ('A' for Active; 'I' for Inactive)
ROOT
ATOM      1  C   UNL d   1      -2.596   1.619   0.449  0.00  0.00     0.077 C 
ATOM      2  C1  UNL d   1      -1.121   1.629   0.179  0.00  0.00    -0.074 A 
ATOM      3  C2  UNL d   1      -0.497   2.756  -0.365  0.00  0.00    -0.005 A 
ATOM      4  C3  UNL d   1       0.878   2.754  -0.601  0.00  0.00     0.006 A 
ATOM      5  C4  UNL d   1       1.641   1.627  -0.296  0.00  0.00    -0.005 A 
ATOM      6  C5  UNL d   1       1.035   0.491   0.249  0.00  0.00    -0.074 A 
ATOM      7  C6  UNL d   1       1.843  -0.726   0.592  0.00  0.00     0.077 C 
ATOM      8  C7  UNL d   1      -0.345   0.503   0.490  0.00  0.00    -0.001 A 
ENDROOT
TORSDOF 0
ENDMDL
