MODEL 1
REMARK minimizedAffinity 1.90487921
REMARK minimizedRMSD -1
REMARK  0 active torsions:
REMARK  status: ('A' for Active; 'I' for Inactive)
ROOT
ATOM      1  C1  DEN d   1      -1.151   3.356  -4.841  0.00  0.00     0.130 A 
ATOM      2  C2  DEN d   1      -1.461   1.950  -5.082  0.00  0.00    -0.031 A 
ATOM      3  C3  DEN d   1      -2.850   1.866  -5.577  0.00  0.00     0.027 A 
ATOM      4  C4  DEN d   1      -4.540   3.768  -5.997  0.00  0.00     0.027 A 
ATOM      5  C5  DEN d   1      -4.738   5.129  -5.927  0.00  0.00    -0.003 A 
ATOM      6  C6  DEN d   1      -3.775   5.985  -5.462  0.00  0.00     0.001 A 
ATOM      7  C7  DEN d   1      -2.552   5.492  -5.091  0.00  0.00     0.017 A 
ATOM      8  C8  DEN d   1      -2.347   4.120  -5.152  0.00  0.00    -0.094 A 
ATOM      9  C9  DEN d   1      -3.329   3.273  -5.636  0.00  0.00    -0.072 A 
ENDROOT
TORSDOF 0
ENDMDL
