MODEL 1
REMARK minimizedAffinity -0.382736474
REMARK minimizedRMSD -1
REMARK  0 active torsions:
REMARK  status: ('A' for Active; 'I' for Inactive)
ROOT
ATOM      1  C1  DEN d   1       0.088   2.772   0.996  0.00  0.00     0.130 A 
ATOM      2  C2  DEN d   1      -1.361   2.715   1.169  0.00  0.00    -0.031 A 
ATOM      3  C3  DEN d   1      -1.781   1.305   1.037  0.00  0.00     0.027 A 
ATOM      4  C4  DEN d   1      -0.336  -0.784   0.589  0.00  0.00     0.027 A 
ATOM      5  C5  DEN d   1       0.945  -1.234   0.360  0.00  0.00    -0.003 A 
ATOM      6  C6  DEN d   1       2.017  -0.384   0.293  0.00  0.00     0.001 A 
ATOM      7  C7  DEN d   1       1.834   0.957   0.503  0.00  0.00     0.017 A 
ATOM      8  C8  DEN d   1       0.544   1.420   0.727  0.00  0.00    -0.094 A 
ATOM      9  C9  DEN d   1      -0.525   0.543   0.803  0.00  0.00    -0.072 A 
ENDROOT
TORSDOF 0
ENDMDL
