MODEL 1
REMARK minimizedAffinity 2.3442409
REMARK minimizedRMSD -1
REMARK  0 active torsions:
REMARK  status: ('A' for Active; 'I' for Inactive)
ROOT
ATOM      1  C1  DEN d   1       1.641   3.389   1.981  0.00  0.00     0.130 A 
ATOM      2  C2  DEN d   1       2.945   2.732   2.006  0.00  0.00    -0.031 A 
ATOM      3  C3  DEN d   1       2.794   1.394   1.398  0.00  0.00     0.027 A 
ATOM      4  C4  DEN d   1       0.679   0.286   0.422  0.00  0.00     0.027 A 
ATOM      5  C5  DEN d   1      -0.668   0.450   0.188  0.00  0.00    -0.003 A 
ATOM      6  C6  DEN d   1      -1.342   1.582   0.563  0.00  0.00     0.001 A 
ATOM      7  C7  DEN d   1      -0.660   2.614   1.152  0.00  0.00     0.017 A 
ATOM      8  C8  DEN d   1       0.697   2.453   1.398  0.00  0.00    -0.094 A 
ATOM      9  C9  DEN d   1       1.363   1.306   1.000  0.00  0.00    -0.072 A 
ENDROOT
TORSDOF 0
ENDMDL
