MODEL 1
REMARK minimizedAffinity -0.974757731
REMARK minimizedRMSD -1
REMARK  0 active torsions:
REMARK  status: ('A' for Active; 'I' for Inactive)
ROOT
ATOM      1  C1  DEN d   1      -1.374   0.287  -0.697  0.00  0.00     0.130 A 
ATOM      2  C2  DEN d   1      -1.707   0.707   0.662  0.00  0.00    -0.031 A 
ATOM      3  C3  DEN d   1      -0.445   0.891   1.406  0.00  0.00     0.027 A 
ATOM      4  C4  DEN d   1       1.981   0.571   0.590  0.00  0.00     0.027 A 
ATOM      5  C5  DEN d   1       2.766   0.210  -0.483  0.00  0.00    -0.003 A 
ATOM      6  C6  DEN d   1       2.230  -0.179  -1.682  0.00  0.00     0.001 A 
ATOM      7  C7  DEN d   1       0.870  -0.174  -1.851  0.00  0.00     0.017 A 
ATOM      8  C8  DEN d   1       0.072   0.181  -0.772  0.00  0.00    -0.094 A 
ATOM      9  C9  DEN d   1       0.633   0.583   0.428  0.00  0.00    -0.072 A 
ENDROOT
TORSDOF 0
ENDMDL
