MODEL 1
REMARK minimizedAffinity -1.2679534
REMARK minimizedRMSD -1
REMARK  0 active torsions:
REMARK  status: ('A' for Active; 'I' for Inactive)
ROOT
ATOM      1  C1  DEN d   1       0.648  -1.063   0.787  0.00  0.00     0.130 A 
ATOM      2  C2  DEN d   1       1.908  -0.340   0.635  0.00  0.00    -0.031 A 
ATOM      3  C3  DEN d   1       1.608   1.106   0.645  0.00  0.00     0.027 A 
ATOM      4  C4  DEN d   1      -0.671   2.289   0.885  0.00  0.00     0.027 A 
ATOM      5  C5  DEN d   1      -2.027   2.094   1.028  0.00  0.00    -0.003 A 
ATOM      6  C6  DEN d   1      -2.586   0.844   1.066  0.00  0.00     0.001 A 
ATOM      7  C7  DEN d   1      -1.779  -0.262   1.005  0.00  0.00     0.017 A 
ATOM      8  C8  DEN d   1      -0.412  -0.074   0.854  0.00  0.00    -0.094 A 
ATOM      9  C9  DEN d   1       0.135   1.198   0.829  0.00  0.00    -0.072 A 
ENDROOT
TORSDOF 0
ENDMDL
