MODEL 1
REMARK minimizedAffinity 1.24820805
REMARK minimizedRMSD -1
REMARK  0 active torsions:
REMARK  status: ('A' for Active; 'I' for Inactive)
ROOT
ATOM      1  C1  DEN d   1      -1.360  -0.140   0.570  0.00  0.00     0.130 A 
ATOM      2  C2  DEN d   1      -2.593   0.590   0.852  0.00  0.00    -0.031 A 
ATOM      3  C3  DEN d   1      -2.227   1.942   1.318  0.00  0.00     0.027 A 
ATOM      4  C4  DEN d   1       0.117   2.974   1.623  0.00  0.00     0.027 A 
ATOM      5  C5  DEN d   1       1.470   2.737   1.522  0.00  0.00    -0.003 A 
ATOM      6  C6  DEN d   1       1.971   1.523   1.132  0.00  0.00     0.001 A 
ATOM      7  C7  DEN d   1       1.112   0.514   0.785  0.00  0.00     0.017 A 
ATOM      8  C8  DEN d   1      -0.253   0.743   0.892  0.00  0.00    -0.094 A 
ATOM      9  C9  DEN d   1      -0.740   1.981   1.276  0.00  0.00    -0.072 A 
ENDROOT
TORSDOF 0
ENDMDL
