MODEL 1
REMARK minimizedAffinity 5.0730896
REMARK minimizedRMSD -1
REMARK  0 active torsions:
REMARK  status: ('A' for Active; 'I' for Inactive)
ROOT
ATOM      1  C1  DEN d   1       1.359   0.388   0.726  0.00  0.00     0.130 A 
ATOM      2  C2  DEN d   1       2.160   1.539   1.134  0.00  0.00    -0.031 A 
ATOM      3  C3  DEN d   1       1.236   2.623   1.522  0.00  0.00     0.027 A 
ATOM      4  C4  DEN d   1      -1.343   2.630   1.537  0.00  0.00     0.027 A 
ATOM      5  C5  DEN d   1      -2.469   1.885   1.263  0.00  0.00    -0.003 A 
ATOM      6  C6  DEN d   1      -2.399   0.612   0.763  0.00  0.00     0.001 A 
ATOM      7  C7  DEN d   1      -1.176   0.028   0.564  0.00  0.00     0.017 A 
ATOM      8  C8  DEN d   1      -0.036   0.775   0.830  0.00  0.00    -0.094 A 
ATOM      9  C9  DEN d   1      -0.128   2.056   1.347  0.00  0.00    -0.072 A 
ENDROOT
TORSDOF 0
ENDMDL
