MODEL 1
REMARK minimizedAffinity 4.86608601
REMARK minimizedRMSD -1
REMARK  0 active torsions:
REMARK  status: ('A' for Active; 'I' for Inactive)
ROOT
ATOM      1  C1  DEN d   1      -0.908   3.385   0.563  0.00  0.00     0.130 A 
ATOM      2  C2  DEN d   1       0.522   3.192   0.787  0.00  0.00    -0.031 A 
ATOM      3  C3  DEN d   1       0.751   1.759   1.063  0.00  0.00     0.027 A 
ATOM      4  C4  DEN d   1      -0.959  -0.169   1.159  0.00  0.00     0.027 A 
ATOM      5  C5  DEN d   1      -2.293  -0.492   1.047  0.00  0.00    -0.003 A 
ATOM      6  C6  DEN d   1      -3.256   0.451   0.802  0.00  0.00     0.001 A 
ATOM      7  C7  DEN d   1      -2.892   1.759   0.616  0.00  0.00     0.017 A 
ATOM      8  C8  DEN d   1      -1.550   2.094   0.734  0.00  0.00    -0.094 A 
ATOM      9  C9  DEN d   1      -0.591   1.124   0.970  0.00  0.00    -0.072 A 
ENDROOT
TORSDOF 0
ENDMDL
