MODEL 1
REMARK minimizedAffinity 0.212018535
REMARK minimizedRMSD -1
REMARK  0 active torsions:
REMARK  status: ('A' for Active; 'I' for Inactive)
ROOT
ATOM      1  C1  DEN d   1       2.349   1.588   1.470  0.00  0.00     0.130 A 
ATOM      2  C2  DEN d   1       2.509   3.009   1.770  0.00  0.00    -0.031 A 
ATOM      3  C3  DEN d   1       1.180   3.647   1.677  0.00  0.00     0.027 A 
ATOM      4  C4  DEN d   1      -1.097   2.579   1.106  0.00  0.00     0.027 A 
ATOM      5  C5  DEN d   1      -1.732   1.405   0.765  0.00  0.00    -0.003 A 
ATOM      6  C6  DEN d   1      -1.053   0.227   0.604  0.00  0.00     0.001 A 
ATOM      7  C7  DEN d   1       0.298   0.187   0.827  0.00  0.00     0.017 A 
ATOM      8  C8  DEN d   1       0.947   1.368   1.164  0.00  0.00    -0.094 A 
ATOM      9  C9  DEN d   1       0.241   2.546   1.334  0.00  0.00    -0.072 A 
ENDROOT
TORSDOF 0
ENDMDL
