MODEL 1
REMARK minimizedAffinity 1.36694181
REMARK minimizedRMSD -1
REMARK  0 active torsions:
REMARK  status: ('A' for Active; 'I' for Inactive)
ROOT
ATOM      1  C1  DEN d   1      -5.255   4.741  -5.567  0.00  0.00     0.130 A 
ATOM      2  C2  DEN d   1      -5.487   3.365  -5.999  0.00  0.00    -0.031 A 
ATOM      3  C3  DEN d   1      -4.189   2.662  -6.000  0.00  0.00     0.027 A 
ATOM      4  C4  DEN d   1      -1.855   3.563  -5.372  0.00  0.00     0.027 A 
ATOM      5  C5  DEN d   1      -1.156   4.673  -4.954  0.00  0.00    -0.003 A 
ATOM      6  C6  DEN d   1      -1.763   5.883  -4.746  0.00  0.00     0.001 A 
ATOM      7  C7  DEN d   1      -3.118   6.000  -4.912  0.00  0.00     0.017 A 
ATOM      8  C8  DEN d   1      -3.829   4.886  -5.339  0.00  0.00    -0.094 A 
ATOM      9  C9  DEN d   1      -3.198   3.669  -5.533  0.00  0.00    -0.072 A 
ENDROOT
TORSDOF 0
ENDMDL
