MODEL 1
REMARK minimizedAffinity 2.30950689
REMARK minimizedRMSD -1
REMARK  0 active torsions:
REMARK  status: ('A' for Active; 'I' for Inactive)
ROOT
ATOM      1  C1  DEN d   1       1.484  -0.758   0.579  0.00  0.00     0.130 A 
ATOM      2  C2  DEN d   1       2.732  -0.026   0.781  0.00  0.00    -0.031 A 
ATOM      3  C3  DEN d   1       2.392   1.358   1.169  0.00  0.00     0.027 A 
ATOM      4  C4  DEN d   1       0.068   2.432   1.479  0.00  0.00     0.027 A 
ATOM      5  C5  DEN d   1      -1.290   2.210   1.408  0.00  0.00    -0.003 A 
ATOM      6  C6  DEN d   1      -1.814   1.003   1.026  0.00  0.00     0.001 A 
ATOM      7  C7  DEN d   1      -0.974  -0.042   0.744  0.00  0.00     0.017 A 
ATOM      8  C8  DEN d   1       0.396   0.176   0.806  0.00  0.00    -0.094 A 
ATOM      9  C9  DEN d   1       0.905   1.399   1.206  0.00  0.00    -0.072 A 
ENDROOT
TORSDOF 0
ENDMDL
