MODEL 1
REMARK minimizedAffinity 2.41412568
REMARK minimizedRMSD -1
REMARK  0 active torsions:
REMARK  status: ('A' for Active; 'I' for Inactive)
ROOT
ATOM      1  C1  DEN d   1      -0.821   2.404   1.037  0.00  0.00     0.130 A 
ATOM      2  C2  DEN d   1      -2.227   2.088   1.268  0.00  0.00    -0.031 A 
ATOM      3  C3  DEN d   1      -2.363   0.618   1.316  0.00  0.00     0.027 A 
ATOM      4  C4  DEN d   1      -0.539  -1.189   1.063  0.00  0.00     0.027 A 
ATOM      5  C5  DEN d   1       0.803  -1.406   0.841  0.00  0.00    -0.003 A 
ATOM      6  C6  DEN d   1       1.685  -0.378   0.637  0.00  0.00     0.001 A 
ATOM      7  C7  DEN d   1       1.243   0.918   0.696  0.00  0.00     0.017 A 
ATOM      8  C8  DEN d   1      -0.110   1.144   0.911  0.00  0.00    -0.094 A 
ATOM      9  C9  DEN d   1      -0.984   0.092   1.127  0.00  0.00    -0.072 A 
ENDROOT
TORSDOF 0
ENDMDL
