MODEL 1
REMARK minimizedAffinity 7.51712847
REMARK minimizedRMSD -1
REMARK  0 active torsions:
REMARK  status: ('A' for Active; 'I' for Inactive)
ROOT
ATOM      1  C1  DEN d   1       1.306  -1.441  -1.524  0.00  0.00     0.130 A 
ATOM      2  C2  DEN d   1       2.375  -0.478  -1.772  0.00  0.00    -0.031 A 
ATOM      3  C3  DEN d   1       2.129   0.706  -0.924  0.00  0.00     0.027 A 
ATOM      4  C4  DEN d   1       0.209   1.136   0.744  0.00  0.00     0.027 A 
ATOM      5  C5  DEN d   1      -0.944   0.614   1.287  0.00  0.00    -0.003 A 
ATOM      6  C6  DEN d   1      -1.442  -0.605   0.910  0.00  0.00     0.001 A 
ATOM      7  C7  DEN d   1      -0.761  -1.363  -0.005  0.00  0.00     0.017 A 
ATOM      8  C8  DEN d   1       0.399  -0.840  -0.563  0.00  0.00    -0.094 A 
ATOM      9  C9  DEN d   1       0.893   0.389  -0.159  0.00  0.00    -0.072 A 
ENDROOT
TORSDOF 0
ENDMDL
