MODEL 1
REMARK minimizedAffinity 8.1721611
REMARK minimizedRMSD -1
REMARK  0 active torsions:
REMARK  status: ('A' for Active; 'I' for Inactive)
ROOT
ATOM      1  C1  DEN d   1       1.184   2.243   1.253  0.00  0.00     0.130 A 
ATOM      2  C2  DEN d   1       2.056   1.109   0.960  0.00  0.00    -0.031 A 
ATOM      3  C3  DEN d   1       1.209  -0.014   0.511  0.00  0.00     0.027 A 
ATOM      4  C4  DEN d   1      -1.354  -0.105   0.238  0.00  0.00     0.027 A 
ATOM      5  C5  DEN d   1      -2.524   0.610   0.376  0.00  0.00    -0.003 A 
ATOM      6  C6  DEN d   1      -2.542   1.897   0.844  0.00  0.00     0.001 A 
ATOM      7  C7  DEN d   1      -1.364   2.525   1.149  0.00  0.00     0.017 A 
ATOM      8  C8  DEN d   1      -0.181   1.809   1.020  0.00  0.00    -0.094 A 
ATOM      9  C9  DEN d   1      -0.182   0.513   0.533  0.00  0.00    -0.072 A 
ENDROOT
TORSDOF 0
ENDMDL
