MODEL 1
REMARK minimizedAffinity 18.5076122
REMARK minimizedRMSD -1
REMARK  0 active torsions:
REMARK  status: ('A' for Active; 'I' for Inactive)
ROOT
ATOM      1  C1  DEN d   1       1.943  -0.980  -1.775  0.00  0.00     0.130 A 
ATOM      2  C2  DEN d   1       1.588   0.052  -2.745  0.00  0.00    -0.031 A 
ATOM      3  C3  DEN d   1       2.811   0.422  -3.486  0.00  0.00     0.027 A 
ATOM      4  C4  DEN d   1       5.206  -0.502  -3.229  0.00  0.00     0.027 A 
ATOM      5  C5  DEN d   1       6.000  -1.382  -2.527  0.00  0.00    -0.003 A 
ATOM      6  C6  DEN d   1       5.509  -2.158  -1.512  0.00  0.00     0.001 A 
ATOM      7  C7  DEN d   1       4.177  -2.103  -1.198  0.00  0.00     0.017 A 
ATOM      8  C8  DEN d   1       3.371  -1.213  -1.896  0.00  0.00    -0.094 A 
ATOM      9  C9  DEN d   1       3.884  -0.445  -2.927  0.00  0.00    -0.072 A 
ENDROOT
TORSDOF 0
ENDMDL
