MODEL 1
REMARK minimizedAffinity 12.741271
REMARK minimizedRMSD -1
REMARK  0 active torsions:
REMARK  status: ('A' for Active; 'I' for Inactive)
ROOT
ATOM      1  C1  DEN d   1       1.115  -0.290  -1.812  0.00  0.00     0.130 A 
ATOM      2  C2  DEN d   1       2.456  -0.856  -1.933  0.00  0.00    -0.031 A 
ATOM      3  C3  DEN d   1       3.164  -0.129  -3.006  0.00  0.00     0.027 A 
ATOM      4  C4  DEN d   1       2.319   1.811  -4.481  0.00  0.00     0.027 A 
ATOM      5  C5  DEN d   1       1.244   2.626  -4.756  0.00  0.00    -0.003 A 
ATOM      6  C6  DEN d   1       0.048   2.505  -4.098  0.00  0.00     0.001 A 
ATOM      7  C7  DEN d   1      -0.086   1.576  -3.099  0.00  0.00     0.017 A 
ATOM      8  C8  DEN d   1       0.992   0.746  -2.822  0.00  0.00    -0.094 A 
ATOM      9  C9  DEN d   1       2.196   0.892  -3.490  0.00  0.00    -0.072 A 
ENDROOT
TORSDOF 0
ENDMDL
