MODEL 1
REMARK minimizedAffinity 2.50799608
REMARK minimizedRMSD -1
REMARK  0 active torsions:
REMARK  status: ('A' for Active; 'I' for Inactive)
ROOT
ATOM      1  C1  DEN d   1       1.882   1.759  -0.257  0.00  0.00     0.130 A 
ATOM      2  C2  DEN d   1       1.656   1.041   0.995  0.00  0.00    -0.031 A 
ATOM      3  C3  DEN d   1       1.883  -0.396   0.744  0.00  0.00     0.027 A 
ATOM      4  C4  DEN d   1       2.564  -1.573  -1.448  0.00  0.00     0.027 A 
ATOM      5  C5  DEN d   1       2.858  -1.382  -2.780  0.00  0.00    -0.003 A 
ATOM      6  C6  DEN d   1       2.816  -0.146  -3.367  0.00  0.00     0.001 A 
ATOM      7  C7  DEN d   1       2.514   0.955  -2.610  0.00  0.00     0.017 A 
ATOM      8  C8  DEN d   1       2.209   0.770  -1.268  0.00  0.00    -0.094 A 
ATOM      9  C9  DEN d   1       2.269  -0.487  -0.690  0.00  0.00    -0.072 A 
ENDROOT
TORSDOF 0
ENDMDL
