MODEL 1
REMARK minimizedAffinity 11.4548359
REMARK minimizedRMSD -1
REMARK  0 active torsions:
REMARK  status: ('A' for Active; 'I' for Inactive)
ROOT
ATOM      1  C1  DEN d   1      -0.265  -0.656   0.578  0.00  0.00     0.130 A 
ATOM      2  C2  DEN d   1       1.057  -0.035   0.597  0.00  0.00    -0.031 A 
ATOM      3  C3  DEN d   1       0.875   1.420   0.775  0.00  0.00     0.027 A 
ATOM      4  C4  DEN d   1      -1.313   2.763   1.026  0.00  0.00     0.027 A 
ATOM      5  C5  DEN d   1      -2.687   2.674   1.061  0.00  0.00    -0.003 A 
ATOM      6  C6  DEN d   1      -3.346   1.483   0.904  0.00  0.00     0.001 A 
ATOM      7  C7  DEN d   1      -2.629   0.326   0.750  0.00  0.00     0.017 A 
ATOM      8  C8  DEN d   1      -1.243   0.408   0.707  0.00  0.00    -0.094 A 
ATOM      9  C9  DEN d   1      -0.596   1.620   0.880  0.00  0.00    -0.072 A 
ENDROOT
TORSDOF 0
ENDMDL
