MODEL 1
REMARK minimizedAffinity 6.95988464
REMARK minimizedRMSD -1
REMARK  0 active torsions:
REMARK  status: ('A' for Active; 'I' for Inactive)
ROOT
ATOM      1  C   UNL d   1       2.324  -5.856  -2.376  0.00  0.00     0.124 A 
ATOM      2  C1  UNL d   1       3.681  -5.908  -2.090  0.00  0.00     0.062 A 
ATOM      3  C2  UNL d   1       4.613  -5.949  -3.123  0.00  0.00     0.162 A 
ATOM      4  C3  UNL d   1       4.191  -5.938  -4.452  0.00  0.00    -0.034 A 
ATOM      5  C4  UNL d   1       2.825  -5.886  -4.732  0.00  0.00     0.162 A 
ATOM      6  C5  UNL d   1       1.897  -5.845  -3.696  0.00  0.00     0.062 A 
ATOM      7  F   UNL d   1       0.586  -5.794  -3.975  0.00  0.00    -0.097 F 
ATOM      8  F1  UNL d   1       2.384  -5.873  -5.999  0.00  0.00    -0.096 F 
ATOM      9  I   UNL d   1       5.582  -5.999  -5.999  0.00  0.00    -0.060 I 
ATOM     10  F2  UNL d   1       5.918  -5.999  -2.817  0.00  0.00    -0.096 F 
ATOM     11  F3  UNL d   1       4.096  -5.919  -0.815  0.00  0.00    -0.097 F 
ATOM     12  F4  UNL d   1       1.429  -5.817  -1.380  0.00  0.00    -0.092 F 
ENDROOT
TORSDOF 0
ENDMDL
