MODEL 1
REMARK minimizedAffinity 5.7425251
REMARK minimizedRMSD -1
REMARK  0 active torsions:
REMARK  status: ('A' for Active; 'I' for Inactive)
ROOT
ATOM      1  C   UNL d   1       2.375  -5.475  -2.386  0.00  0.00     0.124 A 
ATOM      2  C1  UNL d   1       3.711  -5.517  -2.011  0.00  0.00     0.062 A 
ATOM      3  C2  UNL d   1       4.704  -5.661  -2.976  0.00  0.00     0.162 A 
ATOM      4  C3  UNL d   1       4.366  -5.764  -4.325  0.00  0.00    -0.034 A 
ATOM      5  C4  UNL d   1       3.020  -5.722  -4.694  0.00  0.00     0.162 A 
ATOM      6  C5  UNL d   1       2.031  -5.578  -3.726  0.00  0.00     0.062 A 
ATOM      7  F   UNL d   1       0.741  -5.538  -4.090  0.00  0.00    -0.097 F 
ATOM      8  F1  UNL d   1       2.659  -5.818  -5.982  0.00  0.00    -0.096 F 
ATOM      9  I   UNL d   1       5.848  -5.979  -5.770  0.00  0.00    -0.060 I 
ATOM     10  F2  UNL d   1       5.987  -5.698  -2.585  0.00  0.00    -0.096 F 
ATOM     11  F3  UNL d   1       4.046  -5.419  -0.717  0.00  0.00    -0.097 F 
ATOM     12  F4  UNL d   1       1.422  -5.338  -1.456  0.00  0.00    -0.092 F 
ENDROOT
TORSDOF 0
ENDMDL
