MODEL 1
REMARK minimizedAffinity 7.66955948
REMARK minimizedRMSD -1
REMARK  0 active torsions:
REMARK  status: ('A' for Active; 'I' for Inactive)
ROOT
ATOM      1  C   UNL d   1       2.211  -5.976  -2.338  0.00  0.00     0.124 A 
ATOM      2  C1  UNL d   1       1.870  -5.963  -3.683  0.00  0.00     0.062 A 
ATOM      3  C2  UNL d   1       2.863  -5.942  -4.657  0.00  0.00     0.162 A 
ATOM      4  C3  UNL d   1       4.209  -5.935  -4.290  0.00  0.00    -0.034 A 
ATOM      5  C4  UNL d   1       4.545  -5.948  -2.935  0.00  0.00     0.162 A 
ATOM      6  C5  UNL d   1       3.548  -5.969  -1.965  0.00  0.00     0.062 A 
ATOM      7  F   UNL d   1       3.880  -5.982  -0.666  0.00  0.00    -0.097 F 
ATOM      8  F1  UNL d   1       5.829  -5.942  -2.547  0.00  0.00    -0.096 F 
ATOM      9  I   UNL d   1       5.698  -5.903  -5.744  0.00  0.00    -0.060 I 
ATOM     10  F2  UNL d   1       2.504  -5.929  -5.950  0.00  0.00    -0.096 F 
ATOM     11  F3  UNL d   1       0.579  -5.969  -4.046  0.00  0.00    -0.097 F 
ATOM     12  F4  UNL d   1       1.253  -5.996  -1.403  0.00  0.00    -0.092 F 
ENDROOT
TORSDOF 0
ENDMDL
