MODEL 1
REMARK minimizedAffinity -1.44685304
REMARK minimizedRMSD -1
REMARK  0 active torsions:
REMARK  status: ('A' for Active; 'I' for Inactive)
ROOT
ATOM      1  C   UNL d   1       2.396  -5.987  -2.363  0.00  0.00     0.124 A 
ATOM      2  C1  UNL d   1       3.755  -5.988  -2.083  0.00  0.00     0.062 A 
ATOM      3  C2  UNL d   1       4.684  -5.980  -3.119  0.00  0.00     0.162 A 
ATOM      4  C3  UNL d   1       4.257  -5.969  -4.447  0.00  0.00    -0.034 A 
ATOM      5  C4  UNL d   1       2.888  -5.968  -4.721  0.00  0.00     0.162 A 
ATOM      6  C5  UNL d   1       1.964  -5.977  -3.682  0.00  0.00     0.062 A 
ATOM      7  F   UNL d   1       0.651  -5.975  -3.955  0.00  0.00    -0.097 F 
ATOM      8  F1  UNL d   1       2.442  -5.957  -5.986  0.00  0.00    -0.096 F 
ATOM      9  I   UNL d   1       5.642  -5.956  -6.000  0.00  0.00    -0.060 I 
ATOM     10  F2  UNL d   1       5.991  -5.982  -2.819  0.00  0.00    -0.096 F 
ATOM     11  F3  UNL d   1       4.176  -5.999  -0.809  0.00  0.00    -0.097 F 
ATOM     12  F4  UNL d   1       1.505  -5.996  -1.364  0.00  0.00    -0.092 F 
ENDROOT
TORSDOF 0
ENDMDL
