MODEL 1
REMARK minimizedAffinity 8.26225948
REMARK minimizedRMSD -1
REMARK  0 active torsions:
REMARK  status: ('A' for Active; 'I' for Inactive)
ROOT
ATOM      1  C   UNL d   1       2.363  -4.970  -2.550  0.00  0.00     0.124 A 
ATOM      2  C1  UNL d   1       2.069  -5.345  -3.853  0.00  0.00     0.062 A 
ATOM      3  C2  UNL d   1       3.096  -5.639  -4.746  0.00  0.00     0.162 A 
ATOM      4  C3  UNL d   1       4.427  -5.561  -4.338  0.00  0.00    -0.034 A 
ATOM      5  C4  UNL d   1       4.716  -5.183  -3.025  0.00  0.00     0.162 A 
ATOM      6  C5  UNL d   1       3.686  -4.890  -2.137  0.00  0.00     0.062 A 
ATOM      7  F   UNL d   1       3.972  -4.528  -0.878  0.00  0.00    -0.097 F 
ATOM      8  F1  UNL d   1       5.985  -5.098  -2.600  0.00  0.00    -0.096 F 
ATOM      9  I   UNL d   1       5.965  -6.000  -5.670  0.00  0.00    -0.060 I 
ATOM     10  F2  UNL d   1       2.782  -5.998  -6.000  0.00  0.00    -0.096 F 
ATOM     11  F3  UNL d   1       0.792  -5.423  -4.255  0.00  0.00    -0.097 F 
ATOM     12  F4  UNL d   1       1.374  -4.687  -1.693  0.00  0.00    -0.092 F 
ENDROOT
TORSDOF 0
ENDMDL
