MODEL 1
REMARK minimizedAffinity 4.39744377
REMARK minimizedRMSD -1
REMARK  0 active torsions:
REMARK  status: ('A' for Active; 'I' for Inactive)
ROOT
ATOM      1  C   UNL d   1       4.754  -5.691  -2.524  0.00  0.00     0.124 A 
ATOM      2  C1  UNL d   1       3.526  -5.520  -1.899  0.00  0.00     0.062 A 
ATOM      3  C2  UNL d   1       2.356  -5.488  -2.652  0.00  0.00     0.162 A 
ATOM      4  C3  UNL d   1       2.408  -5.627  -4.039  0.00  0.00    -0.034 A 
ATOM      5  C4  UNL d   1       3.646  -5.797  -4.660  0.00  0.00     0.162 A 
ATOM      6  C5  UNL d   1       4.813  -5.829  -3.903  0.00  0.00     0.062 A 
ATOM      7  F   UNL d   1       5.998  -5.993  -4.509  0.00  0.00    -0.097 F 
ATOM      8  F1  UNL d   1       3.732  -5.934  -5.992  0.00  0.00    -0.096 F 
ATOM      9  I   UNL d   1       0.660  -5.579  -5.168  0.00  0.00    -0.060 I 
ATOM     10  F2  UNL d   1       1.184  -5.322  -2.021  0.00  0.00    -0.096 F 
ATOM     11  F3  UNL d   1       3.467  -5.386  -0.566  0.00  0.00    -0.097 F 
ATOM     12  F4  UNL d   1       5.878  -5.721  -1.797  0.00  0.00    -0.092 F 
ENDROOT
TORSDOF 0
ENDMDL
