MODEL 1
REMARK minimizedAffinity 6.46515751
REMARK minimizedRMSD -1
REMARK  0 active torsions:
REMARK  status: ('A' for Active; 'I' for Inactive)
ROOT
ATOM      1  C   UNL d   1       4.672  -5.700  -3.932  0.00  0.00     0.124 A 
ATOM      2  C1  UNL d   1       3.509  -5.701  -4.689  0.00  0.00     0.062 A 
ATOM      3  C2  UNL d   1       2.285  -5.417  -4.091  0.00  0.00     0.162 A 
ATOM      4  C3  UNL d   1       2.217  -5.127  -2.728  0.00  0.00    -0.034 A 
ATOM      5  C4  UNL d   1       3.391  -5.129  -1.973  0.00  0.00     0.162 A 
ATOM      6  C5  UNL d   1       4.612  -5.414  -2.575  0.00  0.00     0.062 A 
ATOM      7  F   UNL d   1       5.735  -5.412  -1.842  0.00  0.00    -0.097 F 
ATOM      8  F1  UNL d   1       3.362  -4.855  -0.660  0.00  0.00    -0.096 F 
ATOM      9  I   UNL d   1       0.388  -4.702  -1.831  0.00  0.00    -0.060 I 
ATOM     10  F2  UNL d   1       1.177  -5.425  -4.847  0.00  0.00    -0.096 F 
ATOM     11  F3  UNL d   1       3.564  -5.978  -5.999  0.00  0.00    -0.097 F 
ATOM     12  F4  UNL d   1       5.849  -5.975  -4.509  0.00  0.00    -0.092 F 
ENDROOT
TORSDOF 0
ENDMDL
