MODEL 1
REMARK minimizedAffinity 3.96313977
REMARK minimizedRMSD -1
REMARK  0 active torsions:
REMARK  status: ('A' for Active; 'I' for Inactive)
ROOT
ATOM      1  C   UNL d   1       2.390  -4.833  -2.596  0.00  0.00     0.124 A 
ATOM      2  C1  UNL d   1       3.706  -4.579  -2.233  0.00  0.00     0.062 A 
ATOM      3  C2  UNL d   1       4.738  -4.803  -3.139  0.00  0.00     0.162 A 
ATOM      4  C3  UNL d   1       4.459  -5.283  -4.419  0.00  0.00    -0.034 A 
ATOM      5  C4  UNL d   1       3.133  -5.537  -4.777  0.00  0.00     0.162 A 
ATOM      6  C5  UNL d   1       2.105  -5.312  -3.867  0.00  0.00     0.062 A 
ATOM      7  F   UNL d   1       0.835  -5.558  -4.220  0.00  0.00    -0.097 F 
ATOM      8  F1  UNL d   1       2.830  -5.998  -5.999  0.00  0.00    -0.096 F 
ATOM      9  I   UNL d   1       5.999  -5.618  -5.777  0.00  0.00    -0.060 I 
ATOM     10  F2  UNL d   1       5.999  -4.549  -2.761  0.00  0.00    -0.096 F 
ATOM     11  F3  UNL d   1       3.983  -4.118  -1.005  0.00  0.00    -0.097 F 
ATOM     12  F4  UNL d   1       1.399  -4.618  -1.721  0.00  0.00    -0.092 F 
ENDROOT
TORSDOF 0
ENDMDL
