MODEL 1
REMARK minimizedAffinity 7.66331863
REMARK minimizedRMSD -1
REMARK  0 active torsions:
REMARK  status: ('A' for Active; 'I' for Inactive)
ROOT
ATOM      1  C   UNL d   1       4.725  -5.829  -3.750  0.00  0.00     0.124 A 
ATOM      2  C1  UNL d   1       3.717  -5.826  -4.704  0.00  0.00     0.062 A 
ATOM      3  C2  UNL d   1       2.390  -5.651  -4.321  0.00  0.00     0.162 A 
ATOM      4  C3  UNL d   1       2.063  -5.476  -2.976  0.00  0.00    -0.034 A 
ATOM      5  C4  UNL d   1       3.082  -5.481  -2.022  0.00  0.00     0.162 A 
ATOM      6  C5  UNL d   1       4.406  -5.657  -2.410  0.00  0.00     0.062 A 
ATOM      7  F   UNL d   1       5.379  -5.660  -1.486  0.00  0.00    -0.097 F 
ATOM      8  F1  UNL d   1       2.803  -5.316  -0.721  0.00  0.00    -0.096 F 
ATOM      9  I   UNL d   1       0.081  -5.214  -2.400  0.00  0.00    -0.060 I 
ATOM     10  F2  UNL d   1       1.437  -5.653  -5.265  0.00  0.00    -0.096 F 
ATOM     11  F3  UNL d   1       4.022  -5.994  -5.999  0.00  0.00    -0.097 F 
ATOM     12  F4  UNL d   1       6.000  -5.999  -4.121  0.00  0.00    -0.092 F 
ENDROOT
TORSDOF 0
ENDMDL
