MODEL 1
REMARK minimizedAffinity 4.97437334
REMARK minimizedRMSD -1
REMARK  0 active torsions:
REMARK  status: ('A' for Active; 'I' for Inactive)
ROOT
ATOM      1  C   UNL d   1       4.780  -5.755  -3.872  0.00  0.00     0.124 A 
ATOM      2  C1  UNL d   1       4.641  -5.586  -2.501  0.00  0.00     0.062 A 
ATOM      3  C2  UNL d   1       3.374  -5.498  -1.932  0.00  0.00     0.162 A 
ATOM      4  C3  UNL d   1       2.235  -5.580  -2.733  0.00  0.00    -0.034 A 
ATOM      5  C4  UNL d   1       2.383  -5.748  -4.111  0.00  0.00     0.162 A 
ATOM      6  C5  UNL d   1       3.651  -5.835  -4.675  0.00  0.00     0.062 A 
ATOM      7  F   UNL d   1       3.783  -5.998  -6.000  0.00  0.00    -0.097 F 
ATOM      8  F1  UNL d   1       1.309  -5.830  -4.910  0.00  0.00    -0.096 F 
ATOM      9  I   UNL d   1       0.339  -5.449  -1.885  0.00  0.00    -0.060 I 
ATOM     10  F2  UNL d   1       3.269  -5.335  -0.604  0.00  0.00    -0.096 F 
ATOM     11  F3  UNL d   1       5.730  -5.507  -1.723  0.00  0.00    -0.097 F 
ATOM     12  F4  UNL d   1       6.000  -5.838  -4.417  0.00  0.00    -0.092 F 
ENDROOT
TORSDOF 0
ENDMDL
