MODEL 1
REMARK minimizedAffinity 3.08901906
REMARK minimizedRMSD -1
REMARK  0 active torsions:
REMARK  status: ('A' for Active; 'I' for Inactive)
ROOT
ATOM      1  C   UNL d   1       2.404  -5.396  -2.396  0.00  0.00     0.124 A 
ATOM      2  C1  UNL d   1       2.065  -5.437  -3.742  0.00  0.00     0.062 A 
ATOM      3  C2  UNL d   1       3.052  -5.609  -4.707  0.00  0.00     0.162 A 
ATOM      4  C3  UNL d   1       4.389  -5.742  -4.331  0.00  0.00    -0.034 A 
ATOM      5  C4  UNL d   1       4.722  -5.699  -2.976  0.00  0.00     0.162 A 
ATOM      6  C5  UNL d   1       3.731  -5.527  -2.015  0.00  0.00     0.062 A 
ATOM      7  F   UNL d   1       4.061  -5.487  -0.715  0.00  0.00    -0.097 F 
ATOM      8  F1  UNL d   1       5.997  -5.824  -2.579  0.00  0.00    -0.096 F 
ATOM      9  I   UNL d   1       5.869  -5.999  -5.772  0.00  0.00    -0.060 I 
ATOM     10  F2  UNL d   1       2.696  -5.645  -6.000  0.00  0.00    -0.096 F 
ATOM     11  F3  UNL d   1       0.783  -5.310  -4.113  0.00  0.00    -0.097 F 
ATOM     12  F4  UNL d   1       1.451  -5.230  -1.469  0.00  0.00    -0.092 F 
ENDROOT
TORSDOF 0
ENDMDL
