MODEL 1
REMARK minimizedAffinity -1.25992584
REMARK minimizedRMSD -1
REMARK  0 active torsions:
REMARK  status: ('A' for Active; 'I' for Inactive)
ROOT
ATOM      1  C   UNL d   1       2.402  -4.963  -2.524  0.00  0.00     0.124 A 
ATOM      2  C1  UNL d   1       3.761  -4.881  -2.251  0.00  0.00     0.062 A 
ATOM      3  C2  UNL d   1       4.693  -5.177  -3.242  0.00  0.00     0.162 A 
ATOM      4  C3  UNL d   1       4.269  -5.556  -4.516  0.00  0.00    -0.034 A 
ATOM      5  C4  UNL d   1       2.901  -5.637  -4.782  0.00  0.00     0.162 A 
ATOM      6  C5  UNL d   1       1.974  -5.341  -3.789  0.00  0.00     0.062 A 
ATOM      7  F   UNL d   1       0.662  -5.421  -4.054  0.00  0.00    -0.097 F 
ATOM      8  F1  UNL d   1       2.460  -5.999  -5.996  0.00  0.00    -0.096 F 
ATOM      9  I   UNL d   1       5.660  -5.999  -6.000  0.00  0.00    -0.060 I 
ATOM     10  F2  UNL d   1       5.999  -5.090  -2.950  0.00  0.00    -0.096 F 
ATOM     11  F3  UNL d   1       4.177  -4.518  -1.030  0.00  0.00    -0.097 F 
ATOM     12  F4  UNL d   1       1.508  -4.679  -1.569  0.00  0.00    -0.092 F 
ENDROOT
TORSDOF 0
ENDMDL
