MODEL 1
REMARK minimizedAffinity 15.1487617
REMARK minimizedRMSD -1
REMARK  0 active torsions:
REMARK  status: ('A' for Active; 'I' for Inactive)
ROOT
ATOM      1  C   UNL d   1       1.240  -5.232  -2.727  0.00  0.00     0.124 A 
ATOM      2  C1  UNL d   1       1.450  -5.427  -4.085  0.00  0.00     0.062 A 
ATOM      3  C2  UNL d   1       2.727  -5.292  -4.622  0.00  0.00     0.162 A 
ATOM      4  C3  UNL d   1       3.804  -4.960  -3.801  0.00  0.00    -0.034 A 
ATOM      5  C4  UNL d   1       3.585  -4.764  -2.436  0.00  0.00     0.162 A 
ATOM      6  C5  UNL d   1       2.307  -4.900  -1.904  0.00  0.00     0.062 A 
ATOM      7  F   UNL d   1       2.106  -4.711  -0.592  0.00  0.00    -0.097 F 
ATOM      8  F1  UNL d   1       4.599  -4.443  -1.618  0.00  0.00    -0.096 F 
ATOM      9  I   UNL d   1       5.715  -4.756  -4.601  0.00  0.00    -0.060 I 
ATOM     10  F2  UNL d   1       2.900  -5.486  -5.938  0.00  0.00    -0.096 F 
ATOM     11  F3  UNL d   1       0.420  -5.747  -4.882  0.00  0.00    -0.097 F 
ATOM     12  F4  UNL d   1       0.010  -5.362  -2.212  0.00  0.00    -0.092 F 
ENDROOT
TORSDOF 0
ENDMDL
