MODEL 1
REMARK minimizedAffinity 4.82930517
REMARK minimizedRMSD -1
REMARK  0 active torsions:
REMARK  status: ('A' for Active; 'I' for Inactive)
ROOT
ATOM      1  C   UNL d   1       2.273  -5.943  -2.372  0.00  0.00     0.124 A 
ATOM      2  C1  UNL d   1       3.631  -5.967  -2.087  0.00  0.00     0.062 A 
ATOM      3  C2  UNL d   1       4.563  -5.977  -3.120  0.00  0.00     0.162 A 
ATOM      4  C3  UNL d   1       4.140  -5.964  -4.450  0.00  0.00    -0.034 A 
ATOM      5  C4  UNL d   1       2.773  -5.941  -4.729  0.00  0.00     0.162 A 
ATOM      6  C5  UNL d   1       1.845  -5.931  -3.692  0.00  0.00     0.062 A 
ATOM      7  F   UNL d   1       0.533  -5.908  -3.970  0.00  0.00    -0.097 F 
ATOM      8  F1  UNL d   1       2.332  -5.928  -5.995  0.00  0.00    -0.096 F 
ATOM      9  I   UNL d   1       5.531  -5.980  -5.998  0.00  0.00    -0.060 I 
ATOM     10  F2  UNL d   1       5.869  -6.000  -2.815  0.00  0.00    -0.096 F 
ATOM     11  F3  UNL d   1       4.046  -5.980  -0.812  0.00  0.00    -0.097 F 
ATOM     12  F4  UNL d   1       1.378  -5.934  -1.376  0.00  0.00    -0.092 F 
ENDROOT
TORSDOF 0
ENDMDL
