MODEL 1
REMARK minimizedAffinity 7.87736082
REMARK minimizedRMSD -1
REMARK  0 active torsions:
REMARK  status: ('A' for Active; 'I' for Inactive)
ROOT
ATOM      1  C   UNL d   1       4.923   3.675   3.093  0.00  0.00     0.124 A 
ATOM      2  C1  UNL d   1       4.606   2.345   2.854  0.00  0.00     0.062 A 
ATOM      3  C2  UNL d   1       3.488   2.017   2.093  0.00  0.00     0.162 A 
ATOM      4  C3  UNL d   1       2.678   3.022   1.563  0.00  0.00    -0.034 A 
ATOM      5  C4  UNL d   1       3.003   4.357   1.808  0.00  0.00     0.162 A 
ATOM      6  C5  UNL d   1       4.121   4.680   2.569  0.00  0.00     0.062 A 
ATOM      7  F   UNL d   1       4.426   5.965   2.798  0.00  0.00    -0.097 F 
ATOM      8  F1  UNL d   1       2.246   5.348   1.313  0.00  0.00    -0.096 F 
ATOM      9  I   UNL d   1       1.005   2.536   0.424  0.00  0.00    -0.060 I 
ATOM     10  F2  UNL d   1       3.206   0.723   1.879  0.00  0.00    -0.096 F 
ATOM     11  F3  UNL d   1       5.378   1.372   3.360  0.00  0.00    -0.097 F 
ATOM     12  F4  UNL d   1       5.999   3.987   3.826  0.00  0.00    -0.092 F 
ENDROOT
TORSDOF 0
ENDMDL
