MODEL 1
REMARK minimizedAffinity 2.16561651
REMARK minimizedRMSD -1
REMARK  0 active torsions:
REMARK  status: ('A' for Active; 'I' for Inactive)
ROOT
ATOM      1  C   UNL d   1       2.041   1.655   0.767  0.00  0.00     0.124 A 
ATOM      2  C1  UNL d   1       2.996   0.969   1.504  0.00  0.00     0.062 A 
ATOM      3  C2  UNL d   1       3.912   1.668   2.286  0.00  0.00     0.162 A 
ATOM      4  C3  UNL d   1       3.875   3.061   2.336  0.00  0.00    -0.034 A 
ATOM      5  C4  UNL d   1       2.912   3.744   1.591  0.00  0.00     0.162 A 
ATOM      6  C5  UNL d   1       1.999   3.042   0.811  0.00  0.00     0.062 A 
ATOM      7  F   UNL d   1       1.077   3.706   0.100  0.00  0.00    -0.097 F 
ATOM      8  F1  UNL d   1       2.849   5.084   1.616  0.00  0.00    -0.096 F 
ATOM      9  I   UNL d   1       5.243   4.110   3.503  0.00  0.00    -0.060 I 
ATOM     10  F2  UNL d   1       4.824   0.979   2.987  0.00  0.00    -0.096 F 
ATOM     11  F3  UNL d   1       3.039  -0.370   1.462  0.00  0.00    -0.097 F 
ATOM     12  F4  UNL d   1       1.162   0.980   0.015  0.00  0.00    -0.092 F 
ENDROOT
TORSDOF 0
ENDMDL
