MODEL 1
REMARK minimizedAffinity 5.75845242
REMARK minimizedRMSD -1
REMARK  0 active torsions:
REMARK  status: ('A' for Active; 'I' for Inactive)
ROOT
ATOM      1  C   UNL d   1       2.385  -5.047  -2.391  0.00  0.00     0.124 A 
ATOM      2  C1  UNL d   1       2.100  -5.438  -3.692  0.00  0.00     0.062 A 
ATOM      3  C2  UNL d   1       3.130  -5.622  -4.610  0.00  0.00     0.162 A 
ATOM      4  C3  UNL d   1       4.456  -5.417  -4.229  0.00  0.00    -0.034 A 
ATOM      5  C4  UNL d   1       4.735  -5.023  -2.919  0.00  0.00     0.162 A 
ATOM      6  C5  UNL d   1       3.702  -4.840  -2.006  0.00  0.00     0.062 A 
ATOM      7  F   UNL d   1       3.980  -4.463  -0.750  0.00  0.00    -0.097 F 
ATOM      8  F1  UNL d   1       5.999  -4.817  -2.520  0.00  0.00    -0.096 F 
ATOM      9  I   UNL d   1       5.999  -5.692  -5.598  0.00  0.00    -0.060 I 
ATOM     10  F2  UNL d   1       2.825  -6.000  -5.860  0.00  0.00    -0.096 F 
ATOM     11  F3  UNL d   1       0.828  -5.638  -4.067  0.00  0.00    -0.097 F 
ATOM     12  F4  UNL d   1       1.392  -4.870  -1.510  0.00  0.00    -0.092 F 
ENDROOT
TORSDOF 0
ENDMDL
