MODEL 1
REMARK minimizedAffinity 3.15101242
REMARK minimizedRMSD -1
REMARK  1 active torsions:
REMARK  status: ('A' for Active; 'I' for Inactive)
REMARK    1  A    between atoms: C1_2  and  C2_3 
ROOT
ATOM      1  C2  UNL d   1       3.459  -0.562  -0.029  0.00  0.00    -0.073 A 
ATOM      2  C3  UNL d   1       3.249  -1.667  -0.862  0.00  0.00    -0.002 A 
ATOM      3  C4  UNL d   1       2.452  -1.549  -2.001  0.00  0.00     0.004 A 
ATOM      4  C5  UNL d   1       1.863  -0.326  -2.323  0.00  0.00    -0.004 A 
ATOM      5  C6  UNL d   1       2.070   0.792  -1.509  0.00  0.00    -0.075 A 
ATOM      6  C7  UNL d   1       1.442   2.114  -1.839  0.00  0.00     0.076 C 
ATOM      7  C8  UNL d   1       2.870   0.665  -0.365  0.00  0.00     0.001 A 
ENDROOT
BRANCH   1   8
ATOM      8  C1  UNL d   1       4.324  -0.683   1.199  0.00  0.00     0.053 C 
ATOM      9  C   UNL d   1       3.683  -0.033   2.414  0.00  0.00     0.018 C 
ENDBRANCH   1   8
TORSDOF 1
ENDMDL
