MODEL 1
REMARK minimizedAffinity 22.4352913
REMARK minimizedRMSD -1
REMARK  1 active torsions:
REMARK  status: ('A' for Active; 'I' for Inactive)
REMARK    1  A    between atoms: C1_2  and  C2_3 
ROOT
ATOM      1  C2  UNL d   1      -3.654  -0.771   2.743  0.00  0.00    -0.073 A 
ATOM      2  C3  UNL d   1      -4.830  -1.407   2.330  0.00  0.00    -0.002 A 
ATOM      3  C4  UNL d   1      -5.994  -1.301   3.093  0.00  0.00     0.004 A 
ATOM      4  C5  UNL d   1      -5.995  -0.554   4.271  0.00  0.00    -0.004 A 
ATOM      5  C6  UNL d   1      -4.832   0.098   4.694  0.00  0.00    -0.075 A 
ATOM      6  C7  UNL d   1      -4.817   0.904   5.960  0.00  0.00     0.076 C 
ATOM      7  C8  UNL d   1      -3.667  -0.015   3.924  0.00  0.00     0.001 A 
ENDROOT
BRANCH   1   8
ATOM      8  C1  UNL d   1      -2.397  -0.878   1.919  0.00  0.00     0.053 C 
ATOM      9  C   UNL d   1      -2.569  -1.815   0.734  0.00  0.00     0.018 C 
ENDBRANCH   1   8
TORSDOF 1
ENDMDL
