MODEL 1
REMARK minimizedAffinity 10.418232
REMARK minimizedRMSD -1
REMARK  1 active torsions:
REMARK  status: ('A' for Active; 'I' for Inactive)
REMARK    1  A    between atoms: C1_2  and  C2_3 
ROOT
ATOM      1  C2  UNL d   1       2.291   2.119  -4.480  0.00  0.00    -0.073 A 
ATOM      2  C3  UNL d   1       1.790   3.407  -4.256  0.00  0.00    -0.002 A 
ATOM      3  C4  UNL d   1       0.944   3.656  -3.175  0.00  0.00     0.004 A 
ATOM      4  C5  UNL d   1       0.595   2.624  -2.304  0.00  0.00    -0.004 A 
ATOM      5  C6  UNL d   1       1.094   1.333  -2.504  0.00  0.00    -0.075 A 
ATOM      6  C7  UNL d   1       0.727   0.211  -1.578  0.00  0.00     0.076 C 
ATOM      7  C8  UNL d   1       1.942   1.090  -3.594  0.00  0.00     0.001 A 
ENDROOT
BRANCH   1   8
ATOM      8  C1  UNL d   1       3.210   1.846  -5.642  0.00  0.00     0.053 C 
ATOM      9  C   UNL d   1       4.617   1.496  -5.186  0.00  0.00     0.018 C 
ENDBRANCH   1   8
TORSDOF 1
ENDMDL
