MODEL 1
REMARK minimizedAffinity 7.4743886
REMARK minimizedRMSD -1
REMARK  1 active torsions:
REMARK  status: ('A' for Active; 'I' for Inactive)
REMARK    1  A    between atoms: C1_2  and  C2_3 
ROOT
ATOM      1  C2  UNL d   1       1.535   2.580  -0.367  0.00  0.00    -0.073 A 
ATOM      2  C3  UNL d   1       1.457   3.966  -0.189  0.00  0.00    -0.002 A 
ATOM      3  C4  UNL d   1       2.107   4.576   0.885  0.00  0.00     0.004 A 
ATOM      4  C5  UNL d   1       2.845   3.810   1.786  0.00  0.00    -0.004 A 
ATOM      5  C6  UNL d   1       2.945   2.425   1.618  0.00  0.00    -0.075 A 
ATOM      6  C7  UNL d   1       3.734   1.585   2.580  0.00  0.00     0.076 C 
ATOM      7  C8  UNL d   1       2.288   1.819   0.539  0.00  0.00     0.001 A 
ENDROOT
BRANCH   1   8
ATOM      8  C1  UNL d   1       0.841   1.918  -1.529  0.00  0.00     0.053 C 
ATOM      9  C   UNL d   1       1.751   0.940  -2.254  0.00  0.00     0.018 C 
ENDBRANCH   1   8
TORSDOF 1
ENDMDL
