MODEL 1
REMARK minimizedAffinity 2.5154686
REMARK minimizedRMSD -1
REMARK  1 active torsions:
REMARK  status: ('A' for Active; 'I' for Inactive)
REMARK    1  A    between atoms: C1_2  and  C2_3 
ROOT
ATOM      1  C2  UNL d   1       5.056  -3.712   4.894  0.00  0.00    -0.073 A 
ATOM      2  C3  UNL d   1       5.858  -3.989   3.781  0.00  0.00    -0.002 A 
ATOM      3  C4  UNL d   1       6.000  -3.047   2.762  0.00  0.00     0.004 A 
ATOM      4  C5  UNL d   1       5.347  -1.817   2.847  0.00  0.00    -0.004 A 
ATOM      5  C6  UNL d   1       4.551  -1.517   3.957  0.00  0.00    -0.075 A 
ATOM      6  C7  UNL d   1       3.840  -0.199   4.063  0.00  0.00     0.076 C 
ATOM      7  C8  UNL d   1       4.411  -2.470   4.975  0.00  0.00     0.001 A 
ENDROOT
BRANCH   1   8
ATOM      8  C1  UNL d   1       4.905  -4.724   6.000  0.00  0.00     0.053 C 
ATOM      9  C   UNL d   1       6.000  -5.779   5.960  0.00  0.00     0.018 C 
ENDBRANCH   1   8
TORSDOF 1
ENDMDL
