MODEL 1
REMARK minimizedAffinity 5.53732061
REMARK minimizedRMSD -1
REMARK  1 active torsions:
REMARK  status: ('A' for Active; 'I' for Inactive)
REMARK    1  A    between atoms: C1_2  and  C2_3 
ROOT
ATOM      1  C2  UNL d   1       2.295   2.804   1.087  0.00  0.00    -0.073 A 
ATOM      2  C3  UNL d   1       1.635   3.235   2.244  0.00  0.00    -0.002 A 
ATOM      3  C4  UNL d   1       0.303   2.884   2.467  0.00  0.00     0.004 A 
ATOM      4  C5  UNL d   1      -0.380   2.095   1.541  0.00  0.00    -0.004 A 
ATOM      5  C6  UNL d   1       0.267   1.645   0.385  0.00  0.00    -0.075 A 
ATOM      6  C7  UNL d   1      -0.454   0.798  -0.622  0.00  0.00     0.076 C 
ATOM      7  C8  UNL d   1       1.604   2.004   0.167  0.00  0.00     0.001 A 
ENDROOT
BRANCH   1   8
ATOM      8  C1  UNL d   1       3.736   3.175   0.846  0.00  0.00     0.053 C 
ATOM      9  C   UNL d   1       3.866   4.466   0.053  0.00  0.00     0.018 C 
ENDBRANCH   1   8
TORSDOF 1
ENDMDL
