MODEL 1
REMARK minimizedAffinity 7.09137392
REMARK minimizedRMSD -1
REMARK  1 active torsions:
REMARK  status: ('A' for Active; 'I' for Inactive)
REMARK    1  A    between atoms: C1_2  and  C2_3 
ROOT
ATOM      1  C2  UNL d   1       2.198  -0.219  -1.432  0.00  0.00    -0.073 A 
ATOM      2  C3  UNL d   1       2.873  -0.850  -0.381  0.00  0.00    -0.002 A 
ATOM      3  C4  UNL d   1       2.744  -2.225  -0.184  0.00  0.00     0.004 A 
ATOM      4  C5  UNL d   1       1.946  -2.985  -1.039  0.00  0.00    -0.004 A 
ATOM      5  C6  UNL d   1       1.272  -2.375  -2.103  0.00  0.00    -0.075 A 
ATOM      6  C7  UNL d   1       0.407  -3.177  -3.030  0.00  0.00     0.076 C 
ATOM      7  C8  UNL d   1       1.404  -0.993  -2.292  0.00  0.00     0.001 A 
ENDROOT
BRANCH   1   8
ATOM      8  C1  UNL d   1       2.339   1.265  -1.652  0.00  0.00     0.053 C 
ATOM      9  C   UNL d   1       1.000   1.981  -1.581  0.00  0.00     0.018 C 
ENDBRANCH   1   8
TORSDOF 1
ENDMDL
