MODEL 1
REMARK minimizedAffinity 1.11645031
REMARK minimizedRMSD -1
REMARK  1 active torsions:
REMARK  status: ('A' for Active; 'I' for Inactive)
REMARK    1  A    between atoms: C1_2  and  C2_3 
ROOT
ATOM      1  C2  UNL d   1       1.377  -1.789  -0.741  0.00  0.00    -0.073 A 
ATOM      2  C3  UNL d   1       2.708  -1.963  -0.344  0.00  0.00    -0.002 A 
ATOM      3  C4  UNL d   1       3.669  -1.003  -0.661  0.00  0.00     0.004 A 
ATOM      4  C5  UNL d   1       3.310   0.143  -1.371  0.00  0.00    -0.004 A 
ATOM      5  C6  UNL d   1       1.983   0.340  -1.766  0.00  0.00    -0.075 A 
ATOM      6  C7  UNL d   1       1.580   1.566  -2.533  0.00  0.00     0.076 C 
ATOM      7  C8  UNL d   1       1.023  -0.630  -1.446  0.00  0.00     0.001 A 
ENDROOT
BRANCH   1   8
ATOM      8  C1  UNL d   1       0.334  -2.820  -0.395  0.00  0.00     0.053 C 
ATOM      9  C   UNL d   1       0.777  -3.716   0.751  0.00  0.00     0.018 C 
ENDBRANCH   1   8
TORSDOF 1
ENDMDL
