MODEL 1
REMARK minimizedAffinity 2.63184524
REMARK minimizedRMSD -1
REMARK  1 active torsions:
REMARK  status: ('A' for Active; 'I' for Inactive)
REMARK    1  A    between atoms: C1_2  and  C2_3 
ROOT
ATOM      1  C2  UNL d   1       1.427   0.783  -1.694  0.00  0.00    -0.073 A 
ATOM      2  C3  UNL d   1       2.632   0.537  -2.361  0.00  0.00    -0.002 A 
ATOM      3  C4  UNL d   1       3.264  -0.701  -2.242  0.00  0.00     0.004 A 
ATOM      4  C5  UNL d   1       2.696  -1.707  -1.461  0.00  0.00    -0.004 A 
ATOM      5  C6  UNL d   1       1.486  -1.485  -0.795  0.00  0.00    -0.075 A 
ATOM      6  C7  UNL d   1       0.862  -2.556   0.051  0.00  0.00     0.076 C 
ATOM      7  C8  UNL d   1       0.858  -0.238  -0.919  0.00  0.00     0.001 A 
ENDROOT
BRANCH   1   8
ATOM      8  C1  UNL d   1       0.737   2.116  -1.826  0.00  0.00     0.053 C 
ATOM      9  C   UNL d   1      -0.468   2.227  -0.906  0.00  0.00     0.018 C 
ENDBRANCH   1   8
TORSDOF 1
ENDMDL
