MODEL 1
REMARK minimizedAffinity 10.5509481
REMARK minimizedRMSD -1
REMARK  1 active torsions:
REMARK  status: ('A' for Active; 'I' for Inactive)
REMARK    1  A    between atoms: C1_2  and  C2_3 
ROOT
ATOM      1  C2  UNL d   1       0.986   1.569  -0.263  0.00  0.00    -0.073 A 
ATOM      2  C3  UNL d   1       0.609   1.994  -1.542  0.00  0.00    -0.002 A 
ATOM      3  C4  UNL d   1       1.319   1.568  -2.665  0.00  0.00     0.004 A 
ATOM      4  C5  UNL d   1       2.407   0.707  -2.522  0.00  0.00    -0.004 A 
ATOM      5  C6  UNL d   1       2.792   0.262  -1.254  0.00  0.00    -0.075 A 
ATOM      6  C7  UNL d   1       3.962  -0.662  -1.083  0.00  0.00     0.076 C 
ATOM      7  C8  UNL d   1       2.076   0.696  -0.131  0.00  0.00     0.001 A 
ENDROOT
BRANCH   1   8
ATOM      8  C1  UNL d   1       0.218   2.021   0.952  0.00  0.00     0.053 C 
ATOM      9  C   UNL d   1       1.093   2.068   2.194  0.00  0.00     0.018 C 
ENDBRANCH   1   8
TORSDOF 1
ENDMDL
