MODEL 1
REMARK minimizedAffinity 1.24795842
REMARK minimizedRMSD -1
REMARK  1 active torsions:
REMARK  status: ('A' for Active; 'I' for Inactive)
REMARK    1  A    between atoms: C1_2  and  C2_3 
ROOT
ATOM      1  C2  UNL d   1       1.393   0.897  -1.001  0.00  0.00    -0.073 A 
ATOM      2  C3  UNL d   1       0.279   1.299  -1.747  0.00  0.00    -0.002 A 
ATOM      3  C4  UNL d   1      -0.699   2.112  -1.171  0.00  0.00     0.004 A 
ATOM      4  C5  UNL d   1      -0.569   2.537   0.151  0.00  0.00    -0.004 A 
ATOM      5  C6  UNL d   1       0.543   2.155   0.909  0.00  0.00    -0.075 A 
ATOM      6  C7  UNL d   1       0.696   2.602   2.333  0.00  0.00     0.076 C 
ATOM      7  C8  UNL d   1       1.519   1.336   0.325  0.00  0.00     0.001 A 
ENDROOT
BRANCH   1   8
ATOM      8  C1  UNL d   1       2.453   0.024  -1.620  0.00  0.00     0.053 C 
ATOM      9  C   UNL d   1       2.064  -1.446  -1.603  0.00  0.00     0.018 C 
ENDBRANCH   1   8
TORSDOF 1
ENDMDL
