MODEL 1
REMARK minimizedAffinity 11.6080685
REMARK minimizedRMSD -1
REMARK  1 active torsions:
REMARK  status: ('A' for Active; 'I' for Inactive)
REMARK    1  A    between atoms: C1_2  and  C2_3 
ROOT
ATOM      1  C2  UNL d   1       0.616   1.661  -0.654  0.00  0.00    -0.073 A 
ATOM      2  C3  UNL d   1      -0.697   2.077  -0.405  0.00  0.00    -0.002 A 
ATOM      3  C4  UNL d   1      -1.030   2.671   0.813  0.00  0.00     0.004 A 
ATOM      4  C5  UNL d   1      -0.053   2.862   1.790  0.00  0.00    -0.004 A 
ATOM      5  C6  UNL d   1       1.267   2.465   1.556  0.00  0.00    -0.075 A 
ATOM      6  C7  UNL d   1       2.329   2.662   2.598  0.00  0.00     0.076 C 
ATOM      7  C8  UNL d   1       1.593   1.867   0.331  0.00  0.00     0.001 A 
ENDROOT
BRANCH   1   8
ATOM      8  C1  UNL d   1       0.981   1.025  -1.970  0.00  0.00     0.053 C 
ATOM      9  C   UNL d   1       1.688  -0.308  -1.782  0.00  0.00     0.018 C 
ENDBRANCH   1   8
TORSDOF 1
ENDMDL
