MODEL 1
REMARK minimizedAffinity 11.9635897
REMARK minimizedRMSD -1
REMARK  1 active torsions:
REMARK  status: ('A' for Active; 'I' for Inactive)
REMARK    1  A    between atoms: C1_2  and  C2_3 
ROOT
ATOM      1  C2  UNL d   1       1.365   1.316  -1.383  0.00  0.00    -0.073 A 
ATOM      2  C3  UNL d   1       0.112   1.678  -1.888  0.00  0.00    -0.002 A 
ATOM      3  C4  UNL d   1      -0.823   2.310  -1.068  0.00  0.00     0.004 A 
ATOM      4  C5  UNL d   1      -0.513   2.592   0.262  0.00  0.00    -0.004 A 
ATOM      5  C6  UNL d   1       0.739   2.249   0.783  0.00  0.00    -0.075 A 
ATOM      6  C7  UNL d   1       1.087   2.543   2.212  0.00  0.00     0.076 C 
ATOM      7  C8  UNL d   1       1.671   1.612  -0.047  0.00  0.00     0.001 A 
ENDROOT
BRANCH   1   8
ATOM      8  C1  UNL d   1       2.381   0.639  -2.267  0.00  0.00     0.053 C 
ATOM      9  C   UNL d   1       2.548  -0.832  -1.920  0.00  0.00     0.018 C 
ENDBRANCH   1   8
TORSDOF 1
ENDMDL
