MODEL 1
REMARK minimizedAffinity -3.68182468
REMARK minimizedRMSD -1
REMARK  1 active torsions:
REMARK  status: ('A' for Active; 'I' for Inactive)
REMARK    1  A    between atoms: C3_4  and  O_7 
ROOT
ATOM      1  C   UNL d   1      -0.603   0.481   0.344  0.00  0.00    -0.033 A 
ATOM      2  C1  UNL d   1       0.147   1.432   1.039  0.00  0.00     0.039 A 
ATOM      3  C2  UNL d   1       1.513   1.232   1.244  0.00  0.00    -0.080 A 
ATOM      4  C3  UNL d   1       2.117   0.080   0.750  0.00  0.00     0.150 A 
ATOM      5  C4  UNL d   1       1.377  -0.870   0.053  0.00  0.00    -0.007 A 
ATOM      6  C5  UNL d   1       0.012  -0.669  -0.150  0.00  0.00     0.039 A 
ENDROOT
BRANCH   4   7
ATOM      7  O   UNL d   1       3.447  -0.162   0.929  0.00  0.00    -0.526 OA
ATOM      8  H5  UNL d   1       3.824   0.566   1.452  0.00  0.00     0.418 HD
ENDBRANCH   4   7
TORSDOF 1
ENDMDL
