MODEL 1
REMARK minimizedAffinity -4.43143034
REMARK minimizedRMSD -1
REMARK  1 active torsions:
REMARK  status: ('A' for Active; 'I' for Inactive)
REMARK    1  A    between atoms: C3_4  and  O_7 
ROOT
ATOM      1  C   UNL d   1       2.557   1.192   0.528  0.00  0.00    -0.033 A 
ATOM      2  C1  UNL d   1       2.208  -0.157   0.615  0.00  0.00     0.039 A 
ATOM      3  C2  UNL d   1       0.874  -0.545   0.477  0.00  0.00    -0.080 A 
ATOM      4  C3  UNL d   1      -0.099   0.424   0.252  0.00  0.00     0.150 A 
ATOM      5  C4  UNL d   1       0.242   1.769   0.160  0.00  0.00    -0.007 A 
ATOM      6  C5  UNL d   1       1.574   2.155   0.299  0.00  0.00     0.039 A 
ENDROOT
BRANCH   4   7
ATOM      7  O   UNL d   1      -1.415   0.093   0.116  0.00  0.00    -0.526 OA
ATOM      8  H5  UNL d   1      -1.505  -0.867   0.231  0.00  0.00     0.418 HD
ENDBRANCH   4   7
TORSDOF 1
ENDMDL
