MODEL 1
REMARK minimizedAffinity -4.87618208
REMARK minimizedRMSD -1
REMARK  1 active torsions:
REMARK  status: ('A' for Active; 'I' for Inactive)
REMARK    1  A    between atoms: C3_4  and  O_7 
ROOT
ATOM      1  C   UNL d   1      -0.394   0.739  -0.084  0.00  0.00    -0.033 A 
ATOM      2  C1  UNL d   1       0.116  -0.555   0.038  0.00  0.00     0.039 A 
ATOM      3  C2  UNL d   1       1.466  -0.750   0.334  0.00  0.00    -0.080 A 
ATOM      4  C3  UNL d   1       2.294   0.356   0.507  0.00  0.00     0.150 A 
ATOM      5  C4  UNL d   1       1.792   1.648   0.391  0.00  0.00    -0.007 A 
ATOM      6  C5  UNL d   1       0.443   1.840   0.094  0.00  0.00     0.039 A 
ENDROOT
BRANCH   4   7
ATOM      7  O   UNL d   1       3.620   0.216   0.792  0.00  0.00    -0.526 OA
ATOM      8  H5  UNL d   1       3.832  -0.732   0.813  0.00  0.00     0.418 HD
ENDBRANCH   4   7
TORSDOF 1
ENDMDL
