MODEL 1
REMARK minimizedAffinity 0.634457648
REMARK minimizedRMSD -1
REMARK  1 active torsions:
REMARK  status: ('A' for Active; 'I' for Inactive)
REMARK    1  A    between atoms: C3_4  and  O_7 
ROOT
ATOM      1  C   UNL d   1      -1.101  -1.946   0.432  0.00  0.00    -0.033 A 
ATOM      2  C1  UNL d   1      -0.548  -0.750  -0.027  0.00  0.00     0.039 A 
ATOM      3  C2  UNL d   1       0.694  -0.325   0.448  0.00  0.00    -0.080 A 
ATOM      4  C3  UNL d   1       1.373  -1.106   1.380  0.00  0.00     0.150 A 
ATOM      5  C4  UNL d   1       0.830  -2.301   1.839  0.00  0.00    -0.007 A 
ATOM      6  C5  UNL d   1      -0.411  -2.723   1.364  0.00  0.00     0.039 A 
ENDROOT
BRANCH   4   7
ATOM      7  O   UNL d   1       2.586  -0.730   1.876  0.00  0.00    -0.526 OA
ATOM      8  H5  UNL d   1       2.823   0.130   1.491  0.00  0.00     0.418 HD
ENDBRANCH   4   7
TORSDOF 1
ENDMDL
