MODEL 1
REMARK minimizedAffinity -4.40671873
REMARK minimizedRMSD -1
REMARK  1 active torsions:
REMARK  status: ('A' for Active; 'I' for Inactive)
REMARK    1  A    between atoms: C3_4  and  O_7 
ROOT
ATOM      1  C   UNL d   1      -0.060   0.453   0.110  0.00  0.00    -0.033 A 
ATOM      2  C1  UNL d   1       0.227  -0.913   0.061  0.00  0.00     0.039 A 
ATOM      3  C2  UNL d   1       1.541  -1.358   0.223  0.00  0.00    -0.080 A 
ATOM      4  C3  UNL d   1       2.556  -0.428   0.433  0.00  0.00     0.150 A 
ATOM      5  C4  UNL d   1       2.276   0.933   0.486  0.00  0.00    -0.007 A 
ATOM      6  C5  UNL d   1       0.964   1.376   0.323  0.00  0.00     0.039 A 
ENDROOT
BRANCH   4   7
ATOM      7  O   UNL d   1       3.854  -0.815   0.591  0.00  0.00    -0.526 OA
ATOM      8  H5  UNL d   1       3.900  -1.781   0.503  0.00  0.00     0.418 HD
ENDBRANCH   4   7
TORSDOF 1
ENDMDL
