MODEL 1
REMARK minimizedAffinity -5.47302675
REMARK minimizedRMSD -1
REMARK  1 active torsions:
REMARK  status: ('A' for Active; 'I' for Inactive)
REMARK    1  A    between atoms: C3_4  and  O_7 
ROOT
ATOM      1  C   UNL d   1       2.148  -1.777   1.743  0.00  0.00    -0.033 A 
ATOM      2  C1  UNL d   1       0.999  -1.628   0.964  0.00  0.00     0.039 A 
ATOM      3  C2  UNL d   1       0.733  -0.410   0.336  0.00  0.00    -0.080 A 
ATOM      4  C3  UNL d   1       1.622   0.650   0.495  0.00  0.00     0.150 A 
ATOM      5  C4  UNL d   1       2.770   0.507   1.267  0.00  0.00    -0.007 A 
ATOM      6  C5  UNL d   1       3.034  -0.710   1.893  0.00  0.00     0.039 A 
ENDROOT
BRANCH   4   7
ATOM      7  O   UNL d   1       1.402   1.859  -0.094  0.00  0.00    -0.526 OA
ATOM      8  H5  UNL d   1       0.557   1.819  -0.572  0.00  0.00     0.418 HD
ENDBRANCH   4   7
TORSDOF 1
ENDMDL
