MODEL 1
REMARK minimizedAffinity -5.28577423
REMARK minimizedRMSD -1
REMARK  1 active torsions:
REMARK  status: ('A' for Active; 'I' for Inactive)
REMARK    1  A    between atoms: C3_4  and  O_7 
ROOT
ATOM      1  C   UNL d   1       3.554   0.143   0.959  0.00  0.00    -0.033 A 
ATOM      2  C1  UNL d   1       2.860   1.352   1.034  0.00  0.00     0.039 A 
ATOM      3  C2  UNL d   1       1.500   1.399   0.722  0.00  0.00    -0.080 A 
ATOM      4  C3  UNL d   1       0.847   0.231   0.339  0.00  0.00     0.150 A 
ATOM      5  C4  UNL d   1       1.531  -0.978   0.266  0.00  0.00    -0.007 A 
ATOM      6  C5  UNL d   1       2.889  -1.023   0.577  0.00  0.00     0.039 A 
ENDROOT
BRANCH   4   7
ATOM      7  O   UNL d   1      -0.479   0.227   0.020  0.00  0.00    -0.526 OA
ATOM      8  H5  UNL d   1      -0.814   1.137   0.087  0.00  0.00     0.418 HD
ENDBRANCH   4   7
TORSDOF 1
ENDMDL
