MODEL 1
REMARK minimizedAffinity 4.33564472
REMARK minimizedRMSD -1
REMARK  1 active torsions:
REMARK  status: ('A' for Active; 'I' for Inactive)
REMARK    1  A    between atoms: C1_2  and  C2_3 
ROOT
ATOM      1  C2  UNL d   1      -2.927   3.105  -0.026  0.00  0.00    -0.073 A 
ATOM      2  C3  UNL d   1      -3.515   3.691  -1.153  0.00  0.00    -0.002 A 
ATOM      3  C4  UNL d   1      -3.966   5.011  -1.106  0.00  0.00     0.004 A 
ATOM      4  C5  UNL d   1      -3.828   5.759   0.062  0.00  0.00    -0.004 A 
ATOM      5  C6  UNL d   1      -3.233   5.195   1.195  0.00  0.00    -0.075 A 
ATOM      6  C7  UNL d   1      -3.079   5.986   2.461  0.00  0.00     0.076 C 
ATOM      7  C8  UNL d   1      -2.785   3.868   1.142  0.00  0.00     0.001 A 
ENDROOT
BRANCH   1   8
ATOM      8  C1  UNL d   1      -2.433   1.682  -0.073  0.00  0.00     0.053 C 
ATOM      9  C   UNL d   1      -3.514   0.690   0.325  0.00  0.00     0.018 C 
ENDBRANCH   1   8
TORSDOF 1
ENDMDL
