MODEL 1
REMARK minimizedAffinity 22.7989998
REMARK minimizedRMSD -1
REMARK  1 active torsions:
REMARK  status: ('A' for Active; 'I' for Inactive)
REMARK    1  A    between atoms: C1_2  and  C2_3 
ROOT
ATOM      1  C2  UNL d   1      -2.916  -3.735  -4.273  0.00  0.00    -0.073 A 
ATOM      2  C3  UNL d   1      -2.271  -4.324  -5.366  0.00  0.00    -0.002 A 
ATOM      3  C4  UNL d   1      -2.819  -5.448  -5.986  0.00  0.00     0.004 A 
ATOM      4  C5  UNL d   1      -4.019  -5.989  -5.525  0.00  0.00    -0.004 A 
ATOM      5  C6  UNL d   1      -4.685  -5.407  -4.442  0.00  0.00    -0.075 A 
ATOM      6  C7  UNL d   1      -5.976  -5.978  -3.933  0.00  0.00     0.076 C 
ATOM      7  C8  UNL d   1      -4.127  -4.281  -3.823  0.00  0.00     0.001 A 
ENDROOT
BRANCH   1   8
ATOM      8  C1  UNL d   1      -2.332  -2.518  -3.604  0.00  0.00     0.053 C 
ATOM      9  C   UNL d   1      -2.755  -2.409  -2.148  0.00  0.00     0.018 C 
ENDBRANCH   1   8
TORSDOF 1
ENDMDL
