MODEL 1
REMARK minimizedAffinity 14.4822855
REMARK minimizedRMSD -1
REMARK  1 active torsions:
REMARK  status: ('A' for Active; 'I' for Inactive)
REMARK    1  A    between atoms: C1_2  and  C2_3 
ROOT
ATOM      1  C2  UNL d   1       4.604  -4.475  -4.007  0.00  0.00    -0.073 A 
ATOM      2  C3  UNL d   1       3.558  -3.609  -4.348  0.00  0.00    -0.002 A 
ATOM      3  C4  UNL d   1       3.300  -2.477  -3.574  0.00  0.00     0.004 A 
ATOM      4  C5  UNL d   1       4.088  -2.195  -2.458  0.00  0.00    -0.004 A 
ATOM      5  C6  UNL d   1       5.145  -3.042  -2.108  0.00  0.00    -0.075 A 
ATOM      6  C7  UNL d   1       6.000  -2.754  -0.909  0.00  0.00     0.076 C 
ATOM      7  C8  UNL d   1       5.396  -4.179  -2.888  0.00  0.00     0.001 A 
ENDROOT
BRANCH   1   8
ATOM      8  C1  UNL d   1       4.890  -5.696  -4.843  0.00  0.00     0.053 C 
ATOM      9  C   UNL d   1       5.966  -5.434  -5.885  0.00  0.00     0.018 C 
ENDBRANCH   1   8
TORSDOF 1
ENDMDL
