MODEL 1
REMARK minimizedAffinity 12.6580143
REMARK minimizedRMSD -1
REMARK  1 active torsions:
REMARK  status: ('A' for Active; 'I' for Inactive)
REMARK    1  A    between atoms: C1_2  and  C2_3 
ROOT
ATOM      1  C2  UNL d   1       5.255   2.459  -5.072  0.00  0.00    -0.073 A 
ATOM      2  C3  UNL d   1       3.881   2.659  -5.250  0.00  0.00    -0.002 A 
ATOM      3  C4  UNL d   1       3.196   3.587  -4.464  0.00  0.00     0.004 A 
ATOM      4  C5  UNL d   1       3.878   4.328  -3.499  0.00  0.00    -0.004 A 
ATOM      5  C6  UNL d   1       5.253   4.151  -3.314  0.00  0.00    -0.075 A 
ATOM      6  C7  UNL d   1       6.000   4.939  -2.278  0.00  0.00     0.076 C 
ATOM      7  C8  UNL d   1       5.933   3.216  -4.105  0.00  0.00     0.001 A 
ENDROOT
BRANCH   1   8
ATOM      8  C1  UNL d   1       6.000   1.463  -5.922  0.00  0.00     0.053 C 
ATOM      9  C   UNL d   1       5.482   0.047  -5.728  0.00  0.00     0.018 C 
ENDBRANCH   1   8
TORSDOF 1
ENDMDL
