MODEL 1
REMARK minimizedAffinity 15.8427162
REMARK minimizedRMSD -1
REMARK  1 active torsions:
REMARK  status: ('A' for Active; 'I' for Inactive)
REMARK    1  A    between atoms: C1_2  and  C2_3 
ROOT
ATOM      1  C2  UNL d   1       5.052  -3.807   5.518  0.00  0.00    -0.073 A 
ATOM      2  C3  UNL d   1       5.962  -2.858   5.999  0.00  0.00    -0.002 A 
ATOM      3  C4  UNL d   1       5.856  -1.522   5.613  0.00  0.00     0.004 A 
ATOM      4  C5  UNL d   1       4.838  -1.118   4.750  0.00  0.00    -0.004 A 
ATOM      5  C6  UNL d   1       3.912  -2.049   4.267  0.00  0.00    -0.075 A 
ATOM      6  C7  UNL d   1       2.813  -1.632   3.336  0.00  0.00     0.076 C 
ATOM      7  C8  UNL d   1       4.027  -3.390   4.657  0.00  0.00     0.001 A 
ENDROOT
BRANCH   1   8
ATOM      8  C1  UNL d   1       5.158  -5.250   5.937  0.00  0.00     0.053 C 
ATOM      9  C   UNL d   1       3.800  -5.933   5.977  0.00  0.00     0.018 C 
ENDBRANCH   1   8
TORSDOF 1
ENDMDL
