MODEL 1
REMARK minimizedAffinity 14.6942663
REMARK minimizedRMSD -1
REMARK  1 active torsions:
REMARK  status: ('A' for Active; 'I' for Inactive)
REMARK    1  A    between atoms: C1_2  and  C2_3 
ROOT
ATOM      1  C2  UNL d   1       3.202   5.319  -0.668  0.00  0.00    -0.073 A 
ATOM      2  C3  UNL d   1       3.951   4.903   0.439  0.00  0.00    -0.002 A 
ATOM      3  C4  UNL d   1       5.343   4.836   0.363  0.00  0.00     0.004 A 
ATOM      4  C5  UNL d   1       5.999   5.189  -0.815  0.00  0.00    -0.004 A 
ATOM      5  C6  UNL d   1       5.269   5.618  -1.929  0.00  0.00    -0.075 A 
ATOM      6  C7  UNL d   1       5.961   5.999  -3.205  0.00  0.00     0.076 C 
ATOM      7  C8  UNL d   1       3.872   5.680  -1.846  0.00  0.00     0.001 A 
ENDROOT
BRANCH   1   8
ATOM      8  C1  UNL d   1       1.699   5.399  -0.589  0.00  0.00     0.053 C 
ATOM      9  C   UNL d   1       1.195   5.258   0.838  0.00  0.00     0.018 C 
ENDBRANCH   1   8
TORSDOF 1
ENDMDL
