MODEL 1
REMARK minimizedAffinity 20.1999035
REMARK minimizedRMSD -1
REMARK  1 active torsions:
REMARK  status: ('A' for Active; 'I' for Inactive)
REMARK    1  A    between atoms: C1_2  and  C2_3 
ROOT
ATOM      1  C2  UNL d   1      -2.388   0.791   5.068  0.00  0.00    -0.073 A 
ATOM      2  C3  UNL d   1      -1.625  -0.358   5.306  0.00  0.00    -0.002 A 
ATOM      3  C4  UNL d   1      -2.234  -1.524   5.772  0.00  0.00     0.004 A 
ATOM      4  C5  UNL d   1      -3.610  -1.555   5.998  0.00  0.00    -0.004 A 
ATOM      5  C6  UNL d   1      -4.391  -0.421   5.755  0.00  0.00    -0.075 A 
ATOM      6  C7  UNL d   1      -5.872  -0.437   5.995  0.00  0.00     0.076 C 
ATOM      7  C8  UNL d   1      -3.772   0.747   5.290  0.00  0.00     0.001 A 
ENDROOT
BRANCH   1   8
ATOM      8  C1  UNL d   1      -1.736   2.051   4.559  0.00  0.00     0.053 C 
ATOM      9  C   UNL d   1      -1.814   2.161   3.045  0.00  0.00     0.018 C 
ENDBRANCH   1   8
TORSDOF 1
ENDMDL
