MODEL 1
REMARK minimizedAffinity 21.1611462
REMARK minimizedRMSD -1
REMARK  1 active torsions:
REMARK  status: ('A' for Active; 'I' for Inactive)
REMARK    1  A    between atoms: C1_2  and  C2_3 
ROOT
ATOM      1  C2  UNL d   1       0.114  -3.467  -0.401  0.00  0.00    -0.073 A 
ATOM      2  C3  UNL d   1       0.560  -2.596  -1.402  0.00  0.00    -0.002 A 
ATOM      3  C4  UNL d   1      -0.161  -1.439  -1.702  0.00  0.00     0.004 A 
ATOM      4  C5  UNL d   1      -1.329  -1.138  -1.002  0.00  0.00    -0.004 A 
ATOM      5  C6  UNL d   1      -1.785  -1.990   0.010  0.00  0.00    -0.075 A 
ATOM      6  C7  UNL d   1      -3.040  -1.682   0.771  0.00  0.00     0.076 C 
ATOM      7  C8  UNL d   1      -1.057  -3.151   0.304  0.00  0.00     0.001 A 
ENDROOT
BRANCH   1   8
ATOM      8  C1  UNL d   1       0.892  -4.714  -0.069  0.00  0.00     0.053 C 
ATOM      9  C   UNL d   1       0.923  -5.693  -1.231  0.00  0.00     0.018 C 
ENDBRANCH   1   8
TORSDOF 1
ENDMDL
