MODEL 1
REMARK minimizedAffinity 15.097084
REMARK minimizedRMSD -1
REMARK  1 active torsions:
REMARK  status: ('A' for Active; 'I' for Inactive)
REMARK    1  A    between atoms: C1_2  and  C2_3 
ROOT
ATOM      1  C2  UNL d   1       2.203  -2.616  -4.231  0.00  0.00    -0.073 A 
ATOM      2  C3  UNL d   1       2.798  -2.661  -5.497  0.00  0.00    -0.002 A 
ATOM      3  C4  UNL d   1       3.549  -3.771  -5.884  0.00  0.00     0.004 A 
ATOM      4  C5  UNL d   1       3.707  -4.850  -5.014  0.00  0.00    -0.004 A 
ATOM      5  C6  UNL d   1       3.111  -4.829  -3.749  0.00  0.00    -0.075 A 
ATOM      6  C7  UNL d   1       3.273  -5.980  -2.801  0.00  0.00     0.076 C 
ATOM      7  C8  UNL d   1       2.360  -3.709  -3.367  0.00  0.00     0.001 A 
ENDROOT
BRANCH   1   8
ATOM      8  C1  UNL d   1       1.386  -1.422  -3.811  0.00  0.00     0.053 C 
ATOM      9  C   UNL d   1      -0.042  -1.805  -3.454  0.00  0.00     0.018 C 
ENDBRANCH   1   8
TORSDOF 1
ENDMDL
