MODEL 1
REMARK minimizedAffinity 11.9695177
REMARK minimizedRMSD -1
REMARK  1 active torsions:
REMARK  status: ('A' for Active; 'I' for Inactive)
REMARK    1  A    between atoms: C1_2  and  C2_3 
ROOT
ATOM      1  C2  UNL d   1       0.235  -1.752  -1.228  0.00  0.00    -0.073 A 
ATOM      2  C3  UNL d   1      -0.173  -1.213  -2.454  0.00  0.00    -0.002 A 
ATOM      3  C4  UNL d   1       0.768  -0.912  -3.439  0.00  0.00     0.004 A 
ATOM      4  C5  UNL d   1       2.123  -1.152  -3.212  0.00  0.00    -0.004 A 
ATOM      5  C6  UNL d   1       2.549  -1.701  -1.999  0.00  0.00    -0.075 A 
ATOM      6  C7  UNL d   1       4.003  -1.963  -1.738  0.00  0.00     0.076 C 
ATOM      7  C8  UNL d   1       1.598  -1.998  -1.013  0.00  0.00     0.001 A 
ENDROOT
BRANCH   1   8
ATOM      8  C1  UNL d   1      -0.779  -2.085  -0.164  0.00  0.00     0.053 C 
ATOM      9  C   UNL d   1      -1.853  -1.016  -0.045  0.00  0.00     0.018 C 
ENDBRANCH   1   8
TORSDOF 1
ENDMDL
