MODEL 1
REMARK minimizedAffinity 19.3604698
REMARK minimizedRMSD -1
REMARK  1 active torsions:
REMARK  status: ('A' for Active; 'I' for Inactive)
REMARK    1  A    between atoms: C1_2  and  C2_3 
ROOT
ATOM      1  C2  UNL d   1       3.933   4.907  -0.390  0.00  0.00    -0.073 A 
ATOM      2  C3  UNL d   1       3.198   4.582  -1.536  0.00  0.00    -0.002 A 
ATOM      3  C4  UNL d   1       1.804   4.656  -1.524  0.00  0.00     0.004 A 
ATOM      4  C5  UNL d   1       1.133   5.061  -0.371  0.00  0.00    -0.004 A 
ATOM      5  C6  UNL d   1       1.850   5.401   0.781  0.00  0.00    -0.075 A 
ATOM      6  C7  UNL d   1       1.142   5.837   2.030  0.00  0.00     0.076 C 
ATOM      7  C8  UNL d   1       3.249   5.322   0.762  0.00  0.00     0.001 A 
ENDROOT
BRANCH   1   8
ATOM      8  C1  UNL d   1       5.438   4.835  -0.400  0.00  0.00     0.053 C 
ATOM      9  C   UNL d   1       6.000   4.851  -1.813  0.00  0.00     0.018 C 
ENDBRANCH   1   8
TORSDOF 1
ENDMDL
