MODEL 1
REMARK minimizedAffinity 10.4209194
REMARK minimizedRMSD -1
REMARK  1 active torsions:
REMARK  status: ('A' for Active; 'I' for Inactive)
REMARK    1  A    between atoms: C1_2  and  C2_3 
ROOT
ATOM      1  C2  UNL d   1       1.701  -2.053  -2.739  0.00  0.00    -0.073 A 
ATOM      2  C3  UNL d   1       2.050  -2.765  -3.892  0.00  0.00    -0.002 A 
ATOM      3  C4  UNL d   1       3.392  -2.938  -4.235  0.00  0.00     0.004 A 
ATOM      4  C5  UNL d   1       4.397  -2.409  -3.425  0.00  0.00    -0.004 A 
ATOM      5  C6  UNL d   1       4.068  -1.705  -2.262  0.00  0.00    -0.075 A 
ATOM      6  C7  UNL d   1       5.137  -1.128  -1.382  0.00  0.00     0.076 C 
ATOM      7  C8  UNL d   1       2.719  -1.533  -1.926  0.00  0.00     0.001 A 
ENDROOT
BRANCH   1   8
ATOM      8  C1  UNL d   1       0.254  -1.869  -2.362  0.00  0.00     0.053 C 
ATOM      9  C   UNL d   1       0.023  -2.066  -0.872  0.00  0.00     0.018 C 
ENDBRANCH   1   8
TORSDOF 1
ENDMDL
