MODEL 1
REMARK minimizedAffinity 6.01994562
REMARK minimizedRMSD -1
REMARK  1 active torsions:
REMARK  status: ('A' for Active; 'I' for Inactive)
REMARK    1  A    between atoms: C1_2  and  C2_3 
ROOT
ATOM      1  C2  UNL d   1       5.893  -1.314  -4.690  0.00  0.00    -0.073 A 
ATOM      2  C3  UNL d   1       5.726  -1.099  -3.317  0.00  0.00    -0.002 A 
ATOM      3  C4  UNL d   1       5.638  -2.180  -2.440  0.00  0.00     0.004 A 
ATOM      4  C5  UNL d   1       5.722  -3.485  -2.924  0.00  0.00    -0.004 A 
ATOM      5  C6  UNL d   1       5.900  -3.721  -4.291  0.00  0.00    -0.075 A 
ATOM      6  C7  UNL d   1       5.990  -5.119  -4.828  0.00  0.00     0.076 C 
ATOM      7  C8  UNL d   1       5.985  -2.629  -5.166  0.00  0.00     0.001 A 
ENDROOT
BRANCH   1   8
ATOM      8  C1  UNL d   1       5.995  -0.149  -5.640  0.00  0.00     0.053 C 
ATOM      9  C   UNL d   1       5.906   1.186  -4.918  0.00  0.00     0.018 C 
ENDBRANCH   1   8
TORSDOF 1
ENDMDL
