MODEL 1
REMARK minimizedAffinity -2.78525257
REMARK minimizedRMSD -1
REMARK  0 active torsions:
REMARK  status: ('A' for Active; 'I' for Inactive)
ROOT
ATOM      1  C   UNL d   1       0.550   2.550   0.562  0.00  0.00     0.020 A 
ATOM      2  C1  UNL d   1      -0.774   2.194   0.307  0.00  0.00     0.020 A 
ATOM      3  C2  UNL d   1      -1.113   0.853   0.122  0.00  0.00     0.034 A 
ATOM      4  C3  UNL d   1      -0.128  -0.139   0.191  0.00  0.00     0.017 A 
ATOM      5  C4  UNL d   1       1.201   0.219   0.446  0.00  0.00     0.017 A 
ATOM      6  C5  UNL d   1       1.535   1.564   0.631  0.00  0.00     0.034 A 
ATOM      7 Cl   UNL d   1       2.472  -0.947   0.546  0.00  0.00    -0.070 Cl
ATOM      8 Cl1  UNL d   1      -0.619  -1.778  -0.048  0.00  0.00    -0.070 Cl
ENDROOT
TORSDOF 0
ENDMDL
