MODEL 1
REMARK minimizedAffinity -5.20430136
REMARK minimizedRMSD -1
REMARK  0 active torsions:
REMARK  status: ('A' for Active; 'I' for Inactive)
ROOT
ATOM      1  C   UNL d   1       1.678  -0.942   0.455  0.00  0.00     0.020 A 
ATOM      2  C1  UNL d   1       2.518   0.168   0.371  0.00  0.00     0.020 A 
ATOM      3  C2  UNL d   1       1.973   1.447   0.232  0.00  0.00     0.034 A 
ATOM      4  C3  UNL d   1       0.585   1.618   0.177  0.00  0.00     0.017 A 
ATOM      5  C4  UNL d   1      -0.257   0.503   0.262  0.00  0.00     0.017 A 
ATOM      6  C5  UNL d   1       0.294  -0.775   0.401  0.00  0.00     0.034 A 
ATOM      7 Cl   UNL d   1      -1.979   0.635   0.201  0.00  0.00    -0.070 Cl
ATOM      8 Cl1  UNL d   1      -0.019   3.227   0.004  0.00  0.00    -0.070 Cl
ENDROOT
TORSDOF 0
ENDMDL
