MODEL 1
REMARK minimizedAffinity -5.44939375
REMARK minimizedRMSD -1
REMARK  0 active torsions:
REMARK  status: ('A' for Active; 'I' for Inactive)
ROOT
ATOM      1  C   UNL d   1       1.354   2.344  -0.400  0.00  0.00     0.020 A 
ATOM      2  C1  UNL d   1       0.356   2.998   0.323  0.00  0.00     0.020 A 
ATOM      3  C2  UNL d   1      -0.732   2.279   0.820  0.00  0.00     0.034 A 
ATOM      4  C3  UNL d   1      -0.826   0.900   0.595  0.00  0.00     0.017 A 
ATOM      5  C4  UNL d   1       0.176   0.244  -0.130  0.00  0.00     0.017 A 
ATOM      6  C5  UNL d   1       1.263   0.970  -0.625  0.00  0.00     0.034 A 
ATOM      7 Cl   UNL d   1       0.129  -1.454  -0.447  0.00  0.00    -0.070 Cl
ATOM      8 Cl1  UNL d   1      -2.199   0.073   1.239  0.00  0.00    -0.070 Cl
ENDROOT
TORSDOF 0
ENDMDL
