MODEL 1
REMARK minimizedAffinity -4.43673849
REMARK minimizedRMSD -1
REMARK  0 active torsions:
REMARK  status: ('A' for Active; 'I' for Inactive)
ROOT
ATOM      1  C   UNL d   1       1.156   2.377  -0.453  0.00  0.00     0.020 A 
ATOM      2  C1  UNL d   1       0.086   3.076   0.106  0.00  0.00     0.020 A 
ATOM      3  C2  UNL d   1      -1.030   2.382   0.579  0.00  0.00     0.034 A 
ATOM      4  C3  UNL d   1      -1.078   0.986   0.493  0.00  0.00     0.017 A 
ATOM      5  C4  UNL d   1      -0.004   0.286  -0.068  0.00  0.00     0.017 A 
ATOM      6  C5  UNL d   1       1.111   0.986  -0.539  0.00  0.00     0.034 A 
ATOM      7 Cl   UNL d   1       0.008  -1.437  -0.207  0.00  0.00    -0.070 Cl
ATOM      8 Cl1  UNL d   1      -2.490   0.193   1.098  0.00  0.00    -0.070 Cl
ENDROOT
TORSDOF 0
ENDMDL
