MODEL 1
REMARK minimizedAffinity -4.39414406
REMARK minimizedRMSD -1
REMARK  0 active torsions:
REMARK  status: ('A' for Active; 'I' for Inactive)
ROOT
ATOM      1  C   UNL d   1      -1.084  -0.432   0.377  0.00  0.00     0.020 A 
ATOM      2  C1  UNL d   1       0.058  -1.231   0.329  0.00  0.00     0.020 A 
ATOM      3  C2  UNL d   1       1.322  -0.639   0.267  0.00  0.00     0.034 A 
ATOM      4  C3  UNL d   1       1.447   0.755   0.253  0.00  0.00     0.017 A 
ATOM      5  C4  UNL d   1       0.300   1.556   0.301  0.00  0.00     0.017 A 
ATOM      6  C5  UNL d   1      -0.963   0.958   0.363  0.00  0.00     0.034 A 
ATOM      7 Cl   UNL d   1       0.374   3.282   0.287  0.00  0.00    -0.070 Cl
ATOM      8 Cl1  UNL d   1       3.040   1.418   0.176  0.00  0.00    -0.070 Cl
ENDROOT
TORSDOF 0
ENDMDL
