MODEL 1
REMARK minimizedAffinity -5.11755657
REMARK minimizedRMSD -1
REMARK  0 active torsions:
REMARK  status: ('A' for Active; 'I' for Inactive)
ROOT
ATOM      1  C   UNL d   1      -0.267   2.729   0.587  0.00  0.00     0.020 A 
ATOM      2  C1  UNL d   1       1.041   3.073   0.926  0.00  0.00     0.020 A 
ATOM      3  C2  UNL d   1       2.039   2.097   0.937  0.00  0.00     0.034 A 
ATOM      4  C3  UNL d   1       1.731   0.771   0.609  0.00  0.00     0.017 A 
ATOM      5  C4  UNL d   1       0.418   0.427   0.269  0.00  0.00     0.017 A 
ATOM      6  C5  UNL d   1      -0.577   1.409   0.259  0.00  0.00     0.034 A 
ATOM      7 Cl   UNL d   1      -0.038  -1.187  -0.148  0.00  0.00    -0.070 Cl
ATOM      8 Cl1  UNL d   1       3.016  -0.384   0.643  0.00  0.00    -0.070 Cl
ENDROOT
TORSDOF 0
ENDMDL
