MODEL 1
REMARK minimizedAffinity -3.29411721
REMARK minimizedRMSD -1
REMARK  0 active torsions:
REMARK  status: ('A' for Active; 'I' for Inactive)
ROOT
ATOM      1  C   UNL d   1       0.814   1.610  -1.403  0.00  0.00     0.020 A 
ATOM      2  C1  UNL d   1       1.734   1.771  -0.368  0.00  0.00     0.020 A 
ATOM      3  C2  UNL d   1       1.920   0.749   0.566  0.00  0.00     0.034 A 
ATOM      4  C3  UNL d   1       1.186  -0.438   0.466  0.00  0.00     0.017 A 
ATOM      5  C4  UNL d   1       0.263  -0.599  -0.574  0.00  0.00     0.017 A 
ATOM      6  C5  UNL d   1       0.080   0.428  -1.506  0.00  0.00     0.034 A 
ATOM      7 Cl   UNL d   1      -0.680  -2.035  -0.763  0.00  0.00    -0.070 Cl
ATOM      8 Cl1  UNL d   1       1.468  -1.660   1.654  0.00  0.00    -0.070 Cl
ENDROOT
TORSDOF 0
ENDMDL
