MODEL 1
REMARK minimizedAffinity -3.36851096
REMARK minimizedRMSD -1
REMARK  0 active torsions:
REMARK  status: ('A' for Active; 'I' for Inactive)
ROOT
ATOM      1  C   UNL d   1      -1.797   1.882   0.091  0.00  0.00     0.020 A 
ATOM      2  C1  UNL d   1      -0.866   2.901  -0.110  0.00  0.00     0.020 A 
ATOM      3  C2  UNL d   1       0.490   2.592  -0.232  0.00  0.00     0.034 A 
ATOM      4  C3  UNL d   1       0.920   1.263  -0.153  0.00  0.00     0.017 A 
ATOM      5  C4  UNL d   1      -0.015   0.241   0.049  0.00  0.00     0.017 A 
ATOM      6  C5  UNL d   1      -1.373   0.555   0.170  0.00  0.00     0.034 A 
ATOM      7 Cl   UNL d   1       0.438  -1.423   0.156  0.00  0.00    -0.070 Cl
ATOM      8 Cl1  UNL d   1       2.612   0.954  -0.313  0.00  0.00    -0.070 Cl
ENDROOT
TORSDOF 0
ENDMDL
