MODEL 1
REMARK minimizedAffinity -3.31681705
REMARK minimizedRMSD -1
REMARK  0 active torsions:
REMARK  status: ('A' for Active; 'I' for Inactive)
ROOT
ATOM      1  C   UNL d   1      -0.289   3.090  -0.070  0.00  0.00     0.020 A 
ATOM      2  C1  UNL d   1      -1.440   2.320   0.091  0.00  0.00     0.020 A 
ATOM      3  C2  UNL d   1      -1.346   0.928   0.147  0.00  0.00     0.034 A 
ATOM      4  C3  UNL d   1      -0.099   0.301   0.041  0.00  0.00     0.017 A 
ATOM      5  C4  UNL d   1       1.056   1.075  -0.121  0.00  0.00     0.017 A 
ATOM      6  C5  UNL d   1       0.956   2.469  -0.176  0.00  0.00     0.034 A 
ATOM      7 Cl   UNL d   1       2.629   0.374  -0.259  0.00  0.00    -0.070 Cl
ATOM      8 Cl1  UNL d   1      -0.058  -1.424   0.119  0.00  0.00    -0.070 Cl
ENDROOT
TORSDOF 0
ENDMDL
