MODEL 1
REMARK minimizedAffinity -2.06300116
REMARK minimizedRMSD -1
REMARK  0 active torsions:
REMARK  status: ('A' for Active; 'I' for Inactive)
ROOT
ATOM      1  C   UNL d   1      -0.261   2.824  -0.086  0.00  0.00     0.020 A 
ATOM      2  C1  UNL d   1       0.715   2.233  -0.887  0.00  0.00     0.020 A 
ATOM      3  C2  UNL d   1       0.858   0.844  -0.902  0.00  0.00     0.034 A 
ATOM      4  C3  UNL d   1       0.024   0.041  -0.115  0.00  0.00     0.017 A 
ATOM      5  C4  UNL d   1      -0.956   0.636   0.688  0.00  0.00     0.017 A 
ATOM      6  C5  UNL d   1      -1.095   2.027   0.700  0.00  0.00     0.034 A 
ATOM      7 Cl   UNL d   1      -2.022  -0.288   1.687  0.00  0.00    -0.070 Cl
ATOM      8 Cl1  UNL d   1       0.256  -1.669  -0.184  0.00  0.00    -0.070 Cl
ENDROOT
TORSDOF 0
ENDMDL
