MODEL 1
REMARK minimizedAffinity -5.17559719
REMARK minimizedRMSD -1
REMARK  0 active torsions:
REMARK  status: ('A' for Active; 'I' for Inactive)
ROOT
ATOM      1  C   UNL d   1      -0.337  -1.428   0.142  0.00  0.00     0.020 A 
ATOM      2  C1  UNL d   1      -1.470  -0.650   0.375  0.00  0.00     0.020 A 
ATOM      3  C2  UNL d   1      -1.389   0.742   0.304  0.00  0.00     0.034 A 
ATOM      4  C3  UNL d   1      -0.171   1.361  -0.001  0.00  0.00     0.017 A 
ATOM      5  C4  UNL d   1       0.966   0.580  -0.235  0.00  0.00     0.017 A 
ATOM      6  C5  UNL d   1       0.879  -0.814  -0.162  0.00  0.00     0.034 A 
ATOM      7 Cl   UNL d   1       2.503   1.272  -0.617  0.00  0.00    -0.070 Cl
ATOM      8 Cl1  UNL d   1      -0.144   3.087  -0.072  0.00  0.00    -0.070 Cl
ENDROOT
TORSDOF 0
ENDMDL
