MODEL 1
REMARK minimizedAffinity -4.35532999
REMARK minimizedRMSD -1
REMARK  0 active torsions:
REMARK  status: ('A' for Active; 'I' for Inactive)
ROOT
ATOM      1  C   UNL d   1      -1.503   2.000   0.221  0.00  0.00     0.020 A 
ATOM      2  C1  UNL d   1      -0.506   2.973   0.166  0.00  0.00     0.020 A 
ATOM      3  C2  UNL d   1       0.835   2.594   0.078  0.00  0.00     0.034 A 
ATOM      4  C3  UNL d   1       1.183   1.238   0.045  0.00  0.00     0.017 A 
ATOM      5  C4  UNL d   1       0.181   0.263   0.100  0.00  0.00     0.017 A 
ATOM      6  C5  UNL d   1      -1.160   0.648   0.188  0.00  0.00     0.034 A 
ATOM      7 Cl   UNL d   1       0.532  -1.429   0.063  0.00  0.00    -0.070 Cl
ATOM      8 Cl1  UNL d   1       2.861   0.842  -0.065  0.00  0.00    -0.070 Cl
ENDROOT
TORSDOF 0
ENDMDL
