MODEL 1
REMARK minimizedAffinity -2.88267183
REMARK minimizedRMSD -1
REMARK  0 active torsions:
REMARK  status: ('A' for Active; 'I' for Inactive)
ROOT
ATOM      1  C   UNL d   1      -1.479   1.863   0.032  0.00  0.00     0.020 A 
ATOM      2  C1  UNL d   1      -0.402   2.747   0.036  0.00  0.00     0.020 A 
ATOM      3  C2  UNL d   1       0.905   2.256  -0.014  0.00  0.00     0.034 A 
ATOM      4  C3  UNL d   1       1.137   0.877  -0.069  0.00  0.00     0.017 A 
ATOM      5  C4  UNL d   1       0.054  -0.010  -0.073  0.00  0.00     0.017 A 
ATOM      6  C5  UNL d   1      -1.252   0.487  -0.023  0.00  0.00     0.034 A 
ATOM      7 Cl   UNL d   1       0.261  -1.725  -0.140  0.00  0.00    -0.070 Cl
ATOM      8 Cl1  UNL d   1       2.778   0.340  -0.130  0.00  0.00    -0.070 Cl
ENDROOT
TORSDOF 0
ENDMDL
