MODEL 1
REMARK minimizedAffinity -3.60301709
REMARK minimizedRMSD -1
REMARK  0 active torsions:
REMARK  status: ('A' for Active; 'I' for Inactive)
ROOT
ATOM      1  C   UNL d   1      -1.435  -0.011   0.547  0.00  0.00     0.020 A 
ATOM      2  C1  UNL d   1      -0.406  -0.951   0.587  0.00  0.00     0.020 A 
ATOM      3  C2  UNL d   1       0.918  -0.545   0.406  0.00  0.00     0.034 A 
ATOM      4  C3  UNL d   1       1.217   0.804   0.184  0.00  0.00     0.017 A 
ATOM      5  C4  UNL d   1       0.183   1.747   0.144  0.00  0.00     0.017 A 
ATOM      6  C5  UNL d   1      -1.141   1.335   0.326  0.00  0.00     0.034 A 
ATOM      7 Cl   UNL d   1       0.473   3.430  -0.124  0.00  0.00    -0.070 Cl
ATOM      8 Cl1  UNL d   1       2.876   1.235  -0.031  0.00  0.00    -0.070 Cl
ENDROOT
TORSDOF 0
ENDMDL
