MODEL 1
REMARK minimizedAffinity -2.60650492
REMARK minimizedRMSD -1
REMARK  0 active torsions:
REMARK  status: ('A' for Active; 'I' for Inactive)
ROOT
ATOM      1  C   UNL d   1      -0.003   3.183   0.019  0.00  0.00     0.020 A 
ATOM      2  C1  UNL d   1       0.994   2.473  -0.650  0.00  0.00     0.020 A 
ATOM      3  C2  UNL d   1       0.954   1.077  -0.684  0.00  0.00     0.034 A 
ATOM      4  C3  UNL d   1      -0.085   0.387  -0.048  0.00  0.00     0.017 A 
ATOM      5  C4  UNL d   1      -1.084   1.101   0.624  0.00  0.00     0.017 A 
ATOM      6  C5  UNL d   1      -1.039   2.498   0.654  0.00  0.00     0.034 A 
ATOM      7 Cl   UNL d   1      -2.397   0.320   1.432  0.00  0.00    -0.070 Cl
ATOM      8 Cl1  UNL d   1      -0.072  -1.338  -0.130  0.00  0.00    -0.070 Cl
ENDROOT
TORSDOF 0
ENDMDL
