MODEL 1
REMARK minimizedAffinity -3.27086782
REMARK minimizedRMSD -1
REMARK  0 active torsions:
REMARK  status: ('A' for Active; 'I' for Inactive)
ROOT
ATOM      1  C   UNL d   1      -1.371   1.857  -0.014  0.00  0.00     0.020 A 
ATOM      2  C1  UNL d   1      -0.298   2.740  -0.121  0.00  0.00     0.020 A 
ATOM      3  C2  UNL d   1       1.010   2.252  -0.126  0.00  0.00     0.034 A 
ATOM      4  C3  UNL d   1       1.249   0.876  -0.025  0.00  0.00     0.017 A 
ATOM      5  C4  UNL d   1       0.171  -0.010   0.083  0.00  0.00     0.017 A 
ATOM      6  C5  UNL d   1      -1.137   0.485   0.088  0.00  0.00     0.034 A 
ATOM      7 Cl   UNL d   1       0.386  -1.720   0.212  0.00  0.00    -0.070 Cl
ATOM      8 Cl1  UNL d   1       2.892   0.343  -0.038  0.00  0.00    -0.070 Cl
ENDROOT
TORSDOF 0
ENDMDL
