MODEL 1
REMARK minimizedAffinity -2.57199049
REMARK minimizedRMSD -1
REMARK  0 active torsions:
REMARK  status: ('A' for Active; 'I' for Inactive)
ROOT
ATOM      1  C   UNL d   1       1.306   2.347  -0.263  0.00  0.00     0.020 A 
ATOM      2  C1  UNL d   1       0.202   3.097   0.140  0.00  0.00     0.020 A 
ATOM      3  C2  UNL d   1      -1.004   2.460   0.440  0.00  0.00     0.034 A 
ATOM      4  C3  UNL d   1      -1.109   1.068   0.336  0.00  0.00     0.017 A 
ATOM      5  C4  UNL d   1      -0.000   0.316  -0.068  0.00  0.00     0.017 A 
ATOM      6  C5  UNL d   1       1.205   0.959  -0.367  0.00  0.00     0.034 A 
ATOM      7 Cl   UNL d   1      -0.053  -1.405  -0.219  0.00  0.00    -0.070 Cl
ATOM      8 Cl1  UNL d   1      -2.630   0.346   0.722  0.00  0.00    -0.070 Cl
ENDROOT
TORSDOF 0
ENDMDL
