MODEL 1
REMARK minimizedAffinity -2.9734962
REMARK minimizedRMSD -1
REMARK  0 active torsions:
REMARK  status: ('A' for Active; 'I' for Inactive)
ROOT
ATOM      1  C   UNL d   1       0.227   3.332   0.491  0.00  0.00     0.020 A 
ATOM      2  C1  UNL d   1       0.613   3.036  -0.816  0.00  0.00     0.020 A 
ATOM      3  C2  UNL d   1       0.406   1.754  -1.331  0.00  0.00     0.034 A 
ATOM      4  C3  UNL d   1      -0.188   0.765  -0.540  0.00  0.00     0.017 A 
ATOM      5  C4  UNL d   1      -0.575   1.063   0.772  0.00  0.00     0.017 A 
ATOM      6  C5  UNL d   1      -0.366   2.348   1.283  0.00  0.00     0.034 A 
ATOM      7 Cl   UNL d   1      -1.314  -0.105   1.809  0.00  0.00    -0.070 Cl
ATOM      8 Cl1  UNL d   1      -0.414  -0.798  -1.242  0.00  0.00    -0.070 Cl
ENDROOT
TORSDOF 0
ENDMDL
