MODEL 1
REMARK minimizedAffinity 1.95476639
REMARK minimizedRMSD -1
REMARK  0 active torsions:
REMARK  status: ('A' for Active; 'I' for Inactive)
ROOT
ATOM      1  C   UNL d   1       1.394   0.439  -0.858  0.00  0.00     0.078 C 
ATOM      2  C1  UNL d   1       0.267   1.345  -0.463  0.00  0.00    -0.077 A 
ATOM      3  C2  UNL d   1       0.511   2.549   0.208  0.00  0.00    -0.001 A 
ATOM      4  C3  UNL d   1      -0.549   3.378   0.578  0.00  0.00     0.003 A 
ATOM      5  C4  UNL d   1      -1.861   3.012   0.282  0.00  0.00    -0.005 A 
ATOM      6  C5  UNL d   1      -2.113   1.814  -0.384  0.00  0.00     0.003 A 
ATOM      7  C6  UNL d   1      -1.055   0.984  -0.754  0.00  0.00    -0.001 A 
ENDROOT
TORSDOF 0
ENDMDL
