MODEL 1
REMARK minimizedAffinity 5.01572227
REMARK minimizedRMSD -1
REMARK  0 active torsions:
REMARK  status: ('A' for Active; 'I' for Inactive)
ROOT
ATOM      1  C   UNL d   1       2.492   0.042   0.198  0.00  0.00     0.078 C 
ATOM      2  C1  UNL d   1       1.214   0.232  -0.563  0.00  0.00    -0.077 A 
ATOM      3  C2  UNL d   1       0.488  -0.867  -1.040  0.00  0.00    -0.001 A 
ATOM      4  C3  UNL d   1      -0.695  -0.674  -1.756  0.00  0.00     0.003 A 
ATOM      5  C4  UNL d   1      -1.162   0.615  -2.001  0.00  0.00    -0.005 A 
ATOM      6  C5  UNL d   1      -0.445   1.715  -1.533  0.00  0.00     0.003 A 
ATOM      7  C6  UNL d   1       0.738   1.524  -0.817  0.00  0.00    -0.001 A 
ENDROOT
TORSDOF 0
ENDMDL
