MODEL 1
REMARK minimizedAffinity 0.824080884
REMARK minimizedRMSD -1
REMARK  0 active torsions:
REMARK  status: ('A' for Active; 'I' for Inactive)
ROOT
ATOM      1  C   UNL d   1      -4.278   0.379   0.288  0.00  0.00     0.078 C 
ATOM      2  C1  UNL d   1      -3.666   1.667   0.752  0.00  0.00    -0.077 A 
ATOM      3  C2  UNL d   1      -3.794   2.089   2.081  0.00  0.00    -0.001 A 
ATOM      4  C3  UNL d   1      -3.228   3.295   2.497  0.00  0.00     0.003 A 
ATOM      5  C4  UNL d   1      -2.530   4.090   1.589  0.00  0.00    -0.005 A 
ATOM      6  C5  UNL d   1      -2.399   3.679   0.264  0.00  0.00     0.003 A 
ATOM      7  C6  UNL d   1      -2.965   2.473  -0.153  0.00  0.00    -0.001 A 
ENDROOT
TORSDOF 0
ENDMDL
