MODEL 1
REMARK minimizedAffinity -2.47035241
REMARK minimizedRMSD -1
REMARK  0 active torsions:
REMARK  status: ('A' for Active; 'I' for Inactive)
ROOT
ATOM      1  C   UNL d   1       2.135   0.375  -1.125  0.00  0.00     0.078 C 
ATOM      2  C1  UNL d   1       3.487   0.451  -1.769  0.00  0.00    -0.077 A 
ATOM      3  C2  UNL d   1       4.567   1.052  -1.110  0.00  0.00    -0.001 A 
ATOM      4  C3  UNL d   1       5.817   1.124  -1.725  0.00  0.00     0.003 A 
ATOM      5  C4  UNL d   1       6.000   0.599  -3.003  0.00  0.00    -0.005 A 
ATOM      6  C5  UNL d   1       4.931   0.001  -3.667  0.00  0.00     0.003 A 
ATOM      7  C6  UNL d   1       3.679  -0.072  -3.053  0.00  0.00    -0.001 A 
ENDROOT
TORSDOF 0
ENDMDL
