MODEL 1
REMARK minimizedAffinity 2.27687097
REMARK minimizedRMSD -1
REMARK  0 active torsions:
REMARK  status: ('A' for Active; 'I' for Inactive)
ROOT
ATOM      1  C   UNL d   1       3.378   0.343  -3.334  0.00  0.00     0.078 C 
ATOM      2  C1  UNL d   1       2.668   0.114  -2.033  0.00  0.00    -0.077 A 
ATOM      3  C2  UNL d   1       3.289   0.405  -0.812  0.00  0.00    -0.001 A 
ATOM      4  C3  UNL d   1       2.620   0.178   0.392  0.00  0.00     0.003 A 
ATOM      5  C4  UNL d   1       1.327  -0.343   0.386  0.00  0.00    -0.005 A 
ATOM      6  C5  UNL d   1       0.702  -0.638  -0.824  0.00  0.00     0.003 A 
ATOM      7  C6  UNL d   1       1.370  -0.411  -2.029  0.00  0.00    -0.001 A 
ENDROOT
TORSDOF 0
ENDMDL
