MODEL 1
REMARK minimizedAffinity 2.11151433
REMARK minimizedRMSD -1
REMARK  0 active torsions:
REMARK  status: ('A' for Active; 'I' for Inactive)
ROOT
ATOM      1  C   UNL d   1       0.780   0.935  -0.936  0.00  0.00     0.078 C 
ATOM      2  C1  UNL d   1       0.012   2.074  -0.334  0.00  0.00    -0.077 A 
ATOM      3  C2  UNL d   1       0.634   2.990   0.523  0.00  0.00    -0.001 A 
ATOM      4  C3  UNL d   1      -0.095   4.040   1.083  0.00  0.00     0.003 A 
ATOM      5  C4  UNL d   1      -1.451   4.183   0.793  0.00  0.00    -0.005 A 
ATOM      6  C5  UNL d   1      -2.079   3.275  -0.056  0.00  0.00     0.003 A 
ATOM      7  C6  UNL d   1      -1.351   2.224  -0.618  0.00  0.00    -0.001 A 
ENDROOT
TORSDOF 0
ENDMDL
