MODEL 1
REMARK minimizedAffinity 2.04718471
REMARK minimizedRMSD -1
REMARK  0 active torsions:
REMARK  status: ('A' for Active; 'I' for Inactive)
ROOT
ATOM      1  C   UNL d   1       5.685   2.929  -2.930  0.00  0.00     0.078 C 
ATOM      2  C1  UNL d   1       4.974   2.117  -1.889  0.00  0.00    -0.077 A 
ATOM      3  C2  UNL d   1       3.935   1.246  -2.239  0.00  0.00    -0.001 A 
ATOM      4  C3  UNL d   1       3.275   0.504  -1.259  0.00  0.00     0.003 A 
ATOM      5  C4  UNL d   1       3.645   0.627   0.079  0.00  0.00    -0.005 A 
ATOM      6  C5  UNL d   1       4.676   1.493   0.438  0.00  0.00     0.003 A 
ATOM      7  C6  UNL d   1       5.337   2.236  -0.542  0.00  0.00    -0.001 A 
ENDROOT
TORSDOF 0
ENDMDL
