MODEL 1
REMARK minimizedAffinity -4.0611763
REMARK minimizedRMSD -1
REMARK  0 active torsions:
REMARK  status: ('A' for Active; 'I' for Inactive)
ROOT
ATOM      1  C   UNL d   1       0.427   0.951  -0.224  0.00  0.00     0.172 C 
ATOM      2  N   UNL d   1      -0.171  -0.310   0.147  0.00  0.00    -0.070 N 
ATOM      3  C1  UNL d   1      -1.509  -0.534   0.334  0.00  0.00    -0.004 A 
ATOM      4  C2  UNL d   1      -1.670  -1.859   0.678  0.00  0.00    -0.047 A 
ATOM      5  C3  UNL d   1      -0.385  -2.451   0.699  0.00  0.00    -0.047 A 
ATOM      6  C4  UNL d   1       0.525  -1.469   0.367  0.00  0.00    -0.004 A 
ENDROOT
TORSDOF 0
ENDMDL
