MODEL 1
REMARK minimizedAffinity -4.18588638
REMARK minimizedRMSD -1
REMARK  0 active torsions:
REMARK  status: ('A' for Active; 'I' for Inactive)
ROOT
ATOM      1  C   UNL d   1       0.973  -1.436   0.254  0.00  0.00     0.172 C 
ATOM      2  N   UNL d   1      -0.322  -1.362   0.889  0.00  0.00    -0.070 N 
ATOM      3  C1  UNL d   1      -0.931  -2.376   1.579  0.00  0.00    -0.004 A 
ATOM      4  C2  UNL d   1      -2.148  -1.909   2.027  0.00  0.00    -0.047 A 
ATOM      5  C3  UNL d   1      -2.275  -0.569   1.590  0.00  0.00    -0.047 A 
ATOM      6  C4  UNL d   1      -1.130  -0.256   0.888  0.00  0.00    -0.004 A 
ENDROOT
TORSDOF 0
ENDMDL
