MODEL 1
REMARK minimizedAffinity -3.21170163
REMARK minimizedRMSD -1
REMARK  0 active torsions:
REMARK  status: ('A' for Active; 'I' for Inactive)
ROOT
ATOM      1  C   UNL d   1       0.317   0.810  -0.676  0.00  0.00     0.172 C 
ATOM      2  N   UNL d   1      -0.136  -0.443  -0.118  0.00  0.00    -0.070 N 
ATOM      3  C1  UNL d   1      -1.358  -1.019  -0.338  0.00  0.00    -0.004 A 
ATOM      4  C2  UNL d   1      -1.401  -2.201   0.369  0.00  0.00    -0.047 A 
ATOM      5  C3  UNL d   1      -0.161  -2.340   1.038  0.00  0.00    -0.047 A 
ATOM      6  C4  UNL d   1       0.603  -1.237   0.719  0.00  0.00    -0.004 A 
ENDROOT
TORSDOF 0
ENDMDL
