MODEL 1
REMARK minimizedAffinity -3.61258769
REMARK minimizedRMSD -1
REMARK  0 active torsions:
REMARK  status: ('A' for Active; 'I' for Inactive)
ROOT
ATOM      1  C   UNL d   1       0.519   1.101   0.165  0.00  0.00     0.172 C 
ATOM      2  N   UNL d   1      -0.296  -0.072   0.375  0.00  0.00    -0.070 N 
ATOM      3  C1  UNL d   1       0.067  -1.178   1.097  0.00  0.00    -0.004 A 
ATOM      4  C2  UNL d   1      -0.983  -2.070   1.059  0.00  0.00    -0.047 A 
ATOM      5  C3  UNL d   1      -2.011  -1.481   0.286  0.00  0.00    -0.047 A 
ATOM      6  C4  UNL d   1      -1.560  -0.245  -0.125  0.00  0.00    -0.004 A 
ENDROOT
TORSDOF 0
ENDMDL
