MODEL 1
REMARK minimizedAffinity -3.21782327
REMARK minimizedRMSD -1
REMARK  0 active torsions:
REMARK  status: ('A' for Active; 'I' for Inactive)
ROOT
ATOM      1  C   UNL d   1      -1.445  -2.351   0.910  0.00  0.00     0.172 C 
ATOM      2  N   UNL d   1      -0.845  -1.093   0.532  0.00  0.00    -0.070 N 
ATOM      3  C1  UNL d   1       0.461  -0.910   0.162  0.00  0.00    -0.004 A 
ATOM      4  C2  UNL d   1       0.636   0.427  -0.120  0.00  0.00    -0.047 A 
ATOM      5  C3  UNL d   1      -0.607   1.071   0.088  0.00  0.00    -0.047 A 
ATOM      6  C4  UNL d   1      -1.506   0.106   0.492  0.00  0.00    -0.004 A 
ENDROOT
TORSDOF 0
ENDMDL
