MODEL 1
REMARK minimizedAffinity -4.00350618
REMARK minimizedRMSD -1
REMARK  0 active torsions:
REMARK  status: ('A' for Active; 'I' for Inactive)
ROOT
ATOM      1  C   UNL d   1       0.422   1.078  -0.167  0.00  0.00     0.172 C 
ATOM      2  N   UNL d   1      -0.197  -0.165   0.231  0.00  0.00    -0.070 N 
ATOM      3  C1  UNL d   1      -1.542  -0.374   0.383  0.00  0.00    -0.004 A 
ATOM      4  C2  UNL d   1      -1.723  -1.685   0.770  0.00  0.00    -0.047 A 
ATOM      5  C3  UNL d   1      -0.444  -2.283   0.854  0.00  0.00    -0.047 A 
ATOM      6  C4  UNL d   1       0.483  -1.320   0.515  0.00  0.00    -0.004 A 
ENDROOT
TORSDOF 0
ENDMDL
