MODEL 1
REMARK minimizedAffinity -3.8247149
REMARK minimizedRMSD -1
REMARK  0 active torsions:
REMARK  status: ('A' for Active; 'I' for Inactive)
ROOT
ATOM      1  C   UNL d   1       0.598  -0.863   0.058  0.00  0.00     0.172 C 
ATOM      2  N   UNL d   1      -0.639  -1.177   0.732  0.00  0.00    -0.070 N 
ATOM      3  C1  UNL d   1      -1.084  -2.435   1.040  0.00  0.00    -0.004 A 
ATOM      4  C2  UNL d   1      -2.299  -2.309   1.678  0.00  0.00    -0.047 A 
ATOM      5  C3  UNL d   1      -2.595  -0.928   1.756  0.00  0.00    -0.047 A 
ATOM      6  C4  UNL d   1      -1.551  -0.250   1.163  0.00  0.00    -0.004 A 
ENDROOT
TORSDOF 0
ENDMDL
