MODEL 1
REMARK minimizedAffinity -3.15156269
REMARK minimizedRMSD -1
REMARK  0 active torsions:
REMARK  status: ('A' for Active; 'I' for Inactive)
ROOT
ATOM      1  C   UNL d   1      -0.018   1.066  -0.123  0.00  0.00     0.172 C 
ATOM      2  N   UNL d   1      -0.236  -0.287   0.332  0.00  0.00    -0.070 N 
ATOM      3  C1  UNL d   1       0.724  -1.257   0.440  0.00  0.00    -0.004 A 
ATOM      4  C2  UNL d   1       0.116  -2.402   0.909  0.00  0.00    -0.047 A 
ATOM      5  C3  UNL d   1      -1.257  -2.109   1.088  0.00  0.00    -0.047 A 
ATOM      6  C4  UNL d   1      -1.447  -0.793   0.723  0.00  0.00    -0.004 A 
ENDROOT
TORSDOF 0
ENDMDL
