MODEL 1
REMARK minimizedAffinity -1.86121202
REMARK minimizedRMSD -1
REMARK  0 active torsions:
REMARK  status: ('A' for Active; 'I' for Inactive)
ROOT
ATOM      1  C   UNL d   1      -1.468  -2.393   0.994  0.00  0.00     0.172 C 
ATOM      2  N   UNL d   1      -0.696  -1.216   0.672  0.00  0.00    -0.070 N 
ATOM      3  C1  UNL d   1      -1.205   0.036   0.448  0.00  0.00    -0.004 A 
ATOM      4  C2  UNL d   1      -0.149   0.878   0.174  0.00  0.00    -0.047 A 
ATOM      5  C3  UNL d   1       1.035   0.106   0.233  0.00  0.00    -0.047 A 
ATOM      6  C4  UNL d   1       0.668  -1.187   0.543  0.00  0.00    -0.004 A 
ENDROOT
TORSDOF 0
ENDMDL
