MODEL 1
REMARK minimizedAffinity -0.0821597204
REMARK minimizedRMSD -1
REMARK  0 active torsions:
REMARK  status: ('A' for Active; 'I' for Inactive)
ROOT
ATOM      1  C   UNL d   1       0.387   1.157  -0.590  0.00  0.00     0.172 C 
ATOM      2  N   UNL d   1       0.970   1.930  -1.662  0.00  0.00    -0.070 N 
ATOM      3  C1  UNL d   1       0.276   2.684  -2.571  0.00  0.00    -0.004 A 
ATOM      4  C2  UNL d   1       1.191   3.262  -3.424  0.00  0.00    -0.047 A 
ATOM      5  C3  UNL d   1       2.478   2.840  -3.015  0.00  0.00    -0.047 A 
ATOM      6  C4  UNL d   1       2.312   2.016  -1.922  0.00  0.00    -0.004 A 
ENDROOT
TORSDOF 0
ENDMDL
