MODEL 1
REMARK minimizedAffinity -2.76909781
REMARK minimizedRMSD -1
REMARK  0 active torsions:
REMARK  status: ('A' for Active; 'I' for Inactive)
ROOT
ATOM      1  C   UNL d   1       0.543   0.733  -0.553  0.00  0.00     0.172 C 
ATOM      2  N   UNL d   1      -0.022  -0.444   0.064  0.00  0.00    -0.070 N 
ATOM      3  C1  UNL d   1      -1.358  -0.690   0.240  0.00  0.00    -0.004 A 
ATOM      4  C2  UNL d   1      -1.483  -1.913   0.864  0.00  0.00    -0.047 A 
ATOM      5  C3  UNL d   1      -0.178  -2.418   1.071  0.00  0.00    -0.047 A 
ATOM      6  C4  UNL d   1       0.707  -1.489   0.566  0.00  0.00    -0.004 A 
ENDROOT
TORSDOF 0
ENDMDL
