MODEL 1
REMARK minimizedAffinity -1.66033733
REMARK minimizedRMSD -1
REMARK  0 active torsions:
REMARK  status: ('A' for Active; 'I' for Inactive)
ROOT
ATOM      1  C   UNL d   1      -1.784  -1.409   0.338  0.00  0.00     0.172 C 
ATOM      2  N   UNL d   1      -0.964  -0.224   0.249  0.00  0.00    -0.070 N 
ATOM      3  C1  UNL d   1       0.372  -0.198  -0.051  0.00  0.00    -0.004 A 
ATOM      4  C2  UNL d   1       0.782   1.117  -0.038  0.00  0.00    -0.047 A 
ATOM      5  C3  UNL d   1      -0.346   1.910   0.282  0.00  0.00    -0.047 A 
ATOM      6  C4  UNL d   1      -1.413   1.054   0.455  0.00  0.00    -0.004 A 
ENDROOT
TORSDOF 0
ENDMDL
