MODEL 1
REMARK minimizedAffinity -3.87614751
REMARK minimizedRMSD -1
REMARK  0 active torsions:
REMARK  status: ('A' for Active; 'I' for Inactive)
ROOT
ATOM      1  C   UNL d   1       0.444   0.237  -0.365  0.00  0.00     0.172 C 
ATOM      2  N   UNL d   1      -0.227  -0.747   0.452  0.00  0.00    -0.070 N 
ATOM      3  C1  UNL d   1      -1.581  -0.846   0.632  0.00  0.00    -0.004 A 
ATOM      4  C2  UNL d   1      -1.817  -1.909   1.477  0.00  0.00    -0.047 A 
ATOM      5  C3  UNL d   1      -0.562  -2.468   1.816  0.00  0.00    -0.047 A 
ATOM      6  C4  UNL d   1       0.405  -1.729   1.168  0.00  0.00    -0.004 A 
ENDROOT
TORSDOF 0
ENDMDL
