MODEL 1
REMARK minimizedAffinity -3.80783415
REMARK minimizedRMSD -1
REMARK  0 active torsions:
REMARK  status: ('A' for Active; 'I' for Inactive)
ROOT
ATOM      1  C   UNL d   1      -1.283   1.189   1.114  0.00  0.00     0.172 C 
ATOM      2  N   UNL d   1      -1.161  -0.238   0.933  0.00  0.00    -0.070 N 
ATOM      3  C1  UNL d   1      -0.009  -0.965   1.073  0.00  0.00    -0.004 A 
ATOM      4  C2  UNL d   1      -0.310  -2.286   0.817  0.00  0.00    -0.047 A 
ATOM      5  C3  UNL d   1      -1.690  -2.354   0.512  0.00  0.00    -0.047 A 
ATOM      6  C4  UNL d   1      -2.192  -1.072   0.591  0.00  0.00    -0.004 A 
ENDROOT
TORSDOF 0
ENDMDL
