MODEL 1
REMARK minimizedAffinity -5.0869689
REMARK minimizedRMSD -1
REMARK  1 active torsions:
REMARK  status: ('A' for Active; 'I' for Inactive)
REMARK    1  A    between atoms: C3_4  and  O_7 
ROOT
ATOM      1  C   UNL d   1      -0.036   0.880   3.966  0.00  0.00    -0.033 A 
ATOM      2  C1  UNL d   1       1.167   0.272   3.602  0.00  0.00     0.039 A 
ATOM      3  C2  UNL d   1       1.462   0.058   2.254  0.00  0.00    -0.080 A 
ATOM      4  C3  UNL d   1       0.549   0.457   1.282  0.00  0.00     0.150 A 
ATOM      5  C4  UNL d   1      -0.649   1.068   1.638  0.00  0.00    -0.007 A 
ATOM      6  C5  UNL d   1      -0.943   1.280   2.984  0.00  0.00     0.039 A 
ENDROOT
BRANCH   4   7
ATOM      7  O   UNL d   1       0.792   0.265  -0.045  0.00  0.00    -0.526 OA
ATOM      8  H5  UNL d   1       1.644  -0.193  -0.139  0.00  0.00     0.418 HD
ENDBRANCH   4   7
TORSDOF 1
ENDMDL
