MODEL 1
REMARK minimizedAffinity -4.9922967
REMARK minimizedRMSD -1
REMARK  1 active torsions:
REMARK  status: ('A' for Active; 'I' for Inactive)
REMARK    1  A    between atoms: C3_4  and  O_7 
ROOT
ATOM      1  C   UNL d   1       0.383   0.410   2.389  0.00  0.00    -0.033 A 
ATOM      2  C1  UNL d   1      -0.620   0.747   1.478  0.00  0.00     0.039 A 
ATOM      3  C2  UNL d   1      -0.539   0.310   0.154  0.00  0.00    -0.080 A 
ATOM      4  C3  UNL d   1       0.547  -0.463  -0.245  0.00  0.00     0.150 A 
ATOM      5  C4  UNL d   1       1.548  -0.807   0.658  0.00  0.00    -0.007 A 
ATOM      6  C5  UNL d   1       1.466  -0.369   1.979  0.00  0.00     0.039 A 
ENDROOT
BRANCH   4   7
ATOM      7  O   UNL d   1       0.671  -0.909  -1.527  0.00  0.00    -0.526 OA
ATOM      8  H5  UNL d   1      -0.078  -0.571  -2.045  0.00  0.00     0.418 HD
ENDBRANCH   4   7
TORSDOF 1
ENDMDL
