MODEL 1
REMARK minimizedAffinity -3.93614244
REMARK minimizedRMSD -1
REMARK  1 active torsions:
REMARK  status: ('A' for Active; 'I' for Inactive)
REMARK    1  A    between atoms: C3_4  and  O_7 
ROOT
ATOM      1  C   UNL d   1       1.445  -0.000   1.869  0.00  0.00    -0.033 A 
ATOM      2  C1  UNL d   1       2.245  -0.840   1.092  0.00  0.00     0.039 A 
ATOM      3  C2  UNL d   1       1.852  -1.179  -0.204  0.00  0.00    -0.080 A 
ATOM      4  C3  UNL d   1       0.659  -0.671  -0.711  0.00  0.00     0.150 A 
ATOM      5  C4  UNL d   1      -0.141   0.169   0.057  0.00  0.00    -0.007 A 
ATOM      6  C5  UNL d   1       0.253   0.506   1.351  0.00  0.00     0.039 A 
ENDROOT
BRANCH   4   7
ATOM      7  O   UNL d   1       0.231  -0.977  -1.968  0.00  0.00    -0.526 OA
ATOM      8  H5  UNL d   1       0.870  -1.589  -2.370  0.00  0.00     0.418 HD
ENDBRANCH   4   7
TORSDOF 1
ENDMDL
