MODEL 1
REMARK minimizedAffinity 8.73418427
REMARK minimizedRMSD -1
REMARK  1 active torsions:
REMARK  status: ('A' for Active; 'I' for Inactive)
REMARK    1  A    between atoms: C1_2  and  C2_3 
ROOT
ATOM      1  C2  UNL d   1      -1.126   1.788  -0.518  0.00  0.00    -0.081 A 
ATOM      2  C3  UNL d   1      -2.201   0.904  -0.670  0.00  0.00     0.006 A 
ATOM      3  C4  UNL d   1      -2.179  -0.073  -1.669  0.00  0.00     0.002 A 
ATOM      4  C5  UNL d   1      -1.079  -0.187  -2.525  0.00  0.00    -0.080 A 
ATOM      5  C6  UNL d   1      -1.029  -1.250  -3.582  0.00  0.00     0.076 C 
ATOM      6  C7  UNL d   1      -0.012   0.708  -2.384  0.00  0.00     0.002 A 
ATOM      7  C8  UNL d   1      -0.034   1.685  -1.387  0.00  0.00     0.006 A 
ENDROOT
BRANCH   1   8
ATOM      8  C1  UNL d   1      -1.118   2.801   0.599  0.00  0.00     0.054 C 
ATOM      9  C   UNL d   1      -0.313   2.303   1.791  0.00  0.00     0.018 C 
ENDBRANCH   1   8
TORSDOF 1
ENDMDL
