MODEL 1
REMARK minimizedAffinity 10.4454842
REMARK minimizedRMSD -1
REMARK  1 active torsions:
REMARK  status: ('A' for Active; 'I' for Inactive)
REMARK    1  A    between atoms: C1_2  and  C2_3 
ROOT
ATOM      1  C2  UNL d   1      -2.162  -3.142  -5.689  0.00  0.00    -0.081 A 
ATOM      2  C3  UNL d   1      -3.468  -2.728  -5.979  0.00  0.00     0.006 A 
ATOM      3  C4  UNL d   1      -4.515  -3.652  -6.000  0.00  0.00     0.002 A 
ATOM      4  C5  UNL d   1      -4.276  -5.002  -5.725  0.00  0.00    -0.080 A 
ATOM      5  C6  UNL d   1      -5.396  -5.999  -5.714  0.00  0.00     0.076 C 
ATOM      6  C7  UNL d   1      -2.968  -5.419  -5.453  0.00  0.00     0.002 A 
ATOM      7  C8  UNL d   1      -1.921  -4.496  -5.432  0.00  0.00     0.006 A 
ENDROOT
BRANCH   1   8
ATOM      8  C1  UNL d   1      -1.041  -2.137  -5.602  0.00  0.00     0.054 C 
ATOM      9  C   UNL d   1      -1.572  -0.711  -5.642  0.00  0.00     0.018 C 
ENDBRANCH   1   8
TORSDOF 1
ENDMDL
