MODEL 1
REMARK minimizedAffinity 0.0749337524
REMARK minimizedRMSD -1
REMARK  1 active torsions:
REMARK  status: ('A' for Active; 'I' for Inactive)
REMARK    1  A    between atoms: C1_2  and  C2_3 
ROOT
ATOM      1  C2  UNL d   1      -1.176   2.343   1.245  0.00  0.00    -0.081 A 
ATOM      2  C3  UNL d   1      -0.545   1.441   0.378  0.00  0.00     0.006 A 
ATOM      3  C4  UNL d   1      -0.351   1.770  -0.966  0.00  0.00     0.002 A 
ATOM      4  C5  UNL d   1      -0.775   3.007  -1.463  0.00  0.00    -0.080 A 
ATOM      5  C6  UNL d   1      -0.545   3.384  -2.896  0.00  0.00     0.076 C 
ATOM      6  C7  UNL d   1      -1.420   3.900  -0.601  0.00  0.00     0.002 A 
ATOM      7  C8  UNL d   1      -1.616   3.572   0.742  0.00  0.00     0.006 A 
ENDROOT
BRANCH   1   8
ATOM      8  C1  UNL d   1      -1.329   2.018   2.709  0.00  0.00     0.054 C 
ATOM      9  C   UNL d   1      -0.865   0.601   3.013  0.00  0.00     0.018 C 
ENDBRANCH   1   8
TORSDOF 1
ENDMDL
