MODEL 1
REMARK minimizedAffinity 6.20857286
REMARK minimizedRMSD -1
REMARK  1 active torsions:
REMARK  status: ('A' for Active; 'I' for Inactive)
REMARK    1  A    between atoms: C1_2  and  C2_3 
ROOT
ATOM      1  C2  UNL d   1      -0.141   1.654   1.033  0.00  0.00    -0.081 A 
ATOM      2  C3  UNL d   1       0.750   0.583   1.172  0.00  0.00     0.006 A 
ATOM      3  C4  UNL d   1       0.727  -0.213   2.320  0.00  0.00     0.002 A 
ATOM      4  C5  UNL d   1      -0.191   0.045   3.344  0.00  0.00    -0.080 A 
ATOM      5  C6  UNL d   1      -0.246  -0.820   4.568  0.00  0.00     0.076 C 
ATOM      6  C7  UNL d   1      -1.069   1.126   3.213  0.00  0.00     0.002 A 
ATOM      7  C8  UNL d   1      -1.046   1.922   2.066  0.00  0.00     0.006 A 
ENDROOT
BRANCH   1   8
ATOM      8  C1  UNL d   1      -0.163   2.474  -0.232  0.00  0.00     0.054 C 
ATOM      9  C   UNL d   1      -0.354   1.594  -1.458  0.00  0.00     0.018 C 
ENDBRANCH   1   8
TORSDOF 1
ENDMDL
