MODEL 1
REMARK minimizedAffinity 8.87221146
REMARK minimizedRMSD -1
REMARK  1 active torsions:
REMARK  status: ('A' for Active; 'I' for Inactive)
REMARK    1  A    between atoms: C1_2  and  C2_3 
ROOT
ATOM      1  C2  UNL d   1      -1.711   1.990  -0.564  0.00  0.00    -0.081 A 
ATOM      2  C3  UNL d   1      -0.879   2.150  -1.678  0.00  0.00     0.006 A 
ATOM      3  C4  UNL d   1      -0.737   1.120  -2.611  0.00  0.00     0.002 A 
ATOM      4  C5  UNL d   1      -1.432  -0.084  -2.450  0.00  0.00    -0.080 A 
ATOM      5  C6  UNL d   1      -1.312  -1.186  -3.460  0.00  0.00     0.076 C 
ATOM      6  C7  UNL d   1      -2.250  -0.251  -1.327  0.00  0.00     0.002 A 
ATOM      7  C8  UNL d   1      -2.391   0.779  -0.394  0.00  0.00     0.006 A 
ENDROOT
BRANCH   1   8
ATOM      8  C1  UNL d   1      -1.916   3.122   0.410  0.00  0.00     0.054 C 
ATOM      9  C   UNL d   1      -1.926   2.622   1.847  0.00  0.00     0.018 C 
ENDBRANCH   1   8
TORSDOF 1
ENDMDL
