MODEL 1
REMARK minimizedAffinity 5.95057821
REMARK minimizedRMSD -1
REMARK  1 active torsions:
REMARK  status: ('A' for Active; 'I' for Inactive)
REMARK    1  A    between atoms: C1_2  and  C2_3 
ROOT
ATOM      1  C2  UNL d   1      -0.885   2.145  -1.203  0.00  0.00    -0.081 A 
ATOM      2  C3  UNL d   1      -2.121   1.488  -1.246  0.00  0.00     0.006 A 
ATOM      3  C4  UNL d   1      -2.270   0.305  -1.974  0.00  0.00     0.002 A 
ATOM      4  C5  UNL d   1      -1.185  -0.244  -2.665  0.00  0.00    -0.080 A 
ATOM      5  C6  UNL d   1      -1.324  -1.529  -3.426  0.00  0.00     0.076 C 
ATOM      6  C7  UNL d   1       0.045   0.421  -2.637  0.00  0.00     0.002 A 
ATOM      7  C8  UNL d   1       0.195   1.604  -1.910  0.00  0.00     0.006 A 
ENDROOT
BRANCH   1   8
ATOM      8  C1  UNL d   1      -0.705   3.385  -0.366  0.00  0.00     0.054 C 
ATOM      9  C   UNL d   1       0.089   4.446  -1.114  0.00  0.00     0.018 C 
ENDBRANCH   1   8
TORSDOF 1
ENDMDL
