MODEL 1
REMARK minimizedAffinity 2.05452752
REMARK minimizedRMSD -1
REMARK  1 active torsions:
REMARK  status: ('A' for Active; 'I' for Inactive)
REMARK    1  A    between atoms: C1_2  and  C2_3 
ROOT
ATOM      1  C2  UNL d   1      -0.042   2.681   1.034  0.00  0.00    -0.081 A 
ATOM      2  C3  UNL d   1       0.883   1.630   1.001  0.00  0.00     0.006 A 
ATOM      3  C4  UNL d   1       0.742   0.591   0.078  0.00  0.00     0.002 A 
ATOM      4  C5  UNL d   1      -0.320   0.591  -0.833  0.00  0.00    -0.080 A 
ATOM      5  C6  UNL d   1      -0.466  -0.502  -1.849  0.00  0.00     0.076 C 
ATOM      6  C7  UNL d   1      -1.254   1.632  -0.788  0.00  0.00     0.002 A 
ATOM      7  C8  UNL d   1      -1.114   2.670   0.136  0.00  0.00     0.006 A 
ENDROOT
BRANCH   1   8
ATOM      8  C1  UNL d   1       0.144   3.835   1.986  0.00  0.00     0.054 C 
ATOM      9  C   UNL d   1       1.488   4.517   1.773  0.00  0.00     0.018 C 
ENDBRANCH   1   8
TORSDOF 1
ENDMDL
