MODEL 1
REMARK minimizedAffinity 7.51655865
REMARK minimizedRMSD -1
REMARK  1 active torsions:
REMARK  status: ('A' for Active; 'I' for Inactive)
REMARK    1  A    between atoms: C1_2  and  C2_3 
ROOT
ATOM      1  C2  UNL d   1      -0.010   2.247   1.492  0.00  0.00    -0.081 A 
ATOM      2  C3  UNL d   1       1.028   1.307   1.494  0.00  0.00     0.006 A 
ATOM      3  C4  UNL d   1       1.124   0.360   2.517  0.00  0.00     0.002 A 
ATOM      4  C5  UNL d   1       0.179   0.331   3.548  0.00  0.00    -0.080 A 
ATOM      5  C6  UNL d   1       0.253  -0.699   4.635  0.00  0.00     0.076 C 
ATOM      6  C7  UNL d   1      -0.848   1.281   3.555  0.00  0.00     0.002 A 
ATOM      7  C8  UNL d   1      -0.944   2.229   2.534  0.00  0.00     0.006 A 
ENDROOT
BRANCH   1   8
ATOM      8  C1  UNL d   1      -0.154   3.228   0.356  0.00  0.00     0.054 C 
ATOM      9  C   UNL d   1      -0.619   2.536  -0.917  0.00  0.00     0.018 C 
ENDBRANCH   1   8
TORSDOF 1
ENDMDL
