MODEL 1
REMARK minimizedAffinity -2.93370295
REMARK minimizedRMSD -1
REMARK  0 active torsions:
REMARK  status: ('A' for Active; 'I' for Inactive)
ROOT
ATOM      1  O1  BZF d   1       0.274   1.637  -0.895  0.00  0.00    -0.204 OA
ATOM      2  C2  BZF d   1      -0.067   0.342  -0.557  0.00  0.00     0.174 A 
ATOM      3  C3  BZF d   1       0.678  -0.094   0.480  0.00  0.00    -0.012 A 
ATOM      4  C3A BZF d   1       1.474   1.029   0.869  0.00  0.00    -0.107 A 
ATOM      5  C4  BZF d   1       2.403   1.226   1.851  0.00  0.00     0.055 A 
ATOM      6  C5  BZF d   1       3.051   2.419   1.917  0.00  0.00    -0.016 A 
ATOM      7  C6  BZF d   1       2.799   3.433   1.016  0.00  0.00     0.022 A 
ATOM      8  C7  BZF d   1       1.883   3.286   0.028  0.00  0.00     0.029 A 
ATOM      9  C7A BZF d   1       1.202   2.094  -0.021  0.00  0.00     0.058 A 
ENDROOT
TORSDOF 0
ENDMDL
