MODEL 1
REMARK minimizedAffinity -1.36383235
REMARK minimizedRMSD -1
REMARK  0 active torsions:
REMARK  status: ('A' for Active; 'I' for Inactive)
ROOT
ATOM      1  O1  BZF d   1       0.330  -1.117   0.487  0.00  0.00    -0.204 OA
ATOM      2  C2  BZF d   1       0.554   0.056  -0.207  0.00  0.00     0.174 A 
ATOM      3  C3  BZF d   1      -0.428   0.275  -1.105  0.00  0.00    -0.012 A 
ATOM      4  C3A BZF d   1      -1.370  -0.782  -0.899  0.00  0.00    -0.107 A 
ATOM      5  C4  BZF d   1      -2.565  -1.101  -1.476  0.00  0.00     0.055 A 
ATOM      6  C5  BZF d   1      -3.199  -2.241  -1.096  0.00  0.00    -0.016 A 
ATOM      7  C6  BZF d   1      -2.665  -3.087  -0.147  0.00  0.00     0.022 A 
ATOM      8  C7  BZF d   1      -1.484  -2.811   0.458  0.00  0.00     0.029 A 
ATOM      9  C7A BZF d   1      -0.857  -1.642   0.100  0.00  0.00     0.058 A 
ENDROOT
TORSDOF 0
ENDMDL
