MODEL 1
REMARK minimizedAffinity -4.61249256
REMARK minimizedRMSD -1
REMARK  0 active torsions:
REMARK  status: ('A' for Active; 'I' for Inactive)
ROOT
ATOM      1  O1  BZF d   1       0.776  -1.504   0.799  0.00  0.00    -0.204 OA
ATOM      2  C2  BZF d   1       1.773  -0.587   0.525  0.00  0.00     0.174 A 
ATOM      3  C3  BZF d   1       1.353   0.322  -0.378  0.00  0.00    -0.012 A 
ATOM      4  C3A BZF d   1      -0.021   0.005  -0.619  0.00  0.00    -0.107 A 
ATOM      5  C4  BZF d   1      -0.988   0.558  -1.409  0.00  0.00     0.055 A 
ATOM      6  C5  BZF d   1      -2.209  -0.035  -1.473  0.00  0.00    -0.016 A 
ATOM      7  C6  BZF d   1      -2.495  -1.185  -0.766  0.00  0.00     0.022 A 
ATOM      8  C7  BZF d   1      -1.570  -1.768   0.035  0.00  0.00     0.029 A 
ATOM      9  C7A BZF d   1      -0.346  -1.152   0.127  0.00  0.00     0.058 A 
ENDROOT
TORSDOF 0
ENDMDL
