MODEL 1
REMARK minimizedAffinity -2.80169296
REMARK minimizedRMSD -1
REMARK  0 active torsions:
REMARK  status: ('A' for Active; 'I' for Inactive)
ROOT
ATOM      1  O1  BZF d   1       0.457  -1.504   0.887  0.00  0.00    -0.204 OA
ATOM      2  C2  BZF d   1       1.515  -0.617   0.947  0.00  0.00     0.174 A 
ATOM      3  C3  BZF d   1       1.316   0.422   0.111  0.00  0.00    -0.012 A 
ATOM      4  C3A BZF d   1       0.012   0.215  -0.442  0.00  0.00    -0.107 A 
ATOM      5  C4  BZF d   1      -0.754   0.918  -1.327  0.00  0.00     0.055 A 
ATOM      6  C5  BZF d   1      -1.952   0.407  -1.715  0.00  0.00    -0.016 A 
ATOM      7  C6  BZF d   1      -2.411  -0.806  -1.244  0.00  0.00     0.022 A 
ATOM      8  C7  BZF d   1      -1.688  -1.537  -0.361  0.00  0.00     0.029 A 
ATOM      9  C7A BZF d   1      -0.492  -1.007   0.059  0.00  0.00     0.058 A 
ENDROOT
TORSDOF 0
ENDMDL
