MODEL 1
REMARK minimizedAffinity -4.38239765
REMARK minimizedRMSD -1
REMARK  0 active torsions:
REMARK  status: ('A' for Active; 'I' for Inactive)
ROOT
ATOM      1  O1  BZF d   1      -0.398  -2.318   1.460  0.00  0.00    -0.204 OA
ATOM      2  C2  BZF d   1      -1.374  -3.293   1.382  0.00  0.00     0.174 A 
ATOM      3  C3  BZF d   1      -2.238  -3.025   0.382  0.00  0.00    -0.012 A 
ATOM      4  C3A BZF d   1      -1.721  -1.856  -0.261  0.00  0.00    -0.107 A 
ATOM      5  C4  BZF d   1      -2.129  -1.115  -1.332  0.00  0.00     0.055 A 
ATOM      6  C5  BZF d   1      -1.442   0.011  -1.657  0.00  0.00    -0.016 A 
ATOM      7  C6  BZF d   1      -0.345   0.427  -0.931  0.00  0.00     0.022 A 
ATOM      8  C7  BZF d   1       0.101  -0.278   0.137  0.00  0.00     0.029 A 
ATOM      9  C7A BZF d   1      -0.572  -1.434   0.448  0.00  0.00     0.058 A 
ENDROOT
TORSDOF 0
ENDMDL
