MODEL 1
REMARK minimizedAffinity -0.788150728
REMARK minimizedRMSD -1
REMARK  0 active torsions:
REMARK  status: ('A' for Active; 'I' for Inactive)
ROOT
ATOM      1  O1  BZF d   1      -4.959   3.760   0.278  0.00  0.00    -0.204 OA
ATOM      2  C2  BZF d   1      -5.258   4.942  -0.373  0.00  0.00     0.174 A 
ATOM      3  C3  BZF d   1      -5.077   5.998   0.446  0.00  0.00    -0.012 A 
ATOM      4  C3A BZF d   1      -4.549   5.449   1.657  0.00  0.00    -0.107 A 
ATOM      5  C4  BZF d   1      -4.150   6.000   2.841  0.00  0.00     0.055 A 
ATOM      6  C5  BZF d   1      -3.751   5.180   3.849  0.00  0.00    -0.016 A 
ATOM      7  C6  BZF d   1      -3.744   3.808   3.710  0.00  0.00     0.022 A 
ATOM      8  C7  BZF d   1      -4.125   3.216   2.552  0.00  0.00     0.029 A 
ATOM      9  C7A BZF d   1      -4.498   4.043   1.520  0.00  0.00     0.058 A 
ENDROOT
TORSDOF 0
ENDMDL
