MODEL 1
REMARK minimizedAffinity 1.69785583
REMARK minimizedRMSD -1
REMARK  0 active torsions:
REMARK  status: ('A' for Active; 'I' for Inactive)
ROOT
ATOM      1  O1  BZF d   1       1.006   3.316   0.192  0.00  0.00    -0.204 OA
ATOM      2  C2  BZF d   1       1.973   3.370   1.177  0.00  0.00     0.174 A 
ATOM      3  C3  BZF d   1       2.190   2.147   1.702  0.00  0.00    -0.012 A 
ATOM      4  C3A BZF d   1       1.370   1.259   0.938  0.00  0.00    -0.107 A 
ATOM      5  C4  BZF d   1       1.163  -0.091   0.971  0.00  0.00     0.055 A 
ATOM      6  C5  BZF d   1       0.241  -0.639   0.137  0.00  0.00    -0.016 A 
ATOM      7  C6  BZF d   1      -0.495   0.132  -0.739  0.00  0.00     0.022 A 
ATOM      8  C7  BZF d   1      -0.321   1.474  -0.812  0.00  0.00     0.029 A 
ATOM      9  C7A BZF d   1       0.633   2.027   0.007  0.00  0.00     0.058 A 
ENDROOT
TORSDOF 0
ENDMDL
