MODEL 1
REMARK minimizedAffinity -2.30639839
REMARK minimizedRMSD -1
REMARK  0 active torsions:
REMARK  status: ('A' for Active; 'I' for Inactive)
ROOT
ATOM      1  O1  BZF d   1      -0.108   0.958   0.956  0.00  0.00    -0.204 OA
ATOM      2  C2  BZF d   1       0.168  -0.082   0.090  0.00  0.00     0.174 A 
ATOM      3  C3  BZF d   1       1.385   0.071  -0.470  0.00  0.00    -0.012 A 
ATOM      4  C3A BZF d   1       1.941   1.235   0.151  0.00  0.00    -0.107 A 
ATOM      5  C4  BZF d   1       3.134   1.887   0.025  0.00  0.00     0.055 A 
ATOM      6  C5  BZF d   1       3.335   3.036   0.721  0.00  0.00    -0.016 A 
ATOM      7  C6  BZF d   1       2.365   3.563   1.548  0.00  0.00     0.022 A 
ATOM      8  C7  BZF d   1       1.168   2.949   1.709  0.00  0.00     0.029 A 
ATOM      9  C7A BZF d   1       0.973   1.770   1.032  0.00  0.00     0.058 A 
ENDROOT
TORSDOF 0
ENDMDL
