MODEL 1
REMARK minimizedAffinity -2.92738533
REMARK minimizedRMSD -1
REMARK  0 active torsions:
REMARK  status: ('A' for Active; 'I' for Inactive)
ROOT
ATOM      1  O1  BZF d   1      -0.204   0.603   0.038  0.00  0.00    -0.204 OA
ATOM      2  C2  BZF d   1       0.677  -0.349  -0.436  0.00  0.00     0.174 A 
ATOM      3  C3  BZF d   1       1.952   0.015  -0.192  0.00  0.00    -0.012 A 
ATOM      4  C3A BZF d   1       1.860   1.229   0.559  0.00  0.00    -0.107 A 
ATOM      5  C4  BZF d   1       2.788   2.067   1.108  0.00  0.00     0.055 A 
ATOM      6  C5  BZF d   1       2.370   3.209   1.715  0.00  0.00    -0.016 A 
ATOM      7  C6  BZF d   1       1.035   3.547   1.786  0.00  0.00     0.022 A 
ATOM      8  C7  BZF d   1       0.077   2.745   1.260  0.00  0.00     0.029 A 
ATOM      9  C7A BZF d   1       0.493   1.574   0.675  0.00  0.00     0.058 A 
ENDROOT
TORSDOF 0
ENDMDL
