MODEL 1
REMARK minimizedAffinity -4.25119877
REMARK minimizedRMSD -1
REMARK  0 active torsions:
REMARK  status: ('A' for Active; 'I' for Inactive)
ROOT
ATOM      1  O1  BZF d   1      -2.513  -0.489  -1.155  0.00  0.00    -0.204 OA
ATOM      2  C2  BZF d   1      -3.398  -1.373  -0.569  0.00  0.00     0.174 A 
ATOM      3  C3  BZF d   1      -2.842  -1.961   0.510  0.00  0.00    -0.012 A 
ATOM      4  C3A BZF d   1      -1.561  -1.342   0.658  0.00  0.00    -0.107 A 
ATOM      5  C4  BZF d   1      -0.544  -1.491   1.558  0.00  0.00     0.055 A 
ATOM      6  C5  BZF d   1       0.604  -0.788   1.379  0.00  0.00    -0.016 A 
ATOM      7  C6  BZF d   1       0.773   0.068   0.311  0.00  0.00     0.022 A 
ATOM      8  C7  BZF d   1      -0.209   0.253  -0.605  0.00  0.00     0.029 A 
ATOM      9  C7A BZF d   1      -1.384  -0.432  -0.409  0.00  0.00     0.058 A 
ENDROOT
TORSDOF 0
ENDMDL
