MODEL 1
REMARK minimizedAffinity -0.379552573
REMARK minimizedRMSD -1
REMARK  0 active torsions:
REMARK  status: ('A' for Active; 'I' for Inactive)
ROOT
ATOM      1  O1  BZF d   1      -0.345   0.772   0.747  0.00  0.00    -0.204 OA
ATOM      2  C2  BZF d   1      -0.239   0.075  -0.441  0.00  0.00     0.174 A 
ATOM      3  C3  BZF d   1       0.984   0.241  -0.986  0.00  0.00    -0.012 A 
ATOM      4  C3A BZF d   1       1.716   1.021  -0.035  0.00  0.00    -0.107 A 
ATOM      5  C4  BZF d   1       2.994   1.500   0.000  0.00  0.00     0.055 A 
ATOM      6  C5  BZF d   1       3.375   2.290   1.038  0.00  0.00    -0.016 A 
ATOM      7  C6  BZF d   1       2.503   2.625   2.053  0.00  0.00     0.022 A 
ATOM      8  C7  BZF d   1       1.227   2.170   2.064  0.00  0.00     0.029 A 
ATOM      9  C7A BZF d   1       0.849   1.344   1.034  0.00  0.00     0.058 A 
ENDROOT
TORSDOF 0
ENDMDL
