MODEL 1
REMARK minimizedAffinity 6.74812651
REMARK minimizedRMSD -1
REMARK  0 active torsions:
REMARK  status: ('A' for Active; 'I' for Inactive)
ROOT
ATOM      1  O1  BZF d   1      -0.317  -2.910   1.322  0.00  0.00    -0.204 OA
ATOM      2  C2  BZF d   1      -1.299  -3.749   1.812  0.00  0.00     0.174 A 
ATOM      3  C3  BZF d   1      -2.517  -3.362   1.381  0.00  0.00    -0.012 A 
ATOM      4  C3A BZF d   1      -2.273  -2.265   0.496  0.00  0.00    -0.107 A 
ATOM      5  C4  BZF d   1      -3.086  -1.467  -0.257  0.00  0.00     0.055 A 
ATOM      6  C5  BZF d   1      -2.538  -0.437  -0.954  0.00  0.00    -0.016 A 
ATOM      7  C6  BZF d   1      -1.185  -0.173  -0.917  0.00  0.00     0.022 A 
ATOM      8  C7  BZF d   1      -0.338  -0.940  -0.188  0.00  0.00     0.029 A 
ATOM      9  C7A BZF d   1      -0.883  -2.002   0.491  0.00  0.00     0.058 A 
ENDROOT
TORSDOF 0
ENDMDL
