MODEL 1
REMARK minimizedAffinity -2.68051243
REMARK minimizedRMSD -1
REMARK  0 active torsions:
REMARK  status: ('A' for Active; 'I' for Inactive)
ROOT
ATOM      1  O1  BZF d   1      -0.631   0.299   0.103  0.00  0.00    -0.204 OA
ATOM      2  C2  BZF d   1      -0.396  -0.101  -1.198  0.00  0.00     0.174 A 
ATOM      3  C3  BZF d   1       0.816   0.318  -1.616  0.00  0.00    -0.012 A 
ATOM      4  C3A BZF d   1       1.411   0.945  -0.476  0.00  0.00    -0.107 A 
ATOM      5  C4  BZF d   1       2.618   1.545  -0.257  0.00  0.00     0.055 A 
ATOM      6  C5  BZF d   1       2.860   2.123   0.948  0.00  0.00    -0.016 A 
ATOM      7  C6  BZF d   1       1.916   2.125   1.955  0.00  0.00     0.022 A 
ATOM      8  C7  BZF d   1       0.706   1.538   1.787  0.00  0.00     0.029 A 
ATOM      9  C7A BZF d   1       0.471   0.924   0.581  0.00  0.00     0.058 A 
ENDROOT
TORSDOF 0
ENDMDL
