MODEL 1
REMARK minimizedAffinity -5.20293188
REMARK minimizedRMSD -1
REMARK  0 active torsions:
REMARK  status: ('A' for Active; 'I' for Inactive)
ROOT
ATOM      1  O1  BZF d   1      -0.031  -1.796   0.864  0.00  0.00    -0.204 OA
ATOM      2  C2  BZF d   1       0.800  -0.833   0.325  0.00  0.00     0.174 A 
ATOM      3  C3  BZF d   1       0.121  -0.036  -0.525  0.00  0.00    -0.012 A 
ATOM      4  C3A BZF d   1      -1.239  -0.474  -0.446  0.00  0.00    -0.107 A 
ATOM      5  C4  BZF d   1      -2.394  -0.061  -1.046  0.00  0.00     0.055 A 
ATOM      6  C5  BZF d   1      -3.542  -0.748  -0.810  0.00  0.00    -0.016 A 
ATOM      7  C6  BZF d   1      -3.571  -1.853   0.015  0.00  0.00     0.022 A 
ATOM      8  C7  BZF d   1      -2.451  -2.297   0.637  0.00  0.00     0.029 A 
ATOM      9  C7A BZF d   1      -1.296  -1.585   0.426  0.00  0.00     0.058 A 
ENDROOT
TORSDOF 0
ENDMDL
