MODEL 1
REMARK minimizedAffinity -3.00628448
REMARK minimizedRMSD -1
REMARK  0 active torsions:
REMARK  status: ('A' for Active; 'I' for Inactive)
ROOT
ATOM      1  O1  BZF d   1       0.564  -0.623   0.881  0.00  0.00    -0.204 OA
ATOM      2  C2  BZF d   1       0.479   0.468   0.038  0.00  0.00     0.174 A 
ATOM      3  C3  BZF d   1      -0.558   0.335  -0.814  0.00  0.00    -0.012 A 
ATOM      4  C3A BZF d   1      -1.214  -0.875  -0.422  0.00  0.00    -0.107 A 
ATOM      5  C4  BZF d   1      -2.319  -1.534  -0.879  0.00  0.00     0.055 A 
ATOM      6  C5  BZF d   1      -2.651  -2.730  -0.325  0.00  0.00    -0.016 A 
ATOM      7  C6  BZF d   1      -1.899  -3.297   0.682  0.00  0.00     0.022 A 
ATOM      8  C7  BZF d   1      -0.797  -2.678   1.172  0.00  0.00     0.029 A 
ATOM      9  C7A BZF d   1      -0.477  -1.454   0.637  0.00  0.00     0.058 A 
ENDROOT
TORSDOF 0
ENDMDL
