MODEL 1
REMARK minimizedAffinity -1.77851582
REMARK minimizedRMSD -1
REMARK  0 active torsions:
REMARK  status: ('A' for Active; 'I' for Inactive)
ROOT
ATOM      1  O1  BZF d   1       0.601  -0.704   1.241  0.00  0.00    -0.204 OA
ATOM      2  C2  BZF d   1       0.784   0.437   0.483  0.00  0.00     0.174 A 
ATOM      3  C3  BZF d   1      -0.173   0.541  -0.462  0.00  0.00    -0.012 A 
ATOM      4  C3A BZF d   1      -1.059  -0.557  -0.224  0.00  0.00    -0.107 A 
ATOM      5  C4  BZF d   1      -2.209  -0.981  -0.824  0.00  0.00     0.055 A 
ATOM      6  C5  BZF d   1      -2.791  -2.133  -0.397  0.00  0.00    -0.016 A 
ATOM      7  C6  BZF d   1      -2.247  -2.886   0.623  0.00  0.00     0.022 A 
ATOM      8  C7  BZF d   1      -1.110  -2.502   1.252  0.00  0.00     0.029 A 
ATOM      9  C7A BZF d   1      -0.538  -1.322   0.845  0.00  0.00     0.058 A 
ENDROOT
TORSDOF 0
ENDMDL
