MODEL 1
REMARK minimizedAffinity -1.18997276
REMARK minimizedRMSD -1
REMARK  0 active torsions:
REMARK  status: ('A' for Active; 'I' for Inactive)
ROOT
ATOM      1  O1  BZF d   1       1.898   2.972  -0.085  0.00  0.00    -0.204 OA
ATOM      2  C2  BZF d   1       3.003   3.385   0.633  0.00  0.00     0.174 A 
ATOM      3  C3  BZF d   1       3.505   2.370   1.366  0.00  0.00    -0.012 A 
ATOM      4  C3A BZF d   1       2.716   1.229   1.017  0.00  0.00    -0.107 A 
ATOM      5  C4  BZF d   1       2.739  -0.082   1.401  0.00  0.00     0.055 A 
ATOM      6  C5  BZF d   1       1.784  -0.925   0.929  0.00  0.00    -0.016 A 
ATOM      7  C6  BZF d   1       0.789  -0.492   0.076  0.00  0.00     0.022 A 
ATOM      8  C7  BZF d   1       0.728   0.797  -0.337  0.00  0.00     0.029 A 
ATOM      9  C7A BZF d   1       1.711   1.645   0.113  0.00  0.00     0.058 A 
ENDROOT
TORSDOF 0
ENDMDL
