MODEL 1
REMARK minimizedAffinity -3.85182214
REMARK minimizedRMSD -1
REMARK  0 active torsions:
REMARK  status: ('A' for Active; 'I' for Inactive)
ROOT
ATOM      1  O1  BZF d   1       0.735  -0.792   0.970  0.00  0.00    -0.204 OA
ATOM      2  C2  BZF d   1       1.029   0.318   0.202  0.00  0.00     0.174 A 
ATOM      3  C3  BZF d   1       0.048   0.554  -0.693  0.00  0.00    -0.012 A 
ATOM      4  C3A BZF d   1      -0.963  -0.418  -0.409  0.00  0.00    -0.107 A 
ATOM      5  C4  BZF d   1      -2.189  -0.683  -0.949  0.00  0.00     0.055 A 
ATOM      6  C5  BZF d   1      -2.896  -1.749  -0.491  0.00  0.00    -0.016 A 
ATOM      7  C6  BZF d   1      -2.406  -2.573   0.501  0.00  0.00     0.022 A 
ATOM      8  C7  BZF d   1      -1.197  -2.347   1.071  0.00  0.00     0.029 A 
ATOM      9  C7A BZF d   1      -0.494  -1.251   0.633  0.00  0.00     0.058 A 
ENDROOT
TORSDOF 0
ENDMDL
