MODEL 1
REMARK minimizedAffinity -2.55150414
REMARK minimizedRMSD -1
REMARK  0 active torsions:
REMARK  status: ('A' for Active; 'I' for Inactive)
ROOT
ATOM      1  C2' OXE d   1       0.776  -0.746   1.892  0.00  0.00     0.078 C 
ATOM      2  C1' OXE d   1       0.789  -1.469  -0.820  0.00  0.00     0.078 C 
ATOM      3  C1  OXE d   1       0.393  -0.057  -0.471  0.00  0.00    -0.078 A 
ATOM      4  C2  OXE d   1       0.344   0.275   0.862  0.00  0.00    -0.078 A 
ATOM      5  C3  OXE d   1       0.038   1.580   1.237  0.00  0.00     0.003 A 
ATOM      6  C4  OXE d   1      -0.370   2.516   0.278  0.00  0.00    -0.002 A 
ATOM      7  C5  OXE d   1      -0.366   2.187  -1.082  0.00  0.00    -0.002 A 
ATOM      8  C6  OXE d   1       0.053   0.921  -1.475  0.00  0.00     0.003 A 
ENDROOT
TORSDOF 0
ENDMDL
