MODEL 1
REMARK minimizedAffinity -0.672015965
REMARK minimizedRMSD -1
REMARK  0 active torsions:
REMARK  status: ('A' for Active; 'I' for Inactive)
ROOT
ATOM      1  C2' OXE d   1      -0.216  -1.764  -0.788  0.00  0.00     0.078 C 
ATOM      2  C1' OXE d   1       0.333   0.753  -1.903  0.00  0.00     0.078 C 
ATOM      3  C1  OXE d   1       0.165   0.668  -0.406  0.00  0.00    -0.078 A 
ATOM      4  C2  OXE d   1      -0.150  -0.559   0.126  0.00  0.00    -0.078 A 
ATOM      5  C3  OXE d   1      -0.263  -0.704   1.506  0.00  0.00     0.003 A 
ATOM      6  C4  OXE d   1      -0.210   0.417   2.343  0.00  0.00    -0.002 A 
ATOM      7  C5  OXE d   1       0.070   1.683   1.817  0.00  0.00    -0.002 A 
ATOM      8  C6  OXE d   1       0.302   1.818   0.452  0.00  0.00     0.003 A 
ENDROOT
TORSDOF 0
ENDMDL
