MODEL 1
REMARK minimizedAffinity 2.74558616
REMARK minimizedRMSD -1
REMARK  0 active torsions:
REMARK  status: ('A' for Active; 'I' for Inactive)
ROOT
ATOM      1  C2' OXE d   1       0.497  -1.634  -0.891  0.00  0.00     0.078 C 
ATOM      2  C1' OXE d   1      -0.451   0.930  -1.528  0.00  0.00     0.078 C 
ATOM      3  C1  OXE d   1      -0.005   0.677  -0.109  0.00  0.00    -0.078 A 
ATOM      4  C2  OXE d   1       0.414  -0.594   0.205  0.00  0.00    -0.078 A 
ATOM      5  C3  OXE d   1       0.887  -0.867   1.485  0.00  0.00     0.003 A 
ATOM      6  C4  OXE d   1       0.797   0.099   2.495  0.00  0.00    -0.002 A 
ATOM      7  C5  OXE d   1       0.337   1.388   2.206  0.00  0.00    -0.002 A 
ATOM      8  C6  OXE d   1      -0.027   1.705   0.902  0.00  0.00     0.003 A 
ENDROOT
TORSDOF 0
ENDMDL
