MODEL 1
REMARK minimizedAffinity -1.10992122
REMARK minimizedRMSD -1
REMARK  0 active torsions:
REMARK  status: ('A' for Active; 'I' for Inactive)
ROOT
ATOM      1  C2' OXE d   1      -0.015  -0.954   2.117  0.00  0.00     0.078 C 
ATOM      2  C1' OXE d   1       0.255  -1.558  -0.611  0.00  0.00     0.078 C 
ATOM      3  C1  OXE d   1       0.099  -0.109  -0.224  0.00  0.00    -0.078 A 
ATOM      4  C2  OXE d   1      -0.079   0.173   1.109  0.00  0.00    -0.078 A 
ATOM      5  C3  OXE d   1      -0.173   1.498   1.527  0.00  0.00     0.003 A 
ATOM      6  C4  OXE d   1      -0.242   2.534   0.588  0.00  0.00    -0.002 A 
ATOM      7  C5  OXE d   1      -0.102   2.265  -0.778  0.00  0.00    -0.002 A 
ATOM      8  C6  OXE d   1       0.112   0.956  -1.196  0.00  0.00     0.003 A 
ENDROOT
TORSDOF 0
ENDMDL
