MODEL 1
REMARK minimizedAffinity -3.62248516
REMARK minimizedRMSD -1
REMARK  0 active torsions:
REMARK  status: ('A' for Active; 'I' for Inactive)
ROOT
ATOM      1  C2' OXE d   1       0.085  -0.637   2.561  0.00  0.00     0.078 C 
ATOM      2  C1' OXE d   1      -0.893   1.919   1.934  0.00  0.00     0.078 C 
ATOM      3  C1  OXE d   1      -0.447   1.037   0.795  0.00  0.00    -0.078 A 
ATOM      4  C2  OXE d   1       0.074  -0.194   1.114  0.00  0.00    -0.078 A 
ATOM      5  C3  OXE d   1       0.449  -1.069   0.098  0.00  0.00     0.003 A 
ATOM      6  C4  OXE d   1       0.444  -0.647  -1.237  0.00  0.00    -0.002 A 
ATOM      7  C5  OXE d   1      -0.045   0.617  -1.581  0.00  0.00    -0.002 A 
ATOM      8  C6  OXE d   1      -0.533   1.454  -0.583  0.00  0.00     0.003 A 
ENDROOT
TORSDOF 0
ENDMDL
