MODEL 1
REMARK minimizedAffinity -4.16714001
REMARK minimizedRMSD -1
REMARK  0 active torsions:
REMARK  status: ('A' for Active; 'I' for Inactive)
ROOT
ATOM      1  C2' OXE d   1       0.315  -0.139   2.069  0.00  0.00     0.078 C 
ATOM      2  C1' OXE d   1       0.679  -0.750  -0.646  0.00  0.00     0.078 C 
ATOM      3  C1  OXE d   1       0.394   0.685  -0.280  0.00  0.00    -0.078 A 
ATOM      4  C2  OXE d   1       0.171   0.967   1.046  0.00  0.00    -0.078 A 
ATOM      5  C3  OXE d   1      -0.041   2.283   1.445  0.00  0.00     0.003 A 
ATOM      6  C4  OXE d   1      -0.183   3.299   0.491  0.00  0.00    -0.002 A 
ATOM      7  C5  OXE d   1       0.001   3.026  -0.868  0.00  0.00    -0.002 A 
ATOM      8  C6  OXE d   1       0.332   1.736  -1.266  0.00  0.00     0.003 A 
ENDROOT
TORSDOF 0
ENDMDL
