MODEL 1
REMARK minimizedAffinity -0.0998469368
REMARK minimizedRMSD -1
REMARK  0 active torsions:
REMARK  status: ('A' for Active; 'I' for Inactive)
ROOT
ATOM      1  C2' OXE d   1       0.493  -0.233   0.583  0.00  0.00     0.078 C 
ATOM      2  C1' OXE d   1       1.341  -0.343  -2.091  0.00  0.00     0.078 C 
ATOM      3  C1  OXE d   1       0.515  -1.491  -1.567  0.00  0.00    -0.078 A 
ATOM      4  C2  OXE d   1       0.144  -1.452  -0.245  0.00  0.00    -0.078 A 
ATOM      5  C3  OXE d   1      -0.665  -2.458   0.275  0.00  0.00     0.003 A 
ATOM      6  C4  OXE d   1      -0.975  -3.586  -0.495  0.00  0.00    -0.002 A 
ATOM      7  C5  OXE d   1      -0.573  -3.666  -1.832  0.00  0.00    -0.002 A 
ATOM      8  C6  OXE d   1       0.135  -2.609  -2.395  0.00  0.00     0.003 A 
ENDROOT
TORSDOF 0
ENDMDL
