MODEL 1
REMARK minimizedAffinity -1.61385584
REMARK minimizedRMSD -1
REMARK  0 active torsions:
REMARK  status: ('A' for Active; 'I' for Inactive)
ROOT
ATOM      1  C2' OXE d   1       0.246  -0.378   2.252  0.00  0.00     0.078 C 
ATOM      2  C1' OXE d   1       0.193  -0.372  -0.555  0.00  0.00     0.078 C 
ATOM      3  C1  OXE d   1       0.043   0.950   0.154  0.00  0.00    -0.078 A 
ATOM      4  C2  OXE d   1       0.023   0.932   1.528  0.00  0.00    -0.078 A 
ATOM      5  C3  OXE d   1      -0.059   2.130   2.232  0.00  0.00     0.003 A 
ATOM      6  C4  OXE d   1      -0.275   3.337   1.555  0.00  0.00    -0.002 A 
ATOM      7  C5  OXE d   1      -0.298   3.372   0.157  0.00  0.00    -0.002 A 
ATOM      8  C6  OXE d   1      -0.099   2.196  -0.558  0.00  0.00     0.003 A 
ENDROOT
TORSDOF 0
ENDMDL
