MODEL 1
REMARK minimizedAffinity 1.58378124
REMARK minimizedRMSD -1
REMARK  0 active torsions:
REMARK  status: ('A' for Active; 'I' for Inactive)
ROOT
ATOM      1  C2' OXE d   1      -0.353   2.017   0.903  0.00  0.00     0.078 C 
ATOM      2  C1' OXE d   1       0.755   4.344  -0.209  0.00  0.00     0.078 C 
ATOM      3  C1  OXE d   1       1.252   3.907   1.146  0.00  0.00    -0.078 A 
ATOM      4  C2  OXE d   1       0.671   2.793   1.703  0.00  0.00    -0.078 A 
ATOM      5  C3  OXE d   1       1.131   2.315   2.927  0.00  0.00     0.003 A 
ATOM      6  C4  OXE d   1       2.071   3.044   3.665  0.00  0.00    -0.002 A 
ATOM      7  C5  OXE d   1       2.647   4.203   3.133  0.00  0.00    -0.002 A 
ATOM      8  C6  OXE d   1       2.281   4.623   1.859  0.00  0.00     0.003 A 
ENDROOT
TORSDOF 0
ENDMDL
