MODEL 1
REMARK minimizedAffinity 5.99899817
REMARK minimizedRMSD -1
REMARK  3 active torsions:
REMARK  status: ('A' for Active; 'I' for Inactive)
REMARK    1  A    between atoms: C3'_2  and  C2'_3 
REMARK    2  A    between atoms: C2'_3  and  C1'_4 
REMARK    3  A    between atoms: C1'_4  and  C1_5 
ROOT
ATOM      1  C1  N4B d   1       2.078   2.990   1.738  0.00  0.00    -0.075 A 
ATOM      2  C2  N4B d   1       3.324   3.331   1.167  0.00  0.00     0.002 A 
ATOM      3  C3  N4B d   1       3.390   4.290   0.186  0.00  0.00     0.002 A 
ATOM      4  C4  N4B d   1       2.226   4.904  -0.252  0.00  0.00    -0.004 A 
ATOM      5  C5  N4B d   1       1.030   4.587   0.322  0.00  0.00     0.002 A 
ATOM      6  C6  N4B d   1       0.949   3.629   1.312  0.00  0.00     0.002 A 
ENDROOT
BRANCH   1   7
ATOM      7  C1' N4B d   1       1.944   1.888   2.753  0.00  0.00     0.057 C 
BRANCH   7   8
ATOM      8  C2' N4B d   1       1.395   0.641   2.068  0.00  0.00     0.009 C 
BRANCH   8   9
ATOM      9  C3' N4B d   1       2.465  -0.092   1.277  0.00  0.00     0.004 C 
ATOM     10  C4' N4B d   1       2.893  -1.373   1.927  0.00  0.00     0.003 C 
ENDBRANCH   8   9
ENDBRANCH   7   8
ENDBRANCH   1   7
TORSDOF 3
ENDMDL
