MODEL 1
REMARK minimizedAffinity 2.04667544
REMARK minimizedRMSD -1
REMARK  3 active torsions:
REMARK  status: ('A' for Active; 'I' for Inactive)
REMARK    1  A    between atoms: C3'_2  and  C2'_3 
REMARK    2  A    between atoms: C2'_3  and  C1'_4 
REMARK    3  A    between atoms: C1'_4  and  C1_5 
ROOT
ATOM      1  C1  N4B d   1       2.635  -1.000   2.298  0.00  0.00    -0.075 A 
ATOM      2  C2  N4B d   1       3.176  -2.296   2.149  0.00  0.00     0.002 A 
ATOM      3  C3  N4B d   1       2.946  -3.252   3.108  0.00  0.00     0.002 A 
ATOM      4  C4  N4B d   1       2.195  -2.931   4.229  0.00  0.00    -0.004 A 
ATOM      5  C5  N4B d   1       1.655  -1.684   4.354  0.00  0.00     0.002 A 
ATOM      6  C6  N4B d   1       1.875  -0.715   3.396  0.00  0.00     0.002 A 
ENDROOT
BRANCH   1   7
ATOM      7  C1' N4B d   1       2.932   0.102   1.319  0.00  0.00     0.057 C 
BRANCH   7   8
ATOM      8  C2' N4B d   1       2.229   1.378   1.773  0.00  0.00     0.009 C 
BRANCH   8   9
ATOM      9  C3' N4B d   1       2.611   2.573   0.917  0.00  0.00     0.004 C 
ATOM     10  C4' N4B d   1       1.432   3.421   0.543  0.00  0.00     0.003 C 
ENDBRANCH   8   9
ENDBRANCH   7   8
ENDBRANCH   1   7
TORSDOF 3
ENDMDL
