MODEL 1
REMARK minimizedAffinity -1.24201572
REMARK minimizedRMSD -1
REMARK  3 active torsions:
REMARK  status: ('A' for Active; 'I' for Inactive)
REMARK    1  A    between atoms: C3'_2  and  C2'_3 
REMARK    2  A    between atoms: C2'_3  and  C1'_4 
REMARK    3  A    between atoms: C1'_4  and  C1_5 
ROOT
ATOM      1  C1  N4B d   1       2.614  -1.409   3.363  0.00  0.00    -0.075 A 
ATOM      2  C2  N4B d   1       1.899  -2.276   4.219  0.00  0.00     0.002 A 
ATOM      3  C3  N4B d   1       2.570  -3.221   4.955  0.00  0.00     0.002 A 
ATOM      4  C4  N4B d   1       3.948  -3.330   4.839  0.00  0.00    -0.004 A 
ATOM      5  C5  N4B d   1       4.634  -2.472   4.030  0.00  0.00     0.002 A 
ATOM      6  C6  N4B d   1       3.973  -1.514   3.287  0.00  0.00     0.002 A 
ENDROOT
BRANCH   1   7
ATOM      7  C1' N4B d   1       1.916  -0.417   2.474  0.00  0.00     0.057 C 
BRANCH   7   8
ATOM      8  C2' N4B d   1       2.803   0.813   2.302  0.00  0.00     0.009 C 
BRANCH   8   9
ATOM      9  C3' N4B d   1       2.983   1.183   0.839  0.00  0.00     0.004 C 
ATOM     10  C4' N4B d   1       2.163   2.373   0.437  0.00  0.00     0.003 C 
ENDBRANCH   8   9
ENDBRANCH   7   8
ENDBRANCH   1   7
TORSDOF 3
ENDMDL
