MODEL 1
REMARK minimizedAffinity 14.5040236
REMARK minimizedRMSD -1
REMARK  3 active torsions:
REMARK  status: ('A' for Active; 'I' for Inactive)
REMARK    1  A    between atoms: C3'_2  and  C2'_3 
REMARK    2  A    between atoms: C2'_3  and  C1'_4 
REMARK    3  A    between atoms: C1'_4  and  C1_5 
ROOT
ATOM      1  C1  N4B d   1      -3.354   3.196   1.448  0.00  0.00    -0.075 A 
ATOM      2  C2  N4B d   1      -4.350   3.791   0.644  0.00  0.00     0.002 A 
ATOM      3  C3  N4B d   1      -5.661   3.781   1.055  0.00  0.00     0.002 A 
ATOM      4  C4  N4B d   1      -5.999   3.167   2.252  0.00  0.00    -0.004 A 
ATOM      5  C5  N4B d   1      -5.027   2.616   3.034  0.00  0.00     0.002 A 
ATOM      6  C6  N4B d   1      -3.706   2.623   2.636  0.00  0.00     0.002 A 
ENDROOT
BRANCH   1   7
ATOM      7  C1' N4B d   1      -1.920   3.106   1.000  0.00  0.00     0.057 C 
BRANCH   7   8
ATOM      8  C2' N4B d   1      -1.586   4.326   0.146  0.00  0.00     0.009 C 
BRANCH   8   9
ATOM      9  C3' N4B d   1      -0.231   4.914   0.501  0.00  0.00     0.004 C 
ATOM     10  C4' N4B d   1       0.382   5.683  -0.631  0.00  0.00     0.003 C 
ENDBRANCH   8   9
ENDBRANCH   7   8
ENDBRANCH   1   7
TORSDOF 3
ENDMDL
