MODEL 1
REMARK minimizedAffinity 1.06309628
REMARK minimizedRMSD -1
REMARK  0 active torsions:
REMARK  status: ('A' for Active; 'I' for Inactive)
ROOT
ATOM      1  O1  BZF d   1       2.657  -2.008  -1.247  0.00  0.00    -0.204 OA
ATOM      2  C2  BZF d   1       3.770  -1.681  -1.998  0.00  0.00     0.174 A 
ATOM      3  C3  BZF d   1       3.800  -0.358  -2.258  0.00  0.00    -0.012 A 
ATOM      4  C3A BZF d   1       2.683   0.190  -1.551  0.00  0.00    -0.107 A 
ATOM      5  C4  BZF d   1       2.193   1.456  -1.407  0.00  0.00     0.055 A 
ATOM      6  C5  BZF d   1       1.042   1.643  -0.710  0.00  0.00    -0.016 A 
ATOM      7  C6  BZF d   1       0.352   0.588  -0.150  0.00  0.00     0.022 A 
ATOM      8  C7  BZF d   1       0.802  -0.686  -0.262  0.00  0.00     0.029 A 
ATOM      9  C7A BZF d   1       1.983  -0.874  -0.937  0.00  0.00     0.058 A 
ENDROOT
TORSDOF 0
ENDMDL
