MODEL 1
REMARK minimizedAffinity -4.95636988
REMARK minimizedRMSD -1
REMARK  0 active torsions:
REMARK  status: ('A' for Active; 'I' for Inactive)
ROOT
ATOM      1  O1  BZF d   1      -1.897  -5.665  -5.940  0.00  0.00    -0.204 OA
ATOM      2  C2  BZF d   1      -0.710  -5.311  -5.328  0.00  0.00     0.174 A 
ATOM      3  C3  BZF d   1      -0.845  -4.149  -4.657  0.00  0.00    -0.012 A 
ATOM      4  C3A BZF d   1      -2.226  -3.799  -4.786  0.00  0.00    -0.107 A 
ATOM      5  C4  BZF d   1      -2.978  -2.757  -4.323  0.00  0.00     0.055 A 
ATOM      6  C5  BZF d   1      -4.284  -2.671  -4.688  0.00  0.00    -0.016 A 
ATOM      7  C6  BZF d   1      -4.869  -3.604  -5.519  0.00  0.00     0.022 A 
ATOM      8  C7  BZF d   1      -4.165  -4.658  -6.000  0.00  0.00     0.029 A 
ATOM      9  C7A BZF d   1      -2.854  -4.766  -5.605  0.00  0.00     0.058 A 
ENDROOT
TORSDOF 0
ENDMDL
