MODEL 1
REMARK minimizedAffinity -5.32754803
REMARK minimizedRMSD -1
REMARK  0 active torsions:
REMARK  status: ('A' for Active; 'I' for Inactive)
ROOT
ATOM      1  O1  BZF d   1      -2.360  -0.013  -5.724  0.00  0.00    -0.204 OA
ATOM      2  C2  BZF d   1      -3.340   0.959  -5.666  0.00  0.00     0.174 A 
ATOM      3  C3  BZF d   1      -4.567   0.401  -5.646  0.00  0.00    -0.012 A 
ATOM      4  C3A BZF d   1      -4.338  -1.010  -5.602  0.00  0.00    -0.107 A 
ATOM      5  C4  BZF d   1      -5.166  -2.095  -5.552  0.00  0.00     0.055 A 
ATOM      6  C5  BZF d   1      -4.626  -3.341  -5.592  0.00  0.00    -0.016 A 
ATOM      7  C6  BZF d   1      -3.264  -3.539  -5.689  0.00  0.00     0.022 A 
ATOM      8  C7  BZF d   1      -2.402  -2.494  -5.736  0.00  0.00     0.029 A 
ATOM      9  C7A BZF d   1      -2.943  -1.234  -5.662  0.00  0.00     0.058 A 
ENDROOT
TORSDOF 0
ENDMDL
