MODEL 1
REMARK minimizedAffinity -3.20512152
REMARK minimizedRMSD -1
REMARK  0 active torsions:
REMARK  status: ('A' for Active; 'I' for Inactive)
ROOT
ATOM      1  O1  BZF d   1      -2.998  -5.250  -5.256  0.00  0.00    -0.204 OA
ATOM      2  C2  BZF d   1      -1.741  -4.819  -4.876  0.00  0.00     0.174 A 
ATOM      3  C3  BZF d   1      -1.675  -3.472  -4.883  0.00  0.00    -0.012 A 
ATOM      4  C3A BZF d   1      -2.998  -3.032  -5.205  0.00  0.00    -0.107 A 
ATOM      5  C4  BZF d   1      -3.569  -1.799  -5.346  0.00  0.00     0.055 A 
ATOM      6  C5  BZF d   1      -4.867  -1.714  -5.737  0.00  0.00    -0.016 A 
ATOM      7  C6  BZF d   1      -5.622  -2.838  -6.000  0.00  0.00     0.022 A 
ATOM      8  C7  BZF d   1      -5.101  -4.083  -5.869  0.00  0.00     0.029 A 
ATOM      9  C7A BZF d   1      -3.799  -4.173  -5.442  0.00  0.00     0.058 A 
ENDROOT
TORSDOF 0
ENDMDL
