MODEL 1
REMARK minimizedAffinity 6.23864222
REMARK minimizedRMSD -1
REMARK  0 active torsions:
REMARK  status: ('A' for Active; 'I' for Inactive)
ROOT
ATOM      1  O1  BZF d   1      -0.607  -0.560  -3.662  0.00  0.00    -0.204 OA
ATOM      2  C2  BZF d   1      -1.380  -1.702  -3.745  0.00  0.00     0.174 A 
ATOM      3  C3  BZF d   1      -1.443  -2.324  -2.551  0.00  0.00    -0.012 A 
ATOM      4  C3A BZF d   1      -0.738  -1.471  -1.644  0.00  0.00    -0.107 A 
ATOM      5  C4  BZF d   1      -0.469  -1.540  -0.307  0.00  0.00     0.055 A 
ATOM      6  C5  BZF d   1       0.308  -0.581   0.261  0.00  0.00    -0.016 A 
ATOM      7  C6  BZF d   1       0.837   0.457  -0.479  0.00  0.00     0.022 A 
ATOM      8  C7  BZF d   1       0.594   0.570  -1.807  0.00  0.00     0.029 A 
ATOM      9  C7A BZF d   1      -0.218  -0.380  -2.377  0.00  0.00     0.058 A 
ENDROOT
TORSDOF 0
ENDMDL
