MODEL 1
REMARK minimizedAffinity 2.1761384
REMARK minimizedRMSD -1
REMARK  0 active torsions:
REMARK  status: ('A' for Active; 'I' for Inactive)
ROOT
ATOM      1  O1  BZF d   1      -4.222   5.973  -5.160  0.00  0.00    -0.204 OA
ATOM      2  C2  BZF d   1      -5.576   5.991  -5.433  0.00  0.00     0.174 A 
ATOM      3  C3  BZF d   1      -5.997   4.779  -5.848  0.00  0.00    -0.012 A 
ATOM      4  C3A BZF d   1      -4.852   3.927  -5.745  0.00  0.00    -0.107 A 
ATOM      5  C4  BZF d   1      -4.641   2.602  -5.999  0.00  0.00     0.055 A 
ATOM      6  C5  BZF d   1      -3.387   2.095  -5.866  0.00  0.00    -0.016 A 
ATOM      7  C6  BZF d   1      -2.321   2.884  -5.487  0.00  0.00     0.022 A 
ATOM      8  C7  BZF d   1      -2.482   4.203  -5.219  0.00  0.00     0.029 A 
ATOM      9  C7A BZF d   1      -3.754   4.711  -5.321  0.00  0.00     0.058 A 
ENDROOT
TORSDOF 0
ENDMDL
