MODEL 1
REMARK minimizedAffinity -0.303143233
REMARK minimizedRMSD -1
REMARK  0 active torsions:
REMARK  status: ('A' for Active; 'I' for Inactive)
ROOT
ATOM      1  O1  BZF d   1      -2.594   5.702  -5.802  0.00  0.00    -0.204 OA
ATOM      2  C2  BZF d   1      -1.510   4.848  -5.739  0.00  0.00     0.174 A 
ATOM      3  C3  BZF d   1      -1.915   3.562  -5.718  0.00  0.00    -0.012 A 
ATOM      4  C3A BZF d   1      -3.337   3.612  -5.864  0.00  0.00    -0.107 A 
ATOM      5  C4  BZF d   1      -4.309   2.655  -5.930  0.00  0.00     0.055 A 
ATOM      6  C5  BZF d   1      -5.610   3.039  -6.000  0.00  0.00    -0.016 A 
ATOM      7  C6  BZF d   1      -5.976   4.370  -6.000  0.00  0.00     0.022 A 
ATOM      8  C7  BZF d   1      -5.047   5.355  -5.940  0.00  0.00     0.029 A 
ATOM      9  C7A BZF d   1      -3.729   4.970  -5.903  0.00  0.00     0.058 A 
ENDROOT
TORSDOF 0
ENDMDL
