MODEL 1
REMARK minimizedAffinity -0.923262775
REMARK minimizedRMSD -1
REMARK  0 active torsions:
REMARK  status: ('A' for Active; 'I' for Inactive)
ROOT
ATOM      1  O1  BZF d   1      -5.200   5.207  -5.932  0.00  0.00    -0.204 OA
ATOM      2  C2  BZF d   1      -6.000   4.082  -6.000  0.00  0.00     0.174 A 
ATOM      3  C3  BZF d   1      -5.252   2.960  -5.962  0.00  0.00    -0.012 A 
ATOM      4  C3A BZF d   1      -3.907   3.411  -5.771  0.00  0.00    -0.107 A 
ATOM      5  C4  BZF d   1      -2.711   2.766  -5.639  0.00  0.00     0.055 A 
ATOM      6  C5  BZF d   1      -1.572   3.500  -5.540  0.00  0.00    -0.016 A 
ATOM      7  C6  BZF d   1      -1.592   4.879  -5.576  0.00  0.00     0.022 A 
ATOM      8  C7  BZF d   1      -2.755   5.564  -5.701  0.00  0.00     0.029 A 
ATOM      9  C7A BZF d   1      -3.911   4.825  -5.767  0.00  0.00     0.058 A 
ENDROOT
TORSDOF 0
ENDMDL
