MODEL 1
REMARK minimizedAffinity -3.1715939
REMARK minimizedRMSD -1
REMARK  0 active torsions:
REMARK  status: ('A' for Active; 'I' for Inactive)
ROOT
ATOM      1  O1  BZF d   1      -2.195  -4.783  -4.867  0.00  0.00    -0.204 OA
ATOM      2  C2  BZF d   1      -1.498  -3.757  -4.258  0.00  0.00     0.174 A 
ATOM      3  C3  BZF d   1      -2.242  -2.632  -4.217  0.00  0.00    -0.012 A 
ATOM      4  C3A BZF d   1      -3.514  -3.003  -4.756  0.00  0.00    -0.107 A 
ATOM      5  C4  BZF d   1      -4.680  -2.323  -4.964  0.00  0.00     0.055 A 
ATOM      6  C5  BZF d   1      -5.714  -2.956  -5.577  0.00  0.00    -0.016 A 
ATOM      7  C6  BZF d   1      -5.616  -4.265  -6.000  0.00  0.00     0.022 A 
ATOM      8  C7  BZF d   1      -4.481  -4.982  -5.812  0.00  0.00     0.029 A 
ATOM      9  C7A BZF d   1      -3.446  -4.355  -5.163  0.00  0.00     0.058 A 
ENDROOT
TORSDOF 0
ENDMDL
