MODEL 1
REMARK minimizedAffinity 3.9142487
REMARK minimizedRMSD -1
REMARK  0 active torsions:
REMARK  status: ('A' for Active; 'I' for Inactive)
ROOT
ATOM      1  O1  BZF d   1      -3.910  -4.898  -5.288  0.00  0.00    -0.204 OA
ATOM      2  C2  BZF d   1      -4.869  -3.968  -5.643  0.00  0.00     0.174 A 
ATOM      3  C3  BZF d   1      -4.471  -2.722  -5.317  0.00  0.00    -0.012 A 
ATOM      4  C3A BZF d   1      -3.143  -2.873  -4.805  0.00  0.00    -0.107 A 
ATOM      5  C4  BZF d   1      -2.214  -1.991  -4.331  0.00  0.00     0.055 A 
ATOM      6  C5  BZF d   1      -1.041  -2.469  -3.839  0.00  0.00    -0.016 A 
ATOM      7  C6  BZF d   1      -0.767  -3.821  -3.800  0.00  0.00     0.022 A 
ATOM      8  C7  BZF d   1      -1.655  -4.733  -4.264  0.00  0.00     0.029 A 
ATOM      9  C7A BZF d   1      -2.828  -4.251  -4.792  0.00  0.00     0.058 A 
ENDROOT
TORSDOF 0
ENDMDL
