MODEL 1
REMARK minimizedAffinity 6.92181253
REMARK minimizedRMSD -1
REMARK  0 active torsions:
REMARK  status: ('A' for Active; 'I' for Inactive)
ROOT
ATOM      1  O1  BZF d   1      -0.100  -0.736  -0.573  0.00  0.00    -0.204 OA
ATOM      2  C2  BZF d   1      -0.443  -0.542  -1.897  0.00  0.00     0.174 A 
ATOM      3  C3  BZF d   1       0.020   0.644  -2.342  0.00  0.00    -0.012 A 
ATOM      4  C3A BZF d   1       0.774   1.186  -1.254  0.00  0.00    -0.107 A 
ATOM      5  C4  BZF d   1       1.492   2.336  -1.090  0.00  0.00     0.055 A 
ATOM      6  C5  BZF d   1       2.049   2.600   0.122  0.00  0.00    -0.016 A 
ATOM      7  C6  BZF d   1       1.903   1.740   1.191  0.00  0.00     0.022 A 
ATOM      8  C7  BZF d   1       1.204   0.585   1.075  0.00  0.00     0.029 A 
ATOM      9  C7A BZF d   1       0.669   0.299  -0.157  0.00  0.00     0.058 A 
ENDROOT
TORSDOF 0
ENDMDL
