MODEL 1
REMARK minimizedAffinity 1.75010931
REMARK minimizedRMSD -1
REMARK  0 active torsions:
REMARK  status: ('A' for Active; 'I' for Inactive)
ROOT
ATOM      1  O1  BZF d   1      -4.523   2.932  -5.954  0.00  0.00    -0.204 OA
ATOM      2  C2  BZF d   1      -5.618   3.773  -5.997  0.00  0.00     0.174 A 
ATOM      3  C3  BZF d   1      -5.231   5.064  -5.951  0.00  0.00    -0.012 A 
ATOM      4  C3A BZF d   1      -3.801   5.030  -5.967  0.00  0.00    -0.107 A 
ATOM      5  C4  BZF d   1      -2.838   5.998  -5.955  0.00  0.00     0.055 A 
ATOM      6  C5  BZF d   1      -1.531   5.629  -5.903  0.00  0.00    -0.016 A 
ATOM      7  C6  BZF d   1      -1.152   4.303  -5.857  0.00  0.00     0.022 A 
ATOM      8  C7  BZF d   1      -2.071   3.307  -5.873  0.00  0.00     0.029 A 
ATOM      9  C7A BZF d   1      -3.392   3.676  -5.959  0.00  0.00     0.058 A 
ENDROOT
TORSDOF 0
ENDMDL
