MODEL 1
REMARK minimizedAffinity 6.44254541
REMARK minimizedRMSD -1
REMARK  0 active torsions:
REMARK  status: ('A' for Active; 'I' for Inactive)
ROOT
ATOM      1  O1  BZF d   1       4.315  -0.014  -3.048  0.00  0.00    -0.204 OA
ATOM      2  C2  BZF d   1       4.521  -0.306  -1.713  0.00  0.00     0.174 A 
ATOM      3  C3  BZF d   1       4.879  -1.596  -1.555  0.00  0.00    -0.012 A 
ATOM      4  C3A BZF d   1       4.988  -2.122  -2.881  0.00  0.00    -0.107 A 
ATOM      5  C4  BZF d   1       5.326  -3.347  -3.381  0.00  0.00     0.055 A 
ATOM      6  C5  BZF d   1       5.265  -3.553  -4.723  0.00  0.00    -0.016 A 
ATOM      7  C6  BZF d   1       4.865  -2.559  -5.592  0.00  0.00     0.022 A 
ATOM      8  C7  BZF d   1       4.525  -1.326  -5.144  0.00  0.00     0.029 A 
ATOM      9  C7A BZF d   1       4.618  -1.105  -3.792  0.00  0.00     0.058 A 
ENDROOT
TORSDOF 0
ENDMDL
