MODEL 1
REMARK minimizedAffinity 5.60037041
REMARK minimizedRMSD -1
REMARK  0 active torsions:
REMARK  status: ('A' for Active; 'I' for Inactive)
ROOT
ATOM      1  O1  BZF d   1      -4.124  -4.846  -5.575  0.00  0.00    -0.204 OA
ATOM      2  C2  BZF d   1      -5.071  -3.922  -5.973  0.00  0.00     0.174 A 
ATOM      3  C3  BZF d   1      -4.748  -2.687  -5.537  0.00  0.00    -0.012 A 
ATOM      4  C3A BZF d   1      -3.475  -2.834  -4.900  0.00  0.00    -0.107 A 
ATOM      5  C4  BZF d   1      -2.627  -1.960  -4.283  0.00  0.00     0.055 A 
ATOM      6  C5  BZF d   1      -1.496  -2.436  -3.700  0.00  0.00    -0.016 A 
ATOM      7  C6  BZF d   1      -1.184  -3.780  -3.711  0.00  0.00     0.022 A 
ATOM      8  C7  BZF d   1      -1.992  -4.685  -4.315  0.00  0.00     0.029 A 
ATOM      9  C7A BZF d   1      -3.119  -4.202  -4.934  0.00  0.00     0.058 A 
ENDROOT
TORSDOF 0
ENDMDL
