MODEL 1
REMARK minimizedAffinity 0.408068329
REMARK minimizedRMSD -1
REMARK  0 active torsions:
REMARK  status: ('A' for Active; 'I' for Inactive)
ROOT
ATOM      1  O1  BZF d   1       2.553   1.008   2.252  0.00  0.00    -0.204 OA
ATOM      2  C2  BZF d   1       1.482   1.059   1.380  0.00  0.00     0.174 A 
ATOM      3  C3  BZF d   1       1.022   2.321   1.260  0.00  0.00    -0.012 A 
ATOM      4  C3A BZF d   1       1.915   3.123   2.039  0.00  0.00    -0.107 A 
ATOM      5  C4  BZF d   1       1.991   4.461   2.300  0.00  0.00     0.055 A 
ATOM      6  C5  BZF d   1       2.940   4.914   3.160  0.00  0.00    -0.016 A 
ATOM      7  C6  BZF d   1       3.826   4.057   3.780  0.00  0.00     0.022 A 
ATOM      8  C7  BZF d   1       3.794   2.722   3.549  0.00  0.00     0.029 A 
ATOM      9  C7A BZF d   1       2.856   2.265   2.655  0.00  0.00     0.058 A 
ENDROOT
TORSDOF 0
ENDMDL
