MODEL 1
REMARK minimizedAffinity 3.7024889
REMARK minimizedRMSD -1
REMARK  0 active torsions:
REMARK  status: ('A' for Active; 'I' for Inactive)
ROOT
ATOM      1  O1  BZF d   1      -0.196  -1.452   0.803  0.00  0.00    -0.204 OA
ATOM      2  C2  BZF d   1      -0.562  -2.221  -0.284  0.00  0.00     0.174 A 
ATOM      3  C3  BZF d   1      -0.478  -1.507  -1.425  0.00  0.00    -0.012 A 
ATOM      4  C3A BZF d   1       0.057  -0.238  -1.036  0.00  0.00    -0.107 A 
ATOM      5  C4  BZF d   1       0.384   0.894  -1.726  0.00  0.00     0.055 A 
ATOM      6  C5  BZF d   1       0.814   1.985  -1.039  0.00  0.00    -0.016 A 
ATOM      7  C6  BZF d   1       0.924   1.980   0.336  0.00  0.00     0.022 A 
ATOM      8  C7  BZF d   1       0.615   0.879   1.063  0.00  0.00     0.029 A 
ATOM      9  C7A BZF d   1       0.212  -0.236   0.369  0.00  0.00     0.058 A 
ENDROOT
TORSDOF 0
ENDMDL
