MODEL 1
REMARK minimizedAffinity -0.775457203
REMARK minimizedRMSD -1
REMARK  0 active torsions:
REMARK  status: ('A' for Active; 'I' for Inactive)
ROOT
ATOM      1  O1  BZF d   1      -2.401   4.578  -5.860  0.00  0.00    -0.204 OA
ATOM      2  C2  BZF d   1      -2.787   5.896  -5.712  0.00  0.00     0.174 A 
ATOM      3  C3  BZF d   1      -4.131   6.000  -5.670  0.00  0.00    -0.012 A 
ATOM      4  C3A BZF d   1      -4.613   4.654  -5.708  0.00  0.00    -0.107 A 
ATOM      5  C4  BZF d   1      -5.863   4.103  -5.679  0.00  0.00     0.055 A 
ATOM      6  C5  BZF d   1      -5.994   2.756  -5.806  0.00  0.00    -0.016 A 
ATOM      7  C6  BZF d   1      -4.900   1.932  -5.968  0.00  0.00     0.022 A 
ATOM      8  C7  BZF d   1      -3.641   2.431  -5.998  0.00  0.00     0.029 A 
ATOM      9  C7A BZF d   1      -3.502   3.789  -5.837  0.00  0.00     0.058 A 
ENDROOT
TORSDOF 0
ENDMDL
