MODEL 1
REMARK minimizedAffinity 0.401130885
REMARK minimizedRMSD -1
REMARK  0 active torsions:
REMARK  status: ('A' for Active; 'I' for Inactive)
ROOT
ATOM      1  O1  BZF d   1      -2.395   2.249  -5.896  0.00  0.00    -0.204 OA
ATOM      2  C2  BZF d   1      -1.501   3.303  -5.902  0.00  0.00     0.174 A 
ATOM      3  C3  BZF d   1      -2.152   4.481  -5.990  0.00  0.00    -0.012 A 
ATOM      4  C3A BZF d   1      -3.542   4.147  -5.949  0.00  0.00    -0.107 A 
ATOM      5  C4  BZF d   1      -4.688   4.890  -5.983  0.00  0.00     0.055 A 
ATOM      6  C5  BZF d   1      -5.888   4.253  -6.000  0.00  0.00    -0.016 A 
ATOM      7  C6  BZF d   1      -5.980   2.877  -5.989  0.00  0.00     0.022 A 
ATOM      8  C7  BZF d   1      -4.871   2.097  -5.951  0.00  0.00     0.029 A 
ATOM      9  C7A BZF d   1      -3.658   2.739  -5.901  0.00  0.00     0.058 A 
ENDROOT
TORSDOF 0
ENDMDL
