MODEL 1
REMARK minimizedAffinity 0.175431907
REMARK minimizedRMSD -1
REMARK  0 active torsions:
REMARK  status: ('A' for Active; 'I' for Inactive)
ROOT
ATOM      1  O1  BZF d   1      -2.313   3.378  -5.666  0.00  0.00    -0.204 OA
ATOM      2  C2  BZF d   1      -1.544   4.525  -5.672  0.00  0.00     0.174 A 
ATOM      3  C3  BZF d   1      -2.317   5.618  -5.833  0.00  0.00    -0.012 A 
ATOM      4  C3A BZF d   1      -3.662   5.130  -5.842  0.00  0.00    -0.107 A 
ATOM      5  C4  BZF d   1      -4.881   5.736  -5.954  0.00  0.00     0.055 A 
ATOM      6  C5  BZF d   1      -6.000   4.967  -6.000  0.00  0.00    -0.016 A 
ATOM      7  C6  BZF d   1      -5.937   3.590  -5.942  0.00  0.00     0.022 A 
ATOM      8  C7  BZF d   1      -4.751   2.943  -5.825  0.00  0.00     0.029 A 
ATOM      9  C7A BZF d   1      -3.621   3.720  -5.745  0.00  0.00     0.058 A 
ENDROOT
TORSDOF 0
ENDMDL
