MODEL 1
REMARK minimizedAffinity 0.647214293
REMARK minimizedRMSD -1
REMARK  0 active torsions:
REMARK  status: ('A' for Active; 'I' for Inactive)
ROOT
ATOM      1  C   UNL d   1      -4.511  -4.816  -1.622  0.00  0.00     0.077 C 
ATOM      2  C1  UNL d   1      -4.803  -4.829  -3.093  0.00  0.00    -0.074 A 
ATOM      3  C2  UNL d   1      -5.228  -5.999  -3.731  0.00  0.00    -0.005 A 
ATOM      4  C3  UNL d   1      -5.504  -5.994  -5.098  0.00  0.00     0.006 A 
ATOM      5  C4  UNL d   1      -5.358  -4.821  -5.840  0.00  0.00    -0.005 A 
ATOM      6  C5  UNL d   1      -4.936  -3.641  -5.219  0.00  0.00    -0.074 A 
ATOM      7  C6  UNL d   1      -4.784  -2.370  -6.000  0.00  0.00     0.077 C 
ATOM      8  C7  UNL d   1      -4.667  -3.653  -3.844  0.00  0.00    -0.001 A 
ENDROOT
TORSDOF 0
ENDMDL
