MODEL 1
REMARK minimizedAffinity -1.10172737
REMARK minimizedRMSD -1
REMARK  0 active torsions:
REMARK  status: ('A' for Active; 'I' for Inactive)
ROOT
ATOM      1  C   UNL d   1       4.173  -0.578   1.262  0.00  0.00     0.077 C 
ATOM      2  C1  UNL d   1       3.319  -1.243   2.301  0.00  0.00    -0.074 A 
ATOM      3  C2  UNL d   1       1.966  -1.504   2.061  0.00  0.00    -0.005 A 
ATOM      4  C3  UNL d   1       1.188  -2.131   3.033  0.00  0.00     0.006 A 
ATOM      5  C4  UNL d   1       1.753  -2.502   4.254  0.00  0.00    -0.005 A 
ATOM      6  C5  UNL d   1       3.104  -2.250   4.512  0.00  0.00    -0.074 A 
ATOM      7  C6  UNL d   1       3.729  -2.652   5.814  0.00  0.00     0.077 C 
ATOM      8  C7  UNL d   1       3.882  -1.626   3.527  0.00  0.00    -0.001 A 
ENDROOT
TORSDOF 0
ENDMDL
