MODEL 1
REMARK minimizedAffinity -2.66548443
REMARK minimizedRMSD -1
REMARK  0 active torsions:
REMARK  status: ('A' for Active; 'I' for Inactive)
ROOT
ATOM      1  C   UNL d   1      -5.999  -2.359  -1.645  0.00  0.00     0.077 C 
ATOM      2  C1  UNL d   1      -5.700  -3.630  -2.383  0.00  0.00    -0.074 A 
ATOM      3  C2  UNL d   1      -5.451  -4.821  -1.693  0.00  0.00    -0.005 A 
ATOM      4  C3  UNL d   1      -5.184  -5.997  -2.394  0.00  0.00     0.006 A 
ATOM      5  C4  UNL d   1      -5.165  -5.995  -3.789  0.00  0.00    -0.005 A 
ATOM      6  C5  UNL d   1      -5.413  -4.814  -4.496  0.00  0.00    -0.074 A 
ATOM      7  C6  UNL d   1      -5.405  -4.796  -5.996  0.00  0.00     0.077 C 
ATOM      8  C7  UNL d   1      -5.686  -3.637  -3.785  0.00  0.00    -0.001 A 
ENDROOT
TORSDOF 0
ENDMDL
