MODEL 1
REMARK minimizedAffinity 3.05887103
REMARK minimizedRMSD -1
REMARK  0 active torsions:
REMARK  status: ('A' for Active; 'I' for Inactive)
ROOT
ATOM      1  C   UNL d   1      -5.991  -2.524  -1.574  0.00  0.00     0.077 C 
ATOM      2  C1  UNL d   1      -5.655  -3.737  -2.390  0.00  0.00    -0.074 A 
ATOM      3  C2  UNL d   1      -5.053  -4.854  -1.802  0.00  0.00    -0.005 A 
ATOM      4  C3  UNL d   1      -4.756  -5.979  -2.571  0.00  0.00     0.006 A 
ATOM      5  C4  UNL d   1      -5.057  -5.998  -3.934  0.00  0.00    -0.005 A 
ATOM      6  C5  UNL d   1      -5.660  -4.891  -4.539  0.00  0.00    -0.074 A 
ATOM      7  C6  UNL d   1      -5.999  -4.899  -6.000  0.00  0.00     0.077 C 
ATOM      8  C7  UNL d   1      -5.962  -3.767  -3.758  0.00  0.00    -0.001 A 
ENDROOT
TORSDOF 0
ENDMDL
