MODEL 1
REMARK minimizedAffinity 10.5680475
REMARK minimizedRMSD -1
REMARK  0 active torsions:
REMARK  status: ('A' for Active; 'I' for Inactive)
ROOT
ATOM      1  C   UNL d   1       3.402  -1.879  -2.844  0.00  0.00     0.077 C 
ATOM      2  C1  UNL d   1       4.143  -1.162  -3.934  0.00  0.00    -0.074 A 
ATOM      3  C2  UNL d   1       5.327  -1.686  -4.463  0.00  0.00    -0.005 A 
ATOM      4  C3  UNL d   1       5.999  -1.013  -5.483  0.00  0.00     0.006 A 
ATOM      5  C4  UNL d   1       5.496   0.188  -5.983  0.00  0.00    -0.005 A 
ATOM      6  C5  UNL d   1       4.313   0.727  -5.467  0.00  0.00    -0.074 A 
ATOM      7  C6  UNL d   1       3.753   2.012  -6.000  0.00  0.00     0.077 C 
ATOM      8  C7  UNL d   1       3.639   0.041  -4.447  0.00  0.00    -0.001 A 
ENDROOT
TORSDOF 0
ENDMDL
