MODEL 1
REMARK minimizedAffinity 0.338275969
REMARK minimizedRMSD -1
REMARK  0 active torsions:
REMARK  status: ('A' for Active; 'I' for Inactive)
ROOT
ATOM      1  C   UNL d   1      -5.257  -5.170  -6.000  0.00  0.00     0.077 C 
ATOM      2  C1  UNL d   1      -5.514  -4.930  -4.542  0.00  0.00    -0.074 A 
ATOM      3  C2  UNL d   1      -5.616  -5.999  -3.645  0.00  0.00    -0.005 A 
ATOM      4  C3  UNL d   1      -5.845  -5.760  -2.290  0.00  0.00     0.006 A 
ATOM      5  C4  UNL d   1      -5.974  -4.453  -1.819  0.00  0.00    -0.005 A 
ATOM      6  C5  UNL d   1      -5.873  -3.372  -2.700  0.00  0.00    -0.074 A 
ATOM      7  C6  UNL d   1      -5.998  -1.961  -2.208  0.00  0.00     0.077 C 
ATOM      8  C7  UNL d   1      -5.636  -3.620  -4.059  0.00  0.00    -0.001 A 
ENDROOT
TORSDOF 0
ENDMDL
