MODEL 1
REMARK minimizedAffinity 0.308976412
REMARK minimizedRMSD -1
REMARK  0 active torsions:
REMARK  status: ('A' for Active; 'I' for Inactive)
ROOT
ATOM      1  C   UNL d   1      -6.000  -2.997  -5.856  0.00  0.00     0.077 C 
ATOM      2  C1  UNL d   1      -5.487  -4.051  -4.921  0.00  0.00    -0.074 A 
ATOM      3  C2  UNL d   1      -4.539  -4.987  -5.344  0.00  0.00    -0.005 A 
ATOM      4  C3  UNL d   1      -4.064  -5.956  -4.459  0.00  0.00     0.006 A 
ATOM      5  C4  UNL d   1      -4.532  -5.998  -3.146  0.00  0.00    -0.005 A 
ATOM      6  C5  UNL d   1      -5.480  -5.069  -2.705  0.00  0.00    -0.074 A 
ATOM      7  C6  UNL d   1      -5.987  -5.094  -1.293  0.00  0.00     0.077 C 
ATOM      8  C7  UNL d   1      -5.947  -4.095  -3.597  0.00  0.00    -0.001 A 
ENDROOT
TORSDOF 0
ENDMDL
