MODEL 1
REMARK minimizedAffinity -3.7087009
REMARK minimizedRMSD -1
REMARK  0 active torsions:
REMARK  status: ('A' for Active; 'I' for Inactive)
ROOT
ATOM      1  C   UNL d   1       2.878  -0.416  -3.698  0.00  0.00     0.077 C 
ATOM      2  C1  UNL d   1       3.873   0.374  -4.495  0.00  0.00    -0.074 A 
ATOM      3  C2  UNL d   1       5.088  -0.195  -4.894  0.00  0.00    -0.005 A 
ATOM      4  C3  UNL d   1       6.000   0.548  -5.643  0.00  0.00     0.006 A 
ATOM      5  C4  UNL d   1       5.708   1.865  -6.000  0.00  0.00    -0.005 A 
ATOM      6  C5  UNL d   1       4.499   2.450  -5.611  0.00  0.00    -0.074 A 
ATOM      7  C6  UNL d   1       4.165   3.861  -5.995  0.00  0.00     0.077 C 
ATOM      8  C7  UNL d   1       3.584   1.695  -4.864  0.00  0.00    -0.001 A 
ENDROOT
TORSDOF 0
ENDMDL
