MODEL 1
REMARK minimizedAffinity -1.43056631
REMARK minimizedRMSD -1
REMARK  0 active torsions:
REMARK  status: ('A' for Active; 'I' for Inactive)
ROOT
ATOM      1  C   UNL d   1       1.237  -0.886   1.517  0.00  0.00     0.077 C 
ATOM      2  C1  UNL d   1       1.507  -2.013   2.469  0.00  0.00    -0.074 A 
ATOM      3  C2  UNL d   1       0.570  -3.034   2.658  0.00  0.00    -0.005 A 
ATOM      4  C3  UNL d   1       0.839  -4.081   3.540  0.00  0.00     0.006 A 
ATOM      5  C4  UNL d   1       2.045  -4.117   4.241  0.00  0.00    -0.005 A 
ATOM      6  C5  UNL d   1       2.994  -3.105   4.064  0.00  0.00    -0.074 A 
ATOM      7  C6  UNL d   1       4.299  -3.133   4.802  0.00  0.00     0.077 C 
ATOM      8  C7  UNL d   1       2.719  -2.060   3.171  0.00  0.00    -0.001 A 
ENDROOT
TORSDOF 0
ENDMDL
