MODEL 1
REMARK minimizedAffinity 0.521694064
REMARK minimizedRMSD -1
REMARK  0 active torsions:
REMARK  status: ('A' for Active; 'I' for Inactive)
ROOT
ATOM      1  C   UNL d   1       4.613  -3.199   4.185  0.00  0.00     0.077 C 
ATOM      2  C1  UNL d   1       3.187  -3.120   3.727  0.00  0.00    -0.074 A 
ATOM      3  C2  UNL d   1       2.273  -4.129   4.044  0.00  0.00    -0.005 A 
ATOM      4  C3  UNL d   1       0.948  -4.037   3.619  0.00  0.00     0.006 A 
ATOM      5  C4  UNL d   1       0.524  -2.936   2.873  0.00  0.00    -0.005 A 
ATOM      6  C5  UNL d   1       1.424  -1.917   2.547  0.00  0.00    -0.074 A 
ATOM      7  C6  UNL d   1       0.982  -0.722   1.754  0.00  0.00     0.077 C 
ATOM      8  C7  UNL d   1       2.752  -2.013   2.984  0.00  0.00    -0.001 A 
ENDROOT
TORSDOF 0
ENDMDL
