MODEL 1
REMARK minimizedAffinity 6.20928383
REMARK minimizedRMSD -1
REMARK  0 active torsions:
REMARK  status: ('A' for Active; 'I' for Inactive)
ROOT
ATOM      1  O1  BZF d   1       0.224  -3.166   3.061  0.00  0.00    -0.204 OA
ATOM      2  C2  BZF d   1      -0.052  -1.850   3.377  0.00  0.00     0.174 A 
ATOM      3  C3  BZF d   1       0.683  -1.011   2.618  0.00  0.00    -0.012 A 
ATOM      4  C3A BZF d   1       1.399  -1.855   1.711  0.00  0.00    -0.107 A 
ATOM      5  C4  BZF d   1       2.282  -1.609   0.699  0.00  0.00     0.055 A 
ATOM      6  C5  BZF d   1       2.857  -2.658   0.055  0.00  0.00    -0.016 A 
ATOM      7  C6  BZF d   1       2.576  -3.964   0.399  0.00  0.00     0.022 A 
ATOM      8  C7  BZF d   1       1.703  -4.258   1.393  0.00  0.00     0.029 A 
ATOM      9  C7A BZF d   1       1.095  -3.200   2.024  0.00  0.00     0.058 A 
ENDROOT
TORSDOF 0
ENDMDL
