MODEL 1
REMARK minimizedAffinity 6.38327217
REMARK minimizedRMSD -1
REMARK  0 active torsions:
REMARK  status: ('A' for Active; 'I' for Inactive)
ROOT
ATOM      1  O1  BZF d   1       0.956  -2.247   0.313  0.00  0.00    -0.204 OA
ATOM      2  C2  BZF d   1       2.080  -1.553  -0.092  0.00  0.00     0.174 A 
ATOM      3  C3  BZF d   1       2.485  -0.696   0.867  0.00  0.00    -0.012 A 
ATOM      4  C3A BZF d   1       1.611  -0.930   1.975  0.00  0.00    -0.107 A 
ATOM      5  C4  BZF d   1       1.520  -0.397   3.228  0.00  0.00     0.055 A 
ATOM      6  C5  BZF d   1       0.507  -0.792   4.043  0.00  0.00    -0.016 A 
ATOM      7  C6  BZF d   1      -0.435  -1.714   3.635  0.00  0.00     0.022 A 
ATOM      8  C7  BZF d   1      -0.384  -2.275   2.402  0.00  0.00     0.029 A 
ATOM      9  C7A BZF d   1       0.658  -1.902   1.589  0.00  0.00     0.058 A 
ENDROOT
TORSDOF 0
ENDMDL
