MODEL 1
REMARK minimizedAffinity 3.87239933
REMARK minimizedRMSD -1
REMARK  0 active torsions:
REMARK  status: ('A' for Active; 'I' for Inactive)
ROOT
ATOM      1  O1  BZF d   1      -0.436  -1.025   4.041  0.00  0.00    -0.204 OA
ATOM      2  C2  BZF d   1       0.266  -1.783   3.124  0.00  0.00     0.174 A 
ATOM      3  C3  BZF d   1      -0.346  -1.769   1.923  0.00  0.00    -0.012 A 
ATOM      4  C3A BZF d   1      -1.453  -0.876   2.076  0.00  0.00    -0.107 A 
ATOM      5  C4  BZF d   1      -2.429  -0.436   1.227  0.00  0.00     0.055 A 
ATOM      6  C5  BZF d   1      -3.406   0.377   1.708  0.00  0.00    -0.016 A 
ATOM      7  C6  BZF d   1      -3.441   0.765   3.032  0.00  0.00     0.022 A 
ATOM      8  C7  BZF d   1      -2.492   0.359   3.910  0.00  0.00     0.029 A 
ATOM      9  C7A BZF d   1      -1.485  -0.436   3.419  0.00  0.00     0.058 A 
ENDROOT
TORSDOF 0
ENDMDL
