MODEL 1
REMARK minimizedAffinity 8.45631695
REMARK minimizedRMSD -1
REMARK  0 active torsions:
REMARK  status: ('A' for Active; 'I' for Inactive)
ROOT
ATOM      1  O1  BZF d   1       0.678  -3.068   0.643  0.00  0.00    -0.204 OA
ATOM      2  C2  BZF d   1       1.911  -3.357   1.195  0.00  0.00     0.174 A 
ATOM      3  C3  BZF d   1       2.049  -2.760   2.396  0.00  0.00    -0.012 A 
ATOM      4  C3A BZF d   1       0.790  -2.129   2.650  0.00  0.00    -0.107 A 
ATOM      5  C4  BZF d   1       0.302  -1.391   3.691  0.00  0.00     0.055 A 
ATOM      6  C5  BZF d   1      -0.944  -0.858   3.595  0.00  0.00    -0.016 A 
ATOM      7  C6  BZF d   1      -1.727  -1.038   2.474  0.00  0.00     0.022 A 
ATOM      8  C7  BZF d   1      -1.288  -1.767   1.418  0.00  0.00     0.029 A 
ATOM      9  C7A BZF d   1      -0.042  -2.334   1.525  0.00  0.00     0.058 A 
ENDROOT
TORSDOF 0
ENDMDL
