MODEL 1
REMARK minimizedAffinity 7.00778151
REMARK minimizedRMSD -1
REMARK  0 active torsions:
REMARK  status: ('A' for Active; 'I' for Inactive)
ROOT
ATOM      1  O1  BZF d   1       0.342  -1.853   3.711  0.00  0.00    -0.204 OA
ATOM      2  C2  BZF d   1      -0.759  -1.151   3.260  0.00  0.00     0.174 A 
ATOM      3  C3  BZF d   1      -0.724  -1.016   1.919  0.00  0.00    -0.012 A 
ATOM      4  C3A BZF d   1       0.426  -1.754   1.496  0.00  0.00    -0.107 A 
ATOM      5  C4  BZF d   1       0.982  -2.008   0.275  0.00  0.00     0.055 A 
ATOM      6  C5  BZF d   1       2.148  -2.703   0.212  0.00  0.00    -0.016 A 
ATOM      7  C6  BZF d   1       2.787  -3.154   1.348  0.00  0.00     0.022 A 
ATOM      8  C7  BZF d   1       2.272  -2.930   2.581  0.00  0.00     0.029 A 
ATOM      9  C7A BZF d   1       1.077  -2.257   2.646  0.00  0.00     0.058 A 
ENDROOT
TORSDOF 0
ENDMDL
