MODEL 1
REMARK minimizedAffinity 0.180084467
REMARK minimizedRMSD -1
REMARK  0 active torsions:
REMARK  status: ('A' for Active; 'I' for Inactive)
ROOT
ATOM      1  O1  BZF d   1       0.165  -1.983   1.070  0.00  0.00    -0.204 OA
ATOM      2  C2  BZF d   1       1.127  -1.942   2.061  0.00  0.00     0.174 A 
ATOM      3  C3  BZF d   1       0.686  -1.244   3.128  0.00  0.00    -0.012 A 
ATOM      4  C3A BZF d   1      -0.669  -0.901   2.819  0.00  0.00    -0.107 A 
ATOM      5  C4  BZF d   1      -1.643  -0.222   3.493  0.00  0.00     0.055 A 
ATOM      6  C5  BZF d   1      -2.835   0.004   2.882  0.00  0.00    -0.016 A 
ATOM      7  C6  BZF d   1      -3.086  -0.431   1.597  0.00  0.00     0.022 A 
ATOM      8  C7  BZF d   1      -2.153  -1.113   0.890  0.00  0.00     0.029 A 
ATOM      9  C7A BZF d   1      -0.958  -1.371   1.517  0.00  0.00     0.058 A 
ENDROOT
TORSDOF 0
ENDMDL
