MODEL 1
REMARK minimizedAffinity 22.369503
REMARK minimizedRMSD -1
REMARK  2 active torsions:
REMARK  status: ('A' for Active; 'I' for Inactive)
REMARK    1  A    between atoms: C1_2  and  C2_3 
REMARK    2  A    between atoms: C2_3  and  C3_4 
ROOT
ATOM      1  C3  UNL d   1       2.502  -0.665   1.203  0.00  0.00    -0.075 A 
ATOM      2  C4  UNL d   1       1.768   0.220   2.006  0.00  0.00     0.002 A 
ATOM      3  C5  UNL d   1       0.621  -0.214   2.671  0.00  0.00     0.002 A 
ATOM      4  C6  UNL d   1       0.188  -1.531   2.535  0.00  0.00    -0.004 A 
ATOM      5  C7  UNL d   1       0.901  -2.414   1.726  0.00  0.00     0.002 A 
ATOM      6  C8  UNL d   1       2.051  -1.984   1.063  0.00  0.00     0.002 A 
ENDROOT
BRANCH   1   7
ATOM      7  C2  UNL d   1       3.761  -0.210   0.503  0.00  0.00     0.056 C 
BRANCH   7   8
ATOM      8  C1  UNL d   1       4.196  -1.118  -0.652  0.00  0.00     0.007 C 
ATOM      9  C   UNL d   1       4.570  -0.350  -1.912  0.00  0.00     0.009 C 
ENDBRANCH   7   8
ENDBRANCH   1   7
TORSDOF 2
ENDMDL
