MODEL 1
REMARK minimizedAffinity 5.97026491
REMARK minimizedRMSD -1
REMARK  2 active torsions:
REMARK  status: ('A' for Active; 'I' for Inactive)
REMARK    1  A    between atoms: C1_2  and  C2_3 
REMARK    2  A    between atoms: C2_3  and  C3_4 
ROOT
ATOM      1  C3  UNL d   1      -2.798   3.287  -1.974  0.00  0.00    -0.075 A 
ATOM      2  C4  UNL d   1      -2.302   4.386  -2.691  0.00  0.00     0.002 A 
ATOM      3  C5  UNL d   1      -2.926   5.630  -2.601  0.00  0.00     0.002 A 
ATOM      4  C6  UNL d   1      -4.057   5.790  -1.803  0.00  0.00    -0.004 A 
ATOM      5  C7  UNL d   1      -4.568   4.701  -1.099  0.00  0.00     0.002 A 
ATOM      6  C8  UNL d   1      -3.943   3.456  -1.184  0.00  0.00     0.002 A 
ENDROOT
BRANCH   1   7
ATOM      7  C2  UNL d   1      -2.109   1.945  -2.044  0.00  0.00     0.056 C 
BRANCH   7   8
ATOM      8  C1  UNL d   1      -0.632   1.980  -1.639  0.00  0.00     0.007 C 
ATOM      9  C   UNL d   1      -0.420   2.321  -0.170  0.00  0.00     0.009 C 
ENDBRANCH   7   8
ENDBRANCH   1   7
TORSDOF 2
ENDMDL
