MODEL 1
REMARK minimizedAffinity 18.1930103
REMARK minimizedRMSD -1
REMARK  2 active torsions:
REMARK  status: ('A' for Active; 'I' for Inactive)
REMARK    1  A    between atoms: C1_2  and  C2_3 
REMARK    2  A    between atoms: C2_3  and  C3_4 
ROOT
ATOM      1  C3  UNL d   1       0.752  -1.298   2.510  0.00  0.00    -0.075 A 
ATOM      2  C4  UNL d   1       0.324  -0.527   3.600  0.00  0.00     0.002 A 
ATOM      3  C5  UNL d   1      -0.913  -0.770   4.197  0.00  0.00     0.002 A 
ATOM      4  C6  UNL d   1      -1.740  -1.779   3.708  0.00  0.00    -0.004 A 
ATOM      5  C7  UNL d   1      -1.332  -2.540   2.615  0.00  0.00     0.002 A 
ATOM      6  C8  UNL d   1      -0.093  -2.301   2.018  0.00  0.00     0.002 A 
ENDROOT
BRANCH   1   7
ATOM      7  C2  UNL d   1       2.102  -1.059   1.877  0.00  0.00     0.056 C 
BRANCH   7   8
ATOM      8  C1  UNL d   1       2.514   0.416   1.824  0.00  0.00     0.007 C 
ATOM      9  C   UNL d   1       4.023   0.618   1.817  0.00  0.00     0.009 C 
ENDBRANCH   7   8
ENDBRANCH   1   7
TORSDOF 2
ENDMDL
