MODEL 1
REMARK minimizedAffinity 10.6063738
REMARK minimizedRMSD -1
REMARK  2 active torsions:
REMARK  status: ('A' for Active; 'I' for Inactive)
REMARK    1  A    between atoms: C1_2  and  C2_3 
REMARK    2  A    between atoms: C2_3  and  C3_4 
ROOT
ATOM      1  C3  UNL d   1       0.415  -0.882   3.493  0.00  0.00    -0.075 A 
ATOM      2  C4  UNL d   1       1.182  -0.409   4.568  0.00  0.00     0.002 A 
ATOM      3  C5  UNL d   1       0.595  -0.190   5.815  0.00  0.00     0.002 A 
ATOM      4  C6  UNL d   1      -0.765  -0.431   6.000  0.00  0.00    -0.004 A 
ATOM      5  C7  UNL d   1      -1.540  -0.885   4.935  0.00  0.00     0.002 A 
ATOM      6  C8  UNL d   1      -0.954  -1.110   3.688  0.00  0.00     0.002 A 
ENDROOT
BRANCH   1   7
ATOM      7  C2  UNL d   1       1.050  -1.149   2.150  0.00  0.00     0.056 C 
BRANCH   7   8
ATOM      8  C1  UNL d   1       2.159  -0.160   1.776  0.00  0.00     0.007 C 
ATOM      9  C   UNL d   1       3.366  -0.827   1.131  0.00  0.00     0.009 C 
ENDBRANCH   7   8
ENDBRANCH   1   7
TORSDOF 2
ENDMDL
