MODEL 1
REMARK minimizedAffinity 10.2788172
REMARK minimizedRMSD -1
REMARK  2 active torsions:
REMARK  status: ('A' for Active; 'I' for Inactive)
REMARK    1  A    between atoms: C1_2  and  C2_3 
REMARK    2  A    between atoms: C2_3  and  C3_4 
ROOT
ATOM      1  C3  UNL d   1       1.259  -0.100   3.256  0.00  0.00    -0.075 A 
ATOM      2  C4  UNL d   1       1.691   0.070   4.579  0.00  0.00     0.002 A 
ATOM      3  C5  UNL d   1       0.767   0.136   5.623  0.00  0.00     0.002 A 
ATOM      4  C6  UNL d   1      -0.597   0.043   5.356  0.00  0.00    -0.004 A 
ATOM      5  C7  UNL d   1      -1.038  -0.109   4.044  0.00  0.00     0.002 A 
ATOM      6  C8  UNL d   1      -0.116  -0.180   2.998  0.00  0.00     0.002 A 
ENDROOT
BRANCH   1   7
ATOM      7  C2  UNL d   1       2.255  -0.201   2.125  0.00  0.00     0.056 C 
BRANCH   7   8
ATOM      8  C1  UNL d   1       3.434   0.769   2.244  0.00  0.00     0.007 C 
ATOM      9  C   UNL d   1       4.741   0.083   2.617  0.00  0.00     0.009 C 
ENDBRANCH   7   8
ENDBRANCH   1   7
TORSDOF 2
ENDMDL
