MODEL 1
REMARK minimizedAffinity 15.7543564
REMARK minimizedRMSD -1
REMARK  2 active torsions:
REMARK  status: ('A' for Active; 'I' for Inactive)
REMARK    1  A    between atoms: C1_2  and  C2_3 
REMARK    2  A    between atoms: C2_3  and  C3_4 
ROOT
ATOM      1  C3  UNL d   1       2.260   0.042   2.534  0.00  0.00    -0.075 A 
ATOM      2  C4  UNL d   1       1.172  -0.680   2.023  0.00  0.00     0.002 A 
ATOM      3  C5  UNL d   1       0.095  -1.016   2.845  0.00  0.00     0.002 A 
ATOM      4  C6  UNL d   1       0.097  -0.643   4.187  0.00  0.00    -0.004 A 
ATOM      5  C7  UNL d   1       1.181   0.060   4.710  0.00  0.00     0.002 A 
ATOM      6  C8  UNL d   1       2.257   0.401   3.889  0.00  0.00     0.002 A 
ENDROOT
BRANCH   1   7
ATOM      7  C2  UNL d   1       3.414   0.433   1.643  0.00  0.00     0.056 C 
BRANCH   7   8
ATOM      8  C1  UNL d   1       4.742   0.616   2.386  0.00  0.00     0.007 C 
ATOM      9  C   UNL d   1       5.517  -0.684   2.558  0.00  0.00     0.009 C 
ENDBRANCH   7   8
ENDBRANCH   1   7
TORSDOF 2
ENDMDL
