MODEL 1
REMARK minimizedAffinity 16.3300667
REMARK minimizedRMSD -1
REMARK  2 active torsions:
REMARK  status: ('A' for Active; 'I' for Inactive)
REMARK    1  A    between atoms: C1_2  and  C2_3 
REMARK    2  A    between atoms: C2_3  and  C3_4 
ROOT
ATOM      1  C3  UNL d   1       1.814   3.546  -0.269  0.00  0.00    -0.075 A 
ATOM      2  C4  UNL d   1       1.445   4.663   0.494  0.00  0.00     0.002 A 
ATOM      3  C5  UNL d   1       1.159   5.881  -0.124  0.00  0.00     0.002 A 
ATOM      4  C6  UNL d   1       1.248   5.999  -1.509  0.00  0.00    -0.004 A 
ATOM      5  C7  UNL d   1       1.630   4.901  -2.276  0.00  0.00     0.002 A 
ATOM      6  C8  UNL d   1       1.913   3.680  -1.660  0.00  0.00     0.002 A 
ENDROOT
BRANCH   1   7
ATOM      7  C2  UNL d   1       2.097   2.218   0.392  0.00  0.00     0.056 C 
BRANCH   7   8
ATOM      8  C1  UNL d   1       3.565   2.014   0.781  0.00  0.00     0.007 C 
ATOM      9  C   UNL d   1       3.880   0.587   1.207  0.00  0.00     0.009 C 
ENDBRANCH   7   8
ENDBRANCH   1   7
TORSDOF 2
ENDMDL
