MODEL 1
REMARK minimizedAffinity 11.4499073
REMARK minimizedRMSD -1
REMARK  2 active torsions:
REMARK  status: ('A' for Active; 'I' for Inactive)
REMARK    1  A    between atoms: C1_2  and  C2_3 
REMARK    2  A    between atoms: C2_3  and  C3_4 
ROOT
ATOM      1  C3  UNL d   1       0.416   2.964  -0.660  0.00  0.00    -0.075 A 
ATOM      2  C4  UNL d   1      -0.066   3.332  -1.925  0.00  0.00     0.002 A 
ATOM      3  C5  UNL d   1      -1.088   2.602  -2.534  0.00  0.00     0.002 A 
ATOM      4  C6  UNL d   1      -1.632   1.492  -1.892  0.00  0.00    -0.004 A 
ATOM      5  C7  UNL d   1      -1.149   1.107  -0.643  0.00  0.00     0.002 A 
ATOM      6  C8  UNL d   1      -0.131   1.838  -0.030  0.00  0.00     0.002 A 
ENDROOT
BRANCH   1   7
ATOM      7  C2  UNL d   1       1.501   3.767   0.017  0.00  0.00     0.056 C 
BRANCH   7   8
ATOM      8  C1  UNL d   1       1.124   5.229   0.277  0.00  0.00     0.007 C 
ATOM      9  C   UNL d   1       0.785   5.998  -0.993  0.00  0.00     0.009 C 
ENDBRANCH   7   8
ENDBRANCH   1   7
TORSDOF 2
ENDMDL
