MODEL 1
REMARK minimizedAffinity 8.13941669
REMARK minimizedRMSD -1
REMARK  2 active torsions:
REMARK  status: ('A' for Active; 'I' for Inactive)
REMARK    1  A    between atoms: C1_2  and  C2_3 
REMARK    2  A    between atoms: C2_3  and  C3_4 
ROOT
ATOM      1  C3  UNL d   1      -2.607   2.787  -1.562  0.00  0.00    -0.075 A 
ATOM      2  C4  UNL d   1      -1.661   2.793  -2.598  0.00  0.00     0.002 A 
ATOM      3  C5  UNL d   1      -0.296   2.824  -2.312  0.00  0.00     0.002 A 
ATOM      4  C6  UNL d   1       0.140   2.860  -0.989  0.00  0.00    -0.004 A 
ATOM      5  C7  UNL d   1      -0.790   2.871   0.048  0.00  0.00     0.002 A 
ATOM      6  C8  UNL d   1      -2.157   2.836  -0.236  0.00  0.00     0.002 A 
ENDROOT
BRANCH   1   7
ATOM      7  C2  UNL d   1      -4.085   2.724  -1.865  0.00  0.00     0.056 C 
BRANCH   7   8
ATOM      8  C1  UNL d   1      -4.527   1.422  -2.542  0.00  0.00     0.007 C 
ATOM      9  C   UNL d   1      -5.997   1.423  -2.941  0.00  0.00     0.009 C 
ENDBRANCH   7   8
ENDBRANCH   1   7
TORSDOF 2
ENDMDL
