MODEL 1
REMARK minimizedAffinity 6.79051638
REMARK minimizedRMSD -1
REMARK  2 active torsions:
REMARK  status: ('A' for Active; 'I' for Inactive)
REMARK    1  A    between atoms: C1_2  and  C2_3 
REMARK    2  A    between atoms: C2_3  and  C3_4 
ROOT
ATOM      1  C3  UNL d   1      -2.001   3.686  -3.571  0.00  0.00    -0.075 A 
ATOM      2  C4  UNL d   1      -1.971   3.528  -4.964  0.00  0.00     0.002 A 
ATOM      3  C5  UNL d   1      -2.278   4.598  -5.805  0.00  0.00     0.002 A 
ATOM      4  C6  UNL d   1      -2.627   5.834  -5.265  0.00  0.00    -0.004 A 
ATOM      5  C7  UNL d   1      -2.676   5.998  -3.882  0.00  0.00     0.002 A 
ATOM      6  C8  UNL d   1      -2.365   4.930  -3.039  0.00  0.00     0.002 A 
ENDROOT
BRANCH   1   7
ATOM      7  C2  UNL d   1      -1.641   2.540  -2.656  0.00  0.00     0.056 C 
BRANCH   7   8
ATOM      8  C1  UNL d   1      -0.135   2.284  -2.538  0.00  0.00     0.007 C 
ATOM      9  C   UNL d   1       0.509   3.020  -1.371  0.00  0.00     0.009 C 
ENDBRANCH   7   8
ENDBRANCH   1   7
TORSDOF 2
ENDMDL
