MODEL 1
REMARK minimizedAffinity 11.3284912
REMARK minimizedRMSD -1
REMARK  2 active torsions:
REMARK  status: ('A' for Active; 'I' for Inactive)
REMARK    1  A    between atoms: C1_2  and  C2_3 
REMARK    2  A    between atoms: C2_3  and  C3_4 
ROOT
ATOM      1  C3  UNL d   1       0.470  -1.375   2.346  0.00  0.00    -0.075 A 
ATOM      2  C4  UNL d   1      -0.142  -2.572   1.946  0.00  0.00     0.002 A 
ATOM      3  C5  UNL d   1      -1.249  -3.066   2.636  0.00  0.00     0.002 A 
ATOM      4  C6  UNL d   1      -1.752  -2.378   3.738  0.00  0.00    -0.004 A 
ATOM      5  C7  UNL d   1      -1.141  -1.197   4.154  0.00  0.00     0.002 A 
ATOM      6  C8  UNL d   1      -0.036  -0.697   3.463  0.00  0.00     0.002 A 
ENDROOT
BRANCH   1   7
ATOM      7  C2  UNL d   1       1.651  -0.819   1.586  0.00  0.00     0.056 C 
BRANCH   7   8
ATOM      8  C1  UNL d   1       2.548   0.105   2.416  0.00  0.00     0.007 C 
ATOM      9  C   UNL d   1       3.752   0.626   1.643  0.00  0.00     0.009 C 
ENDBRANCH   7   8
ENDBRANCH   1   7
TORSDOF 2
ENDMDL
