MODEL 1
REMARK minimizedAffinity 4.253654
REMARK minimizedRMSD -1
REMARK  2 active torsions:
REMARK  status: ('A' for Active; 'I' for Inactive)
REMARK    1  A    between atoms: C1_2  and  C2_3 
REMARK    2  A    between atoms: C2_3  and  C3_4 
ROOT
ATOM      1  C3  UNL d   1      -0.248  -2.541   0.838  0.00  0.00    -0.075 A 
ATOM      2  C4  UNL d   1      -0.421  -1.248   1.353  0.00  0.00     0.002 A 
ATOM      3  C5  UNL d   1       0.562  -0.668   2.156  0.00  0.00     0.002 A 
ATOM      4  C6  UNL d   1       1.722  -1.375   2.463  0.00  0.00    -0.004 A 
ATOM      5  C7  UNL d   1       1.897  -2.666   1.971  0.00  0.00     0.002 A 
ATOM      6  C8  UNL d   1       0.918  -3.248   1.163  0.00  0.00     0.002 A 
ENDROOT
BRANCH   1   7
ATOM      7  C2  UNL d   1      -1.294  -3.163  -0.055  0.00  0.00     0.056 C 
BRANCH   7   8
ATOM      8  C1  UNL d   1      -2.336  -4.000   0.693  0.00  0.00     0.007 C 
ATOM      9  C   UNL d   1      -2.929  -5.119  -0.153  0.00  0.00     0.009 C 
ENDBRANCH   7   8
ENDBRANCH   1   7
TORSDOF 2
ENDMDL
