MODEL 1
REMARK minimizedAffinity 4.48513222
REMARK minimizedRMSD -1
REMARK  2 active torsions:
REMARK  status: ('A' for Active; 'I' for Inactive)
REMARK    1  A    between atoms: C1_2  and  C2_3 
REMARK    2  A    between atoms: C2_3  and  C3_4 
ROOT
ATOM      1  C3  UNL d   1      -0.975  -1.287   3.506  0.00  0.00    -0.075 A 
ATOM      2  C4  UNL d   1      -1.773  -2.412   3.255  0.00  0.00     0.002 A 
ATOM      3  C5  UNL d   1      -1.481  -3.264   2.189  0.00  0.00     0.002 A 
ATOM      4  C6  UNL d   1      -0.397  -2.997   1.356  0.00  0.00    -0.004 A 
ATOM      5  C7  UNL d   1       0.393  -1.873   1.587  0.00  0.00     0.002 A 
ATOM      6  C8  UNL d   1       0.106  -1.021   2.655  0.00  0.00     0.002 A 
ENDROOT
BRANCH   1   7
ATOM      7  C2  UNL d   1      -1.267  -0.378   4.675  0.00  0.00     0.056 C 
BRANCH   7   8
ATOM      8  C1  UNL d   1      -1.488  -1.116   6.000  0.00  0.00     0.007 C 
ATOM      9  C   UNL d   1      -2.736  -1.989   6.000  0.00  0.00     0.009 C 
ENDBRANCH   7   8
ENDBRANCH   1   7
TORSDOF 2
ENDMDL
