MODEL 1
REMARK minimizedAffinity 2.62026572
REMARK minimizedRMSD -1
REMARK  1 active torsions:
REMARK  status: ('A' for Active; 'I' for Inactive)
REMARK    1  A    between atoms: C1_2  and  C2_3 
ROOT
ATOM      1  C2  UNL d   1       4.370   1.701  -1.417  0.00  0.00    -0.077 A 
ATOM      2  C3  UNL d   1       3.811   2.054  -0.180  0.00  0.00     0.002 A 
ATOM      3  C4  UNL d   1       2.832   1.251   0.408  0.00  0.00     0.002 A 
ATOM      4  C5  UNL d   1       2.406   0.088  -0.231  0.00  0.00    -0.004 A 
ATOM      5  C6  UNL d   1       2.955  -0.271  -1.462  0.00  0.00     0.002 A 
ATOM      6  C7  UNL d   1       3.932   0.531  -2.051  0.00  0.00     0.002 A 
ENDROOT
BRANCH   1   7
ATOM      7  C1  UNL d   1       5.461   2.540  -2.029  0.00  0.00     0.055 C 
ATOM      8  C   UNL d   1       5.505   3.929  -1.409  0.00  0.00     0.019 C 
ENDBRANCH   1   7
TORSDOF 1
ENDMDL
