MODEL 1
REMARK minimizedAffinity 9.82436657
REMARK minimizedRMSD -1
REMARK  1 active torsions:
REMARK  status: ('A' for Active; 'I' for Inactive)
REMARK    1  A    between atoms: C1_2  and  C2_3 
ROOT
ATOM      1  C2  UNL d   1       2.643   1.669   1.479  0.00  0.00    -0.077 A 
ATOM      2  C3  UNL d   1       2.523   2.229   0.199  0.00  0.00     0.002 A 
ATOM      3  C4  UNL d   1       2.686   1.434  -0.937  0.00  0.00     0.002 A 
ATOM      4  C5  UNL d   1       2.965   0.075  -0.805  0.00  0.00    -0.004 A 
ATOM      5  C6  UNL d   1       3.089  -0.490   0.464  0.00  0.00     0.002 A 
ATOM      6  C7  UNL d   1       2.928   0.303   1.600  0.00  0.00     0.002 A 
ENDROOT
BRANCH   1   7
ATOM      7  C1  UNL d   1       2.419   2.515   2.705  0.00  0.00     0.055 C 
ATOM      8  C   UNL d   1       1.422   1.863   3.652  0.00  0.00     0.019 C 
ENDBRANCH   1   7
TORSDOF 1
ENDMDL
