MODEL 1
REMARK minimizedAffinity 7.69547319
REMARK minimizedRMSD -1
REMARK  1 active torsions:
REMARK  status: ('A' for Active; 'I' for Inactive)
REMARK    1  A    between atoms: C1_2  and  C2_3 
ROOT
ATOM      1  C2  UNL d   1       4.976   2.987  -1.120  0.00  0.00    -0.077 A 
ATOM      2  C3  UNL d   1       3.796   2.229  -1.144  0.00  0.00     0.002 A 
ATOM      3  C4  UNL d   1       3.647   1.128  -0.299  0.00  0.00     0.002 A 
ATOM      4  C5  UNL d   1       4.671   0.777   0.578  0.00  0.00    -0.004 A 
ATOM      5  C6  UNL d   1       5.849   1.523   0.608  0.00  0.00     0.002 A 
ATOM      6  C7  UNL d   1       6.000   2.624  -0.237  0.00  0.00     0.002 A 
ENDROOT
BRANCH   1   7
ATOM      7  C1  UNL d   1       5.119   4.204  -1.996  0.00  0.00     0.055 C 
ATOM      8  C   UNL d   1       5.569   5.415  -1.192  0.00  0.00     0.019 C 
ENDBRANCH   1   7
TORSDOF 1
ENDMDL
