MODEL 1
REMARK minimizedAffinity 7.28320742
REMARK minimizedRMSD -1
REMARK  1 active torsions:
REMARK  status: ('A' for Active; 'I' for Inactive)
REMARK    1  A    between atoms: C1_2  and  C2_3 
ROOT
ATOM      1  C2  UNL d   1       1.981   2.119   4.362  0.00  0.00    -0.077 A 
ATOM      2  C3  UNL d   1       2.349   1.998   3.015  0.00  0.00     0.002 A 
ATOM      3  C4  UNL d   1       3.509   2.615   2.541  0.00  0.00     0.002 A 
ATOM      4  C5  UNL d   1       4.311   3.353   3.409  0.00  0.00    -0.004 A 
ATOM      5  C6  UNL d   1       3.953   3.480   4.750  0.00  0.00     0.002 A 
ATOM      6  C7  UNL d   1       2.794   2.865   5.225  0.00  0.00     0.002 A 
ENDROOT
BRANCH   1   7
ATOM      7  C1  UNL d   1       0.757   1.413   4.885  0.00  0.00     0.055 C 
ATOM      8  C   UNL d   1      -0.051   2.316   5.805  0.00  0.00     0.019 C 
ENDBRANCH   1   7
TORSDOF 1
ENDMDL
