MODEL 1
REMARK minimizedAffinity 1.04732955
REMARK minimizedRMSD -1
REMARK  1 active torsions:
REMARK  status: ('A' for Active; 'I' for Inactive)
REMARK    1  A    between atoms: C1_2  and  C2_3 
ROOT
ATOM      1  C2  UNL d   1       5.140   2.459   0.763  0.00  0.00    -0.077 A 
ATOM      2  C3  UNL d   1       5.721   2.769  -0.475  0.00  0.00     0.002 A 
ATOM      3  C4  UNL d   1       5.128   2.335  -1.662  0.00  0.00     0.002 A 
ATOM      4  C5  UNL d   1       3.949   1.593  -1.623  0.00  0.00    -0.004 A 
ATOM      5  C6  UNL d   1       3.364   1.279  -0.397  0.00  0.00     0.002 A 
ATOM      6  C7  UNL d   1       3.957   1.710   0.791  0.00  0.00     0.002 A 
ENDROOT
BRANCH   1   7
ATOM      7  C1  UNL d   1       5.752   2.968   2.042  0.00  0.00     0.055 C 
ATOM      8  C   UNL d   1       4.683   3.283   3.079  0.00  0.00     0.019 C 
ENDBRANCH   1   7
TORSDOF 1
ENDMDL
