MODEL 1
REMARK minimizedAffinity 0.593722641
REMARK minimizedRMSD -1
REMARK  1 active torsions:
REMARK  status: ('A' for Active; 'I' for Inactive)
REMARK    1  A    between atoms: C1_2  and  C2_3 
ROOT
ATOM      1  C2  UNL d   1       4.109   2.392   1.008  0.00  0.00    -0.077 A 
ATOM      2  C3  UNL d   1       4.615   2.139  -0.274  0.00  0.00     0.002 A 
ATOM      3  C4  UNL d   1       3.861   1.417  -1.202  0.00  0.00     0.002 A 
ATOM      4  C5  UNL d   1       2.595   0.947  -0.858  0.00  0.00    -0.004 A 
ATOM      5  C6  UNL d   1       2.084   1.192   0.416  0.00  0.00     0.002 A 
ATOM      6  C7  UNL d   1       2.837   1.912   1.344  0.00  0.00     0.002 A 
ENDROOT
BRANCH   1   7
ATOM      7  C1  UNL d   1       4.900   3.213   1.993  0.00  0.00     0.055 C 
ATOM      8  C   UNL d   1       5.998   4.004   1.298  0.00  0.00     0.019 C 
ENDBRANCH   1   7
TORSDOF 1
ENDMDL
