MODEL 1
REMARK minimizedAffinity -5.14194298
REMARK minimizedRMSD -1
REMARK  0 active torsions:
REMARK  status: ('A' for Active; 'I' for Inactive)
ROOT
ATOM      1  C   UNL d   1       0.389   1.150  -0.408  0.00  0.00     0.078 C 
ATOM      2  C1  UNL d   1      -0.046  -0.223   0.008  0.00  0.00    -0.077 A 
ATOM      3  C2  UNL d   1       0.889  -1.248   0.200  0.00  0.00    -0.001 A 
ATOM      4  C3  UNL d   1       0.469  -2.524   0.578  0.00  0.00     0.003 A 
ATOM      5  C4  UNL d   1      -0.886  -2.788   0.768  0.00  0.00    -0.005 A 
ATOM      6  C5  UNL d   1      -1.823  -1.775   0.577  0.00  0.00     0.003 A 
ATOM      7  C6  UNL d   1      -1.406  -0.498   0.199  0.00  0.00    -0.001 A 
ENDROOT
TORSDOF 0
ENDMDL
