MODEL 1
REMARK minimizedAffinity -3.62816882
REMARK minimizedRMSD -1
REMARK  0 active torsions:
REMARK  status: ('A' for Active; 'I' for Inactive)
ROOT
ATOM      1  C   UNL d   1      -2.468  -4.851  -5.626  0.00  0.00     0.078 C 
ATOM      2  C1  UNL d   1      -3.696  -4.081  -5.241  0.00  0.00    -0.077 A 
ATOM      3  C2  UNL d   1      -4.470  -4.461  -4.138  0.00  0.00    -0.001 A 
ATOM      4  C3  UNL d   1      -5.616  -3.741  -3.798  0.00  0.00     0.003 A 
ATOM      5  C4  UNL d   1      -6.000  -2.637  -4.557  0.00  0.00    -0.005 A 
ATOM      6  C5  UNL d   1      -5.238  -2.252  -5.658  0.00  0.00     0.003 A 
ATOM      7  C6  UNL d   1      -4.091  -2.971  -6.000  0.00  0.00    -0.001 A 
ENDROOT
TORSDOF 0
ENDMDL
