MODEL 1
REMARK minimizedAffinity -3.21858907
REMARK minimizedRMSD -1
REMARK  0 active torsions:
REMARK  status: ('A' for Active; 'I' for Inactive)
ROOT
ATOM      1  C   UNL d   1      -2.203  -4.908  -5.788  0.00  0.00     0.078 C 
ATOM      2  C1  UNL d   1      -3.512  -4.317  -5.359  0.00  0.00    -0.077 A 
ATOM      3  C2  UNL d   1      -4.341  -4.984  -4.449  0.00  0.00    -0.001 A 
ATOM      4  C3  UNL d   1      -5.562  -4.427  -4.066  0.00  0.00     0.003 A 
ATOM      5  C4  UNL d   1      -5.966  -3.200  -4.589  0.00  0.00    -0.005 A 
ATOM      6  C5  UNL d   1      -5.149  -2.530  -5.497  0.00  0.00     0.003 A 
ATOM      7  C6  UNL d   1      -3.928  -3.086  -5.881  0.00  0.00    -0.001 A 
ENDROOT
TORSDOF 0
ENDMDL
