MODEL 1
REMARK minimizedAffinity -3.88936639
REMARK minimizedRMSD -1
REMARK  0 active torsions:
REMARK  status: ('A' for Active; 'I' for Inactive)
ROOT
ATOM      1  C   UNL d   1      -2.163  -4.961  -5.261  0.00  0.00     0.078 C 
ATOM      2  C1  UNL d   1      -3.442  -4.321  -4.812  0.00  0.00    -0.077 A 
ATOM      3  C2  UNL d   1      -3.751  -3.001  -5.162  0.00  0.00    -0.001 A 
ATOM      4  C3  UNL d   1      -4.941  -2.415  -4.728  0.00  0.00     0.003 A 
ATOM      5  C4  UNL d   1      -5.832  -3.142  -3.940  0.00  0.00    -0.005 A 
ATOM      6  C5  UNL d   1      -5.533  -4.455  -3.585  0.00  0.00     0.003 A 
ATOM      7  C6  UNL d   1      -4.343  -5.043  -4.018  0.00  0.00    -0.001 A 
ENDROOT
TORSDOF 0
ENDMDL
