MODEL 1
REMARK minimizedAffinity -3.54893303
REMARK minimizedRMSD -1
REMARK  0 active torsions:
REMARK  status: ('A' for Active; 'I' for Inactive)
ROOT
ATOM      1  C   UNL d   1      -2.104  -4.850  -5.610  0.00  0.00     0.078 C 
ATOM      2  C1  UNL d   1      -3.461  -4.238  -5.427  0.00  0.00    -0.077 A 
ATOM      3  C2  UNL d   1      -3.776  -2.998  -5.996  0.00  0.00    -0.001 A 
ATOM      4  C3  UNL d   1      -5.040  -2.436  -5.809  0.00  0.00     0.003 A 
ATOM      5  C4  UNL d   1      -5.998  -3.107  -5.052  0.00  0.00    -0.005 A 
ATOM      6  C5  UNL d   1      -5.693  -4.340  -4.479  0.00  0.00     0.003 A 
ATOM      7  C6  UNL d   1      -4.430  -4.903  -4.665  0.00  0.00    -0.001 A 
ENDROOT
TORSDOF 0
ENDMDL
