MODEL 1
REMARK minimizedAffinity -3.77171254
REMARK minimizedRMSD -1
REMARK  0 active torsions:
REMARK  status: ('A' for Active; 'I' for Inactive)
ROOT
ATOM      1  C   UNL d   1      -1.885  -5.439  -5.890  0.00  0.00     0.078 C 
ATOM      2  C1  UNL d   1      -3.023  -4.597  -5.395  0.00  0.00    -0.077 A 
ATOM      3  C2  UNL d   1      -4.104  -5.173  -4.716  0.00  0.00    -0.001 A 
ATOM      4  C3  UNL d   1      -5.162  -4.379  -4.271  0.00  0.00     0.003 A 
ATOM      5  C4  UNL d   1      -5.150  -3.005  -4.500  0.00  0.00    -0.005 A 
ATOM      6  C5  UNL d   1      -4.080  -2.423  -5.176  0.00  0.00     0.003 A 
ATOM      7  C6  UNL d   1      -3.021  -3.215  -5.623  0.00  0.00    -0.001 A 
ENDROOT
TORSDOF 0
ENDMDL
