MODEL 1
REMARK minimizedAffinity -2.70443559
REMARK minimizedRMSD -1
REMARK  0 active torsions:
REMARK  status: ('A' for Active; 'I' for Inactive)
ROOT
ATOM      1  C   UNL d   1      -5.987  -2.869  -5.742  0.00  0.00     0.078 C 
ATOM      2  C1  UNL d   1      -4.815  -3.625  -5.192  0.00  0.00    -0.077 A 
ATOM      3  C2  UNL d   1      -4.375  -3.418  -3.879  0.00  0.00    -0.001 A 
ATOM      4  C3  UNL d   1      -3.277  -4.123  -3.383  0.00  0.00     0.003 A 
ATOM      5  C4  UNL d   1      -2.609  -5.038  -4.194  0.00  0.00    -0.005 A 
ATOM      6  C5  UNL d   1      -3.038  -5.249  -5.502  0.00  0.00     0.003 A 
ATOM      7  C6  UNL d   1      -4.136  -4.545  -6.000  0.00  0.00    -0.001 A 
ENDROOT
TORSDOF 0
ENDMDL
