MODEL 1
REMARK minimizedAffinity -3.2338233
REMARK minimizedRMSD -1
REMARK  0 active torsions:
REMARK  status: ('A' for Active; 'I' for Inactive)
ROOT
ATOM      1  C   UNL d   1      -6.000  -1.706  -3.000  0.00  0.00     0.078 C 
ATOM      2  C1  UNL d   1      -5.537  -2.867  -3.828  0.00  0.00    -0.077 A 
ATOM      3  C2  UNL d   1      -4.634  -3.806  -3.313  0.00  0.00    -0.001 A 
ATOM      4  C3  UNL d   1      -4.204  -4.876  -4.099  0.00  0.00     0.003 A 
ATOM      5  C4  UNL d   1      -4.671  -5.018  -5.404  0.00  0.00    -0.005 A 
ATOM      6  C5  UNL d   1      -5.568  -4.088  -5.926  0.00  0.00     0.003 A 
ATOM      7  C6  UNL d   1      -5.999  -3.017  -5.141  0.00  0.00    -0.001 A 
ENDROOT
TORSDOF 0
ENDMDL
