MODEL 1
REMARK minimizedAffinity -3.66172695
REMARK minimizedRMSD -1
REMARK  0 active torsions:
REMARK  status: ('A' for Active; 'I' for Inactive)
ROOT
ATOM      1  C   UNL d   1      -1.567  -5.332  -5.248  0.00  0.00     0.078 C 
ATOM      2  C1  UNL d   1      -3.023  -5.102  -4.971  0.00  0.00    -0.077 A 
ATOM      3  C2  UNL d   1      -3.700  -5.853  -4.002  0.00  0.00    -0.001 A 
ATOM      4  C3  UNL d   1      -5.057  -5.635  -3.761  0.00  0.00     0.003 A 
ATOM      5  C4  UNL d   1      -5.750  -4.668  -4.487  0.00  0.00    -0.005 A 
ATOM      6  C5  UNL d   1      -5.086  -3.918  -5.455  0.00  0.00     0.003 A 
ATOM      7  C6  UNL d   1      -3.728  -4.134  -5.697  0.00  0.00    -0.001 A 
ENDROOT
TORSDOF 0
ENDMDL
