MODEL 1
REMARK minimizedAffinity -3.30598164
REMARK minimizedRMSD -1
REMARK  0 active torsions:
REMARK  status: ('A' for Active; 'I' for Inactive)
ROOT
ATOM      1  C   UNL d   1      -5.234  -2.102  -3.982  0.00  0.00     0.078 C 
ATOM      2  C1  UNL d   1      -4.572  -3.381  -4.402  0.00  0.00    -0.077 A 
ATOM      3  C2  UNL d   1      -4.892  -4.595  -3.783  0.00  0.00    -0.001 A 
ATOM      4  C3  UNL d   1      -4.261  -5.776  -4.177  0.00  0.00     0.003 A 
ATOM      5  C4  UNL d   1      -3.305  -5.754  -5.190  0.00  0.00    -0.005 A 
ATOM      6  C5  UNL d   1      -2.978  -4.550  -5.810  0.00  0.00     0.003 A 
ATOM      7  C6  UNL d   1      -3.608  -3.368  -5.418  0.00  0.00    -0.001 A 
ENDROOT
TORSDOF 0
ENDMDL
