MODEL 1
REMARK minimizedAffinity -3.586905
REMARK minimizedRMSD -1
REMARK  0 active torsions:
REMARK  status: ('A' for Active; 'I' for Inactive)
ROOT
ATOM      1  C   UNL d   1      -1.968  -4.655  -5.313  0.00  0.00     0.078 C 
ATOM      2  C1  UNL d   1      -3.374  -4.253  -4.978  0.00  0.00    -0.077 A 
ATOM      3  C2  UNL d   1      -3.831  -2.954  -5.228  0.00  0.00    -0.001 A 
ATOM      4  C3  UNL d   1      -5.139  -2.591  -4.903  0.00  0.00     0.003 A 
ATOM      5  C4  UNL d   1      -6.000  -3.521  -4.325  0.00  0.00    -0.005 A 
ATOM      6  C5  UNL d   1      -5.553  -4.816  -4.070  0.00  0.00     0.003 A 
ATOM      7  C6  UNL d   1      -4.245  -5.181  -4.395  0.00  0.00    -0.001 A 
ENDROOT
TORSDOF 0
ENDMDL
