MODEL 1
REMARK minimizedAffinity -3.01319122
REMARK minimizedRMSD -1
REMARK  0 active torsions:
REMARK  status: ('A' for Active; 'I' for Inactive)
ROOT
ATOM      1  C   UNL d   1      -1.538  -5.978  -5.098  0.00  0.00     0.078 C 
ATOM      2  C1  UNL d   1      -2.979  -5.573  -5.008  0.00  0.00    -0.077 A 
ATOM      3  C2  UNL d   1      -3.446  -4.803  -3.935  0.00  0.00    -0.001 A 
ATOM      4  C3  UNL d   1      -4.792  -4.441  -3.859  0.00  0.00     0.003 A 
ATOM      5  C4  UNL d   1      -5.683  -4.846  -4.852  0.00  0.00    -0.005 A 
ATOM      6  C5  UNL d   1      -5.228  -5.614  -5.922  0.00  0.00     0.003 A 
ATOM      7  C6  UNL d   1      -3.882  -5.977  -5.999  0.00  0.00    -0.001 A 
ENDROOT
TORSDOF 0
ENDMDL
