MODEL 1
REMARK minimizedAffinity -3.49978065
REMARK minimizedRMSD -1
REMARK  0 active torsions:
REMARK  status: ('A' for Active; 'I' for Inactive)
ROOT
ATOM      1  C   UNL d   1      -5.981  -2.579  -3.754  0.00  0.00     0.078 C 
ATOM      2  C1  UNL d   1      -5.229  -3.697  -4.413  0.00  0.00    -0.077 A 
ATOM      3  C2  UNL d   1      -3.890  -3.952  -4.094  0.00  0.00    -0.001 A 
ATOM      4  C3  UNL d   1      -3.200  -4.990  -4.722  0.00  0.00     0.003 A 
ATOM      5  C4  UNL d   1      -3.840  -5.780  -5.674  0.00  0.00    -0.005 A 
ATOM      6  C5  UNL d   1      -5.172  -5.533  -6.000  0.00  0.00     0.003 A 
ATOM      7  C6  UNL d   1      -5.864  -4.495  -5.372  0.00  0.00    -0.001 A 
ENDROOT
TORSDOF 0
ENDMDL
