MODEL 1
REMARK minimizedAffinity -3.81327891
REMARK minimizedRMSD -1
REMARK  0 active torsions:
REMARK  status: ('A' for Active; 'I' for Inactive)
ROOT
ATOM      1  C   UNL d   1      -5.419  -4.869  -4.782  0.00  0.00     0.078 C 
ATOM      2  C1  UNL d   1      -3.925  -4.994  -4.801  0.00  0.00    -0.077 A 
ATOM      3  C2  UNL d   1      -3.206  -4.875  -5.996  0.00  0.00    -0.001 A 
ATOM      4  C3  UNL d   1      -1.816  -5.004  -6.000  0.00  0.00     0.003 A 
ATOM      5  C4  UNL d   1      -1.133  -5.254  -4.811  0.00  0.00    -0.005 A 
ATOM      6  C5  UNL d   1      -1.841  -5.376  -3.616  0.00  0.00     0.003 A 
ATOM      7  C6  UNL d   1      -3.230  -5.247  -3.611  0.00  0.00    -0.001 A 
ENDROOT
TORSDOF 0
ENDMDL
