MODEL 1
REMARK minimizedAffinity -4.00897074
REMARK minimizedRMSD -1
REMARK  0 active torsions:
REMARK  status: ('A' for Active; 'I' for Inactive)
ROOT
ATOM      1  C   UNL d   1      -5.417  -4.111  -4.147  0.00  0.00     0.078 C 
ATOM      2  C1  UNL d   1      -4.015  -4.568  -4.421  0.00  0.00    -0.077 A 
ATOM      3  C2  UNL d   1      -3.217  -5.097  -3.399  0.00  0.00    -0.001 A 
ATOM      4  C3  UNL d   1      -1.911  -5.510  -3.666  0.00  0.00     0.003 A 
ATOM      5  C4  UNL d   1      -1.390  -5.396  -4.953  0.00  0.00    -0.005 A 
ATOM      6  C5  UNL d   1      -2.176  -4.869  -5.976  0.00  0.00     0.003 A 
ATOM      7  C6  UNL d   1      -3.483  -4.456  -5.711  0.00  0.00    -0.001 A 
ENDROOT
TORSDOF 0
ENDMDL
