MODEL 1
REMARK minimizedAffinity -2.96879125
REMARK minimizedRMSD -1
REMARK  0 active torsions:
REMARK  status: ('A' for Active; 'I' for Inactive)
ROOT
ATOM      1  C   UNL d   1      -2.415  -5.643  -5.645  0.00  0.00     0.078 C 
ATOM      2  C1  UNL d   1      -3.671  -4.932  -5.238  0.00  0.00    -0.077 A 
ATOM      3  C2  UNL d   1      -4.841  -5.042  -5.999  0.00  0.00    -0.001 A 
ATOM      4  C3  UNL d   1      -6.000  -4.366  -5.614  0.00  0.00     0.003 A 
ATOM      5  C4  UNL d   1      -5.999  -3.574  -4.467  0.00  0.00    -0.005 A 
ATOM      6  C5  UNL d   1      -4.839  -3.456  -3.705  0.00  0.00     0.003 A 
ATOM      7  C6  UNL d   1      -3.679  -4.131  -4.089  0.00  0.00    -0.001 A 
ENDROOT
TORSDOF 0
ENDMDL
