MODEL 1
REMARK minimizedAffinity -3.99931073
REMARK minimizedRMSD -1
REMARK  0 active torsions:
REMARK  status: ('A' for Active; 'I' for Inactive)
ROOT
ATOM      1  C   UNL d   1      -4.897  -2.332  -4.238  0.00  0.00     0.078 C 
ATOM      2  C1  UNL d   1      -3.816  -3.333  -4.517  0.00  0.00    -0.077 A 
ATOM      3  C2  UNL d   1      -3.145  -3.347  -5.746  0.00  0.00    -0.001 A 
ATOM      4  C3  UNL d   1      -2.148  -4.291  -5.996  0.00  0.00     0.003 A 
ATOM      5  C4  UNL d   1      -1.814  -5.230  -5.022  0.00  0.00    -0.005 A 
ATOM      6  C5  UNL d   1      -2.477  -5.225  -3.796  0.00  0.00     0.003 A 
ATOM      7  C6  UNL d   1      -3.475  -4.282  -3.545  0.00  0.00    -0.001 A 
ENDROOT
TORSDOF 0
ENDMDL
