MODEL 1
REMARK minimizedAffinity -4.28130531
REMARK minimizedRMSD -1
REMARK  0 active torsions:
REMARK  status: ('A' for Active; 'I' for Inactive)
ROOT
ATOM      1  C   UNL d   1      -2.378  -5.004  -5.248  0.00  0.00     0.078 C 
ATOM      2  C1  UNL d   1      -3.642  -4.343  -4.787  0.00  0.00    -0.077 A 
ATOM      3  C2  UNL d   1      -4.817  -5.081  -4.603  0.00  0.00    -0.001 A 
ATOM      4  C3  UNL d   1      -5.989  -4.450  -4.182  0.00  0.00     0.003 A 
ATOM      5  C4  UNL d   1      -5.997  -3.077  -3.944  0.00  0.00    -0.005 A 
ATOM      6  C5  UNL d   1      -4.833  -2.334  -4.126  0.00  0.00     0.003 A 
ATOM      7  C6  UNL d   1      -3.660  -2.963  -4.546  0.00  0.00    -0.001 A 
ENDROOT
TORSDOF 0
ENDMDL
