MODEL 1
REMARK minimizedAffinity 9.77518559
REMARK minimizedRMSD -1
REMARK  0 active torsions:
REMARK  status: ('A' for Active; 'I' for Inactive)
ROOT
ATOM      1  C1  DEN d   1      -0.602  -0.935   3.963  0.00  0.00     0.130 A 
ATOM      2  C2  DEN d   1       0.840  -1.156   3.919  0.00  0.00    -0.031 A 
ATOM      3  C3  DEN d   1       1.317  -0.789   2.570  0.00  0.00     0.027 A 
ATOM      4  C4  DEN d   1      -0.032   0.098   0.558  0.00  0.00     0.027 A 
ATOM      5  C5  DEN d   1      -1.290   0.439   0.112  0.00  0.00    -0.003 A 
ATOM      6  C6  DEN d   1      -2.402   0.314   0.901  0.00  0.00     0.001 A 
ATOM      7  C7  DEN d   1      -2.273  -0.121   2.194  0.00  0.00     0.017 A 
ATOM      8  C8  DEN d   1      -1.009  -0.473   2.648  0.00  0.00    -0.094 A 
ATOM      9  C9  DEN d   1       0.106  -0.328   1.839  0.00  0.00    -0.072 A 
ENDROOT
TORSDOF 0
ENDMDL
