MODEL 1
REMARK minimizedAffinity -1.62482452
REMARK minimizedRMSD -1
REMARK  0 active torsions:
REMARK  status: ('A' for Active; 'I' for Inactive)
ROOT
ATOM      1  C1  DEN d   1       1.331   0.680  -4.105  0.00  0.00     0.130 A 
ATOM      2  C2  DEN d   1       0.197  -0.049  -4.666  0.00  0.00    -0.031 A 
ATOM      3  C3  DEN d   1      -0.308  -0.975  -3.632  0.00  0.00     0.027 A 
ATOM      4  C4  DEN d   1       0.549  -1.346  -1.228  0.00  0.00     0.027 A 
ATOM      5  C5  DEN d   1       1.497  -0.967  -0.303  0.00  0.00    -0.003 A 
ATOM      6  C6  DEN d   1       2.468  -0.045  -0.589  0.00  0.00     0.001 A 
ATOM      7  C7  DEN d   1       2.487   0.563  -1.817  0.00  0.00     0.017 A 
ATOM      8  C8  DEN d   1       1.539   0.181  -2.757  0.00  0.00    -0.094 A 
ATOM      9  C9  DEN d   1       0.558  -0.744  -2.445  0.00  0.00    -0.072 A 
ENDROOT
TORSDOF 0
ENDMDL
