MODEL 1
REMARK minimizedAffinity 10.1871328
REMARK minimizedRMSD -1
REMARK  0 active torsions:
REMARK  status: ('A' for Active; 'I' for Inactive)
ROOT
ATOM      1  C1  DEN d   1       0.102  -1.331   3.998  0.00  0.00     0.130 A 
ATOM      2  C2  DEN d   1       1.179  -0.777   3.182  0.00  0.00    -0.031 A 
ATOM      3  C3  DEN d   1       0.568  -0.081   2.032  0.00  0.00     0.027 A 
ATOM      4  C4  DEN d   1      -1.927   0.197   1.442  0.00  0.00     0.027 A 
ATOM      5  C5  DEN d   1      -3.213  -0.109   1.829  0.00  0.00    -0.003 A 
ATOM      6  C6  DEN d   1      -3.481  -0.866   2.939  0.00  0.00     0.001 A 
ATOM      7  C7  DEN d   1      -2.449  -1.305   3.726  0.00  0.00     0.017 A 
ATOM      8  C8  DEN d   1      -1.150  -1.007   3.338  0.00  0.00    -0.094 A 
ATOM      9  C9  DEN d   1      -0.900  -0.230   2.219  0.00  0.00    -0.072 A 
ENDROOT
TORSDOF 0
ENDMDL
