MODEL 1
REMARK minimizedAffinity 17.8418903
REMARK minimizedRMSD -1
REMARK  0 active torsions:
REMARK  status: ('A' for Active; 'I' for Inactive)
ROOT
ATOM      1  C1  DEN d   1       0.202  -0.374  -0.948  0.00  0.00     0.130 A 
ATOM      2  C2  DEN d   1       1.308  -0.342   0.005  0.00  0.00    -0.031 A 
ATOM      3  C3  DEN d   1       0.757  -0.004   1.332  0.00  0.00     0.027 A 
ATOM      4  C4  DEN d   1      -1.689   0.466   2.003  0.00  0.00     0.027 A 
ATOM      5  C5  DEN d   1      -2.981   0.566   1.537  0.00  0.00    -0.003 A 
ATOM      6  C6  DEN d   1      -3.295   0.396   0.215  0.00  0.00     0.001 A 
ATOM      7  C7  DEN d   1      -2.311   0.070  -0.681  0.00  0.00     0.017 A 
ATOM      8  C8  DEN d   1      -1.005  -0.026  -0.220  0.00  0.00    -0.094 A 
ATOM      9  C9  DEN d   1      -0.709   0.138   1.123  0.00  0.00    -0.072 A 
ENDROOT
TORSDOF 0
ENDMDL
