MODEL 1
REMARK minimizedAffinity 1.25355208
REMARK minimizedRMSD -1
REMARK  0 active torsions:
REMARK  status: ('A' for Active; 'I' for Inactive)
ROOT
ATOM      1  C1  DEN d   1      -1.037   1.261  -1.169  0.00  0.00     0.130 A 
ATOM      2  C2  DEN d   1       0.397   1.226  -1.442  0.00  0.00    -0.031 A 
ATOM      3  C3  DEN d   1       1.051   0.469  -0.356  0.00  0.00     0.027 A 
ATOM      4  C4  DEN d   1      -0.014  -0.649   1.710  0.00  0.00     0.027 A 
ATOM      5  C5  DEN d   1      -1.196  -0.878   2.379  0.00  0.00    -0.003 A 
ATOM      6  C6  DEN d   1      -2.394  -0.386   1.933  0.00  0.00     0.001 A 
ATOM      7  C7  DEN d   1      -2.443   0.324   0.762  0.00  0.00     0.017 A 
ATOM      8  C8  DEN d   1      -1.254   0.565   0.087  0.00  0.00    -0.094 A 
ATOM      9  C9  DEN d   1      -0.054   0.048   0.547  0.00  0.00    -0.072 A 
ENDROOT
TORSDOF 0
ENDMDL
