MODEL 1
REMARK minimizedAffinity -2.40449333
REMARK minimizedRMSD -1
REMARK  0 active torsions:
REMARK  status: ('A' for Active; 'I' for Inactive)
ROOT
ATOM      1  C   UNL d   1      -0.024   1.751  -1.036  0.00  0.00     0.020 A 
ATOM      2  C1  UNL d   1      -1.146   1.353  -0.310  0.00  0.00     0.020 A 
ATOM      3  C2  UNL d   1      -1.321   0.008   0.022  0.00  0.00     0.034 A 
ATOM      4  C3  UNL d   1      -0.374  -0.944  -0.372  0.00  0.00     0.017 A 
ATOM      5  C4  UNL d   1       0.752  -0.544  -1.101  0.00  0.00     0.017 A 
ATOM      6  C5  UNL d   1       0.923   0.804  -1.431  0.00  0.00     0.034 A 
ATOM      7 Cl   UNL d   1       1.964  -1.660  -1.622  0.00  0.00    -0.070 Cl
ATOM      8 Cl1  UNL d   1      -0.655  -2.590   0.074  0.00  0.00    -0.070 Cl
ENDROOT
TORSDOF 0
ENDMDL
