MODEL 1
REMARK minimizedAffinity -4.65370274
REMARK minimizedRMSD -1
REMARK  0 active torsions:
REMARK  status: ('A' for Active; 'I' for Inactive)
ROOT
ATOM      1  C   UNL d   1       2.135   1.518  -2.268  0.00  0.00     0.020 A 
ATOM      2  C1  UNL d   1       2.853   0.369  -1.938  0.00  0.00     0.020 A 
ATOM      3  C2  UNL d   1       2.278  -0.601  -1.115  0.00  0.00     0.034 A 
ATOM      4  C3  UNL d   1       0.982  -0.425  -0.618  0.00  0.00     0.017 A 
ATOM      5  C4  UNL d   1       0.261   0.729  -0.949  0.00  0.00     0.017 A 
ATOM      6  C5  UNL d   1       0.842   1.697  -1.774  0.00  0.00     0.034 A 
ATOM      7 Cl   UNL d   1      -1.343   1.017  -0.375  0.00  0.00    -0.070 Cl
ATOM      8 Cl1  UNL d   1       0.333  -1.666   0.394  0.00  0.00    -0.070 Cl
ENDROOT
TORSDOF 0
ENDMDL
