MODEL 1
REMARK minimizedAffinity -2.63622141
REMARK minimizedRMSD -1
REMARK  0 active torsions:
REMARK  status: ('A' for Active; 'I' for Inactive)
ROOT
ATOM      1  C   UNL d   1       1.166   1.459  -2.520  0.00  0.00     0.020 A 
ATOM      2  C1  UNL d   1       2.054   0.396  -2.675  0.00  0.00     0.020 A 
ATOM      3  C2  UNL d   1       1.935  -0.736  -1.866  0.00  0.00     0.034 A 
ATOM      4  C3  UNL d   1       0.926  -0.808  -0.898  0.00  0.00     0.017 A 
ATOM      5  C4  UNL d   1       0.035   0.260  -0.744  0.00  0.00     0.017 A 
ATOM      6  C5  UNL d   1       0.158   1.391  -1.557  0.00  0.00     0.034 A 
ATOM      7 Cl   UNL d   1      -1.236   0.245   0.428  0.00  0.00    -0.070 Cl
ATOM      8 Cl1  UNL d   1       0.838  -2.238   0.067  0.00  0.00    -0.070 Cl
ENDROOT
TORSDOF 0
ENDMDL
