MODEL 1
REMARK minimizedAffinity -0.117714003
REMARK minimizedRMSD -1
REMARK  0 active torsions:
REMARK  status: ('A' for Active; 'I' for Inactive)
ROOT
ATOM      1  C   UNL d   1      -2.717   0.734   3.401  0.00  0.00     0.020 A 
ATOM      2  C1  UNL d   1      -2.115   1.901   3.870  0.00  0.00     0.020 A 
ATOM      3  C2  UNL d   1      -0.958   2.385   3.256  0.00  0.00     0.034 A 
ATOM      4  C3  UNL d   1      -0.399   1.701   2.170  0.00  0.00     0.017 A 
ATOM      5  C4  UNL d   1      -1.004   0.530   1.700  0.00  0.00     0.017 A 
ATOM      6  C5  UNL d   1      -2.163   0.050   2.318  0.00  0.00     0.034 A 
ATOM      7 Cl   UNL d   1      -0.373  -0.368   0.365  0.00  0.00    -0.070 Cl
ATOM      8 Cl1  UNL d   1       1.033   2.357   1.459  0.00  0.00    -0.070 Cl
ENDROOT
TORSDOF 0
ENDMDL
