MODEL 1
REMARK minimizedAffinity -5.0769453
REMARK minimizedRMSD -1
REMARK  0 active torsions:
REMARK  status: ('A' for Active; 'I' for Inactive)
ROOT
ATOM      1  C   UNL d   1       3.100   0.348  -1.567  0.00  0.00     0.020 A 
ATOM      2  C1  UNL d   1       2.396   1.332  -2.260  0.00  0.00     0.020 A 
ATOM      3  C2  UNL d   1       1.046   1.554  -1.977  0.00  0.00     0.034 A 
ATOM      4  C3  UNL d   1       0.397   0.792  -1.000  0.00  0.00     0.017 A 
ATOM      5  C4  UNL d   1       1.105  -0.196  -0.305  0.00  0.00     0.017 A 
ATOM      6  C5  UNL d   1       2.455  -0.414  -0.592  0.00  0.00     0.034 A 
ATOM      7 Cl   UNL d   1       0.371  -1.176   0.915  0.00  0.00    -0.070 Cl
ATOM      8 Cl1  UNL d   1      -1.273   1.122  -0.702  0.00  0.00    -0.070 Cl
ENDROOT
TORSDOF 0
ENDMDL
