MODEL 1
REMARK minimizedAffinity -0.993780673
REMARK minimizedRMSD -1
REMARK  0 active torsions:
REMARK  status: ('A' for Active; 'I' for Inactive)
ROOT
ATOM      1  C   UNL d   1      -1.769   0.616   4.107  0.00  0.00     0.020 A 
ATOM      2  C1  UNL d   1      -2.875   1.005   3.353  0.00  0.00     0.020 A 
ATOM      3  C2  UNL d   1      -2.807   0.996   1.958  0.00  0.00     0.034 A 
ATOM      4  C3  UNL d   1      -1.631   0.597   1.313  0.00  0.00     0.017 A 
ATOM      5  C4  UNL d   1      -0.521   0.206   2.071  0.00  0.00     0.017 A 
ATOM      6  C5  UNL d   1      -0.594   0.218   3.467  0.00  0.00     0.034 A 
ATOM      7 Cl   UNL d   1       0.965  -0.299   1.347  0.00  0.00    -0.070 Cl
ATOM      8 Cl1  UNL d   1      -1.618   0.609  -0.415  0.00  0.00    -0.070 Cl
ENDROOT
TORSDOF 0
ENDMDL
