MODEL 1
REMARK minimizedAffinity -4.42587709
REMARK minimizedRMSD -1
REMARK  0 active torsions:
REMARK  status: ('A' for Active; 'I' for Inactive)
ROOT
ATOM      1  C   UNL d   1       1.636  -1.680  -1.008  0.00  0.00     0.020 A 
ATOM      2  C1  UNL d   1       0.579  -1.915  -0.129  0.00  0.00     0.020 A 
ATOM      3  C2  UNL d   1      -0.460  -0.988  -0.023  0.00  0.00     0.034 A 
ATOM      4  C3  UNL d   1      -0.444   0.178  -0.796  0.00  0.00     0.017 A 
ATOM      5  C4  UNL d   1       0.617   0.414  -1.677  0.00  0.00     0.017 A 
ATOM      6  C5  UNL d   1       1.655  -0.518  -1.780  0.00  0.00     0.034 A 
ATOM      7 Cl   UNL d   1       0.706   1.830  -2.664  0.00  0.00    -0.070 Cl
ATOM      8 Cl1  UNL d   1      -1.762   1.281  -0.613  0.00  0.00    -0.070 Cl
ENDROOT
TORSDOF 0
ENDMDL
