MODEL 1
REMARK minimizedAffinity -1.38447297
REMARK minimizedRMSD -1
REMARK  0 active torsions:
REMARK  status: ('A' for Active; 'I' for Inactive)
ROOT
ATOM      1  C   UNL d   1       1.560   1.407  -2.322  0.00  0.00     0.020 A 
ATOM      2  C1  UNL d   1       2.179   0.158  -2.376  0.00  0.00     0.020 A 
ATOM      3  C2  UNL d   1       1.739  -0.875  -1.547  0.00  0.00     0.034 A 
ATOM      4  C3  UNL d   1       0.677  -0.663  -0.660  0.00  0.00     0.017 A 
ATOM      5  C4  UNL d   1       0.057   0.591  -0.606  0.00  0.00     0.017 A 
ATOM      6  C5  UNL d   1       0.502   1.622  -1.439  0.00  0.00     0.034 A 
ATOM      7 Cl   UNL d   1      -1.259   0.929   0.462  0.00  0.00    -0.070 Cl
ATOM      8 Cl1  UNL d   1       0.185  -1.986   0.337  0.00  0.00    -0.070 Cl
ENDROOT
TORSDOF 0
ENDMDL
