MODEL 1
REMARK minimizedAffinity -3.46264076
REMARK minimizedRMSD -1
REMARK  0 active torsions:
REMARK  status: ('A' for Active; 'I' for Inactive)
ROOT
ATOM      1  C   UNL d   1       3.186  -0.263  -2.234  0.00  0.00     0.020 A 
ATOM      2  C1  UNL d   1       2.708   1.041  -2.357  0.00  0.00     0.020 A 
ATOM      3  C2  UNL d   1       1.530   1.417  -1.707  0.00  0.00     0.034 A 
ATOM      4  C3  UNL d   1       0.828   0.488  -0.931  0.00  0.00     0.017 A 
ATOM      5  C4  UNL d   1       1.309  -0.821  -0.808  0.00  0.00     0.017 A 
ATOM      6  C5  UNL d   1       2.489  -1.192  -1.461  0.00  0.00     0.034 A 
ATOM      7 Cl   UNL d   1       0.498  -2.023   0.132  0.00  0.00    -0.070 Cl
ATOM      8 Cl1  UNL d   1      -0.621   1.021  -0.154  0.00  0.00    -0.070 Cl
ENDROOT
TORSDOF 0
ENDMDL
