MODEL 1
REMARK minimizedAffinity -5.12261677
REMARK minimizedRMSD -1
REMARK  0 active torsions:
REMARK  status: ('A' for Active; 'I' for Inactive)
ROOT
ATOM      1  C   UNL d   1       3.626   0.133  -2.281  0.00  0.00     0.020 A 
ATOM      2  C1  UNL d   1       3.317  -0.776  -1.269  0.00  0.00     0.020 A 
ATOM      3  C2  UNL d   1       2.131  -0.638  -0.545  0.00  0.00     0.034 A 
ATOM      4  C3  UNL d   1       1.249   0.411  -0.832  0.00  0.00     0.017 A 
ATOM      5  C4  UNL d   1       1.560   1.322  -1.848  0.00  0.00     0.017 A 
ATOM      6  C5  UNL d   1       2.749   1.179  -2.570  0.00  0.00     0.034 A 
ATOM      7 Cl   UNL d   1       0.522   2.641  -2.260  0.00  0.00    -0.070 Cl
ATOM      8 Cl1  UNL d   1      -0.200   0.520   0.102  0.00  0.00    -0.070 Cl
ENDROOT
TORSDOF 0
ENDMDL
