MODEL 1
REMARK minimizedAffinity -5.80185223
REMARK minimizedRMSD -1
REMARK  0 active torsions:
REMARK  status: ('A' for Active; 'I' for Inactive)
ROOT
ATOM      1  C   UNL d   1       3.377  -0.091  -1.739  0.00  0.00     0.020 A 
ATOM      2  C1  UNL d   1       2.800   0.951  -2.463  0.00  0.00     0.020 A 
ATOM      3  C2  UNL d   1       1.477   1.325  -2.215  0.00  0.00     0.034 A 
ATOM      4  C3  UNL d   1       0.728   0.655  -1.241  0.00  0.00     0.017 A 
ATOM      5  C4  UNL d   1       1.308  -0.391  -0.515  0.00  0.00     0.017 A 
ATOM      6  C5  UNL d   1       2.633  -0.760  -0.767  0.00  0.00     0.034 A 
ATOM      7 Cl   UNL d   1       0.447  -1.264   0.703  0.00  0.00    -0.070 Cl
ATOM      8 Cl1  UNL d   1      -0.902   1.170  -0.987  0.00  0.00    -0.070 Cl
ENDROOT
TORSDOF 0
ENDMDL
