MODEL 1
REMARK minimizedAffinity -2.4375329
REMARK minimizedRMSD -1
REMARK  0 active torsions:
REMARK  status: ('A' for Active; 'I' for Inactive)
ROOT
ATOM      1  C4' PXY d   1       0.720   4.003   0.234  0.00  0.00     0.077 C 
ATOM      2  C1' PXY d   1      -3.126   1.555  -3.320  0.00  0.00     0.077 C 
ATOM      3  C1  PXY d   1      -2.124   2.192  -2.378  0.00  0.00    -0.082 A 
ATOM      4  C2  PXY d   1      -1.415   3.233  -2.783  0.00  0.00     0.003 A 
ATOM      5  C3  PXY d   1      -0.482   3.802  -1.956  0.00  0.00     0.003 A 
ATOM      6  C4  PXY d   1      -0.310   3.333  -0.680  0.00  0.00    -0.082 A 
ATOM      7  C5  PXY d   1      -1.037   2.278  -0.255  0.00  0.00     0.003 A 
ATOM      8  C6  PXY d   1      -1.950   1.689  -1.125  0.00  0.00     0.003 A 
ENDROOT
TORSDOF 0
ENDMDL
