MODEL 1
REMARK minimizedAffinity 3.77209044
REMARK minimizedRMSD -1
REMARK  0 active torsions:
REMARK  status: ('A' for Active; 'I' for Inactive)
ROOT
ATOM      1  C4' PXY d   1       0.835   4.230   0.029  0.00  0.00     0.077 C 
ATOM      2  C1' PXY d   1      -2.895   1.018  -3.000  0.00  0.00     0.077 C 
ATOM      3  C1  PXY d   1      -1.922   1.856  -2.194  0.00  0.00    -0.082 A 
ATOM      4  C2  PXY d   1      -1.376   2.930  -2.741  0.00  0.00     0.003 A 
ATOM      5  C3  PXY d   1      -0.470   3.681  -2.038  0.00  0.00     0.003 A 
ATOM      6  C4  PXY d   1      -0.159   3.360  -0.743  0.00  0.00    -0.082 A 
ATOM      7  C5  PXY d   1      -0.721   2.271  -0.175  0.00  0.00     0.003 A 
ATOM      8  C6  PXY d   1      -1.607   1.499  -0.920  0.00  0.00     0.003 A 
ENDROOT
TORSDOF 0
ENDMDL
