MODEL 1
REMARK minimizedAffinity 5.63026094
REMARK minimizedRMSD -1
REMARK  0 active torsions:
REMARK  status: ('A' for Active; 'I' for Inactive)
ROOT
ATOM      1  C4' PXY d   1      -0.752   1.890   3.406  0.00  0.00     0.077 C 
ATOM      2  C1' PXY d   1      -0.155   3.453  -2.127  0.00  0.00     0.077 C 
ATOM      3  C1  PXY d   1      -0.310   3.056  -0.672  0.00  0.00    -0.082 A 
ATOM      4  C2  PXY d   1      -0.048   1.813  -0.302  0.00  0.00     0.003 A 
ATOM      5  C3  PXY d   1      -0.214   1.428   1.003  0.00  0.00     0.003 A 
ATOM      6  C4  PXY d   1      -0.600   2.339   1.950  0.00  0.00    -0.082 A 
ATOM      7  C5  PXY d   1      -0.859   3.611   1.582  0.00  0.00     0.003 A 
ATOM      8  C6  PXY d   1      -0.725   3.971   0.245  0.00  0.00     0.003 A 
ENDROOT
TORSDOF 0
ENDMDL
