MODEL 1
REMARK minimizedAffinity 3.38692522
REMARK minimizedRMSD -1
REMARK  0 active torsions:
REMARK  status: ('A' for Active; 'I' for Inactive)
ROOT
ATOM      1  C4' PXY d   1      -5.979  -0.533  -0.371  0.00  0.00     0.077 C 
ATOM      2  C1' PXY d   1      -5.995  -5.419   2.720  0.00  0.00     0.077 C 
ATOM      3  C1  PXY d   1      -5.986  -4.144   1.899  0.00  0.00    -0.082 A 
ATOM      4  C2  PXY d   1      -5.973  -2.972   2.512  0.00  0.00     0.003 A 
ATOM      5  C3  PXY d   1      -5.996  -1.809   1.786  0.00  0.00     0.003 A 
ATOM      6  C4  PXY d   1      -5.980  -1.846   0.417  0.00  0.00    -0.082 A 
ATOM      7  C5  PXY d   1      -5.982  -3.039  -0.216  0.00  0.00     0.003 A 
ATOM      8  C6  PXY d   1      -6.000  -4.207   0.540  0.00  0.00     0.003 A 
ENDROOT
TORSDOF 0
ENDMDL
