MODEL 1
REMARK minimizedAffinity 18.9874973
REMARK minimizedRMSD -1
REMARK  0 active torsions:
REMARK  status: ('A' for Active; 'I' for Inactive)
ROOT
ATOM      1  C4' PXY d   1      -4.873   6.000   3.212  0.00  0.00     0.077 C 
ATOM      2  C1' PXY d   1      -3.717   5.261  -2.404  0.00  0.00     0.077 C 
ATOM      3  C1  PXY d   1      -4.030   5.462  -0.934  0.00  0.00    -0.082 A 
ATOM      4  C2  PXY d   1      -3.075   5.301  -0.034  0.00  0.00     0.003 A 
ATOM      5  C3  PXY d   1      -3.348   5.448   1.302  0.00  0.00     0.003 A 
ATOM      6  C4  PXY d   1      -4.600   5.816   1.716  0.00  0.00    -0.082 A 
ATOM      7  C5  PXY d   1      -5.578   5.993   0.803  0.00  0.00     0.003 A 
ATOM      8  C6  PXY d   1      -5.290   5.799  -0.545  0.00  0.00     0.003 A 
ENDROOT
TORSDOF 0
ENDMDL
