MODEL 1
REMARK minimizedAffinity 12.2267046
REMARK minimizedRMSD -1
REMARK  0 active torsions:
REMARK  status: ('A' for Active; 'I' for Inactive)
ROOT
ATOM      1  C4' PXY d   1       1.757   3.986   1.608  0.00  0.00     0.077 C 
ATOM      2  C1' PXY d   1      -1.096   2.957  -3.313  0.00  0.00     0.077 C 
ATOM      3  C1  PXY d   1      -0.359   3.226  -2.016  0.00  0.00    -0.082 A 
ATOM      4  C2  PXY d   1       0.783   3.894  -2.038  0.00  0.00     0.003 A 
ATOM      5  C3  PXY d   1       1.478   4.118  -0.878  0.00  0.00     0.003 A 
ATOM      6  C4  PXY d   1       0.974   3.700   0.324  0.00  0.00    -0.082 A 
ATOM      7  C5  PXY d   1      -0.196   3.026   0.356  0.00  0.00     0.003 A 
ATOM      8  C6  PXY d   1      -0.866   2.773  -0.837  0.00  0.00     0.003 A 
ENDROOT
TORSDOF 0
ENDMDL
