MODEL 1
REMARK minimizedAffinity 12.5164518
REMARK minimizedRMSD -1
REMARK  0 active torsions:
REMARK  status: ('A' for Active; 'I' for Inactive)
ROOT
ATOM      1  C4' PXY d   1       0.923   2.380   2.720  0.00  0.00     0.077 C 
ATOM      2  C1' PXY d   1      -0.630   3.670  -2.697  0.00  0.00     0.077 C 
ATOM      3  C1  PXY d   1      -0.211   3.336  -1.279  0.00  0.00    -0.082 A 
ATOM      4  C2  PXY d   1      -0.883   2.425  -0.595  0.00  0.00     0.003 A 
ATOM      5  C3  PXY d   1      -0.538   2.133   0.699  0.00  0.00     0.003 A 
ATOM      6  C4  PXY d   1       0.541   2.743   1.282  0.00  0.00    -0.082 A 
ATOM      7  C5  PXY d   1       1.239   3.666   0.587  0.00  0.00     0.003 A 
ATOM      8  C6  PXY d   1       0.847   3.978  -0.711  0.00  0.00     0.003 A 
ENDROOT
TORSDOF 0
ENDMDL
