MODEL 1
REMARK minimizedAffinity -2.2418716
REMARK minimizedRMSD -1
REMARK  0 active torsions:
REMARK  status: ('A' for Active; 'I' for Inactive)
ROOT
ATOM      1  C4' PXY d   1      -1.416   1.607   3.384  0.00  0.00     0.077 C 
ATOM      2  C1' PXY d   1       1.060   3.953  -1.282  0.00  0.00     0.077 C 
ATOM      3  C1  PXY d   1       0.422   3.337  -0.053  0.00  0.00    -0.082 A 
ATOM      4  C2  PXY d   1      -0.730   2.696  -0.165  0.00  0.00     0.003 A 
ATOM      5  C3  PXY d   1      -1.336   2.161   0.942  0.00  0.00     0.003 A 
ATOM      6  C4  PXY d   1      -0.731   2.236   2.168  0.00  0.00    -0.082 A 
ATOM      7  C5  PXY d   1       0.450   2.879   2.289  0.00  0.00     0.003 A 
ATOM      8  C6  PXY d   1       1.029   3.451   1.160  0.00  0.00     0.003 A 
ENDROOT
TORSDOF 0
ENDMDL
