MODEL 1
REMARK minimizedAffinity 2.66734648
REMARK minimizedRMSD -1
REMARK  0 active torsions:
REMARK  status: ('A' for Active; 'I' for Inactive)
ROOT
ATOM      1  C4' PXY d   1      -4.499   5.624   1.028  0.00  0.00     0.077 C 
ATOM      2  C1' PXY d   1       0.842   3.660   0.010  0.00  0.00     0.077 C 
ATOM      3  C1  PXY d   1      -0.554   4.187   0.280  0.00  0.00    -0.082 A 
ATOM      4  C2  PXY d   1      -1.508   3.350   0.653  0.00  0.00     0.003 A 
ATOM      5  C3  PXY d   1      -2.784   3.804   0.869  0.00  0.00     0.003 A 
ATOM      6  C4  PXY d   1      -3.073   5.138   0.754  0.00  0.00    -0.082 A 
ATOM      7  C5  PXY d   1      -2.102   6.000   0.385  0.00  0.00     0.003 A 
ATOM      8  C6  PXY d   1      -0.824   5.512   0.130  0.00  0.00     0.003 A 
ENDROOT
TORSDOF 0
ENDMDL
