MODEL 1
REMARK minimizedAffinity 8.48622227
REMARK minimizedRMSD -1
REMARK  0 active torsions:
REMARK  status: ('A' for Active; 'I' for Inactive)
ROOT
ATOM      1  C4' PXY d   1      -5.218   6.000   2.918  0.00  0.00     0.077 C 
ATOM      2  C1' PXY d   1      -3.479   5.937  -2.594  0.00  0.00     0.077 C 
ATOM      3  C1  PXY d   1      -3.946   5.958  -1.152  0.00  0.00    -0.082 A 
ATOM      4  C2  PXY d   1      -3.054   6.000  -0.176  0.00  0.00     0.003 A 
ATOM      5  C3  PXY d   1      -3.459   5.987   1.134  0.00  0.00     0.003 A 
ATOM      6  C4  PXY d   1      -4.792   5.986   1.448  0.00  0.00    -0.082 A 
ATOM      7  C5  PXY d   1      -5.708   5.954   0.457  0.00  0.00     0.003 A 
ATOM      8  C6  PXY d   1      -5.276   5.926  -0.866  0.00  0.00     0.003 A 
ENDROOT
TORSDOF 0
ENDMDL
