MODEL 1
REMARK minimizedAffinity 15.2819185
REMARK minimizedRMSD -1
REMARK  0 active torsions:
REMARK  status: ('A' for Active; 'I' for Inactive)
ROOT
ATOM      1  C4' PXY d   1      -2.866   5.789   1.316  0.00  0.00     0.077 C 
ATOM      2  C1' PXY d   1       1.136   3.671  -2.277  0.00  0.00     0.077 C 
ATOM      3  C1  PXY d   1       0.087   4.238  -1.340  0.00  0.00    -0.082 A 
ATOM      4  C2  PXY d   1      -0.098   3.684  -0.153  0.00  0.00     0.003 A 
ATOM      5  C3  PXY d   1      -1.064   4.164   0.693  0.00  0.00     0.003 A 
ATOM      6  C4  PXY d   1      -1.812   5.256   0.342  0.00  0.00    -0.082 A 
ATOM      7  C5  PXY d   1      -1.621   5.833  -0.863  0.00  0.00     0.003 A 
ATOM      8  C6  PXY d   1      -0.664   5.305  -1.724  0.00  0.00     0.003 A 
ENDROOT
TORSDOF 0
ENDMDL
