MODEL 1
REMARK minimizedAffinity -5.39893246
REMARK minimizedRMSD -1
REMARK  0 active torsions:
REMARK  status: ('A' for Active; 'I' for Inactive)
ROOT
ATOM      1  C4' PXY d   1       0.762   4.832  -0.210  0.00  0.00     0.077 C 
ATOM      2  C1' PXY d   1      -1.159   0.715   3.364  0.00  0.00     0.077 C 
ATOM      3  C1  PXY d   1      -0.652   1.802   2.437  0.00  0.00    -0.082 A 
ATOM      4  C2  PXY d   1      -1.156   1.911   1.219  0.00  0.00     0.003 A 
ATOM      5  C3  PXY d   1      -0.686   2.867   0.356  0.00  0.00     0.003 A 
ATOM      6  C4  PXY d   1       0.273   3.756   0.763  0.00  0.00    -0.082 A 
ATOM      7  C5  PXY d   1       0.785   3.658   2.009  0.00  0.00     0.003 A 
ATOM      8  C6  PXY d   1       0.323   2.654   2.855  0.00  0.00     0.003 A 
ENDROOT
TORSDOF 0
ENDMDL
