MODEL 1
REMARK minimizedAffinity 3.45117211
REMARK minimizedRMSD -1
REMARK  0 active torsions:
REMARK  status: ('A' for Active; 'I' for Inactive)
ROOT
ATOM      1  C4' PXY d   1      -1.775  -2.167   4.064  0.00  0.00     0.077 C 
ATOM      2  C1' PXY d   1      -0.467   2.572   1.023  0.00  0.00     0.077 C 
ATOM      3  C1  PXY d   1      -0.799   1.323   1.815  0.00  0.00    -0.082 A 
ATOM      4  C2  PXY d   1      -2.041   1.119   2.224  0.00  0.00     0.003 A 
ATOM      5  C3  PXY d   1      -2.353   0.011   2.969  0.00  0.00     0.003 A 
ATOM      6  C4  PXY d   1      -1.395  -0.925   3.253  0.00  0.00    -0.082 A 
ATOM      7  C5  PXY d   1      -0.128  -0.729   2.831  0.00  0.00     0.003 A 
ATOM      8  C6  PXY d   1       0.177   0.423   2.111  0.00  0.00     0.003 A 
ENDROOT
TORSDOF 0
ENDMDL
