MODEL 1
REMARK minimizedAffinity -1.42372489
REMARK minimizedRMSD -1
REMARK  0 active torsions:
REMARK  status: ('A' for Active; 'I' for Inactive)
ROOT
ATOM      1  C4' PXY d   1       1.282   4.598  -0.669  0.00  0.00     0.077 C 
ATOM      2  C1' PXY d   1      -1.953   1.174   2.681  0.00  0.00     0.077 C 
ATOM      3  C1  PXY d   1      -1.104   2.062   1.793  0.00  0.00    -0.082 A 
ATOM      4  C2  PXY d   1      -0.355   3.007   2.338  0.00  0.00     0.003 A 
ATOM      5  C3  PXY d   1       0.394   3.840   1.548  0.00  0.00     0.003 A 
ATOM      6  C4  PXY d   1       0.417   3.671   0.189  0.00  0.00    -0.082 A 
ATOM      7  C5  PXY d   1      -0.336   2.702  -0.373  0.00  0.00     0.003 A 
ATOM      8  C6  PXY d   1      -1.121   1.894   0.443  0.00  0.00     0.003 A 
ENDROOT
TORSDOF 0
ENDMDL
