MODEL 1
REMARK minimizedAffinity 1.34623098
REMARK minimizedRMSD -1
REMARK  0 active torsions:
REMARK  status: ('A' for Active; 'I' for Inactive)
ROOT
ATOM      1  C4' PXY d   1      -2.315  -0.189   3.715  0.00  0.00     0.077 C 
ATOM      2  C1' PXY d   1       0.060   3.098  -0.405  0.00  0.00     0.077 C 
ATOM      3  C1  PXY d   1      -0.568   2.247   0.681  0.00  0.00    -0.082 A 
ATOM      4  C2  PXY d   1      -0.042   1.069   0.975  0.00  0.00     0.003 A 
ATOM      5  C3  PXY d   1      -0.616   0.272   1.932  0.00  0.00     0.003 A 
ATOM      6  C4  PXY d   1      -1.708   0.708   2.632  0.00  0.00    -0.082 A 
ATOM      7  C5  PXY d   1      -2.245   1.914   2.346  0.00  0.00     0.003 A 
ATOM      8  C6  PXY d   1      -1.672   2.689   1.343  0.00  0.00     0.003 A 
ENDROOT
TORSDOF 0
ENDMDL
