MODEL 1
REMARK minimizedAffinity 2.62337017
REMARK minimizedRMSD -1
REMARK  0 active torsions:
REMARK  status: ('A' for Active; 'I' for Inactive)
ROOT
ATOM      1  C4' PXY d   1      -2.459  -1.567   4.780  0.00  0.00     0.077 C 
ATOM      2  C1' PXY d   1      -0.605   2.483   1.096  0.00  0.00     0.077 C 
ATOM      3  C1  PXY d   1      -1.103   1.425   2.060  0.00  0.00    -0.082 A 
ATOM      4  C2  PXY d   1      -0.304   0.983   3.017  0.00  0.00     0.003 A 
ATOM      5  C3  PXY d   1      -0.727   0.003   3.877  0.00  0.00     0.003 A 
ATOM      6  C4  PXY d   1      -2.001  -0.492   3.790  0.00  0.00    -0.082 A 
ATOM      7  C5  PXY d   1      -2.827  -0.038   2.823  0.00  0.00     0.003 A 
ATOM      8  C6  PXY d   1      -2.364   0.927   1.934  0.00  0.00     0.003 A 
ENDROOT
TORSDOF 0
ENDMDL
