MODEL 1
REMARK minimizedAffinity 3.15607977
REMARK minimizedRMSD -1
REMARK  0 active torsions:
REMARK  status: ('A' for Active; 'I' for Inactive)
ROOT
ATOM      1  C4' PXY d   1      -1.549   1.140   2.762  0.00  0.00     0.077 C 
ATOM      2  C1' PXY d   1      -0.779  -4.445   4.038  0.00  0.00     0.077 C 
ATOM      3  C1  PXY d   1      -0.968  -2.980   3.701  0.00  0.00    -0.082 A 
ATOM      4  C2  PXY d   1      -2.011  -2.326   4.187  0.00  0.00     0.003 A 
ATOM      5  C3  PXY d   1      -2.215  -1.009   3.866  0.00  0.00     0.003 A 
ATOM      6  C4  PXY d   1      -1.313  -0.339   3.083  0.00  0.00    -0.082 A 
ATOM      7  C5  PXY d   1      -0.241  -0.995   2.593  0.00  0.00     0.003 A 
ATOM      8  C6  PXY d   1      -0.074  -2.343   2.897  0.00  0.00     0.003 A 
ENDROOT
TORSDOF 0
ENDMDL
