MODEL 1
REMARK minimizedAffinity -2.92109752
REMARK minimizedRMSD -1
REMARK  0 active torsions:
REMARK  status: ('A' for Active; 'I' for Inactive)
ROOT
ATOM      1  C4' PXY d   1       0.645   4.240  -1.125  0.00  0.00     0.077 C 
ATOM      2  C1' PXY d   1      -1.414   0.711   2.964  0.00  0.00     0.077 C 
ATOM      3  C1  PXY d   1      -0.878   1.647   1.898  0.00  0.00    -0.082 A 
ATOM      4  C2  PXY d   1      -0.705   1.202   0.664  0.00  0.00     0.003 A 
ATOM      5  C3  PXY d   1      -0.191   2.026  -0.304  0.00  0.00     0.003 A 
ATOM      6  C4  PXY d   1       0.098   3.334  -0.019  0.00  0.00    -0.082 A 
ATOM      7  C5  PXY d   1      -0.087   3.798   1.235  0.00  0.00     0.003 A 
ATOM      8  C6  PXY d   1      -0.570   2.934   2.213  0.00  0.00     0.003 A 
ENDROOT
TORSDOF 0
ENDMDL
