MODEL 1
REMARK minimizedAffinity 0.988006234
REMARK minimizedRMSD -1
REMARK  0 active torsions:
REMARK  status: ('A' for Active; 'I' for Inactive)
ROOT
ATOM      1  C4' PXY d   1       0.412   2.580  -1.217  0.00  0.00     0.077 C 
ATOM      2  C1' PXY d   1      -0.527   2.180   4.472  0.00  0.00     0.077 C 
ATOM      3  C1  PXY d   1      -0.279   2.272   2.980  0.00  0.00    -0.082 A 
ATOM      4  C2  PXY d   1       0.180   3.399   2.461  0.00  0.00     0.003 A 
ATOM      5  C3  PXY d   1       0.379   3.510   1.109  0.00  0.00     0.003 A 
ATOM      6  C4  PXY d   1       0.156   2.439   0.286  0.00  0.00    -0.082 A 
ATOM      7  C5  PXY d   1      -0.302   1.282   0.809  0.00  0.00     0.003 A 
ATOM      8  C6  PXY d   1      -0.537   1.203   2.178  0.00  0.00     0.003 A 
ENDROOT
TORSDOF 0
ENDMDL
