MODEL 1
REMARK minimizedAffinity -1.60440338
REMARK minimizedRMSD -1
REMARK  0 active torsions:
REMARK  status: ('A' for Active; 'I' for Inactive)
ROOT
ATOM      1  C4' PXY d   1      -0.950   1.268   3.164  0.00  0.00     0.077 C 
ATOM      2  C1' PXY d   1       0.400   4.108  -1.686  0.00  0.00     0.077 C 
ATOM      3  C1  PXY d   1       0.055   3.370  -0.408  0.00  0.00    -0.082 A 
ATOM      4  C2  PXY d   1      -0.504   2.173  -0.474  0.00  0.00     0.003 A 
ATOM      5  C3  PXY d   1      -0.852   1.505   0.672  0.00  0.00     0.003 A 
ATOM      6  C4  PXY d   1      -0.576   2.045   1.899  0.00  0.00    -0.082 A 
ATOM      7  C5  PXY d   1       0.004   3.262   1.976  0.00  0.00     0.003 A 
ATOM      8  C6  PXY d   1       0.312   3.941   0.800  0.00  0.00     0.003 A 
ENDROOT
TORSDOF 0
ENDMDL
