MODEL 1
REMARK minimizedAffinity 4.2653985
REMARK minimizedRMSD -1
REMARK  0 active torsions:
REMARK  status: ('A' for Active; 'I' for Inactive)
ROOT
ATOM      1  C   UNL d   1       3.240   5.773   5.869  0.00  0.00     0.078 C 
ATOM      2  C1  UNL d   1       1.883   5.732   5.232  0.00  0.00    -0.077 A 
ATOM      3  C2  UNL d   1       1.734   5.443   3.870  0.00  0.00    -0.001 A 
ATOM      4  C3  UNL d   1       0.465   5.419   3.288  0.00  0.00     0.003 A 
ATOM      5  C4  UNL d   1      -0.664   5.684   4.061  0.00  0.00    -0.005 A 
ATOM      6  C5  UNL d   1      -0.525   5.974   5.416  0.00  0.00     0.003 A 
ATOM      7  C6  UNL d   1       0.742   5.999   6.000  0.00  0.00    -0.001 A 
ENDROOT
TORSDOF 0
ENDMDL
