MODEL 1
REMARK minimizedAffinity -0.897497535
REMARK minimizedRMSD -1
REMARK  0 active torsions:
REMARK  status: ('A' for Active; 'I' for Inactive)
ROOT
ATOM      1  C   UNL d   1       1.512  -1.493   1.146  0.00  0.00     0.078 C 
ATOM      2  C1  UNL d   1       2.554  -2.566   1.245  0.00  0.00    -0.077 A 
ATOM      3  C2  UNL d   1       3.339  -2.705   2.396  0.00  0.00    -0.001 A 
ATOM      4  C3  UNL d   1       4.312  -3.703   2.471  0.00  0.00     0.003 A 
ATOM      5  C4  UNL d   1       4.510  -4.569   1.398  0.00  0.00    -0.005 A 
ATOM      6  C5  UNL d   1       3.735  -4.438   0.247  0.00  0.00     0.003 A 
ATOM      7  C6  UNL d   1       2.761  -3.440   0.171  0.00  0.00    -0.001 A 
ENDROOT
TORSDOF 0
ENDMDL
