MODEL 1
REMARK minimizedAffinity -3.42124748
REMARK minimizedRMSD -1
REMARK  0 active torsions:
REMARK  status: ('A' for Active; 'I' for Inactive)
ROOT
ATOM      1  C   UNL d   1       4.069   5.986  -5.934  0.00  0.00     0.078 C 
ATOM      2  C1  UNL d   1       3.033   4.903  -5.961  0.00  0.00    -0.077 A 
ATOM      3  C2  UNL d   1       1.667   5.212  -5.952  0.00  0.00    -0.001 A 
ATOM      4  C3  UNL d   1       0.713   4.193  -5.968  0.00  0.00     0.003 A 
ATOM      5  C4  UNL d   1       1.114   2.859  -5.992  0.00  0.00    -0.005 A 
ATOM      6  C5  UNL d   1       2.471   2.542  -5.999  0.00  0.00     0.003 A 
ATOM      7  C6  UNL d   1       3.427   3.559  -5.983  0.00  0.00    -0.001 A 
ENDROOT
TORSDOF 0
ENDMDL
