MODEL 1
REMARK minimizedAffinity 5.1038599
REMARK minimizedRMSD -1
REMARK  0 active torsions:
REMARK  status: ('A' for Active; 'I' for Inactive)
ROOT
ATOM      1  C   UNL d   1       4.363   5.638   5.855  0.00  0.00     0.078 C 
ATOM      2  C1  UNL d   1       2.995   5.652   5.241  0.00  0.00    -0.077 A 
ATOM      3  C2  UNL d   1       1.868   5.997   5.997  0.00  0.00    -0.001 A 
ATOM      4  C3  UNL d   1       0.600   5.996   5.415  0.00  0.00     0.003 A 
ATOM      5  C4  UNL d   1       0.446   5.651   4.073  0.00  0.00    -0.005 A 
ATOM      6  C5  UNL d   1       1.561   5.305   3.313  0.00  0.00     0.003 A 
ATOM      7  C6  UNL d   1       2.830   5.305   3.894  0.00  0.00    -0.001 A 
ENDROOT
TORSDOF 0
ENDMDL
