MODEL 1
REMARK minimizedAffinity -1.84039342
REMARK minimizedRMSD -1
REMARK  0 active torsions:
REMARK  status: ('A' for Active; 'I' for Inactive)
ROOT
ATOM      1  C   UNL d   1       2.559   2.263  -5.981  0.00  0.00     0.078 C 
ATOM      2  C1  UNL d   1       3.310   3.560  -5.992  0.00  0.00    -0.077 A 
ATOM      3  C2  UNL d   1       4.710   3.582  -5.991  0.00  0.00    -0.001 A 
ATOM      4  C3  UNL d   1       5.397   4.798  -5.990  0.00  0.00     0.003 A 
ATOM      5  C4  UNL d   1       4.692   6.000  -5.990  0.00  0.00    -0.005 A 
ATOM      6  C5  UNL d   1       3.299   5.988  -5.988  0.00  0.00     0.003 A 
ATOM      7  C6  UNL d   1       2.611   4.773  -5.989  0.00  0.00    -0.001 A 
ENDROOT
TORSDOF 0
ENDMDL
