MODEL 1
REMARK minimizedAffinity -1.4791503
REMARK minimizedRMSD -1
REMARK  0 active torsions:
REMARK  status: ('A' for Active; 'I' for Inactive)
ROOT
ATOM      1  C   UNL d   1       2.395   2.271  -6.000  0.00  0.00     0.078 C 
ATOM      2  C1  UNL d   1       3.420   3.366  -5.992  0.00  0.00    -0.077 A 
ATOM      3  C2  UNL d   1       3.037   4.712  -5.997  0.00  0.00    -0.001 A 
ATOM      4  C3  UNL d   1       4.002   5.721  -5.999  0.00  0.00     0.003 A 
ATOM      5  C4  UNL d   1       5.356   5.393  -5.999  0.00  0.00    -0.005 A 
ATOM      6  C5  UNL d   1       5.747   4.056  -5.997  0.00  0.00     0.003 A 
ATOM      7  C6  UNL d   1       4.783   3.046  -5.994  0.00  0.00    -0.001 A 
ENDROOT
TORSDOF 0
ENDMDL
