MODEL 1
REMARK minimizedAffinity -0.309069723
REMARK minimizedRMSD -1
REMARK  0 active torsions:
REMARK  status: ('A' for Active; 'I' for Inactive)
ROOT
ATOM      1  C   UNL d   1       2.156   5.002  -5.999  0.00  0.00     0.078 C 
ATOM      2  C1  UNL d   1       3.232   3.959  -5.989  0.00  0.00    -0.077 A 
ATOM      3  C2  UNL d   1       4.585   4.318  -5.999  0.00  0.00    -0.001 A 
ATOM      4  C3  UNL d   1       5.577   3.336  -6.000  0.00  0.00     0.003 A 
ATOM      5  C4  UNL d   1       5.226   1.987  -5.993  0.00  0.00    -0.005 A 
ATOM      6  C5  UNL d   1       3.882   1.620  -5.986  0.00  0.00     0.003 A 
ATOM      7  C6  UNL d   1       2.889   2.601  -5.985  0.00  0.00    -0.001 A 
ENDROOT
TORSDOF 0
ENDMDL
