MODEL 1
REMARK minimizedAffinity -2.01149201
REMARK minimizedRMSD -1
REMARK  0 active torsions:
REMARK  status: ('A' for Active; 'I' for Inactive)
ROOT
ATOM      1  C   UNL d   1      -2.113   2.242  -3.050  0.00  0.00     0.078 C 
ATOM      2  C1  UNL d   1      -2.971   1.013  -3.015  0.00  0.00    -0.077 A 
ATOM      3  C2  UNL d   1      -3.392   0.392  -4.197  0.00  0.00    -0.001 A 
ATOM      4  C3  UNL d   1      -4.198  -0.746  -4.149  0.00  0.00     0.003 A 
ATOM      5  C4  UNL d   1      -4.592  -1.273  -2.921  0.00  0.00    -0.005 A 
ATOM      6  C5  UNL d   1      -4.180  -0.661  -1.738  0.00  0.00     0.003 A 
ATOM      7  C6  UNL d   1      -3.374   0.477  -1.785  0.00  0.00    -0.001 A 
ENDROOT
TORSDOF 0
ENDMDL
