MODEL 1
REMARK minimizedAffinity -1.66871107
REMARK minimizedRMSD -1
REMARK  0 active torsions:
REMARK  status: ('A' for Active; 'I' for Inactive)
ROOT
ATOM      1  C   UNL d   1       1.454   5.545  -5.989  0.00  0.00     0.078 C 
ATOM      2  C1  UNL d   1       2.563   4.536  -5.986  0.00  0.00    -0.077 A 
ATOM      3  C2  UNL d   1       3.904   4.939  -5.994  0.00  0.00    -0.001 A 
ATOM      4  C3  UNL d   1       4.926   3.989  -6.000  0.00  0.00     0.003 A 
ATOM      5  C4  UNL d   1       4.618   2.630  -6.000  0.00  0.00    -0.005 A 
ATOM      6  C5  UNL d   1       3.287   2.220  -5.994  0.00  0.00     0.003 A 
ATOM      7  C6  UNL d   1       2.263   3.168  -5.988  0.00  0.00    -0.001 A 
ENDROOT
TORSDOF 0
ENDMDL
