MODEL 1
REMARK minimizedAffinity -3.76784396
REMARK minimizedRMSD -1
REMARK  0 active torsions:
REMARK  status: ('A' for Active; 'I' for Inactive)
ROOT
ATOM      1  C   UNL d   1       4.445  -3.794   3.349  0.00  0.00     0.078 C 
ATOM      2  C1  UNL d   1       3.881  -3.344   2.035  0.00  0.00    -0.077 A 
ATOM      3  C2  UNL d   1       2.723  -2.558   1.979  0.00  0.00    -0.001 A 
ATOM      4  C3  UNL d   1       2.203  -2.154   0.748  0.00  0.00     0.003 A 
ATOM      5  C4  UNL d   1       2.834  -2.531  -0.436  0.00  0.00    -0.005 A 
ATOM      6  C5  UNL d   1       3.986  -3.315  -0.390  0.00  0.00     0.003 A 
ATOM      7  C6  UNL d   1       4.507  -3.720   0.840  0.00  0.00    -0.001 A 
ENDROOT
TORSDOF 0
ENDMDL
