MODEL 1
REMARK minimizedAffinity 7.24133587
REMARK minimizedRMSD -1
REMARK  0 active torsions:
REMARK  status: ('A' for Active; 'I' for Inactive)
ROOT
ATOM      1  C   UNL d   1       2.920   0.152   2.279  0.00  0.00     0.078 C 
ATOM      2  C1  UNL d   1       1.739   0.078   3.201  0.00  0.00    -0.077 A 
ATOM      3  C2  UNL d   1       0.448  -0.135   2.704  0.00  0.00    -0.001 A 
ATOM      4  C3  UNL d   1      -0.643  -0.191   3.573  0.00  0.00     0.003 A 
ATOM      5  C4  UNL d   1      -0.453  -0.034   4.945  0.00  0.00    -0.005 A 
ATOM      6  C5  UNL d   1       0.828   0.181   5.448  0.00  0.00     0.003 A 
ATOM      7  C6  UNL d   1       1.920   0.237   4.581  0.00  0.00    -0.001 A 
ENDROOT
TORSDOF 0
ENDMDL
