MODEL 1
REMARK minimizedAffinity 12.7584181
REMARK minimizedRMSD -1
REMARK  0 active torsions:
REMARK  status: ('A' for Active; 'I' for Inactive)
ROOT
ATOM      1  C   UNL d   1      -4.911   3.674  -0.556  0.00  0.00     0.078 C 
ATOM      2  C1  UNL d   1      -3.877   4.090  -1.560  0.00  0.00    -0.077 A 
ATOM      3  C2  UNL d   1      -3.244   3.146  -2.377  0.00  0.00    -0.001 A 
ATOM      4  C3  UNL d   1      -2.277   3.547  -3.301  0.00  0.00     0.003 A 
ATOM      5  C4  UNL d   1      -1.933   4.892  -3.414  0.00  0.00    -0.005 A 
ATOM      6  C5  UNL d   1      -2.556   5.839  -2.603  0.00  0.00     0.003 A 
ATOM      7  C6  UNL d   1      -3.523   5.440  -1.679  0.00  0.00    -0.001 A 
ENDROOT
TORSDOF 0
ENDMDL
