MODEL 1
REMARK minimizedAffinity 15.5761461
REMARK minimizedRMSD -1
REMARK  0 active torsions:
REMARK  status: ('A' for Active; 'I' for Inactive)
ROOT
ATOM      1  C   UNL d   1      -1.750   2.189  -2.873  0.00  0.00     0.078 C 
ATOM      2  C1  UNL d   1      -2.530   3.357  -2.346  0.00  0.00    -0.077 A 
ATOM      3  C2  UNL d   1      -3.652   3.166  -1.531  0.00  0.00    -0.001 A 
ATOM      4  C3  UNL d   1      -4.374   4.262  -1.056  0.00  0.00     0.003 A 
ATOM      5  C4  UNL d   1      -3.984   5.556  -1.392  0.00  0.00    -0.005 A 
ATOM      6  C5  UNL d   1      -2.870   5.756  -2.205  0.00  0.00     0.003 A 
ATOM      7  C6  UNL d   1      -2.146   4.661  -2.681  0.00  0.00    -0.001 A 
ENDROOT
TORSDOF 0
ENDMDL
