MODEL 1
REMARK minimizedAffinity 3.255651
REMARK minimizedRMSD -1
REMARK  0 active torsions:
REMARK  status: ('A' for Active; 'I' for Inactive)
ROOT
ATOM      1  C   UNL d   1      -1.511   1.726  -1.920  0.00  0.00     0.078 C 
ATOM      2  C1  UNL d   1      -2.344   2.972  -1.959  0.00  0.00    -0.077 A 
ATOM      3  C2  UNL d   1      -1.976   4.062  -2.758  0.00  0.00    -0.001 A 
ATOM      4  C3  UNL d   1      -2.756   5.219  -2.776  0.00  0.00     0.003 A 
ATOM      5  C4  UNL d   1      -3.909   5.298  -1.998  0.00  0.00    -0.005 A 
ATOM      6  C5  UNL d   1      -4.282   4.220  -1.198  0.00  0.00     0.003 A 
ATOM      7  C6  UNL d   1      -3.503   3.062  -1.178  0.00  0.00    -0.001 A 
ENDROOT
TORSDOF 0
ENDMDL
