MODEL 1
REMARK minimizedAffinity 15.1901722
REMARK minimizedRMSD -1
REMARK  0 active torsions:
REMARK  status: ('A' for Active; 'I' for Inactive)
ROOT
ATOM      1  C   UNL d   1      -5.980  -1.997   5.542  0.00  0.00     0.078 C 
ATOM      2  C1  UNL d   1      -5.994  -1.911   4.045  0.00  0.00    -0.077 A 
ATOM      3  C2  UNL d   1      -5.993  -3.069   3.256  0.00  0.00    -0.001 A 
ATOM      4  C3  UNL d   1      -5.996  -2.974   1.864  0.00  0.00     0.003 A 
ATOM      5  C4  UNL d   1      -5.998  -1.725   1.247  0.00  0.00    -0.005 A 
ATOM      6  C5  UNL d   1      -5.997  -0.568   2.023  0.00  0.00     0.003 A 
ATOM      7  C6  UNL d   1      -5.994  -0.660   3.416  0.00  0.00    -0.001 A 
ENDROOT
TORSDOF 0
ENDMDL
