MODEL 1
REMARK minimizedAffinity 7.70233965
REMARK minimizedRMSD -1
REMARK  0 active torsions:
REMARK  status: ('A' for Active; 'I' for Inactive)
ROOT
ATOM      1  C   UNL d   1       0.970  -1.166   2.133  0.00  0.00     0.078 C 
ATOM      2  C1  UNL d   1       0.371  -0.899   3.482  0.00  0.00    -0.077 A 
ATOM      3  C2  UNL d   1       1.153  -0.403   4.533  0.00  0.00    -0.001 A 
ATOM      4  C3  UNL d   1       0.584  -0.169   5.786  0.00  0.00     0.003 A 
ATOM      5  C4  UNL d   1      -0.768  -0.428   6.000  0.00  0.00    -0.005 A 
ATOM      6  C5  UNL d   1      -1.553  -0.923   4.961  0.00  0.00     0.003 A 
ATOM      7  C6  UNL d   1      -0.986  -1.158   3.707  0.00  0.00    -0.001 A 
ENDROOT
TORSDOF 0
ENDMDL
