MODEL 1
REMARK minimizedAffinity 0.525250673
REMARK minimizedRMSD -1
REMARK  0 active torsions:
REMARK  status: ('A' for Active; 'I' for Inactive)
ROOT
ATOM      1  C   UNL d   1      -2.770  -3.825   5.876  0.00  0.00     0.078 C 
ATOM      2  C1  UNL d   1      -1.669  -2.982   5.305  0.00  0.00    -0.077 A 
ATOM      3  C2  UNL d   1      -1.009  -3.358   4.129  0.00  0.00    -0.001 A 
ATOM      4  C3  UNL d   1       0.020  -2.568   3.613  0.00  0.00     0.003 A 
ATOM      5  C4  UNL d   1       0.399  -1.398   4.269  0.00  0.00    -0.005 A 
ATOM      6  C5  UNL d   1      -0.250  -1.017   5.441  0.00  0.00     0.003 A 
ATOM      7  C6  UNL d   1      -1.280  -1.805   5.958  0.00  0.00    -0.001 A 
ENDROOT
TORSDOF 0
ENDMDL
