MODEL 1
REMARK minimizedAffinity 3.67396116
REMARK minimizedRMSD -1
REMARK  0 active torsions:
REMARK  status: ('A' for Active; 'I' for Inactive)
ROOT
ATOM      1  C   UNL d   1       1.868   6.000   0.378  0.00  0.00     0.078 C 
ATOM      2  C1  UNL d   1       1.172   4.862  -0.306  0.00  0.00    -0.077 A 
ATOM      3  C2  UNL d   1       1.413   4.576  -1.656  0.00  0.00    -0.001 A 
ATOM      4  C3  UNL d   1       0.751   3.519  -2.283  0.00  0.00     0.003 A 
ATOM      5  C4  UNL d   1      -0.158   2.741  -1.568  0.00  0.00    -0.005 A 
ATOM      6  C5  UNL d   1      -0.406   3.019  -0.226  0.00  0.00     0.003 A 
ATOM      7  C6  UNL d   1       0.256   4.075   0.403  0.00  0.00    -0.001 A 
ENDROOT
TORSDOF 0
ENDMDL
