MODEL 1
REMARK minimizedAffinity 4.92645597
REMARK minimizedRMSD -1
REMARK  0 active torsions:
REMARK  status: ('A' for Active; 'I' for Inactive)
ROOT
ATOM      1  C   UNL d   1       0.672  -1.951   1.708  0.00  0.00     0.078 C 
ATOM      2  C1  UNL d   1      -0.406  -2.765   1.058  0.00  0.00    -0.077 A 
ATOM      3  C2  UNL d   1      -0.640  -2.682  -0.320  0.00  0.00    -0.001 A 
ATOM      4  C3  UNL d   1      -1.653  -3.438  -0.911  0.00  0.00     0.003 A 
ATOM      5  C4  UNL d   1      -2.442  -4.282  -0.131  0.00  0.00    -0.005 A 
ATOM      6  C5  UNL d   1      -2.218  -4.369   1.241  0.00  0.00     0.003 A 
ATOM      7  C6  UNL d   1      -1.205  -3.614   1.834  0.00  0.00    -0.001 A 
ENDROOT
TORSDOF 0
ENDMDL
