MODEL 1
REMARK minimizedAffinity 9.45138073
REMARK minimizedRMSD -1
REMARK  0 active torsions:
REMARK  status: ('A' for Active; 'I' for Inactive)
ROOT
ATOM      1  C   UNL d   1      -0.375  -0.294   4.529  0.00  0.00     0.078 C 
ATOM      2  C1  UNL d   1       0.824  -0.337   3.628  0.00  0.00    -0.077 A 
ATOM      3  C2  UNL d   1       1.981   0.390   3.933  0.00  0.00    -0.001 A 
ATOM      4  C3  UNL d   1       3.086   0.349   3.081  0.00  0.00     0.003 A 
ATOM      5  C4  UNL d   1       3.043  -0.417   1.917  0.00  0.00    -0.005 A 
ATOM      6  C5  UNL d   1       1.895  -1.142   1.605  0.00  0.00     0.003 A 
ATOM      7  C6  UNL d   1       0.790  -1.102   2.456  0.00  0.00    -0.001 A 
ENDROOT
TORSDOF 0
ENDMDL
