MODEL 1
REMARK minimizedAffinity 6.5384903
REMARK minimizedRMSD -1
REMARK  0 active torsions:
REMARK  status: ('A' for Active; 'I' for Inactive)
ROOT
ATOM      1  C   UNL d   1      -1.395  -0.540   5.376  0.00  0.00     0.078 C 
ATOM      2  C1  UNL d   1      -1.001  -1.284   4.136  0.00  0.00    -0.077 A 
ATOM      3  C2  UNL d   1       0.082  -0.862   3.355  0.00  0.00    -0.001 A 
ATOM      4  C3  UNL d   1       0.432  -1.559   2.197  0.00  0.00     0.003 A 
ATOM      5  C4  UNL d   1      -0.296  -2.682   1.810  0.00  0.00    -0.005 A 
ATOM      6  C5  UNL d   1      -1.376  -3.109   2.580  0.00  0.00     0.003 A 
ATOM      7  C6  UNL d   1      -1.728  -2.413   3.738  0.00  0.00    -0.001 A 
ENDROOT
TORSDOF 0
ENDMDL
