MODEL 1
REMARK minimizedAffinity 10.3322802
REMARK minimizedRMSD -1
REMARK  0 active torsions:
REMARK  status: ('A' for Active; 'I' for Inactive)
ROOT
ATOM      1  C   UNL d   1       1.143   6.000   0.097  0.00  0.00     0.078 C 
ATOM      2  C1  UNL d   1       0.737   4.586  -0.196  0.00  0.00    -0.077 A 
ATOM      3  C2  UNL d   1       1.094   3.968  -1.401  0.00  0.00    -0.001 A 
ATOM      4  C3  UNL d   1       0.702   2.655  -1.664  0.00  0.00     0.003 A 
ATOM      5  C4  UNL d   1      -0.051   1.949  -0.728  0.00  0.00    -0.005 A 
ATOM      6  C5  UNL d   1      -0.412   2.556   0.473  0.00  0.00     0.003 A 
ATOM      7  C6  UNL d   1      -0.021   3.869   0.738  0.00  0.00    -0.001 A 
ENDROOT
TORSDOF 0
ENDMDL
