MODEL 1
REMARK minimizedAffinity 11.0417118
REMARK minimizedRMSD -1
REMARK  0 active torsions:
REMARK  status: ('A' for Active; 'I' for Inactive)
ROOT
ATOM      1  C   UNL d   1      -2.576  -3.061   2.372  0.00  0.00     0.078 C 
ATOM      2  C1  UNL d   1      -1.338  -2.229   2.524  0.00  0.00    -0.077 A 
ATOM      3  C2  UNL d   1      -0.304  -2.295   1.582  0.00  0.00    -0.001 A 
ATOM      4  C3  UNL d   1       0.847  -1.522   1.742  0.00  0.00     0.003 A 
ATOM      5  C4  UNL d   1       0.976  -0.678   2.843  0.00  0.00    -0.005 A 
ATOM      6  C5  UNL d   1      -0.047  -0.606   3.786  0.00  0.00     0.003 A 
ATOM      7  C6  UNL d   1      -1.199  -1.379   3.628  0.00  0.00    -0.001 A 
ENDROOT
TORSDOF 0
ENDMDL
