MODEL 1
REMARK minimizedAffinity 2.80074763
REMARK minimizedRMSD -1
REMARK  0 active torsions:
REMARK  status: ('A' for Active; 'I' for Inactive)
ROOT
ATOM      1  C   UNL d   1      -0.331   2.016  -0.113  0.00  0.00     0.078 C 
ATOM      2  C1  UNL d   1       0.236   3.403  -0.184  0.00  0.00    -0.077 A 
ATOM      3  C2  UNL d   1      -0.225   4.415   0.667  0.00  0.00    -0.001 A 
ATOM      4  C3  UNL d   1       0.305   5.703   0.583  0.00  0.00     0.003 A 
ATOM      5  C4  UNL d   1       1.298   5.992  -0.351  0.00  0.00    -0.005 A 
ATOM      6  C5  UNL d   1       1.762   4.992  -1.203  0.00  0.00     0.003 A 
ATOM      7  C6  UNL d   1       1.233   3.703  -1.121  0.00  0.00    -0.001 A 
ENDROOT
TORSDOF 0
ENDMDL
