MODEL 1
REMARK minimizedAffinity 14.5655012
REMARK minimizedRMSD -1
REMARK  0 active torsions:
REMARK  status: ('A' for Active; 'I' for Inactive)
ROOT
ATOM      1  C   UNL d   1       2.474   2.583  -2.704  0.00  0.00     0.078 C 
ATOM      2  C1  UNL d   1       1.963   3.679  -1.818  0.00  0.00    -0.077 A 
ATOM      3  C2  UNL d   1       1.629   3.429  -0.481  0.00  0.00    -0.001 A 
ATOM      4  C3  UNL d   1       1.145   4.457   0.330  0.00  0.00     0.003 A 
ATOM      5  C4  UNL d   1       0.990   5.742  -0.187  0.00  0.00    -0.005 A 
ATOM      6  C5  UNL d   1       1.318   6.000  -1.517  0.00  0.00     0.003 A 
ATOM      7  C6  UNL d   1       1.801   4.973  -2.329  0.00  0.00    -0.001 A 
ENDROOT
TORSDOF 0
ENDMDL
