MODEL 1
REMARK minimizedAffinity 2.40947008
REMARK minimizedRMSD -1
REMARK  0 active torsions:
REMARK  status: ('A' for Active; 'I' for Inactive)
ROOT
ATOM      1  C   UNL d   1      -1.408  -0.784   5.103  0.00  0.00     0.078 C 
ATOM      2  C1  UNL d   1      -1.038  -1.429   3.801  0.00  0.00    -0.077 A 
ATOM      3  C2  UNL d   1      -1.767  -2.515   3.301  0.00  0.00    -0.001 A 
ATOM      4  C3  UNL d   1      -1.406  -3.111   2.092  0.00  0.00     0.003 A 
ATOM      5  C4  UNL d   1      -0.314  -2.629   1.373  0.00  0.00    -0.005 A 
ATOM      6  C5  UNL d   1       0.419  -1.550   1.863  0.00  0.00     0.003 A 
ATOM      7  C6  UNL d   1       0.059  -0.953   3.072  0.00  0.00    -0.001 A 
ENDROOT
TORSDOF 0
ENDMDL
