MODEL 1
REMARK minimizedAffinity 5.71436739
REMARK minimizedRMSD -1
REMARK  0 active torsions:
REMARK  status: ('A' for Active; 'I' for Inactive)
ROOT
ATOM      1  C   UNL d   1       0.487   2.894  -0.417  0.00  0.00     0.078 C 
ATOM      2  C1  UNL d   1      -0.889   2.844  -1.011  0.00  0.00    -0.077 A 
ATOM      3  C2  UNL d   1      -1.074   2.717  -2.393  0.00  0.00    -0.001 A 
ATOM      4  C3  UNL d   1      -2.360   2.682  -2.933  0.00  0.00     0.003 A 
ATOM      5  C4  UNL d   1      -3.472   2.774  -2.098  0.00  0.00    -0.005 A 
ATOM      6  C5  UNL d   1      -3.298   2.902  -0.722  0.00  0.00     0.003 A 
ATOM      7  C6  UNL d   1      -2.013   2.938  -0.180  0.00  0.00    -0.001 A 
ENDROOT
TORSDOF 0
ENDMDL
