MODEL 1
REMARK minimizedAffinity 2.86190081
REMARK minimizedRMSD -1
REMARK  0 active torsions:
REMARK  status: ('A' for Active; 'I' for Inactive)
ROOT
ATOM      1  C   UNL d   1      -1.920   5.996  -5.977  0.00  0.00     0.078 C 
ATOM      2  C1  UNL d   1      -2.266   5.274  -4.709  0.00  0.00    -0.077 A 
ATOM      3  C2  UNL d   1      -2.237   3.876  -4.644  0.00  0.00    -0.001 A 
ATOM      4  C3  UNL d   1      -2.571   3.216  -3.460  0.00  0.00     0.003 A 
ATOM      5  C4  UNL d   1      -2.938   3.947  -2.332  0.00  0.00    -0.005 A 
ATOM      6  C5  UNL d   1      -2.973   5.339  -2.387  0.00  0.00     0.003 A 
ATOM      7  C6  UNL d   1      -2.639   6.000  -3.571  0.00  0.00    -0.001 A 
ENDROOT
TORSDOF 0
ENDMDL
