MODEL 1
REMARK minimizedAffinity 4.28459311
REMARK minimizedRMSD -1
REMARK  0 active torsions:
REMARK  status: ('A' for Active; 'I' for Inactive)
ROOT
ATOM      1  C2' OXE d   1       5.084  -5.156  -0.278  0.00  0.00     0.078 C 
ATOM      2  C1' OXE d   1       4.650  -2.383  -0.333  0.00  0.00     0.078 C 
ATOM      3  C1  OXE d   1       4.622  -3.125  -1.646  0.00  0.00    -0.078 A 
ATOM      4  C2  OXE d   1       4.882  -4.474  -1.615  0.00  0.00    -0.078 A 
ATOM      5  C3  OXE d   1       4.815  -5.216  -2.790  0.00  0.00     0.003 A 
ATOM      6  C4  OXE d   1       4.637  -4.577  -4.023  0.00  0.00    -0.002 A 
ATOM      7  C5  OXE d   1       4.410  -3.198  -4.081  0.00  0.00    -0.002 A 
ATOM      8  C6  OXE d   1       4.357  -2.465  -2.900  0.00  0.00     0.003 A 
ENDROOT
TORSDOF 0
ENDMDL
