MODEL 1
REMARK minimizedAffinity 4.09533501
REMARK minimizedRMSD -1
REMARK  0 active torsions:
REMARK  status: ('A' for Active; 'I' for Inactive)
ROOT
ATOM      1  C2' OXE d   1       0.570   1.637   3.908  0.00  0.00     0.078 C 
ATOM      2  C1' OXE d   1       3.040   2.830   3.311  0.00  0.00     0.078 C 
ATOM      3  C1  OXE d   1       1.849   3.223   2.474  0.00  0.00    -0.078 A 
ATOM      4  C2  OXE d   1       0.654   2.600   2.742  0.00  0.00    -0.078 A 
ATOM      5  C3  OXE d   1      -0.489   2.965   2.036  0.00  0.00     0.003 A 
ATOM      6  C4  OXE d   1      -0.401   3.848   0.954  0.00  0.00    -0.002 A 
ATOM      7  C5  OXE d   1       0.815   4.465   0.638  0.00  0.00    -0.002 A 
ATOM      8  C6  OXE d   1       1.937   4.196   1.413  0.00  0.00     0.003 A 
ENDROOT
TORSDOF 0
ENDMDL
