MODEL 1
REMARK minimizedAffinity -2.0287056
REMARK minimizedRMSD -1
REMARK  0 active torsions:
REMARK  status: ('A' for Active; 'I' for Inactive)
ROOT
ATOM      1  C2' OXE d   1      -3.924   3.410  -5.991  0.00  0.00     0.078 C 
ATOM      2  C1' OXE d   1      -5.988   5.250  -5.504  0.00  0.00     0.078 C 
ATOM      3  C1  OXE d   1      -5.481   4.437  -4.339  0.00  0.00    -0.078 A 
ATOM      4  C2  OXE d   1      -4.503   3.506  -4.596  0.00  0.00    -0.078 A 
ATOM      5  C3  OXE d   1      -3.962   2.768  -3.547  0.00  0.00     0.003 A 
ATOM      6  C4  OXE d   1      -4.510   2.855  -2.261  0.00  0.00    -0.002 A 
ATOM      7  C5  OXE d   1      -5.534   3.769  -1.987  0.00  0.00    -0.002 A 
ATOM      8  C6  OXE d   1      -6.000   4.596  -3.003  0.00  0.00     0.003 A 
ENDROOT
TORSDOF 0
ENDMDL
