MODEL 1
REMARK minimizedAffinity 3.13789082
REMARK minimizedRMSD -1
REMARK  0 active torsions:
REMARK  status: ('A' for Active; 'I' for Inactive)
ROOT
ATOM      1  C2' OXE d   1      -5.997   1.268  -2.657  0.00  0.00     0.078 C 
ATOM      2  C1' OXE d   1      -5.999   3.322  -0.743  0.00  0.00     0.078 C 
ATOM      3  C1  OXE d   1      -5.985   3.717  -2.198  0.00  0.00    -0.078 A 
ATOM      4  C2  OXE d   1      -5.937   2.705  -3.127  0.00  0.00    -0.078 A 
ATOM      5  C3  OXE d   1      -5.978   3.013  -4.484  0.00  0.00     0.003 A 
ATOM      6  C4  OXE d   1      -5.912   4.345  -4.911  0.00  0.00    -0.002 A 
ATOM      7  C5  OXE d   1      -5.920   5.390  -3.981  0.00  0.00    -0.002 A 
ATOM      8  C6  OXE d   1      -5.999   5.094  -2.625  0.00  0.00     0.003 A 
ENDROOT
TORSDOF 0
ENDMDL
