MODEL 1
REMARK minimizedAffinity 5.4316206
REMARK minimizedRMSD -1
REMARK  0 active torsions:
REMARK  status: ('A' for Active; 'I' for Inactive)
ROOT
ATOM      1  C2' OXE d   1      -5.628   3.463  -1.614  0.00  0.00     0.078 C 
ATOM      2  C1' OXE d   1      -2.862   3.380  -2.089  0.00  0.00     0.078 C 
ATOM      3  C1  OXE d   1      -3.768   3.686  -3.256  0.00  0.00    -0.078 A 
ATOM      4  C2  OXE d   1      -5.122   3.678  -3.024  0.00  0.00    -0.078 A 
ATOM      5  C3  OXE d   1      -6.000   4.007  -4.053  0.00  0.00     0.003 A 
ATOM      6  C4  OXE d   1      -5.525   4.195  -5.357  0.00  0.00    -0.002 A 
ATOM      7  C5  OXE d   1      -4.152   4.168  -5.623  0.00  0.00    -0.002 A 
ATOM      8  C6  OXE d   1      -3.259   3.958  -4.577  0.00  0.00     0.003 A 
ENDROOT
TORSDOF 0
ENDMDL
