MODEL 1
REMARK minimizedAffinity 3.6884017
REMARK minimizedRMSD -1
REMARK  0 active torsions:
REMARK  status: ('A' for Active; 'I' for Inactive)
ROOT
ATOM      1  C2' OXE d   1      -5.636   3.138  -2.185  0.00  0.00     0.078 C 
ATOM      2  C1' OXE d   1      -3.491   4.945  -2.310  0.00  0.00     0.078 C 
ATOM      3  C1  OXE d   1      -4.230   4.640  -3.589  0.00  0.00    -0.078 A 
ATOM      4  C2  OXE d   1      -5.248   3.719  -3.527  0.00  0.00    -0.078 A 
ATOM      5  C3  OXE d   1      -5.997   3.442  -4.667  0.00  0.00     0.003 A 
ATOM      6  C4  OXE d   1      -5.626   3.977  -5.907  0.00  0.00    -0.002 A 
ATOM      7  C5  OXE d   1      -4.567   4.886  -5.999  0.00  0.00    -0.002 A 
ATOM      8  C6  OXE d   1      -3.887   5.260  -4.845  0.00  0.00     0.003 A 
ENDROOT
TORSDOF 0
ENDMDL
