MODEL 1
REMARK minimizedAffinity -4.08549786
REMARK minimizedRMSD -1
REMARK  0 active torsions:
REMARK  status: ('A' for Active; 'I' for Inactive)
ROOT
ATOM      1  C2' OXE d   1      -5.193   0.973  -5.184  0.00  0.00     0.078 C 
ATOM      2  C1' OXE d   1      -3.770   3.251  -6.000  0.00  0.00     0.078 C 
ATOM      3  C1  OXE d   1      -4.529   3.324  -4.699  0.00  0.00    -0.078 A 
ATOM      4  C2  OXE d   1      -5.260   2.221  -4.330  0.00  0.00    -0.078 A 
ATOM      5  C3  OXE d   1      -5.934   2.216  -3.112  0.00  0.00     0.003 A 
ATOM      6  C4  OXE d   1      -5.999   3.377  -2.333  0.00  0.00    -0.002 A 
ATOM      7  C5  OXE d   1      -5.294   4.525  -2.710  0.00  0.00    -0.002 A 
ATOM      8  C6  OXE d   1      -4.521   4.501  -3.866  0.00  0.00     0.003 A 
ENDROOT
TORSDOF 0
ENDMDL
