MODEL 1
REMARK minimizedAffinity -0.84961307
REMARK minimizedRMSD -1
REMARK  1 active torsions:
REMARK  status: ('A' for Active; 'I' for Inactive)
REMARK    1  A    between atoms: N_2  and  C1_3 
ROOT
ATOM      1  C1  UNL d   1       4.168  -0.883  -6.000  0.00  0.00     0.143 A 
ATOM      2  C2  UNL d   1       5.049  -1.969  -5.981  0.00  0.00    -0.057 A 
ATOM      3  C3  UNL d   1       4.577  -3.287  -5.995  0.00  0.00     0.033 A 
ATOM      4  C4  UNL d   1       3.210  -3.543  -6.000  0.00  0.00    -0.042 A 
ATOM      5  C5  UNL d   1       2.315  -2.479  -5.994  0.00  0.00     0.033 A 
ATOM      6  C6  UNL d   1       2.793  -1.165  -5.986  0.00  0.00    -0.057 A 
ENDROOT
BRANCH   1   7
ATOM      7  N   UNL d   1       4.573   0.450  -5.887  0.00  0.00    -0.732 N 
ATOM      8  C   UNL d   1       5.602   0.830  -4.944  0.00  0.00     0.284 C 
ATOM      9  H3  UNL d   1       4.646   0.911  -6.791  0.00  0.00     0.395 HD
ENDBRANCH   1   7
TORSDOF 1
ENDMDL
