MODEL 1
REMARK minimizedAffinity -2.60439658
REMARK minimizedRMSD -1
REMARK  1 active torsions:
REMARK  status: ('A' for Active; 'I' for Inactive)
REMARK    1  A    between atoms: N_2  and  C1_3 
ROOT
ATOM      1  C1  UNL d   1       5.011  -4.139  -5.116  0.00  0.00     0.143 A 
ATOM      2  C2  UNL d   1       4.652  -4.174  -3.764  0.00  0.00    -0.057 A 
ATOM      3  C3  UNL d   1       3.722  -5.104  -3.283  0.00  0.00     0.033 A 
ATOM      4  C4  UNL d   1       3.111  -5.999  -4.155  0.00  0.00    -0.042 A 
ATOM      5  C5  UNL d   1       3.433  -5.966  -5.507  0.00  0.00     0.033 A 
ATOM      6  C6  UNL d   1       4.367  -5.039  -5.980  0.00  0.00    -0.057 A 
ENDROOT
BRANCH   1   7
ATOM      7  N   UNL d   1       5.855  -3.175  -5.672  0.00  0.00    -0.732 N 
ATOM      8  C   UNL d   1       5.354  -1.857  -5.999  0.00  0.00     0.284 C 
ATOM      9  H3  UNL d   1       6.778  -3.174  -5.245  0.00  0.00     0.395 HD
ENDBRANCH   1   7
TORSDOF 1
ENDMDL
