MODEL 1
REMARK minimizedAffinity -3.48453379
REMARK minimizedRMSD -1
REMARK  1 active torsions:
REMARK  status: ('A' for Active; 'I' for Inactive)
REMARK    1  A    between atoms: N_2  and  C1_3 
ROOT
ATOM      1  C1  UNL d   1       4.291  -3.534  -4.908  0.00  0.00     0.143 A 
ATOM      2  C2  UNL d   1       3.948  -2.730  -6.000  0.00  0.00    -0.057 A 
ATOM      3  C3  UNL d   1       4.111  -1.340  -5.957  0.00  0.00     0.033 A 
ATOM      4  C4  UNL d   1       4.594  -0.725  -4.807  0.00  0.00    -0.042 A 
ATOM      5  C5  UNL d   1       4.918  -1.502  -3.701  0.00  0.00     0.033 A 
ATOM      6  C6  UNL d   1       4.760  -2.890  -3.752  0.00  0.00    -0.057 A 
ENDROOT
BRANCH   1   7
ATOM      7  N   UNL d   1       4.060  -4.911  -4.853  0.00  0.00    -0.732 N 
ATOM      8  C   UNL d   1       4.725  -5.731  -3.864  0.00  0.00     0.284 C 
ATOM      9  H3  UNL d   1       3.080  -5.146  -4.997  0.00  0.00     0.395 HD
ENDBRANCH   1   7
TORSDOF 1
ENDMDL
