MODEL 1
REMARK minimizedAffinity -3.71821737
REMARK minimizedRMSD -1
REMARK  1 active torsions:
REMARK  status: ('A' for Active; 'I' for Inactive)
REMARK    1  A    between atoms: N_2  and  C1_3 
ROOT
ATOM      1  C1  UNL d   1       5.049  -1.790  -5.434  0.00  0.00     0.143 A 
ATOM      2  C2  UNL d   1       5.277  -3.171  -5.415  0.00  0.00    -0.057 A 
ATOM      3  C3  UNL d   1       4.254  -4.080  -5.709  0.00  0.00     0.033 A 
ATOM      4  C4  UNL d   1       2.972  -3.624  -6.000  0.00  0.00    -0.042 A 
ATOM      5  C5  UNL d   1       2.716  -2.257  -6.000  0.00  0.00     0.033 A 
ATOM      6  C6  UNL d   1       3.744  -1.354  -5.712  0.00  0.00    -0.057 A 
ENDROOT
BRANCH   1   7
ATOM      7  N   UNL d   1       5.999  -0.840  -5.054  0.00  0.00    -0.732 N 
ATOM      8  C   UNL d   1       5.990  -0.280  -3.720  0.00  0.00     0.284 C 
ATOM      9  H3  UNL d   1       6.928  -1.057  -5.408  0.00  0.00     0.395 HD
ENDBRANCH   1   7
TORSDOF 1
ENDMDL
