MODEL 1
REMARK minimizedAffinity 6.88312721
REMARK minimizedRMSD -1
REMARK  1 active torsions:
REMARK  status: ('A' for Active; 'I' for Inactive)
REMARK    1  A    between atoms: N_2  and  C1_3 
ROOT
ATOM      1  C1  UNL d   1       2.341   1.557   1.538  0.00  0.00     0.143 A 
ATOM      2  C2  UNL d   1       2.655   2.733   2.228  0.00  0.00    -0.057 A 
ATOM      3  C3  UNL d   1       2.930   2.719   3.600  0.00  0.00     0.033 A 
ATOM      4  C4  UNL d   1       2.868   1.527   4.316  0.00  0.00    -0.042 A 
ATOM      5  C5  UNL d   1       2.533   0.350   3.656  0.00  0.00     0.033 A 
ATOM      6  C6  UNL d   1       2.266   0.370   2.284  0.00  0.00    -0.057 A 
ENDROOT
BRANCH   1   7
ATOM      7  N   UNL d   1       1.961   1.521   0.194  0.00  0.00    -0.732 N 
ATOM      8  C   UNL d   1       0.714   2.116  -0.236  0.00  0.00     0.284 C 
ATOM      9  H3  UNL d   1       2.742   1.693  -0.435  0.00  0.00     0.395 HD
ENDBRANCH   1   7
TORSDOF 1
ENDMDL
