MODEL 1
REMARK minimizedAffinity 7.22336817
REMARK minimizedRMSD -1
REMARK  1 active torsions:
REMARK  status: ('A' for Active; 'I' for Inactive)
REMARK    1  A    between atoms: N_2  and  C1_3 
ROOT
ATOM      1  C1  UNL d   1       1.683   1.052   1.533  0.00  0.00     0.143 A 
ATOM      2  C2  UNL d   1       1.280   2.359   1.237  0.00  0.00    -0.057 A 
ATOM      3  C3  UNL d   1       0.401   2.626   0.181  0.00  0.00     0.033 A 
ATOM      4  C4  UNL d   1      -0.070   1.589  -0.619  0.00  0.00    -0.042 A 
ATOM      5  C5  UNL d   1       0.337   0.286  -0.359  0.00  0.00     0.033 A 
ATOM      6  C6  UNL d   1       1.210   0.025   0.701  0.00  0.00    -0.057 A 
ENDROOT
BRANCH   1   7
ATOM      7  N   UNL d   1       2.632   0.733   2.507  0.00  0.00    -0.732 N 
ATOM      8  C   UNL d   1       2.713  -0.608   3.046  0.00  0.00     0.284 C 
ATOM      9  H3  UNL d   1       3.537   1.162   2.324  0.00  0.00     0.395 HD
ENDBRANCH   1   7
TORSDOF 1
ENDMDL
