MODEL 1
REMARK minimizedAffinity 4.15925121
REMARK minimizedRMSD -1
REMARK  1 active torsions:
REMARK  status: ('A' for Active; 'I' for Inactive)
REMARK    1  A    between atoms: N_2  and  C1_3 
ROOT
ATOM      1  C1  UNL d   1       0.112  -0.111   0.673  0.00  0.00     0.143 A 
ATOM      2  C2  UNL d   1      -0.865   0.792   0.241  0.00  0.00    -0.057 A 
ATOM      3  C3  UNL d   1      -0.535   2.108  -0.106  0.00  0.00     0.033 A 
ATOM      4  C4  UNL d   1       0.778   2.553   0.002  0.00  0.00    -0.042 A 
ATOM      5  C5  UNL d   1       1.762   1.680   0.453  0.00  0.00     0.033 A 
ATOM      6  C6  UNL d   1       1.427   0.365   0.791  0.00  0.00    -0.057 A 
ENDROOT
BRANCH   1   7
ATOM      7  N   UNL d   1      -0.168  -1.403   1.125  0.00  0.00    -0.732 N 
ATOM      8  C   UNL d   1       0.045  -2.547   0.265  0.00  0.00     0.284 C 
ATOM      9  H3  UNL d   1       0.121  -1.548   2.090  0.00  0.00     0.395 HD
ENDBRANCH   1   7
TORSDOF 1
ENDMDL
