MODEL 1
REMARK minimizedAffinity -1.42754126
REMARK minimizedRMSD -1
REMARK  2 active torsions:
REMARK  status: ('A' for Active; 'I' for Inactive)
REMARK    1  A    between atoms: C2'_3  and  C1'_4 
REMARK    2  A    between atoms: C1'_4  and  C1_5 
ROOT
ATOM      1  C1  I4B d   1       2.363  -2.582   3.451  0.00  0.00    -0.075 A 
ATOM      2  C2  I4B d   1       1.486  -2.568   4.507  0.00  0.00     0.003 A 
ATOM      3  C3  I4B d   1       1.930  -2.908   5.808  0.00  0.00     0.002 A 
ATOM      4  C4  I4B d   1       3.239  -3.300   5.998  0.00  0.00    -0.004 A 
ATOM      5  C5  I4B d   1       4.133  -3.291   4.931  0.00  0.00     0.002 A 
ATOM      6  C6  I4B d   1       3.696  -2.918   3.652  0.00  0.00     0.003 A 
ENDROOT
BRANCH   1   7
ATOM      7  C1' I4B d   1       1.853  -2.249   2.085  0.00  0.00     0.060 C 
BRANCH   7   8
ATOM      8  C2' I4B d   1       1.076  -0.952   2.180  0.00  0.00    -0.013 C 
ATOM      9  C4' I4B d   1       1.890   0.209   1.674  0.00  0.00     0.013 C 
ATOM     10  C3' I4B d   1      -0.189  -1.112   1.390  0.00  0.00     0.013 C 
ENDBRANCH   7   8
ENDBRANCH   1   7
TORSDOF 2
ENDMDL
