MODEL 1
REMARK minimizedAffinity 8.96601486
REMARK minimizedRMSD -1
REMARK  2 active torsions:
REMARK  status: ('A' for Active; 'I' for Inactive)
REMARK    1  A    between atoms: C2'_3  and  C1'_4 
REMARK    2  A    between atoms: C1'_4  and  C1_5 
ROOT
ATOM      1  C1  I4B d   1      -5.381  -3.210  -4.748  0.00  0.00    -0.075 A 
ATOM      2  C2  I4B d   1      -4.876  -4.004  -3.749  0.00  0.00     0.003 A 
ATOM      3  C3  I4B d   1      -4.915  -5.414  -3.870  0.00  0.00     0.002 A 
ATOM      4  C4  I4B d   1      -5.509  -5.985  -4.977  0.00  0.00    -0.004 A 
ATOM      5  C5  I4B d   1      -6.000  -5.179  -6.000  0.00  0.00     0.002 A 
ATOM      6  C6  I4B d   1      -5.925  -3.783  -5.891  0.00  0.00     0.003 A 
ENDROOT
BRANCH   1   7
ATOM      7  C1' I4B d   1      -5.354  -1.725  -4.572  0.00  0.00     0.060 C 
BRANCH   7   8
ATOM      8  C2' I4B d   1      -4.879  -1.430  -3.164  0.00  0.00    -0.013 C 
ATOM      9  C4' I4B d   1      -4.752   0.052  -2.931  0.00  0.00     0.013 C 
ATOM     10  C3' I4B d   1      -5.855  -2.047  -2.208  0.00  0.00     0.013 C 
ENDBRANCH   7   8
ENDBRANCH   1   7
TORSDOF 2
ENDMDL
