MODEL 1
REMARK minimizedAffinity 6.75710106
REMARK minimizedRMSD -1
REMARK  2 active torsions:
REMARK  status: ('A' for Active; 'I' for Inactive)
REMARK    1  A    between atoms: C2'_3  and  C1'_4 
REMARK    2  A    between atoms: C1'_4  and  C1_5 
ROOT
ATOM      1  C1  I4B d   1      -4.670  -3.539  -4.278  0.00  0.00    -0.075 A 
ATOM      2  C2  I4B d   1      -5.517  -3.446  -5.354  0.00  0.00     0.003 A 
ATOM      3  C3  I4B d   1      -5.992  -4.618  -5.991  0.00  0.00     0.002 A 
ATOM      4  C4  I4B d   1      -5.558  -5.853  -5.553  0.00  0.00    -0.004 A 
ATOM      5  C5  I4B d   1      -4.717  -5.946  -4.448  0.00  0.00     0.002 A 
ATOM      6  C6  I4B d   1      -4.280  -4.783  -3.798  0.00  0.00     0.003 A 
ENDROOT
BRANCH   1   7
ATOM      7  C1' I4B d   1      -4.161  -2.281  -3.649  0.00  0.00     0.060 C 
BRANCH   7   8
ATOM      8  C2' I4B d   1      -5.356  -1.416  -3.303  0.00  0.00    -0.013 C 
ATOM      9  C4' I4B d   1      -5.954  -1.817  -1.981  0.00  0.00     0.013 C 
ATOM     10  C3' I4B d   1      -4.902   0.013  -3.281  0.00  0.00     0.013 C 
ENDBRANCH   7   8
ENDBRANCH   1   7
TORSDOF 2
ENDMDL
