MODEL 1
REMARK minimizedAffinity 16.9471989
REMARK minimizedRMSD -1
REMARK  2 active torsions:
REMARK  status: ('A' for Active; 'I' for Inactive)
REMARK    1  A    between atoms: C2'_3  and  C1'_4 
REMARK    2  A    between atoms: C1'_4  and  C1_5 
ROOT
ATOM      1  C1  I4B d   1       2.810  -2.955   3.493  0.00  0.00    -0.075 A 
ATOM      2  C2  I4B d   1       3.065  -2.220   2.362  0.00  0.00     0.003 A 
ATOM      3  C3  I4B d   1       2.029  -1.474   1.749  0.00  0.00     0.002 A 
ATOM      4  C4  I4B d   1       0.751  -1.532   2.266  0.00  0.00    -0.004 A 
ATOM      5  C5  I4B d   1       0.500  -2.260   3.426  0.00  0.00     0.002 A 
ATOM      6  C6  I4B d   1       1.538  -2.966   4.051  0.00  0.00     0.003 A 
ENDROOT
BRANCH   1   7
ATOM      7  C1' I4B d   1       3.919  -3.757   4.096  0.00  0.00     0.060 C 
BRANCH   7   8
ATOM      8  C2' I4B d   1       5.214  -3.004   3.874  0.00  0.00    -0.013 C 
ATOM      9  C4' I4B d   1       6.000  -2.881   5.152  0.00  0.00     0.013 C 
ATOM     10  C3' I4B d   1       5.999  -3.733   2.824  0.00  0.00     0.013 C 
ENDBRANCH   7   8
ENDBRANCH   1   7
TORSDOF 2
ENDMDL
