MODEL 1
REMARK minimizedAffinity 12.009614
REMARK minimizedRMSD -1
REMARK  2 active torsions:
REMARK  status: ('A' for Active; 'I' for Inactive)
REMARK    1  A    between atoms: C2'_3  and  C1'_4 
REMARK    2  A    between atoms: C1'_4  and  C1_5 
ROOT
ATOM      1  C1  I4B d   1      -3.569   3.653   1.637  0.00  0.00    -0.075 A 
ATOM      2  C2  I4B d   1      -4.686   3.803   2.421  0.00  0.00     0.003 A 
ATOM      3  C3  I4B d   1      -5.929   4.140   1.834  0.00  0.00     0.002 A 
ATOM      4  C4  I4B d   1      -6.000   4.365   0.474  0.00  0.00    -0.004 A 
ATOM      5  C5  I4B d   1      -4.872   4.190  -0.322  0.00  0.00     0.002 A 
ATOM      6  C6  I4B d   1      -3.651   3.819   0.261  0.00  0.00     0.003 A 
ENDROOT
BRANCH   1   7
ATOM      7  C1' I4B d   1      -2.265   3.329   2.294  0.00  0.00     0.060 C 
BRANCH   7   8
ATOM      8  C2' I4B d   1      -1.230   3.132   1.206  0.00  0.00    -0.013 C 
ATOM      9  C4' I4B d   1       0.136   2.884   1.790  0.00  0.00     0.013 C 
ATOM     10  C3' I4B d   1      -1.670   1.982   0.351  0.00  0.00     0.013 C 
ENDBRANCH   7   8
ENDBRANCH   1   7
TORSDOF 2
ENDMDL
