MODEL 1
REMARK minimizedAffinity -4.18139029
REMARK minimizedRMSD -1
REMARK  0 active torsions:
REMARK  status: ('A' for Active; 'I' for Inactive)
ROOT
ATOM      1  C   UNL d   1       0.771  -2.582  -1.051  0.00  0.00     0.077 C 
ATOM      2  C1  UNL d   1       0.431  -1.121  -1.017  0.00  0.00    -0.074 A 
ATOM      3  C2  UNL d   1       0.844  -0.263  -2.041  0.00  0.00    -0.005 A 
ATOM      4  C3  UNL d   1       0.512   1.091  -2.000  0.00  0.00     0.006 A 
ATOM      5  C4  UNL d   1      -0.235   1.600  -0.937  0.00  0.00    -0.005 A 
ATOM      6  C5  UNL d   1      -0.657   0.757   0.096  0.00  0.00    -0.074 A 
ATOM      7  C6  UNL d   1      -1.469   1.285   1.241  0.00  0.00     0.077 C 
ATOM      8  C7  UNL d   1      -0.326  -0.604   0.044  0.00  0.00    -0.001 A 
ENDROOT
TORSDOF 0
ENDMDL
