MODEL 1
REMARK minimizedAffinity -5.11872101
REMARK minimizedRMSD -1
REMARK  0 active torsions:
REMARK  status: ('A' for Active; 'I' for Inactive)
ROOT
ATOM      1  C   UNL d   1      -1.088   1.981  -2.921  0.00  0.00     0.077 C 
ATOM      2  C1  UNL d   1      -0.704   1.412  -1.588  0.00  0.00    -0.074 A 
ATOM      3  C2  UNL d   1      -0.084   0.162  -1.491  0.00  0.00    -0.005 A 
ATOM      4  C3  UNL d   1       0.276  -0.350  -0.245  0.00  0.00     0.006 A 
ATOM      5  C4  UNL d   1       0.021   0.381   0.916  0.00  0.00    -0.005 A 
ATOM      6  C5  UNL d   1      -0.596   1.634   0.839  0.00  0.00    -0.074 A 
ATOM      7  C6  UNL d   1      -0.869   2.437   2.075  0.00  0.00     0.077 C 
ATOM      8  C7  UNL d   1      -0.949   2.144  -0.418  0.00  0.00    -0.001 A 
ENDROOT
TORSDOF 0
ENDMDL
