MODEL 1
REMARK minimizedAffinity -4.24109888
REMARK minimizedRMSD -1
REMARK  0 active torsions:
REMARK  status: ('A' for Active; 'I' for Inactive)
ROOT
ATOM      1  C   UNL d   1      -0.534   1.100   1.402  0.00  0.00     0.077 C 
ATOM      2  C1  UNL d   1      -0.119   0.260   0.231  0.00  0.00    -0.074 A 
ATOM      3  C2  UNL d   1       0.568   0.823  -0.850  0.00  0.00    -0.005 A 
ATOM      4  C3  UNL d   1       0.956   0.027  -1.928  0.00  0.00     0.006 A 
ATOM      5  C4  UNL d   1       0.662  -1.337  -1.936  0.00  0.00    -0.005 A 
ATOM      6  C5  UNL d   1      -0.023  -1.917  -0.864  0.00  0.00    -0.074 A 
ATOM      7  C6  UNL d   1      -0.338  -3.384  -0.853  0.00  0.00     0.077 C 
ATOM      8  C7  UNL d   1      -0.404  -1.113   0.218  0.00  0.00    -0.001 A 
ENDROOT
TORSDOF 0
ENDMDL
