MODEL 1
REMARK minimizedAffinity -2.92628455
REMARK minimizedRMSD -1
REMARK  0 active torsions:
REMARK  status: ('A' for Active; 'I' for Inactive)
ROOT
ATOM      1  C   UNL d   1       1.449  -0.572  -0.714  0.00  0.00     0.077 C 
ATOM      2  C1  UNL d   1       0.964  -0.029   0.597  0.00  0.00    -0.074 A 
ATOM      3  C2  UNL d   1       0.276   1.188   0.660  0.00  0.00    -0.005 A 
ATOM      4  C3  UNL d   1      -0.177   1.676   1.885  0.00  0.00     0.006 A 
ATOM      5  C4  UNL d   1       0.051   0.955   3.058  0.00  0.00    -0.005 A 
ATOM      6  C5  UNL d   1       0.736  -0.264   3.014  0.00  0.00    -0.074 A 
ATOM      7  C6  UNL d   1       0.982  -1.057   4.263  0.00  0.00     0.077 C 
ATOM      8  C7  UNL d   1       1.183  -0.752   1.778  0.00  0.00    -0.001 A 
ENDROOT
TORSDOF 0
ENDMDL
