MODEL 1
REMARK minimizedAffinity -4.04253006
REMARK minimizedRMSD -1
REMARK  0 active torsions:
REMARK  status: ('A' for Active; 'I' for Inactive)
ROOT
ATOM      1  C   UNL d   1       0.661  -1.182  -0.638  0.00  0.00     0.077 C 
ATOM      2  C1  UNL d   1       0.076   0.031   0.022  0.00  0.00    -0.074 A 
ATOM      3  C2  UNL d   1       0.044   0.146   1.415  0.00  0.00    -0.005 A 
ATOM      4  C3  UNL d   1      -0.495   1.284   2.015  0.00  0.00     0.006 A 
ATOM      5  C4  UNL d   1      -1.007   2.317   1.228  0.00  0.00    -0.005 A 
ATOM      6  C5  UNL d   1      -0.983   2.220  -0.166  0.00  0.00    -0.074 A 
ATOM      7  C6  UNL d   1      -1.520   3.325  -1.026  0.00  0.00     0.077 C 
ATOM      8  C7  UNL d   1      -0.433   1.076  -0.762  0.00  0.00    -0.001 A 
ENDROOT
TORSDOF 0
ENDMDL
