MODEL 1
REMARK minimizedAffinity -3.99797463
REMARK minimizedRMSD -1
REMARK  0 active torsions:
REMARK  status: ('A' for Active; 'I' for Inactive)
ROOT
ATOM      1  C   UNL d   1       1.596  -0.470   1.734  0.00  0.00     0.077 C 
ATOM      2  C1  UNL d   1       0.356   0.082   1.096  0.00  0.00    -0.074 A 
ATOM      3  C2  UNL d   1      -0.466  -0.728   0.304  0.00  0.00    -0.005 A 
ATOM      4  C3  UNL d   1      -1.621  -0.203  -0.275  0.00  0.00     0.006 A 
ATOM      5  C4  UNL d   1      -1.966   1.133  -0.069  0.00  0.00    -0.005 A 
ATOM      6  C5  UNL d   1      -1.158   1.957   0.720  0.00  0.00    -0.074 A 
ATOM      7  C6  UNL d   1      -1.519   3.393   0.959  0.00  0.00     0.077 C 
ATOM      8  C7  UNL d   1      -0.002   1.421   1.304  0.00  0.00    -0.001 A 
ENDROOT
TORSDOF 0
ENDMDL
