MODEL 1
REMARK minimizedAffinity -3.27948618
REMARK minimizedRMSD -1
REMARK  0 active torsions:
REMARK  status: ('A' for Active; 'I' for Inactive)
ROOT
ATOM      1  C   UNL d   1       0.589  -3.195  -1.252  0.00  0.00     0.077 C 
ATOM      2  C1  UNL d   1       0.371  -1.840  -0.648  0.00  0.00    -0.074 A 
ATOM      3  C2  UNL d   1       0.570  -1.621   0.719  0.00  0.00    -0.005 A 
ATOM      4  C3  UNL d   1       0.373  -0.353   1.265  0.00  0.00     0.006 A 
ATOM      5  C4  UNL d   1      -0.025   0.708   0.451  0.00  0.00    -0.005 A 
ATOM      6  C5  UNL d   1      -0.229   0.509  -0.918  0.00  0.00    -0.074 A 
ATOM      7  C6  UNL d   1      -0.647   1.641  -1.809  0.00  0.00     0.077 C 
ATOM      8  C7  UNL d   1      -0.021  -0.767  -1.461  0.00  0.00    -0.001 A 
ENDROOT
TORSDOF 0
ENDMDL
