MODEL 1
REMARK minimizedAffinity -1.326056
REMARK minimizedRMSD -1
REMARK  0 active torsions:
REMARK  status: ('A' for Active; 'I' for Inactive)
ROOT
ATOM      1  C   UNL d   1       0.554  -2.543  -0.992  0.00  0.00     0.077 C 
ATOM      2  C1  UNL d   1       0.111  -1.115  -1.112  0.00  0.00    -0.074 A 
ATOM      3  C2  UNL d   1       0.269  -0.412  -2.310  0.00  0.00    -0.005 A 
ATOM      4  C3  UNL d   1      -0.156   0.913  -2.409  0.00  0.00     0.006 A 
ATOM      5  C4  UNL d   1      -0.742   1.547  -1.313  0.00  0.00    -0.005 A 
ATOM      6  C5  UNL d   1      -0.908   0.859  -0.107  0.00  0.00    -0.074 A 
ATOM      7  C6  UNL d   1      -1.545   1.522   1.079  0.00  0.00     0.077 C 
ATOM      8  C7  UNL d   1      -0.485  -0.474  -0.017  0.00  0.00    -0.001 A 
ENDROOT
TORSDOF 0
ENDMDL
