MODEL 1
REMARK minimizedAffinity -5.54454708
REMARK minimizedRMSD -1
REMARK  3 active torsions:
REMARK  status: ('A' for Active; 'I' for Inactive)
REMARK    1  A    between atoms: C3'_2  and  C2'_3 
REMARK    2  A    between atoms: C2'_3  and  C1'_4 
REMARK    3  A    between atoms: C1'_4  and  C1_5 
ROOT
ATOM      1  C1  N4B d   1      -0.520  -2.173   0.780  0.00  0.00    -0.075 A 
ATOM      2  C2  N4B d   1       0.007  -0.864   0.729  0.00  0.00     0.002 A 
ATOM      3  C3  N4B d   1      -0.790   0.210   1.043  0.00  0.00     0.002 A 
ATOM      4  C4  N4B d   1      -2.117   0.001   1.390  0.00  0.00    -0.004 A 
ATOM      5  C5  N4B d   1      -2.611  -1.269   1.460  0.00  0.00     0.002 A 
ATOM      6  C6  N4B d   1      -1.820  -2.357   1.152  0.00  0.00     0.002 A 
ENDROOT
BRANCH   1   7
ATOM      7  C1' N4B d   1       0.288  -3.371   0.362  0.00  0.00     0.057 C 
BRANCH   7   8
ATOM      8  C2' N4B d   1      -0.035  -3.713  -1.089  0.00  0.00     0.009 C 
BRANCH   8   9
ATOM      9  C3' N4B d   1       0.725  -2.829  -2.063  0.00  0.00     0.004 C 
ATOM     10  C4' N4B d   1       0.402  -3.133  -3.496  0.00  0.00     0.003 C 
ENDBRANCH   8   9
ENDBRANCH   7   8
ENDBRANCH   1   7
TORSDOF 3
ENDMDL
