MODEL 1
REMARK minimizedAffinity 0.678461254
REMARK minimizedRMSD -1
REMARK  3 active torsions:
REMARK  status: ('A' for Active; 'I' for Inactive)
REMARK    1  A    between atoms: C3'_2  and  C2'_3 
REMARK    2  A    between atoms: C2'_3  and  C1'_4 
REMARK    3  A    between atoms: C1'_4  and  C1_5 
ROOT
ATOM      1  C1  N4B d   1      -1.380   0.399   0.500  0.00  0.00    -0.075 A 
ATOM      2  C2  N4B d   1      -2.477   0.190   1.365  0.00  0.00     0.002 A 
ATOM      3  C3  N4B d   1      -2.888  -1.087   1.656  0.00  0.00     0.002 A 
ATOM      4  C4  N4B d   1      -2.233  -2.166   1.081  0.00  0.00    -0.004 A 
ATOM      5  C5  N4B d   1      -1.158  -1.956   0.267  0.00  0.00     0.002 A 
ATOM      6  C6  N4B d   1      -0.731  -0.678  -0.030  0.00  0.00     0.002 A 
ENDROOT
BRANCH   1   7
ATOM      7  C1' N4B d   1      -0.948   1.779   0.085  0.00  0.00     0.057 C 
BRANCH   7   8
ATOM      8  C2' N4B d   1       0.122   2.280   1.050  0.00  0.00     0.009 C 
BRANCH   8   9
ATOM      9  C3' N4B d   1       0.202   3.797   1.072  0.00  0.00     0.004 C 
ATOM     10  C4' N4B d   1       1.541   4.302   1.522  0.00  0.00     0.003 C 
ENDBRANCH   8   9
ENDBRANCH   7   8
ENDBRANCH   1   7
TORSDOF 3
ENDMDL
