MODEL 1
REMARK minimizedAffinity -1.80407965
REMARK minimizedRMSD -1
REMARK  3 active torsions:
REMARK  status: ('A' for Active; 'I' for Inactive)
REMARK    1  A    between atoms: C3'_2  and  C2'_3 
REMARK    2  A    between atoms: C2'_3  and  C1'_4 
REMARK    3  A    between atoms: C1'_4  and  C1_5 
ROOT
ATOM      1  C1  N4B d   1      -1.623   0.100   0.747  0.00  0.00    -0.075 A 
ATOM      2  C2  N4B d   1      -0.931   1.179   1.339  0.00  0.00     0.002 A 
ATOM      3  C3  N4B d   1       0.066   1.819   0.646  0.00  0.00     0.002 A 
ATOM      4  C4  N4B d   1       0.401   1.387  -0.629  0.00  0.00    -0.004 A 
ATOM      5  C5  N4B d   1      -0.289   0.361  -1.204  0.00  0.00     0.002 A 
ATOM      6  C6  N4B d   1      -1.297  -0.289  -0.520  0.00  0.00     0.002 A 
ENDROOT
BRANCH   1   7
ATOM      7  C1' N4B d   1      -2.662  -0.686   1.498  0.00  0.00     0.057 C 
BRANCH   7   8
ATOM      8  C2' N4B d   1      -3.835   0.230   1.836  0.00  0.00     0.009 C 
BRANCH   8   9
ATOM      9  C3' N4B d   1      -3.878   0.576   3.315  0.00  0.00     0.004 C 
ATOM     10  C4' N4B d   1      -4.805   1.715   3.617  0.00  0.00     0.003 C 
ENDBRANCH   8   9
ENDBRANCH   7   8
ENDBRANCH   1   7
TORSDOF 3
ENDMDL
