MODEL 1
REMARK minimizedAffinity -2.78244066
REMARK minimizedRMSD -1
REMARK  3 active torsions:
REMARK  status: ('A' for Active; 'I' for Inactive)
REMARK    1  A    between atoms: C3'_2  and  C2'_3 
REMARK    2  A    between atoms: C2'_3  and  C1'_4 
REMARK    3  A    between atoms: C1'_4  and  C1_5 
ROOT
ATOM      1  C1  N4B d   1      -0.318  -0.028   0.152  0.00  0.00    -0.075 A 
ATOM      2  C2  N4B d   1      -1.146   0.042   1.293  0.00  0.00     0.002 A 
ATOM      3  C3  N4B d   1      -1.586  -1.112   1.894  0.00  0.00     0.002 A 
ATOM      4  C4  N4B d   1      -1.227  -2.341   1.363  0.00  0.00    -0.004 A 
ATOM      5  C5  N4B d   1      -0.406  -2.401   0.275  0.00  0.00     0.002 A 
ATOM      6  C6  N4B d   1       0.047  -1.249  -0.337  0.00  0.00     0.002 A 
ENDROOT
BRANCH   1   7
ATOM      7  C1' N4B d   1       0.117   1.206  -0.591  0.00  0.00     0.057 C 
BRANCH   7   8
ATOM      8  C2' N4B d   1      -0.301   2.441   0.201  0.00  0.00     0.009 C 
BRANCH   8   9
ATOM      9  C3' N4B d   1       0.893   3.291   0.602  0.00  0.00     0.004 C 
ATOM     10  C4' N4B d   1       0.972   3.520   2.082  0.00  0.00     0.003 C 
ENDBRANCH   8   9
ENDBRANCH   7   8
ENDBRANCH   1   7
TORSDOF 3
ENDMDL
