MODEL 1
REMARK minimizedAffinity 8.10286045
REMARK minimizedRMSD -1
REMARK  3 active torsions:
REMARK  status: ('A' for Active; 'I' for Inactive)
REMARK    1  A    between atoms: C3'_2  and  C2'_3 
REMARK    2  A    between atoms: C2'_3  and  C1'_4 
REMARK    3  A    between atoms: C1'_4  and  C1_5 
ROOT
ATOM      1  C1  N4B d   1       0.993   0.012  -2.504  0.00  0.00    -0.075 A 
ATOM      2  C2  N4B d   1      -0.273   0.045  -1.877  0.00  0.00     0.002 A 
ATOM      3  C3  N4B d   1      -0.371   0.372  -0.547  0.00  0.00     0.002 A 
ATOM      4  C4  N4B d   1       0.777   0.649   0.178  0.00  0.00    -0.004 A 
ATOM      5  C5  N4B d   1       1.993   0.640  -0.441  0.00  0.00     0.002 A 
ATOM      6  C6  N4B d   1       2.107   0.317  -1.778  0.00  0.00     0.002 A 
ENDROOT
BRANCH   1   7
ATOM      7  C1' N4B d   1       1.159  -0.424  -3.934  0.00  0.00     0.057 C 
BRANCH   7   8
ATOM      8  C2' N4B d   1       1.390  -1.931  -3.975  0.00  0.00     0.009 C 
BRANCH   8   9
ATOM      9  C3' N4B d   1       2.788  -2.279  -4.458  0.00  0.00     0.004 C 
ATOM     10  C4' N4B d   1       3.234  -3.640  -4.014  0.00  0.00     0.003 C 
ENDBRANCH   8   9
ENDBRANCH   7   8
ENDBRANCH   1   7
TORSDOF 3
ENDMDL
