MODEL 1
REMARK minimizedAffinity 3.92132926
REMARK minimizedRMSD -1
REMARK  3 active torsions:
REMARK  status: ('A' for Active; 'I' for Inactive)
REMARK    1  A    between atoms: C3'_2  and  C2'_3 
REMARK    2  A    between atoms: C2'_3  and  C1'_4 
REMARK    3  A    between atoms: C1'_4  and  C1_5 
ROOT
ATOM      1  C1  N4B d   1      -1.829  -1.262   2.670  0.00  0.00    -0.075 A 
ATOM      2  C2  N4B d   1      -2.141  -2.257   1.717  0.00  0.00     0.002 A 
ATOM      3  C3  N4B d   1      -2.037  -1.980   0.376  0.00  0.00     0.002 A 
ATOM      4  C4  N4B d   1      -1.644  -0.715  -0.034  0.00  0.00    -0.004 A 
ATOM      5  C5  N4B d   1      -1.320   0.233   0.892  0.00  0.00     0.002 A 
ATOM      6  C6  N4B d   1      -1.416  -0.033   2.243  0.00  0.00     0.002 A 
ENDROOT
BRANCH   1   7
ATOM      7  C1' N4B d   1      -2.009  -1.492   4.146  0.00  0.00     0.057 C 
BRANCH   7   8
ATOM      8  C2' N4B d   1      -3.051  -0.514   4.681  0.00  0.00     0.009 C 
BRANCH   8   9
ATOM      9  C3' N4B d   1      -3.771  -1.062   5.901  0.00  0.00     0.004 C 
ATOM     10  C4' N4B d   1      -3.691  -2.556   6.000  0.00  0.00     0.003 C 
ENDBRANCH   8   9
ENDBRANCH   7   8
ENDBRANCH   1   7
TORSDOF 3
ENDMDL
