MODEL 1
REMARK minimizedAffinity -6.05282545
REMARK minimizedRMSD -1
REMARK  3 active torsions:
REMARK  status: ('A' for Active; 'I' for Inactive)
REMARK    1  A    between atoms: C3'_2  and  C2'_3 
REMARK    2  A    between atoms: C2'_3  and  C1'_4 
REMARK    3  A    between atoms: C1'_4  and  C1_5 
ROOT
ATOM      1  C1  N4B d   1      -0.098  -1.138   0.326  0.00  0.00    -0.075 A 
ATOM      2  C2  N4B d   1      -0.341  -2.338   1.030  0.00  0.00     0.002 A 
ATOM      3  C3  N4B d   1      -0.280  -3.543   0.374  0.00  0.00     0.002 A 
ATOM      4  C4  N4B d   1       0.003  -3.572  -0.983  0.00  0.00    -0.004 A 
ATOM      5  C5  N4B d   1       0.262  -2.410  -1.650  0.00  0.00     0.002 A 
ATOM      6  C6  N4B d   1       0.207  -1.192  -1.003  0.00  0.00     0.002 A 
ENDROOT
BRANCH   1   7
ATOM      7  C1' N4B d   1      -0.238   0.209   0.981  0.00  0.00     0.057 C 
BRANCH   7   8
ATOM      8  C2' N4B d   1       0.016   1.299  -0.057  0.00  0.00     0.009 C 
BRANCH   8   9
ATOM      9  C3' N4B d   1       1.217   2.156   0.303  0.00  0.00     0.004 C 
ATOM     10  C4' N4B d   1       0.892   3.620   0.352  0.00  0.00     0.003 C 
ENDBRANCH   8   9
ENDBRANCH   7   8
ENDBRANCH   1   7
TORSDOF 3
ENDMDL
