MODEL 1
REMARK minimizedAffinity -4.55760002
REMARK minimizedRMSD -1
REMARK  1 active torsions:
REMARK  status: ('A' for Active; 'I' for Inactive)
REMARK    1  A    between atoms: C3_4  and  O_7 
ROOT
ATOM      1  C   UNL d   1      -0.121   0.125  -0.501  0.00  0.00    -0.033 A 
ATOM      2  C1  UNL d   1       0.777   0.833   0.299  0.00  0.00     0.039 A 
ATOM      3  C2  UNL d   1       1.833   0.166   0.925  0.00  0.00    -0.080 A 
ATOM      4  C3  UNL d   1       1.979  -1.206   0.741  0.00  0.00     0.150 A 
ATOM      5  C4  UNL d   1       1.090  -1.917  -0.058  0.00  0.00    -0.007 A 
ATOM      6  C5  UNL d   1       0.036  -1.250  -0.681  0.00  0.00     0.039 A 
ENDROOT
BRANCH   4   7
ATOM      7  O   UNL d   1       2.991  -1.901   1.335  0.00  0.00    -0.526 OA
ATOM      8  H5  UNL d   1       3.509  -1.285   1.879  0.00  0.00     0.418 HD
ENDBRANCH   4   7
TORSDOF 1
ENDMDL
