MODEL 1
REMARK minimizedAffinity -2.21947908
REMARK minimizedRMSD -1
REMARK  1 active torsions:
REMARK  status: ('A' for Active; 'I' for Inactive)
REMARK    1  A    between atoms: C3_4  and  O_7 
ROOT
ATOM      1  C   UNL d   1       0.378  -0.913  -0.039  0.00  0.00    -0.033 A 
ATOM      2  C1  UNL d   1       0.619  -0.851   1.335  0.00  0.00     0.039 A 
ATOM      3  C2  UNL d   1       1.850  -1.261   1.849  0.00  0.00    -0.080 A 
ATOM      4  C3  UNL d   1       2.832  -1.729   0.980  0.00  0.00     0.150 A 
ATOM      5  C4  UNL d   1       2.601  -1.790  -0.390  0.00  0.00    -0.007 A 
ATOM      6  C5  UNL d   1       1.370  -1.381  -0.902  0.00  0.00     0.039 A 
ENDROOT
BRANCH   4   7
ATOM      7  O   UNL d   1       4.047  -2.145   1.436  0.00  0.00    -0.526 OA
ATOM      8  H5  UNL d   1       4.054  -2.074   2.405  0.00  0.00     0.418 HD
ENDBRANCH   4   7
TORSDOF 1
ENDMDL
