MODEL 1
REMARK minimizedAffinity -3.47059584
REMARK minimizedRMSD -1
REMARK  1 active torsions:
REMARK  status: ('A' for Active; 'I' for Inactive)
REMARK    1  A    between atoms: C3_4  and  O_7 
ROOT
ATOM      1  C   UNL d   1      -0.404   0.195  -0.125  0.00  0.00    -0.033 A 
ATOM      2  C1  UNL d   1      -0.522  -1.172  -0.385  0.00  0.00     0.039 A 
ATOM      3  C2  UNL d   1       0.473  -2.054   0.041  0.00  0.00    -0.080 A 
ATOM      4  C3  UNL d   1       1.578  -1.558   0.727  0.00  0.00     0.150 A 
ATOM      5  C4  UNL d   1       1.700  -0.198   0.994  0.00  0.00    -0.007 A 
ATOM      6  C5  UNL d   1       0.706   0.682   0.566  0.00  0.00     0.039 A 
ENDROOT
BRANCH   4   7
ATOM      7  O   UNL d   1       2.576  -2.379   1.159  0.00  0.00    -0.526 OA
ATOM      8  H5  UNL d   1       2.371  -3.287   0.879  0.00  0.00     0.418 HD
ENDBRANCH   4   7
TORSDOF 1
ENDMDL
