MODEL 1
REMARK minimizedAffinity -4.80726767
REMARK minimizedRMSD -1
REMARK  1 active torsions:
REMARK  status: ('A' for Active; 'I' for Inactive)
REMARK    1  A    between atoms: C3_4  and  O_7 
ROOT
ATOM      1  C   UNL d   1      -0.312   0.018  -0.065  0.00  0.00    -0.033 A 
ATOM      2  C1  UNL d   1       0.617   0.798   0.626  0.00  0.00     0.039 A 
ATOM      3  C2  UNL d   1       1.841   0.248   1.013  0.00  0.00    -0.080 A 
ATOM      4  C3  UNL d   1       2.123  -1.080   0.703  0.00  0.00     0.150 A 
ATOM      5  C4  UNL d   1       1.203  -1.861   0.012  0.00  0.00    -0.007 A 
ATOM      6  C5  UNL d   1      -0.019  -1.311  -0.374  0.00  0.00     0.039 A 
ENDROOT
BRANCH   4   7
ATOM      7  O   UNL d   1       3.301  -1.661   1.065  0.00  0.00    -0.526 OA
ATOM      8  H5  UNL d   1       3.826  -1.011   1.561  0.00  0.00     0.418 HD
ENDBRANCH   4   7
TORSDOF 1
ENDMDL
