MODEL 1
REMARK minimizedAffinity -4.86447191
REMARK minimizedRMSD -1
REMARK  1 active torsions:
REMARK  status: ('A' for Active; 'I' for Inactive)
REMARK    1  A    between atoms: C3_4  and  O_7 
ROOT
ATOM      1  C   UNL d   1       2.403  -1.165   0.329  0.00  0.00    -0.033 A 
ATOM      2  C1  UNL d   1       1.470  -1.836  -0.465  0.00  0.00     0.039 A 
ATOM      3  C2  UNL d   1       0.242  -1.240  -0.756  0.00  0.00    -0.080 A 
ATOM      4  C3  UNL d   1      -0.042   0.025  -0.249  0.00  0.00     0.150 A 
ATOM      5  C4  UNL d   1       0.884   0.701   0.540  0.00  0.00    -0.007 A 
ATOM      6  C5  UNL d   1       2.110   0.104   0.830  0.00  0.00     0.039 A 
ENDROOT
BRANCH   4   7
ATOM      7  O   UNL d   1      -1.229   0.645  -0.502  0.00  0.00    -0.526 OA
ATOM      8  H5  UNL d   1      -1.780   0.048  -1.035  0.00  0.00     0.418 HD
ENDBRANCH   4   7
TORSDOF 1
ENDMDL
