MODEL 1
REMARK minimizedAffinity -4.43593073
REMARK minimizedRMSD -1
REMARK  1 active torsions:
REMARK  status: ('A' for Active; 'I' for Inactive)
REMARK    1  A    between atoms: N_2  and  C1_3 
ROOT
ATOM      1  C1  UNL d   1      -0.287   0.517   0.293  0.00  0.00     0.143 A 
ATOM      2  C2  UNL d   1       0.277  -0.405  -0.595  0.00  0.00    -0.057 A 
ATOM      3  C3  UNL d   1       0.048  -1.780  -0.457  0.00  0.00     0.033 A 
ATOM      4  C4  UNL d   1      -0.728  -2.260   0.593  0.00  0.00    -0.042 A 
ATOM      5  C5  UNL d   1      -1.278  -1.363   1.502  0.00  0.00     0.033 A 
ATOM      6  C6  UNL d   1      -1.052   0.009   1.355  0.00  0.00    -0.057 A 
ENDROOT
BRANCH   1   7
ATOM      7  N   UNL d   1      -0.016   1.887   0.267  0.00  0.00    -0.732 N 
ATOM      8  C   UNL d   1       1.347   2.371   0.320  0.00  0.00     0.284 C 
ATOM      9  H3  UNL d   1      -0.610   2.388  -0.391  0.00  0.00     0.395 HD
ENDBRANCH   1   7
TORSDOF 1
ENDMDL
