MODEL 1
REMARK minimizedAffinity -2.39100051
REMARK minimizedRMSD -1
REMARK  1 active torsions:
REMARK  status: ('A' for Active; 'I' for Inactive)
REMARK    1  A    between atoms: N_2  and  C1_3 
ROOT
ATOM      1  C1  UNL d   1       0.267   1.159   0.384  0.00  0.00     0.143 A 
ATOM      2  C2  UNL d   1      -0.612   1.167   1.472  0.00  0.00    -0.057 A 
ATOM      3  C3  UNL d   1      -1.229  -0.009   1.916  0.00  0.00     0.033 A 
ATOM      4  C4  UNL d   1      -1.000  -1.213   1.258  0.00  0.00    -0.042 A 
ATOM      5  C5  UNL d   1      -0.150  -1.240   0.158  0.00  0.00     0.033 A 
ATOM      6  C6  UNL d   1       0.469  -0.064  -0.276  0.00  0.00    -0.057 A 
ENDROOT
BRANCH   1   7
ATOM      7  N   UNL d   1       0.835   2.310  -0.166  0.00  0.00    -0.732 N 
ATOM      8  C   UNL d   1       2.139   2.766   0.263  0.00  0.00     0.284 C 
ATOM      9  H3  UNL d   1       0.680   2.379  -1.169  0.00  0.00     0.395 HD
ENDBRANCH   1   7
TORSDOF 1
ENDMDL
