MODEL 1
REMARK minimizedAffinity 0.441536486
REMARK minimizedRMSD -1
REMARK  1 active torsions:
REMARK  status: ('A' for Active; 'I' for Inactive)
REMARK    1  A    between atoms: N_2  and  C1_3 
ROOT
ATOM      1  C1  UNL d   1      -0.239  -0.446  -0.174  0.00  0.00     0.143 A 
ATOM      2  C2  UNL d   1      -0.636  -1.751   0.139  0.00  0.00    -0.057 A 
ATOM      3  C3  UNL d   1      -1.407  -2.022   1.275  0.00  0.00     0.033 A 
ATOM      4  C4  UNL d   1      -1.773  -0.993   2.137  0.00  0.00    -0.042 A 
ATOM      5  C5  UNL d   1      -1.369   0.308   1.859  0.00  0.00     0.033 A 
ATOM      6  C6  UNL d   1      -0.604   0.573   0.719  0.00  0.00    -0.057 A 
ENDROOT
BRANCH   1   7
ATOM      7  N   UNL d   1       0.611  -0.125  -1.236  0.00  0.00    -0.732 N 
ATOM      8  C   UNL d   1       0.514  -0.829  -2.496  0.00  0.00     0.284 C 
ATOM      9  H3  UNL d   1       0.753   0.878  -1.330  0.00  0.00     0.395 HD
ENDBRANCH   1   7
TORSDOF 1
ENDMDL
