MODEL 1
REMARK minimizedAffinity -1.85934341
REMARK minimizedRMSD -1
REMARK  1 active torsions:
REMARK  status: ('A' for Active; 'I' for Inactive)
REMARK    1  A    between atoms: N_2  and  C1_3 
ROOT
ATOM      1  C1  UNL d   1      -0.492  -1.265  -0.124  0.00  0.00     0.143 A 
ATOM      2  C2  UNL d   1      -0.032  -1.418  -1.436  0.00  0.00    -0.057 A 
ATOM      3  C3  UNL d   1       0.410  -0.320  -2.184  0.00  0.00     0.033 A 
ATOM      4  C4  UNL d   1       0.371   0.960  -1.640  0.00  0.00    -0.042 A 
ATOM      5  C5  UNL d   1      -0.106   1.139  -0.347  0.00  0.00     0.033 A 
ATOM      6  C6  UNL d   1      -0.539   0.037   0.397  0.00  0.00    -0.057 A 
ENDROOT
BRANCH   1   7
ATOM      7  N   UNL d   1      -1.037  -2.303   0.635  0.00  0.00    -0.732 N 
ATOM      8  C   UNL d   1      -0.450  -3.626   0.605  0.00  0.00     0.284 C 
ATOM      9  H3  UNL d   1      -1.324  -1.997   1.562  0.00  0.00     0.395 HD
ENDBRANCH   1   7
TORSDOF 1
ENDMDL
