MODEL 1
REMARK minimizedAffinity -3.61664963
REMARK minimizedRMSD -1
REMARK  1 active torsions:
REMARK  status: ('A' for Active; 'I' for Inactive)
REMARK    1  A    between atoms: N_2  and  C1_3 
ROOT
ATOM      1  C1  UNL d   1       0.102  -1.773  -0.523  0.00  0.00     0.143 A 
ATOM      2  C2  UNL d   1      -0.018  -0.408  -0.804  0.00  0.00    -0.057 A 
ATOM      3  C3  UNL d   1      -0.692   0.456   0.067  0.00  0.00     0.033 A 
ATOM      4  C4  UNL d   1      -1.286  -0.037   1.224  0.00  0.00    -0.042 A 
ATOM      5  C5  UNL d   1      -1.201  -1.395   1.511  0.00  0.00     0.033 A 
ATOM      6  C6  UNL d   1      -0.520  -2.251   0.640  0.00  0.00    -0.057 A 
ENDROOT
BRANCH   1   7
ATOM      7  N   UNL d   1       0.675  -2.699  -1.398  0.00  0.00    -0.732 N 
ATOM      8  C   UNL d   1       0.219  -4.073  -1.419  0.00  0.00     0.284 C 
ATOM      9  H3  UNL d   1       0.852  -2.306  -2.319  0.00  0.00     0.395 HD
ENDBRANCH   1   7
TORSDOF 1
ENDMDL
