MODEL 1
REMARK minimizedAffinity -1.88656497
REMARK minimizedRMSD -1
REMARK  1 active torsions:
REMARK  status: ('A' for Active; 'I' for Inactive)
REMARK    1  A    between atoms: N_2  and  C1_3 
ROOT
ATOM      1  C1  UNL d   1      -0.265   0.408  -0.317  0.00  0.00     0.143 A 
ATOM      2  C2  UNL d   1       0.078  -0.761  -1.003  0.00  0.00    -0.057 A 
ATOM      3  C3  UNL d   1      -0.293  -2.022  -0.521  0.00  0.00     0.033 A 
ATOM      4  C4  UNL d   1      -0.992  -2.137   0.676  0.00  0.00    -0.042 A 
ATOM      5  C5  UNL d   1      -1.323  -0.989   1.388  0.00  0.00     0.033 A 
ATOM      6  C6  UNL d   1      -0.955   0.267   0.898  0.00  0.00    -0.057 A 
ENDROOT
BRANCH   1   7
ATOM      7  N   UNL d   1       0.160   1.685  -0.693  0.00  0.00    -0.732 N 
ATOM      8  C   UNL d   1       1.387   2.239  -0.164  0.00  0.00     0.284 C 
ATOM      9  H3  UNL d   1       0.016   1.866  -1.684  0.00  0.00     0.395 HD
ENDBRANCH   1   7
TORSDOF 1
ENDMDL
