MODEL 1
REMARK minimizedAffinity -4.67201662
REMARK minimizedRMSD -1
REMARK  1 active torsions:
REMARK  status: ('A' for Active; 'I' for Inactive)
REMARK    1  A    between atoms: N_2  and  C1_3 
ROOT
ATOM      1  C1  UNL d   1       0.489   0.465  -0.930  0.00  0.00     0.143 A 
ATOM      2  C2  UNL d   1       0.665  -0.920  -1.012  0.00  0.00    -0.057 A 
ATOM      3  C3  UNL d   1       0.012  -1.789  -0.130  0.00  0.00     0.033 A 
ATOM      4  C4  UNL d   1      -0.809  -1.284   0.873  0.00  0.00    -0.042 A 
ATOM      5  C5  UNL d   1      -0.979   0.091   0.990  0.00  0.00     0.033 A 
ATOM      6  C6  UNL d   1      -0.330   0.953   0.101  0.00  0.00    -0.057 A 
ENDROOT
BRANCH   1   7
ATOM      7  N   UNL d   1       1.187   1.386  -1.715  0.00  0.00    -0.732 N 
ATOM      8  C   UNL d   1       2.236   2.199  -1.140  0.00  0.00     0.284 C 
ATOM      9  H3  UNL d   1       1.402   1.023  -2.641  0.00  0.00     0.395 HD
ENDBRANCH   1   7
TORSDOF 1
ENDMDL
