MODEL 1
REMARK minimizedAffinity -1.57464862
REMARK minimizedRMSD -1
REMARK  1 active torsions:
REMARK  status: ('A' for Active; 'I' for Inactive)
REMARK    1  A    between atoms: N_2  and  C1_3 
ROOT
ATOM      1  C1  UNL d   1      -0.300   0.197   0.394  0.00  0.00     0.143 A 
ATOM      2  C2  UNL d   1       0.201   0.338  -0.905  0.00  0.00    -0.057 A 
ATOM      3  C3  UNL d   1       0.422  -0.776  -1.723  0.00  0.00     0.033 A 
ATOM      4  C4  UNL d   1       0.174  -2.059  -1.245  0.00  0.00    -0.042 A 
ATOM      5  C5  UNL d   1      -0.301  -2.225   0.052  0.00  0.00     0.033 A 
ATOM      6  C6  UNL d   1      -0.526  -1.107   0.862  0.00  0.00    -0.057 A 
ENDROOT
BRANCH   1   7
ATOM      7  N   UNL d   1      -0.448   1.258   1.290  0.00  0.00    -0.732 N 
ATOM      8  C   UNL d   1       0.273   2.497   1.091  0.00  0.00     0.284 C 
ATOM      9  H3  UNL d   1      -1.412   1.381   1.590  0.00  0.00     0.395 HD
ENDBRANCH   1   7
TORSDOF 1
ENDMDL
