MODEL 1
REMARK minimizedAffinity 0.992853284
REMARK minimizedRMSD -1
REMARK  1 active torsions:
REMARK  status: ('A' for Active; 'I' for Inactive)
REMARK    1  A    between atoms: N_2  and  C1_3 
ROOT
ATOM      1  C1  UNL d   1       0.174   1.609   0.730  0.00  0.00     0.143 A 
ATOM      2  C2  UNL d   1       0.703   1.116  -0.467  0.00  0.00    -0.057 A 
ATOM      3  C3  UNL d   1       0.533  -0.223  -0.839  0.00  0.00     0.033 A 
ATOM      4  C4  UNL d   1      -0.146  -1.103  -0.003  0.00  0.00    -0.042 A 
ATOM      5  C5  UNL d   1      -0.659  -0.641   1.204  0.00  0.00     0.033 A 
ATOM      6  C6  UNL d   1      -0.492   0.699   1.567  0.00  0.00    -0.057 A 
ENDROOT
BRANCH   1   7
ATOM      7  N   UNL d   1       0.393   2.905   1.202  0.00  0.00    -0.732 N 
ATOM      8  C   UNL d   1       1.708   3.505   1.127  0.00  0.00     0.284 C 
ATOM      9  H3  UNL d   1      -0.367   3.539   0.965  0.00  0.00     0.395 HD
ENDBRANCH   1   7
TORSDOF 1
ENDMDL
