MODEL 1
REMARK minimizedAffinity 1.14870429
REMARK minimizedRMSD -1
REMARK  1 active torsions:
REMARK  status: ('A' for Active; 'I' for Inactive)
REMARK    1  A    between atoms: N_2  and  C1_3 
ROOT
ATOM      1  C1  UNL d   1      -0.206   1.123  -0.444  0.00  0.00     0.143 A 
ATOM      2  C2  UNL d   1       0.021   1.147  -1.824  0.00  0.00    -0.057 A 
ATOM      3  C3  UNL d   1       0.290  -0.029  -2.536  0.00  0.00     0.033 A 
ATOM      4  C4  UNL d   1       0.366  -1.249  -1.872  0.00  0.00    -0.042 A 
ATOM      5  C5  UNL d   1       0.169  -1.292  -0.496  0.00  0.00     0.033 A 
ATOM      6  C6  UNL d   1      -0.106  -0.116   0.207  0.00  0.00    -0.057 A 
ENDROOT
BRANCH   1   7
ATOM      7  N   UNL d   1      -0.381   2.270   0.335  0.00  0.00    -0.732 N 
ATOM      8  C   UNL d   1       0.488   3.415   0.167  0.00  0.00     0.284 C 
ATOM      9  H3  UNL d   1      -1.362   2.508   0.461  0.00  0.00     0.395 HD
ENDBRANCH   1   7
TORSDOF 1
ENDMDL
