MODEL 1
REMARK minimizedAffinity -5.37133741
REMARK minimizedRMSD -1
REMARK  1 active torsions:
REMARK  status: ('A' for Active; 'I' for Inactive)
REMARK    1  A    between atoms: C1_2  and  C2_3 
ROOT
ATOM      1  C2  UNL d   1      -0.655  -1.486   0.179  0.00  0.00    -0.077 A 
ATOM      2  C3  UNL d   1      -0.907  -0.255   0.802  0.00  0.00     0.002 A 
ATOM      3  C4  UNL d   1      -0.543   0.940   0.179  0.00  0.00     0.002 A 
ATOM      4  C5  UNL d   1       0.071   0.916  -1.072  0.00  0.00    -0.004 A 
ATOM      5  C6  UNL d   1       0.328  -0.302  -1.699  0.00  0.00     0.002 A 
ATOM      6  C7  UNL d   1      -0.034  -1.498  -1.076  0.00  0.00     0.002 A 
ENDROOT
BRANCH   1   7
ATOM      7  C1  UNL d   1      -1.091  -2.773   0.828  0.00  0.00     0.055 C 
ATOM      8  C   UNL d   1      -0.275  -3.953   0.320  0.00  0.00     0.019 C 
ENDBRANCH   1   7
TORSDOF 1
ENDMDL
