MODEL 1
REMARK minimizedAffinity -4.82354403
REMARK minimizedRMSD -1
REMARK  1 active torsions:
REMARK  status: ('A' for Active; 'I' for Inactive)
REMARK    1  A    between atoms: C1_2  and  C2_3 
ROOT
ATOM      1  C2  UNL d   1       0.408   0.812   0.091  0.00  0.00    -0.077 A 
ATOM      2  C3  UNL d   1      -0.750   0.540   0.834  0.00  0.00     0.002 A 
ATOM      3  C4  UNL d   1      -1.093  -0.776   1.151  0.00  0.00     0.002 A 
ATOM      4  C5  UNL d   1      -0.282  -1.829   0.734  0.00  0.00    -0.004 A 
ATOM      5  C6  UNL d   1       0.870  -1.569  -0.007  0.00  0.00     0.002 A 
ATOM      6  C7  UNL d   1       1.214  -0.255  -0.326  0.00  0.00     0.002 A 
ENDROOT
BRANCH   1   7
ATOM      7  C1  UNL d   1       0.805   2.233  -0.209  0.00  0.00     0.055 C 
ATOM      8  C   UNL d   1       2.301   2.441  -0.022  0.00  0.00     0.019 C 
ENDBRANCH   1   7
TORSDOF 1
ENDMDL
