MODEL 1
REMARK minimizedAffinity -1.82947421
REMARK minimizedRMSD -1
REMARK  1 active torsions:
REMARK  status: ('A' for Active; 'I' for Inactive)
REMARK    1  A    between atoms: C1_2  and  C2_3 
ROOT
ATOM      1  C2  UNL d   1       1.365   1.461  -0.418  0.00  0.00    -0.077 A 
ATOM      2  C3  UNL d   1       0.380   2.434  -0.196  0.00  0.00     0.002 A 
ATOM      3  C4  UNL d   1       0.717   3.663   0.374  0.00  0.00     0.002 A 
ATOM      4  C5  UNL d   1       2.039   3.932   0.722  0.00  0.00    -0.004 A 
ATOM      5  C6  UNL d   1       3.025   2.970   0.508  0.00  0.00     0.002 A 
ATOM      6  C7  UNL d   1       2.690   1.740  -0.060  0.00  0.00     0.002 A 
ENDROOT
BRANCH   1   7
ATOM      7  C1  UNL d   1       1.011   0.153  -1.077  0.00  0.00     0.055 C 
ATOM      8  C   UNL d   1       1.076  -1.001  -0.088  0.00  0.00     0.019 C 
ENDBRANCH   1   7
TORSDOF 1
ENDMDL
