MODEL 1
REMARK minimizedAffinity -5.30491161
REMARK minimizedRMSD -1
REMARK  1 active torsions:
REMARK  status: ('A' for Active; 'I' for Inactive)
REMARK    1  A    between atoms: C1_2  and  C2_3 
ROOT
ATOM      1  C2  UNL d   1      -0.127  -0.122   0.115  0.00  0.00    -0.077 A 
ATOM      2  C3  UNL d   1       0.688  -0.954  -0.666  0.00  0.00     0.002 A 
ATOM      3  C4  UNL d   1       0.678  -2.336  -0.471  0.00  0.00     0.002 A 
ATOM      4  C5  UNL d   1      -0.147  -2.899   0.500  0.00  0.00    -0.004 A 
ATOM      5  C6  UNL d   1      -0.960  -2.079   1.283  0.00  0.00     0.002 A 
ATOM      6  C7  UNL d   1      -0.950  -0.697   1.091  0.00  0.00     0.002 A 
ENDROOT
BRANCH   1   7
ATOM      7  C1  UNL d   1      -0.154   1.365  -0.127  0.00  0.00     0.055 C 
ATOM      8  C   UNL d   1       1.227   1.980   0.049  0.00  0.00     0.019 C 
ENDBRANCH   1   7
TORSDOF 1
ENDMDL
