MODEL 1
REMARK minimizedAffinity -4.4682579
REMARK minimizedRMSD -1
REMARK  1 active torsions:
REMARK  status: ('A' for Active; 'I' for Inactive)
REMARK    1  A    between atoms: C1_2  and  C2_3 
ROOT
ATOM      1  C2  UNL d   1      -0.024  -0.223  -0.468  0.00  0.00    -0.077 A 
ATOM      2  C3  UNL d   1       0.421  -1.313  -1.229  0.00  0.00     0.002 A 
ATOM      3  C4  UNL d   1       0.295  -2.614  -0.739  0.00  0.00     0.002 A 
ATOM      4  C5  UNL d   1      -0.278  -2.838   0.511  0.00  0.00    -0.004 A 
ATOM      5  C6  UNL d   1      -0.722  -1.760   1.277  0.00  0.00     0.002 A 
ATOM      6  C7  UNL d   1      -0.596  -0.458   0.789  0.00  0.00     0.002 A 
ENDROOT
BRANCH   1   7
ATOM      7  C1  UNL d   1       0.066   1.178  -1.015  0.00  0.00     0.055 C 
ATOM      8  C   UNL d   1       0.876   2.081  -0.097  0.00  0.00     0.019 C 
ENDBRANCH   1   7
TORSDOF 1
ENDMDL
