MODEL 1
REMARK minimizedAffinity -4.5830555
REMARK minimizedRMSD -1
REMARK  1 active torsions:
REMARK  status: ('A' for Active; 'I' for Inactive)
REMARK    1  A    between atoms: C1_2  and  C2_3 
ROOT
ATOM      1  C2  UNL d   1       0.374  -1.327  -0.024  0.00  0.00    -0.077 A 
ATOM      2  C3  UNL d   1      -0.125  -0.135   0.519  0.00  0.00     0.002 A 
ATOM      3  C4  UNL d   1      -0.548   0.900  -0.318  0.00  0.00     0.002 A 
ATOM      4  C5  UNL d   1      -0.478   0.752  -1.701  0.00  0.00    -0.004 A 
ATOM      5  C6  UNL d   1       0.019  -0.429  -2.251  0.00  0.00     0.002 A 
ATOM      6  C7  UNL d   1       0.443  -1.464  -1.417  0.00  0.00     0.002 A 
ENDROOT
BRANCH   1   7
ATOM      7  C1  UNL d   1       0.784  -2.464   0.876  0.00  0.00     0.055 C 
ATOM      8  C   UNL d   1       0.126  -3.769   0.454  0.00  0.00     0.019 C 
ENDBRANCH   1   7
TORSDOF 1
ENDMDL
