MODEL 1
REMARK minimizedAffinity -3.44203496
REMARK minimizedRMSD -1
REMARK  1 active torsions:
REMARK  status: ('A' for Active; 'I' for Inactive)
REMARK    1  A    between atoms: C1_2  and  C2_3 
ROOT
ATOM      1  C2  UNL d   1       0.433  -1.333   0.473  0.00  0.00    -0.077 A 
ATOM      2  C3  UNL d   1      -0.539  -0.742   1.293  0.00  0.00     0.002 A 
ATOM      3  C4  UNL d   1      -0.995   0.550   1.029  0.00  0.00     0.002 A 
ATOM      4  C5  UNL d   1      -0.489   1.262  -0.056  0.00  0.00    -0.004 A 
ATOM      5  C6  UNL d   1       0.479   0.684  -0.877  0.00  0.00     0.002 A 
ATOM      6  C7  UNL d   1       0.937  -0.608  -0.614  0.00  0.00     0.002 A 
ENDROOT
BRANCH   1   7
ATOM      7  C1  UNL d   1       0.890  -2.745   0.727  0.00  0.00     0.055 C 
ATOM      8  C   UNL d   1      -0.191  -3.752   0.359  0.00  0.00     0.019 C 
ENDBRANCH   1   7
TORSDOF 1
ENDMDL
