MODEL 1
REMARK minimizedAffinity -4.17256069
REMARK minimizedRMSD -1
REMARK  1 active torsions:
REMARK  status: ('A' for Active; 'I' for Inactive)
REMARK    1  A    between atoms: C1_2  and  C2_3 
ROOT
ATOM      1  C2  UNL d   1      -0.218   0.096   0.049  0.00  0.00    -0.077 A 
ATOM      2  C3  UNL d   1       0.252  -1.003  -0.683  0.00  0.00     0.002 A 
ATOM      3  C4  UNL d   1       0.133  -2.296  -0.170  0.00  0.00     0.002 A 
ATOM      4  C5  UNL d   1      -0.460  -2.502   1.074  0.00  0.00    -0.004 A 
ATOM      5  C6  UNL d   1      -0.930  -1.415   1.810  0.00  0.00     0.002 A 
ATOM      6  C7  UNL d   1      -0.810  -0.122   1.299  0.00  0.00     0.002 A 
ENDROOT
BRANCH   1   7
ATOM      7  C1  UNL d   1      -0.135   1.487  -0.525  0.00  0.00     0.055 C 
ATOM      8  C   UNL d   1       0.880   2.336   0.226  0.00  0.00     0.019 C 
ENDBRANCH   1   7
TORSDOF 1
ENDMDL
