MODEL 1
REMARK minimizedAffinity -4.33037186
REMARK minimizedRMSD -1
REMARK  1 active torsions:
REMARK  status: ('A' for Active; 'I' for Inactive)
REMARK    1  A    between atoms: C1_2  and  C2_3 
ROOT
ATOM      1  C2  UNL d   1      -0.197   1.241   0.027  0.00  0.00    -0.077 A 
ATOM      2  C3  UNL d   1      -1.199   0.861   0.930  0.00  0.00     0.002 A 
ATOM      3  C4  UNL d   1      -1.410  -0.487   1.225  0.00  0.00     0.002 A 
ATOM      4  C5  UNL d   1      -0.620  -1.465   0.624  0.00  0.00    -0.004 A 
ATOM      5  C6  UNL d   1       0.378  -1.097  -0.277  0.00  0.00     0.002 A 
ATOM      6  C7  UNL d   1       0.589   0.250  -0.574  0.00  0.00     0.002 A 
ENDROOT
BRANCH   1   7
ATOM      7  C1  UNL d   1       0.065   2.698  -0.255  0.00  0.00     0.055 C 
ATOM      8  C   UNL d   1       1.516   3.063   0.019  0.00  0.00     0.019 C 
ENDBRANCH   1   7
TORSDOF 1
ENDMDL
