MODEL 1
REMARK minimizedAffinity -2.82463717
REMARK minimizedRMSD -1
REMARK  1 active torsions:
REMARK  status: ('A' for Active; 'I' for Inactive)
REMARK    1  A    between atoms: C1_2  and  C2_3 
ROOT
ATOM      1  C2  UNL d   1      -0.004   0.463   0.432  0.00  0.00    -0.077 A 
ATOM      2  C3  UNL d   1      -0.791  -0.305   1.301  0.00  0.00     0.002 A 
ATOM      3  C4  UNL d   1      -0.933  -1.679   1.097  0.00  0.00     0.002 A 
ATOM      4  C5  UNL d   1      -0.289  -2.297   0.028  0.00  0.00    -0.004 A 
ATOM      5  C6  UNL d   1       0.494  -1.541  -0.844  0.00  0.00     0.002 A 
ATOM      6  C7  UNL d   1       0.637  -0.168  -0.642  0.00  0.00     0.002 A 
ENDROOT
BRANCH   1   7
ATOM      7  C1  UNL d   1       0.191   1.936   0.679  0.00  0.00     0.055 C 
ATOM      8  C   UNL d   1       1.663   2.316   0.626  0.00  0.00     0.019 C 
ENDBRANCH   1   7
TORSDOF 1
ENDMDL
