MODEL 1
REMARK minimizedAffinity -4.9376874
REMARK minimizedRMSD -1
REMARK  1 active torsions:
REMARK  status: ('A' for Active; 'I' for Inactive)
REMARK    1  A    between atoms: C1_2  and  C2_3 
ROOT
ATOM      1  C2  UNL d   1      -0.220   0.371  -0.166  0.00  0.00    -0.077 A 
ATOM      2  C3  UNL d   1      -1.170   0.270   0.860  0.00  0.00     0.002 A 
ATOM      3  C4  UNL d   1      -1.389  -0.951   1.501  0.00  0.00     0.002 A 
ATOM      4  C5  UNL d   1      -0.659  -2.077   1.127  0.00  0.00    -0.004 A 
ATOM      5  C6  UNL d   1       0.286  -1.987   0.106  0.00  0.00     0.002 A 
ATOM      6  C7  UNL d   1       0.505  -0.768  -0.537  0.00  0.00     0.002 A 
ENDROOT
BRANCH   1   7
ATOM      7  C1  UNL d   1       0.052   1.698  -0.826  0.00  0.00     0.055 C 
ATOM      8  C   UNL d   1       1.173   2.447  -0.120  0.00  0.00     0.019 C 
ENDBRANCH   1   7
TORSDOF 1
ENDMDL
