MODEL 1
REMARK minimizedAffinity -2.28252029
REMARK minimizedRMSD -1
REMARK  1 active torsions:
REMARK  status: ('A' for Active; 'I' for Inactive)
REMARK    1  A    between atoms: C1_2  and  C2_3 
ROOT
ATOM      1  C2  UNL d   1       0.200  -0.130   0.953  0.00  0.00    -0.077 A 
ATOM      2  C3  UNL d   1       0.766  -1.107   0.122  0.00  0.00     0.002 A 
ATOM      3  C4  UNL d   1       0.173  -2.365   0.005  0.00  0.00     0.002 A 
ATOM      4  C5  UNL d   1      -0.991  -2.657   0.712  0.00  0.00    -0.004 A 
ATOM      5  C6  UNL d   1      -1.561  -1.693   1.544  0.00  0.00     0.002 A 
ATOM      6  C7  UNL d   1      -0.968  -0.435   1.663  0.00  0.00     0.002 A 
ENDROOT
BRANCH   1   7
ATOM      7  C1  UNL d   1       0.811   1.244   1.043  0.00  0.00     0.055 C 
ATOM      8  C   UNL d   1       0.552   2.049  -0.223  0.00  0.00     0.019 C 
ENDBRANCH   1   7
TORSDOF 1
ENDMDL
