MODEL 1
REMARK minimizedAffinity 16.9127674
REMARK minimizedRMSD -1
REMARK  0 active torsions:
REMARK  status: ('A' for Active; 'I' for Inactive)
ROOT
ATOM      1  C4' PXY d   1       2.072  -2.322  -2.305  0.00  0.00     0.077 C 
ATOM      2  C1' PXY d   1       3.410   2.003   1.289  0.00  0.00     0.077 C 
ATOM      3  C1  PXY d   1       3.062   0.860   0.356  0.00  0.00    -0.082 A 
ATOM      4  C2  PXY d   1       3.055   1.063  -0.951  0.00  0.00     0.003 A 
ATOM      5  C3  PXY d   1       2.712   0.049  -1.808  0.00  0.00     0.003 A 
ATOM      6  C4  PXY d   1       2.426  -1.200  -1.325  0.00  0.00    -0.082 A 
ATOM      7  C5  PXY d   1       2.441  -1.417   0.007  0.00  0.00     0.003 A 
ATOM      8  C6  PXY d   1       2.752  -0.364   0.862  0.00  0.00     0.003 A 
ENDROOT
TORSDOF 0
ENDMDL
