MODEL 1
REMARK minimizedAffinity 14.534914
REMARK minimizedRMSD -1
REMARK  0 active torsions:
REMARK  status: ('A' for Active; 'I' for Inactive)
ROOT
ATOM      1  C4' PXY d   1       6.000  -1.327   1.878  0.00  0.00     0.077 C 
ATOM      2  C1' PXY d   1       4.985   4.140   3.459  0.00  0.00     0.077 C 
ATOM      3  C1  PXY d   1       5.243   2.708   3.034  0.00  0.00    -0.082 A 
ATOM      4  C2  PXY d   1       5.731   1.844   3.910  0.00  0.00     0.003 A 
ATOM      5  C3  PXY d   1       6.000   0.553   3.534  0.00  0.00     0.003 A 
ATOM      6  C4  PXY d   1       5.716   0.128   2.264  0.00  0.00    -0.082 A 
ATOM      7  C5  PXY d   1       5.207   1.000   1.369  0.00  0.00     0.003 A 
ATOM      8  C6  PXY d   1       4.980   2.317   1.758  0.00  0.00     0.003 A 
ENDROOT
TORSDOF 0
ENDMDL
