MODEL 1
REMARK minimizedAffinity 9.64188576
REMARK minimizedRMSD -1
REMARK  0 active torsions:
REMARK  status: ('A' for Active; 'I' for Inactive)
ROOT
ATOM      1  C4' PXY d   1       4.360   1.866  -1.169  0.00  0.00     0.077 C 
ATOM      2  C1' PXY d   1       1.807  -2.592   1.482  0.00  0.00     0.077 C 
ATOM      3  C1  PXY d   1       2.472  -1.427   0.775  0.00  0.00    -0.082 A 
ATOM      4  C2  PXY d   1       3.511  -0.829   1.335  0.00  0.00     0.003 A 
ATOM      5  C3  PXY d   1       4.104   0.246   0.725  0.00  0.00     0.003 A 
ATOM      6  C4  PXY d   1       3.663   0.680  -0.496  0.00  0.00    -0.082 A 
ATOM      7  C5  PXY d   1       2.611   0.068  -1.079  0.00  0.00     0.003 A 
ATOM      8  C6  PXY d   1       1.996  -0.995  -0.424  0.00  0.00     0.003 A 
ENDROOT
TORSDOF 0
ENDMDL
