MODEL 1
REMARK minimizedAffinity 4.64277029
REMARK minimizedRMSD -1
REMARK  0 active torsions:
REMARK  status: ('A' for Active; 'I' for Inactive)
ROOT
ATOM      1  C4' PXY d   1       6.000  -0.779   2.325  0.00  0.00     0.077 C 
ATOM      2  C1' PXY d   1       1.537   0.634  -1.067  0.00  0.00     0.077 C 
ATOM      3  C1  PXY d   1       2.699   0.255  -0.170  0.00  0.00    -0.082 A 
ATOM      4  C2  PXY d   1       3.709   1.097  -0.018  0.00  0.00     0.003 A 
ATOM      5  C3  PXY d   1       4.783   0.757   0.763  0.00  0.00     0.003 A 
ATOM      6  C4  PXY d   1       4.800  -0.435   1.438  0.00  0.00    -0.082 A 
ATOM      7  C5  PXY d   1       3.769  -1.294   1.296  0.00  0.00     0.003 A 
ATOM      8  C6  PXY d   1       2.707  -0.948   0.465  0.00  0.00     0.003 A 
ENDROOT
TORSDOF 0
ENDMDL
