MODEL 1
REMARK minimizedAffinity 9.90089512
REMARK minimizedRMSD -1
REMARK  0 active torsions:
REMARK  status: ('A' for Active; 'I' for Inactive)
ROOT
ATOM      1  C4' PXY d   1       3.464   2.550   1.915  0.00  0.00     0.077 C 
ATOM      2  C1' PXY d   1       2.205  -1.829  -1.642  0.00  0.00     0.077 C 
ATOM      3  C1  PXY d   1       2.531  -0.672  -0.718  0.00  0.00    -0.082 A 
ATOM      4  C2  PXY d   1       3.431  -0.833   0.238  0.00  0.00     0.003 A 
ATOM      5  C3  PXY d   1       3.714   0.193   1.103  0.00  0.00     0.003 A 
ATOM      6  C4  PXY d   1       3.110   1.413   0.953  0.00  0.00    -0.082 A 
ATOM      7  C5  PXY d   1       2.198   1.587  -0.027  0.00  0.00     0.003 A 
ATOM      8  C6  PXY d   1       1.894   0.521  -0.868  0.00  0.00     0.003 A 
ENDROOT
TORSDOF 0
ENDMDL
