MODEL 1
REMARK minimizedAffinity 5.29597282
REMARK minimizedRMSD -1
REMARK  0 active torsions:
REMARK  status: ('A' for Active; 'I' for Inactive)
ROOT
ATOM      1  C4' PXY d   1       4.295   2.883  -2.129  0.00  0.00     0.077 C 
ATOM      2  C1' PXY d   1       2.657  -1.407   1.383  0.00  0.00     0.077 C 
ATOM      3  C1  PXY d   1       3.082  -0.289   0.452  0.00  0.00    -0.082 A 
ATOM      4  C2  PXY d   1       4.074   0.513   0.803  0.00  0.00     0.003 A 
ATOM      5  C3  PXY d   1       4.449   1.550  -0.013  0.00  0.00     0.003 A 
ATOM      6  C4  PXY d   1       3.838   1.734  -1.224  0.00  0.00    -0.082 A 
ATOM      7  C5  PXY d   1       2.832   0.914  -1.594  0.00  0.00     0.003 A 
ATOM      8  C6  PXY d   1       2.439  -0.107  -0.734  0.00  0.00     0.003 A 
ENDROOT
TORSDOF 0
ENDMDL
