MODEL 1
REMARK minimizedAffinity 6.77639151
REMARK minimizedRMSD -1
REMARK  0 active torsions:
REMARK  status: ('A' for Active; 'I' for Inactive)
ROOT
ATOM      1  C4' PXY d   1       2.960  -2.074   1.744  0.00  0.00     0.077 C 
ATOM      2  C1' PXY d   1       4.204   2.060  -2.100  0.00  0.00     0.077 C 
ATOM      3  C1  PXY d   1       3.889   0.977  -1.087  0.00  0.00    -0.082 A 
ATOM      4  C2  PXY d   1       2.969   0.068  -1.365  0.00  0.00     0.003 A 
ATOM      5  C3  PXY d   1       2.650  -0.899  -0.447  0.00  0.00     0.003 A 
ATOM      6  C4  PXY d   1       3.317  -0.968   0.747  0.00  0.00    -0.082 A 
ATOM      7  C5  PXY d   1       4.264  -0.051   1.034  0.00  0.00     0.003 A 
ATOM      8  C6  PXY d   1       4.545   0.948   0.105  0.00  0.00     0.003 A 
ENDROOT
TORSDOF 0
ENDMDL
