MODEL 1
REMARK minimizedAffinity 10.536829
REMARK minimizedRMSD -1
REMARK  0 active torsions:
REMARK  status: ('A' for Active; 'I' for Inactive)
ROOT
ATOM      1  C4' PXY d   1      -4.426   4.811   3.153  0.00  0.00     0.077 C 
ATOM      2  C1' PXY d   1      -3.949   0.825  -1.006  0.00  0.00     0.077 C 
ATOM      3  C1  PXY d   1      -4.070   1.880   0.077  0.00  0.00    -0.082 A 
ATOM      4  C2  PXY d   1      -4.050   1.516   1.349  0.00  0.00     0.003 A 
ATOM      5  C3  PXY d   1      -4.190   2.454   2.340  0.00  0.00     0.003 A 
ATOM      6  C4  PXY d   1      -4.298   3.782   2.027  0.00  0.00    -0.082 A 
ATOM      7  C5  PXY d   1      -4.309   4.162   0.732  0.00  0.00     0.003 A 
ATOM      8  C6  PXY d   1      -4.207   3.191  -0.260  0.00  0.00     0.003 A 
ENDROOT
TORSDOF 0
ENDMDL
