MODEL 1
REMARK minimizedAffinity 12.5817957
REMARK minimizedRMSD -1
REMARK  0 active torsions:
REMARK  status: ('A' for Active; 'I' for Inactive)
ROOT
ATOM      1  C4' PXY d   1       2.065  -1.914  -1.959  0.00  0.00     0.077 C 
ATOM      2  C1' PXY d   1       3.247   2.478   1.610  0.00  0.00     0.077 C 
ATOM      3  C1  PXY d   1       2.944   1.318   0.681  0.00  0.00    -0.082 A 
ATOM      4  C2  PXY d   1       2.622   1.556  -0.580  0.00  0.00     0.003 A 
ATOM      5  C3  PXY d   1       2.314   0.521  -1.425  0.00  0.00     0.003 A 
ATOM      6  C4  PXY d   1       2.388  -0.774  -0.988  0.00  0.00    -0.082 A 
ATOM      7  C5  PXY d   1       2.725  -1.026   0.294  0.00  0.00     0.003 A 
ATOM      8  C6  PXY d   1       2.994   0.040   1.147  0.00  0.00     0.003 A 
ENDROOT
TORSDOF 0
ENDMDL
