MODEL 1
REMARK minimizedAffinity 11.752202
REMARK minimizedRMSD -1
REMARK  0 active torsions:
REMARK  status: ('A' for Active; 'I' for Inactive)
ROOT
ATOM      1  C4' PXY d   1      -5.999   4.996  -3.494  0.00  0.00     0.077 C 
ATOM      2  C1' PXY d   1      -4.599   0.400  -0.279  0.00  0.00     0.077 C 
ATOM      3  C1  PXY d   1      -4.965   1.613  -1.112  0.00  0.00    -0.082 A 
ATOM      4  C2  PXY d   1      -5.687   1.459  -2.210  0.00  0.00     0.003 A 
ATOM      5  C3  PXY d   1      -6.000   2.542  -2.992  0.00  0.00     0.003 A 
ATOM      6  C4  PXY d   1      -5.614   3.801  -2.617  0.00  0.00    -0.082 A 
ATOM      7  C5  PXY d   1      -4.886   3.967  -1.493  0.00  0.00     0.003 A 
ATOM      8  C6  PXY d   1      -4.544   2.851  -0.735  0.00  0.00     0.003 A 
ENDROOT
TORSDOF 0
ENDMDL
