MODEL 1
REMARK minimizedAffinity 2.79001236
REMARK minimizedRMSD -1
REMARK  0 active torsions:
REMARK  status: ('A' for Active; 'I' for Inactive)
ROOT
ATOM      1  C4' PXY d   1      -4.002  -4.115  -1.237  0.00  0.00     0.077 C 
ATOM      2  C1' PXY d   1       0.203  -0.384   0.108  0.00  0.00     0.077 C 
ATOM      3  C1  PXY d   1      -0.892  -1.367  -0.254  0.00  0.00    -0.082 A 
ATOM      4  C2  PXY d   1      -2.143  -1.110   0.092  0.00  0.00     0.003 A 
ATOM      5  C3  PXY d   1      -3.141  -2.003  -0.200  0.00  0.00     0.003 A 
ATOM      6  C4  PXY d   1      -2.865  -3.147  -0.900  0.00  0.00    -0.082 A 
ATOM      7  C5  PXY d   1      -1.593  -3.411  -1.267  0.00  0.00     0.003 A 
ATOM      8  C6  PXY d   1      -0.587  -2.511  -0.925  0.00  0.00     0.003 A 
ENDROOT
TORSDOF 0
ENDMDL
