MODEL 1
REMARK minimizedAffinity -1.58648074
REMARK minimizedRMSD -1
REMARK  0 active torsions:
REMARK  status: ('A' for Active; 'I' for Inactive)
ROOT
ATOM      1  C4' PXY d   1      -4.903  -3.021  -1.501  0.00  0.00     0.077 C 
ATOM      2  C1' PXY d   1       0.067  -0.509   0.050  0.00  0.00     0.077 C 
ATOM      3  C1  PXY d   1      -1.229  -1.176  -0.364  0.00  0.00    -0.082 A 
ATOM      4  C2  PXY d   1      -2.359  -0.488  -0.331  0.00  0.00     0.003 A 
ATOM      5  C3  PXY d   1      -3.545  -1.085  -0.671  0.00  0.00     0.003 A 
ATOM      6  C4  PXY d   1      -3.568  -2.385  -1.101  0.00  0.00    -0.082 A 
ATOM      7  C5  PXY d   1      -2.419  -3.091  -1.148  0.00  0.00     0.003 A 
ATOM      8  C6  PXY d   1      -1.231  -2.478  -0.759  0.00  0.00     0.003 A 
ENDROOT
TORSDOF 0
ENDMDL
