MODEL 1
REMARK minimizedAffinity 3.14346766
REMARK minimizedRMSD -1
REMARK  0 active torsions:
REMARK  status: ('A' for Active; 'I' for Inactive)
ROOT
ATOM      1  C4' PXY d   1       0.382  -2.246  -2.043  0.00  0.00     0.077 C 
ATOM      2  C1' PXY d   1       0.076   1.137   2.634  0.00  0.00     0.077 C 
ATOM      3  C1  PXY d   1       0.168   0.253   1.406  0.00  0.00    -0.082 A 
ATOM      4  C2  PXY d   1      -0.927  -0.029   0.719  0.00  0.00     0.003 A 
ATOM      5  C3  PXY d   1      -0.866  -0.853  -0.376  0.00  0.00     0.003 A 
ATOM      6  C4  PXY d   1       0.337  -1.350  -0.802  0.00  0.00    -0.082 A 
ATOM      7  C5  PXY d   1       1.460  -1.058  -0.113  0.00  0.00     0.003 A 
ATOM      8  C6  PXY d   1       1.371  -0.254   1.019  0.00  0.00     0.003 A 
ENDROOT
TORSDOF 0
ENDMDL
