MODEL 1
REMARK minimizedAffinity -4.78493834
REMARK minimizedRMSD -1
REMARK  0 active torsions:
REMARK  status: ('A' for Active; 'I' for Inactive)
ROOT
ATOM      1  C4' PXY d   1      -3.342  -1.119  -0.379  0.00  0.00     0.077 C 
ATOM      2  C1' PXY d   1       1.254   1.189   2.261  0.00  0.00     0.077 C 
ATOM      3  C1  PXY d   1       0.043   0.581   1.581  0.00  0.00    -0.082 A 
ATOM      4  C2  PXY d   1       0.169   0.049   0.376  0.00  0.00     0.003 A 
ATOM      5  C3  PXY d   1      -0.923  -0.476  -0.267  0.00  0.00     0.003 A 
ATOM      6  C4  PXY d   1      -2.144  -0.503   0.350  0.00  0.00    -0.082 A 
ATOM      7  C5  PXY d   1      -2.278   0.029   1.584  0.00  0.00     0.003 A 
ATOM      8  C6  PXY d   1      -1.167   0.593   2.203  0.00  0.00     0.003 A 
ENDROOT
TORSDOF 0
ENDMDL
