MODEL 1
REMARK minimizedAffinity -3.64836097
REMARK minimizedRMSD -1
REMARK  0 active torsions:
REMARK  status: ('A' for Active; 'I' for Inactive)
ROOT
ATOM      1  C4' PXY d   1       1.508   0.118   2.459  0.00  0.00     0.077 C 
ATOM      2  C1' PXY d   1       1.221   0.382  -3.308  0.00  0.00     0.077 C 
ATOM      3  C1  PXY d   1       1.296   0.300  -1.796  0.00  0.00    -0.082 A 
ATOM      4  C2  PXY d   1       0.890   1.325  -1.064  0.00  0.00     0.003 A 
ATOM      5  C3  PXY d   1       0.981   1.280   0.303  0.00  0.00     0.003 A 
ATOM      6  C4  PXY d   1       1.442   0.153   0.930  0.00  0.00    -0.082 A 
ATOM      7  C5  PXY d   1       1.848  -0.901   0.191  0.00  0.00     0.003 A 
ATOM      8  C6  PXY d   1       1.786  -0.820  -1.197  0.00  0.00     0.003 A 
ENDROOT
TORSDOF 0
ENDMDL
