MODEL 1
REMARK minimizedAffinity 2.31528592
REMARK minimizedRMSD -1
REMARK  0 active torsions:
REMARK  status: ('A' for Active; 'I' for Inactive)
ROOT
ATOM      1  C4' PXY d   1       0.574   0.371  -2.193  0.00  0.00     0.077 C 
ATOM      2  C1' PXY d   1      -0.883   0.008   3.389  0.00  0.00     0.077 C 
ATOM      3  C1  PXY d   1      -0.511   0.095   1.923  0.00  0.00    -0.082 A 
ATOM      4  C2  PXY d   1       0.728   0.410   1.580  0.00  0.00     0.003 A 
ATOM      5  C3  PXY d   1       1.073   0.525   0.258  0.00  0.00     0.003 A 
ATOM      6  C4  PXY d   1       0.156   0.262  -0.724  0.00  0.00    -0.082 A 
ATOM      7  C5  PXY d   1      -1.107  -0.071  -0.382  0.00  0.00     0.003 A 
ATOM      8  C6  PXY d   1      -1.449  -0.142   0.965  0.00  0.00     0.003 A 
ENDROOT
TORSDOF 0
ENDMDL
