MODEL 1
REMARK minimizedAffinity -3.39738417
REMARK minimizedRMSD -1
REMARK  0 active torsions:
REMARK  status: ('A' for Active; 'I' for Inactive)
ROOT
ATOM      1  C4' PXY d   1       2.836   0.844  -3.256  0.00  0.00     0.077 C 
ATOM      2  C1' PXY d   1      -2.205  -0.441  -5.776  0.00  0.00     0.077 C 
ATOM      3  C1  PXY d   1      -0.879  -0.099  -5.126  0.00  0.00    -0.082 A 
ATOM      4  C2  PXY d   1      -0.460  -0.799  -4.085  0.00  0.00     0.003 A 
ATOM      5  C3  PXY d   1       0.722  -0.483  -3.465  0.00  0.00     0.003 A 
ATOM      6  C4  PXY d   1       1.508   0.528  -3.950  0.00  0.00    -0.082 A 
ATOM      7  C5  PXY d   1       1.093   1.240  -5.018  0.00  0.00     0.003 A 
ATOM      8  C6  PXY d   1      -0.129   0.930  -5.607  0.00  0.00     0.003 A 
ENDROOT
TORSDOF 0
ENDMDL
