MODEL 1
REMARK minimizedAffinity -3.23478937
REMARK minimizedRMSD -1
REMARK  0 active torsions:
REMARK  status: ('A' for Active; 'I' for Inactive)
ROOT
ATOM      1  C4' PXY d   1       3.138  -1.882  -2.907  0.00  0.00     0.077 C 
ATOM      2  C1' PXY d   1       1.579   1.918   1.161  0.00  0.00     0.077 C 
ATOM      3  C1  PXY d   1       1.994   0.931   0.088  0.00  0.00    -0.082 A 
ATOM      4  C2  PXY d   1       1.275  -0.162  -0.109  0.00  0.00     0.003 A 
ATOM      5  C3  PXY d   1       1.654  -1.081  -1.054  0.00  0.00     0.003 A 
ATOM      6  C4  PXY d   1       2.751  -0.853  -1.841  0.00  0.00    -0.082 A 
ATOM      7  C5  PXY d   1       3.484   0.265  -1.653  0.00  0.00     0.003 A 
ATOM      8  C6  PXY d   1       3.105   1.165  -0.661  0.00  0.00     0.003 A 
ENDROOT
TORSDOF 0
ENDMDL
