MODEL 1
REMARK minimizedAffinity 3.50142908
REMARK minimizedRMSD -1
REMARK  0 active torsions:
REMARK  status: ('A' for Active; 'I' for Inactive)
ROOT
ATOM      1  C4' PXY d   1       0.727  -1.096  -0.316  0.00  0.00     0.077 C 
ATOM      2  C1' PXY d   1       4.854   2.705  -1.709  0.00  0.00     0.077 C 
ATOM      3  C1  PXY d   1       3.769   1.707  -1.356  0.00  0.00    -0.082 A 
ATOM      4  C2  PXY d   1       3.207   1.747  -0.159  0.00  0.00     0.003 A 
ATOM      5  C3  PXY d   1       2.247   0.831   0.188  0.00  0.00     0.003 A 
ATOM      6  C4  PXY d   1       1.820  -0.102  -0.718  0.00  0.00    -0.082 A 
ATOM      7  C5  PXY d   1       2.380  -0.142  -1.946  0.00  0.00     0.003 A 
ATOM      8  C6  PXY d   1       3.382   0.770  -2.264  0.00  0.00     0.003 A 
ENDROOT
TORSDOF 0
ENDMDL
