MODEL 1
REMARK minimizedAffinity 2.48114371
REMARK minimizedRMSD -1
REMARK  0 active torsions:
REMARK  status: ('A' for Active; 'I' for Inactive)
ROOT
ATOM      1  C4' PXY d   1       1.183  -2.082  -1.192  0.00  0.00     0.077 C 
ATOM      2  C1' PXY d   1       4.740   2.437  -1.776  0.00  0.00     0.077 C 
ATOM      3  C1  PXY d   1       3.806   1.251  -1.636  0.00  0.00    -0.082 A 
ATOM      4  C2  PXY d   1       3.128   1.081  -0.512  0.00  0.00     0.003 A 
ATOM      5  C3  PXY d   1       2.304  -0.003  -0.356  0.00  0.00     0.003 A 
ATOM      6  C4  PXY d   1       2.130  -0.894  -1.381  0.00  0.00    -0.082 A 
ATOM      7  C5  PXY d   1       2.810  -0.722  -2.535  0.00  0.00     0.003 A 
ATOM      8  C6  PXY d   1       3.674   0.363  -2.658  0.00  0.00     0.003 A 
ENDROOT
TORSDOF 0
ENDMDL
