MODEL 1
REMARK minimizedAffinity 4.32000017
REMARK minimizedRMSD -1
REMARK  0 active torsions:
REMARK  status: ('A' for Active; 'I' for Inactive)
ROOT
ATOM      1  C4' PXY d   1       1.852  -1.058  -0.095  0.00  0.00     0.077 C 
ATOM      2  C1' PXY d   1       5.689   2.967  -1.672  0.00  0.00     0.077 C 
ATOM      3  C1  PXY d   1       4.673   1.920  -1.261  0.00  0.00    -0.082 A 
ATOM      4  C2  PXY d   1       5.029   0.953  -0.431  0.00  0.00     0.003 A 
ATOM      5  C3  PXY d   1       4.132  -0.021  -0.074  0.00  0.00     0.003 A 
ATOM      6  C4  PXY d   1       2.842   0.026  -0.530  0.00  0.00    -0.082 A 
ATOM      7  C5  PXY d   1       2.467   1.015  -1.368  0.00  0.00     0.003 A 
ATOM      8  C6  PXY d   1       3.404   1.971  -1.751  0.00  0.00     0.003 A 
ENDROOT
TORSDOF 0
ENDMDL
