MODEL 1
REMARK minimizedAffinity 0.97519213
REMARK minimizedRMSD -1
REMARK  0 active torsions:
REMARK  status: ('A' for Active; 'I' for Inactive)
ROOT
ATOM      1  C4' PXY d   1       1.008  -2.238  -0.641  0.00  0.00     0.077 C 
ATOM      2  C1' PXY d   1       4.495   2.241  -1.732  0.00  0.00     0.077 C 
ATOM      3  C1  PXY d   1       3.579   1.064  -1.459  0.00  0.00    -0.082 A 
ATOM      4  C2  PXY d   1       2.916   1.003  -0.315  0.00  0.00     0.003 A 
ATOM      5  C3  PXY d   1       2.108  -0.070  -0.038  0.00  0.00     0.003 A 
ATOM      6  C4  PXY d   1       1.936  -1.064  -0.963  0.00  0.00    -0.082 A 
ATOM      7  C5  PXY d   1       2.601  -1.004  -2.137  0.00  0.00     0.003 A 
ATOM      8  C6  PXY d   1       3.448   0.073  -2.382  0.00  0.00     0.003 A 
ENDROOT
TORSDOF 0
ENDMDL
