MODEL 1
REMARK minimizedAffinity -1.23492479
REMARK minimizedRMSD -1
REMARK  0 active torsions:
REMARK  status: ('A' for Active; 'I' for Inactive)
ROOT
ATOM      1  C4' PXY d   1       1.417  -1.286   0.552  0.00  0.00     0.077 C 
ATOM      2  C1' PXY d   1       4.843   2.904  -1.478  0.00  0.00     0.077 C 
ATOM      3  C1  PXY d   1       3.935   1.814  -0.945  0.00  0.00    -0.082 A 
ATOM      4  C2  PXY d   1       4.464   0.739  -0.383  0.00  0.00     0.003 A 
ATOM      5  C3  PXY d   1       3.658  -0.271   0.076  0.00  0.00     0.003 A 
ATOM      6  C4  PXY d   1       2.295  -0.156   0.008  0.00  0.00    -0.082 A 
ATOM      7  C5  PXY d   1       1.748   0.942  -0.554  0.00  0.00     0.003 A 
ATOM      8  C6  PXY d   1       2.584   1.938  -1.051  0.00  0.00     0.003 A 
ENDROOT
TORSDOF 0
ENDMDL
