MODEL 1
REMARK minimizedAffinity 0.627045512
REMARK minimizedRMSD -1
REMARK  0 active torsions:
REMARK  status: ('A' for Active; 'I' for Inactive)
ROOT
ATOM      1  C4' PXY d   1       4.334   2.567  -0.621  0.00  0.00     0.077 C 
ATOM      2  C1' PXY d   1       0.389  -1.659  -0.614  0.00  0.00     0.077 C 
ATOM      3  C1  PXY d   1       1.433  -0.559  -0.614  0.00  0.00    -0.082 A 
ATOM      4  C2  PXY d   1       1.075   0.682  -0.329  0.00  0.00     0.003 A 
ATOM      5  C3  PXY d   1       2.000   1.694  -0.356  0.00  0.00     0.003 A 
ATOM      6  C4  PXY d   1       3.316   1.423  -0.624  0.00  0.00    -0.082 A 
ATOM      7  C5  PXY d   1       3.690   0.157  -0.905  0.00  0.00     0.003 A 
ATOM      8  C6  PXY d   1       2.729  -0.849  -0.914  0.00  0.00     0.003 A 
ENDROOT
TORSDOF 0
ENDMDL
