MODEL 1
REMARK minimizedAffinity 2.69426513
REMARK minimizedRMSD -1
REMARK  0 active torsions:
REMARK  status: ('A' for Active; 'I' for Inactive)
ROOT
ATOM      1  C4' PXY d   1       0.966   1.713   1.974  0.00  0.00     0.077 C 
ATOM      2  C1' PXY d   1       3.253  -0.812  -2.696  0.00  0.00     0.077 C 
ATOM      3  C1  PXY d   1       2.664  -0.143  -1.469  0.00  0.00    -0.082 A 
ATOM      4  C2  PXY d   1       1.689  -0.740  -0.804  0.00  0.00     0.003 A 
ATOM      5  C3  PXY d   1       1.123  -0.134   0.289  0.00  0.00     0.003 A 
ATOM      6  C4  PXY d   1       1.597   1.070   0.736  0.00  0.00    -0.082 A 
ATOM      7  C5  PXY d   1       2.599   1.680   0.068  0.00  0.00     0.003 A 
ATOM      8  C6  PXY d   1       3.132   1.068  -1.063  0.00  0.00     0.003 A 
ENDROOT
TORSDOF 0
ENDMDL
