MODEL 1
REMARK minimizedAffinity 2.61656952
REMARK minimizedRMSD -1
REMARK  0 active torsions:
REMARK  status: ('A' for Active; 'I' for Inactive)
ROOT
ATOM      1  C4' PXY d   1       3.193  -1.320  -1.524  0.00  0.00     0.077 C 
ATOM      2  C1' PXY d   1       6.000   3.635  -0.536  0.00  0.00     0.077 C 
ATOM      3  C1  PXY d   1       5.274   2.331  -0.802  0.00  0.00    -0.082 A 
ATOM      4  C2  PXY d   1       3.952   2.298  -0.756  0.00  0.00     0.003 A 
ATOM      5  C3  PXY d   1       3.281   1.120  -0.963  0.00  0.00     0.003 A 
ATOM      6  C4  PXY d   1       3.968  -0.024  -1.271  0.00  0.00    -0.082 A 
ATOM      7  C5  PXY d   1       5.316   0.005  -1.330  0.00  0.00     0.003 A 
ATOM      8  C6  PXY d   1       5.980   1.201  -1.077  0.00  0.00     0.003 A 
ENDROOT
TORSDOF 0
ENDMDL
