MODEL 1
REMARK minimizedAffinity 6.22095108
REMARK minimizedRMSD -1
REMARK  0 active torsions:
REMARK  status: ('A' for Active; 'I' for Inactive)
ROOT
ATOM      1  C4' PXY d   1      -5.999   2.273  -6.000  0.00  0.00     0.077 C 
ATOM      2  C1' PXY d   1      -1.251   3.734  -3.045  0.00  0.00     0.077 C 
ATOM      3  C1  PXY d   1      -2.490   3.354  -3.831  0.00  0.00    -0.082 A 
ATOM      4  C2  PXY d   1      -3.676   3.402  -3.246  0.00  0.00     0.003 A 
ATOM      5  C3  PXY d   1      -4.803   3.031  -3.933  0.00  0.00     0.003 A 
ATOM      6  C4  PXY d   1      -4.722   2.657  -5.248  0.00  0.00    -0.082 A 
ATOM      7  C5  PXY d   1      -3.517   2.615  -5.854  0.00  0.00     0.003 A 
ATOM      8  C6  PXY d   1      -2.380   2.957  -5.128  0.00  0.00     0.003 A 
ENDROOT
TORSDOF 0
ENDMDL
