MODEL 1
REMARK minimizedAffinity 0.945714653
REMARK minimizedRMSD -1
REMARK  0 active torsions:
REMARK  status: ('A' for Active; 'I' for Inactive)
ROOT
ATOM      1  C   UNL d   1       1.649   1.462  -0.200  0.00  0.00     0.124 A 
ATOM      2  C1  UNL d   1       1.956   0.135  -0.470  0.00  0.00     0.062 A 
ATOM      3  C2  UNL d   1       0.939  -0.784  -0.709  0.00  0.00     0.162 A 
ATOM      4  C3  UNL d   1      -0.396  -0.380  -0.679  0.00  0.00    -0.034 A 
ATOM      5  C4  UNL d   1      -0.697   0.956  -0.405  0.00  0.00     0.162 A 
ATOM      6  C5  UNL d   1       0.324   1.871  -0.168  0.00  0.00     0.062 A 
ATOM      7  F   UNL d   1       0.025   3.152   0.093  0.00  0.00    -0.097 F 
ATOM      8  F1  UNL d   1      -1.969   1.378  -0.369  0.00  0.00    -0.096 F 
ATOM      9  I   UNL d   1      -1.920  -1.751  -1.035  0.00  0.00    -0.060 I 
ATOM     10  F2  UNL d   1       1.264  -2.059  -0.967  0.00  0.00    -0.096 F 
ATOM     11  F3  UNL d   1       3.236  -0.262  -0.501  0.00  0.00    -0.097 F 
ATOM     12  F4  UNL d   1       2.630   2.344   0.030  0.00  0.00    -0.092 F 
ENDROOT
TORSDOF 0
ENDMDL
