MODEL 1
REMARK minimizedAffinity -1.96422195
REMARK minimizedRMSD -1
REMARK  0 active torsions:
REMARK  status: ('A' for Active; 'I' for Inactive)
ROOT
ATOM      1  C   UNL d   1       1.221   0.606   0.813  0.00  0.00     0.124 A 
ATOM      2  C1  UNL d   1       1.753  -0.269  -0.125  0.00  0.00     0.062 A 
ATOM      3  C2  UNL d   1       0.923  -0.885  -1.057  0.00  0.00     0.162 A 
ATOM      4  C3  UNL d   1      -0.448  -0.627  -1.058  0.00  0.00    -0.034 A 
ATOM      5  C4  UNL d   1      -0.976   0.253  -0.111  0.00  0.00     0.162 A 
ATOM      6  C5  UNL d   1      -0.142   0.866   0.819  0.00  0.00     0.062 A 
ATOM      7  F   UNL d   1      -0.657   1.711   1.724  0.00  0.00    -0.097 F 
ATOM      8  F1  UNL d   1      -2.289   0.523  -0.083  0.00  0.00    -0.096 F 
ATOM      9  I   UNL d   1      -1.693  -1.546  -2.450  0.00  0.00    -0.060 I 
ATOM     10  F2  UNL d   1       1.463  -1.726  -1.951  0.00  0.00    -0.096 F 
ATOM     11  F3  UNL d   1       3.069  -0.523  -0.132  0.00  0.00    -0.097 F 
ATOM     12  F4  UNL d   1       2.022   1.196   1.709  0.00  0.00    -0.092 F 
ENDROOT
TORSDOF 0
ENDMDL
