MODEL 1
REMARK minimizedAffinity 0.0977958888
REMARK minimizedRMSD -1
REMARK  0 active torsions:
REMARK  status: ('A' for Active; 'I' for Inactive)
ROOT
ATOM      1  C   UNL d   1       1.120   1.953   1.204  0.00  0.00     0.124 A 
ATOM      2  C1  UNL d   1       1.375   1.444  -0.062  0.00  0.00     0.062 A 
ATOM      3  C2  UNL d   1       0.503   0.523  -0.634  0.00  0.00     0.162 A 
ATOM      4  C3  UNL d   1      -0.634   0.105   0.059  0.00  0.00    -0.034 A 
ATOM      5  C4  UNL d   1      -0.882   0.620   1.333  0.00  0.00     0.162 A 
ATOM      6  C5  UNL d   1      -0.007   1.541   1.900  0.00  0.00     0.062 A 
ATOM      7  F   UNL d   1      -0.255   2.032   3.123  0.00  0.00    -0.097 F 
ATOM      8  F1  UNL d   1      -1.965   0.240   2.027  0.00  0.00    -0.096 F 
ATOM      9  I   UNL d   1      -1.940  -1.273  -0.793  0.00  0.00    -0.060 I 
ATOM     10  F2  UNL d   1       0.773   0.048  -1.859  0.00  0.00    -0.096 F 
ATOM     11  F3  UNL d   1       2.464   1.840  -0.735  0.00  0.00    -0.097 F 
ATOM     12  F4  UNL d   1       1.962   2.839   1.753  0.00  0.00    -0.092 F 
ENDROOT
TORSDOF 0
ENDMDL
