MODEL 1
REMARK minimizedAffinity -3.19929957
REMARK minimizedRMSD -1
REMARK  0 active torsions:
REMARK  status: ('A' for Active; 'I' for Inactive)
ROOT
ATOM      1  C   UNL d   1      -2.375  -1.573  -2.595  0.00  0.00     0.124 A 
ATOM      2  C1  UNL d   1      -1.976  -0.306  -3.000  0.00  0.00     0.062 A 
ATOM      3  C2  UNL d   1      -0.886   0.311  -2.395  0.00  0.00     0.162 A 
ATOM      4  C3  UNL d   1      -0.184  -0.337  -1.379  0.00  0.00    -0.034 A 
ATOM      5  C4  UNL d   1      -0.591  -1.611  -0.976  0.00  0.00     0.162 A 
ATOM      6  C5  UNL d   1      -1.682  -2.223  -1.584  0.00  0.00     0.062 A 
ATOM      7  F   UNL d   1      -2.065  -3.447  -1.192  0.00  0.00    -0.097 F 
ATOM      8  F1  UNL d   1       0.061  -2.263  -0.002  0.00  0.00    -0.096 F 
ATOM      9  I   UNL d   1       1.448   0.583  -0.472  0.00  0.00    -0.060 I 
ATOM     10  F2  UNL d   1      -0.523   1.536  -2.806  0.00  0.00    -0.096 F 
ATOM     11  F3  UNL d   1      -2.645   0.325  -3.976  0.00  0.00    -0.097 F 
ATOM     12  F4  UNL d   1      -3.425  -2.164  -3.178  0.00  0.00    -0.092 F 
ENDROOT
TORSDOF 0
ENDMDL
