MODEL 1
REMARK minimizedAffinity -1.73325729
REMARK minimizedRMSD -1
REMARK  0 active torsions:
REMARK  status: ('A' for Active; 'I' for Inactive)
ROOT
ATOM      1  C   UNL d   1       0.863   0.743   0.689  0.00  0.00     0.124 A 
ATOM      2  C1  UNL d   1      -0.487   1.042   0.815  0.00  0.00     0.062 A 
ATOM      3  C2  UNL d   1      -1.419   0.439  -0.025  0.00  0.00     0.162 A 
ATOM      4  C3  UNL d   1      -1.004  -0.471  -0.997  0.00  0.00    -0.034 A 
ATOM      5  C4  UNL d   1       0.355  -0.766  -1.118  0.00  0.00     0.162 A 
ATOM      6  C5  UNL d   1       1.282  -0.160  -0.277  0.00  0.00     0.062 A 
ATOM      7  F   UNL d   1       2.586  -0.451  -0.399  0.00  0.00    -0.097 F 
ATOM      8  F1  UNL d   1       0.788  -1.637  -2.042  0.00  0.00    -0.096 F 
ATOM      9  I   UNL d   1      -2.394  -1.375  -2.255  0.00  0.00    -0.060 I 
ATOM     10  F2  UNL d   1      -2.716   0.747   0.119  0.00  0.00    -0.096 F 
ATOM     11  F3  UNL d   1      -0.895   1.916   1.747  0.00  0.00    -0.097 F 
ATOM     12  F4  UNL d   1       1.757   1.326   1.498  0.00  0.00    -0.092 F 
ENDROOT
TORSDOF 0
ENDMDL
