MODEL 1
REMARK minimizedAffinity 0.156553775
REMARK minimizedRMSD -1
REMARK  0 active torsions:
REMARK  status: ('A' for Active; 'I' for Inactive)
ROOT
ATOM      1  C   UNL d   1       1.050   1.013   1.244  0.00  0.00     0.124 A 
ATOM      2  C1  UNL d   1      -0.252   0.839   1.693  0.00  0.00     0.062 A 
ATOM      3  C2  UNL d   1      -1.121  -0.008   1.010  0.00  0.00     0.162 A 
ATOM      4  C3  UNL d   1      -0.690  -0.689  -0.128  0.00  0.00    -0.034 A 
ATOM      5  C4  UNL d   1       0.621  -0.508  -0.574  0.00  0.00     0.162 A 
ATOM      6  C5  UNL d   1       1.485   0.340   0.112  0.00  0.00     0.062 A 
ATOM      7  F   UNL d   1       2.742   0.507  -0.323  0.00  0.00    -0.097 F 
ATOM      8  F1  UNL d   1       1.068  -1.147  -1.665  0.00  0.00    -0.096 F 
ATOM      9  I   UNL d   1      -1.985  -1.956  -1.152  0.00  0.00    -0.060 I 
ATOM     10  F2  UNL d   1      -2.373  -0.157   1.466  0.00  0.00    -0.096 F 
ATOM     11  F3  UNL d   1      -0.676   1.489   2.787  0.00  0.00    -0.097 F 
ATOM     12  F4  UNL d   1       1.883   1.829   1.903  0.00  0.00    -0.092 F 
ENDROOT
TORSDOF 0
ENDMDL
