MODEL 1
REMARK minimizedAffinity -1.56556296
REMARK minimizedRMSD -1
REMARK  0 active torsions:
REMARK  status: ('A' for Active; 'I' for Inactive)
ROOT
ATOM      1  C   UNL d   1       1.120   1.623   1.644  0.00  0.00     0.124 A 
ATOM      2  C1  UNL d   1       0.076   0.928   2.238  0.00  0.00     0.062 A 
ATOM      3  C2  UNL d   1      -0.729   0.087   1.474  0.00  0.00     0.162 A 
ATOM      4  C3  UNL d   1      -0.491  -0.065   0.108  0.00  0.00    -0.034 A 
ATOM      5  C4  UNL d   1       0.561   0.638  -0.482  0.00  0.00     0.162 A 
ATOM      6  C5  UNL d   1       1.362   1.477   0.286  0.00  0.00     0.062 A 
ATOM      7  F   UNL d   1       2.371   2.148  -0.290  0.00  0.00    -0.097 F 
ATOM      8  F1  UNL d   1       0.817   0.515  -1.793  0.00  0.00    -0.096 F 
ATOM      9  I   UNL d   1      -1.692  -1.321  -1.037  0.00  0.00    -0.060 I 
ATOM     10  F2  UNL d   1      -1.731  -0.572   2.074  0.00  0.00    -0.096 F 
ATOM     11  F3  UNL d   1      -0.160   1.067   3.550  0.00  0.00    -0.097 F 
ATOM     12  F4  UNL d   1       1.892   2.432   2.381  0.00  0.00    -0.092 F 
ENDROOT
TORSDOF 0
ENDMDL
