MODEL 1
REMARK minimizedAffinity -0.747796834
REMARK minimizedRMSD -1
REMARK  0 active torsions:
REMARK  status: ('A' for Active; 'I' for Inactive)
ROOT
ATOM      1  C   UNL d   1       1.119   1.896   0.711  0.00  0.00     0.124 A 
ATOM      2  C1  UNL d   1      -0.151   1.746   1.251  0.00  0.00     0.062 A 
ATOM      3  C2  UNL d   1      -0.962   0.688   0.850  0.00  0.00     0.162 A 
ATOM      4  C3  UNL d   1      -0.506  -0.229  -0.097  0.00  0.00    -0.034 A 
ATOM      5  C4  UNL d   1       0.772  -0.071  -0.637  0.00  0.00     0.162 A 
ATOM      6  C5  UNL d   1       1.579   0.988  -0.232  0.00  0.00     0.062 A 
ATOM      7  F   UNL d   1       2.805   1.131  -0.756  0.00  0.00    -0.097 F 
ATOM      8  F1  UNL d   1       1.242  -0.934  -1.549  0.00  0.00    -0.096 F 
ATOM      9  I   UNL d   1      -1.716  -1.811  -0.699  0.00  0.00    -0.060 I 
ATOM     10  F2  UNL d   1      -2.184   0.568   1.389  0.00  0.00    -0.096 F 
ATOM     11  F3  UNL d   1      -0.598   2.622   2.162  0.00  0.00    -0.097 F 
ATOM     12  F4  UNL d   1       1.897   2.915   1.098  0.00  0.00    -0.092 F 
ENDROOT
TORSDOF 0
ENDMDL
