MODEL 1
REMARK minimizedAffinity -2.33692265
REMARK minimizedRMSD -1
REMARK  0 active torsions:
REMARK  status: ('A' for Active; 'I' for Inactive)
ROOT
ATOM      1  C   UNL d   1       1.068   1.915   0.994  0.00  0.00     0.124 A 
ATOM      2  C1  UNL d   1       1.389   1.203  -0.153  0.00  0.00     0.062 A 
ATOM      3  C2  UNL d   1       0.572   0.161  -0.583  0.00  0.00     0.162 A 
ATOM      4  C3  UNL d   1      -0.576  -0.174   0.135  0.00  0.00    -0.034 A 
ATOM      5  C4  UNL d   1      -0.893   0.546   1.288  0.00  0.00     0.162 A 
ATOM      6  C5  UNL d   1      -0.073   1.586   1.713  0.00  0.00     0.062 A 
ATOM      7  F   UNL d   1      -0.385   2.273   2.822  0.00  0.00    -0.097 F 
ATOM      8  F1  UNL d   1      -1.990   0.250   2.001  0.00  0.00    -0.096 F 
ATOM      9  I   UNL d   1      -1.801  -1.730  -0.505  0.00  0.00    -0.060 I 
ATOM     10  F2  UNL d   1       0.907  -0.510  -1.695  0.00  0.00    -0.096 F 
ATOM     11  F3  UNL d   1       2.491   1.518  -0.849  0.00  0.00    -0.097 F 
ATOM     12  F4  UNL d   1       1.856   2.916   1.406  0.00  0.00    -0.092 F 
ENDROOT
TORSDOF 0
ENDMDL
