MODEL 1
REMARK minimizedAffinity -0.761468649
REMARK minimizedRMSD -1
REMARK  0 active torsions:
REMARK  status: ('A' for Active; 'I' for Inactive)
ROOT
ATOM      1  C   UNL d   1       1.455   1.622   0.664  0.00  0.00     0.124 A 
ATOM      2  C1  UNL d   1       1.849   0.385   0.171  0.00  0.00     0.062 A 
ATOM      3  C2  UNL d   1       0.895  -0.541  -0.239  0.00  0.00     0.162 A 
ATOM      4  C3  UNL d   1      -0.463  -0.234  -0.160  0.00  0.00    -0.034 A 
ATOM      5  C4  UNL d   1      -0.852   1.011   0.337  0.00  0.00     0.162 A 
ATOM      6  C5  UNL d   1       0.106   1.933   0.746  0.00  0.00     0.062 A 
ATOM      7  F   UNL d   1      -0.277   3.127   1.222  0.00  0.00    -0.097 F 
ATOM      8  F1  UNL d   1      -2.149   1.338   0.427  0.00  0.00    -0.096 F 
ATOM      9  I   UNL d   1      -1.893  -1.617  -0.773  0.00  0.00    -0.060 I 
ATOM     10  F2  UNL d   1       1.305  -1.728  -0.711  0.00  0.00    -0.096 F 
ATOM     11  F3  UNL d   1       3.153   0.082   0.092  0.00  0.00    -0.097 F 
ATOM     12  F4  UNL d   1       2.375   2.511   1.059  0.00  0.00    -0.092 F 
ENDROOT
TORSDOF 0
ENDMDL
