MODEL 1
REMARK minimizedAffinity -5.10872364
REMARK minimizedRMSD -1
REMARK  0 active torsions:
REMARK  status: ('A' for Active; 'I' for Inactive)
ROOT
ATOM      1  C   UNL d   1       2.055   2.555   1.094  0.00  0.00     0.124 A 
ATOM      2  C1  UNL d   1       0.741   2.302   1.463  0.00  0.00     0.062 A 
ATOM      3  C2  UNL d   1       0.110   1.132   1.050  0.00  0.00     0.162 A 
ATOM      4  C3  UNL d   1       0.793   0.205   0.263  0.00  0.00    -0.034 A 
ATOM      5  C4  UNL d   1       2.114   0.467  -0.105  0.00  0.00     0.162 A 
ATOM      6  C5  UNL d   1       2.740   1.637   0.311  0.00  0.00     0.062 A 
ATOM      7  F   UNL d   1       4.010   1.880  -0.047  0.00  0.00    -0.097 F 
ATOM      8  F1  UNL d   1       2.800  -0.404  -0.861  0.00  0.00    -0.096 F 
ATOM      9  I   UNL d   1      -0.146  -1.546  -0.357  0.00  0.00    -0.060 I 
ATOM     10  F2  UNL d   1      -1.160   0.914   1.422  0.00  0.00    -0.096 F 
ATOM     11  F3  UNL d   1       0.076   3.188   2.220  0.00  0.00    -0.097 F 
ATOM     12  F4  UNL d   1       2.659   3.682   1.492  0.00  0.00    -0.092 F 
ENDROOT
TORSDOF 0
ENDMDL
