MODEL 1
REMARK minimizedAffinity -3.17163801
REMARK minimizedRMSD -1
REMARK  0 active torsions:
REMARK  status: ('A' for Active; 'I' for Inactive)
ROOT
ATOM      1  C   UNL d   1       1.335   1.692   1.089  0.00  0.00     0.124 A 
ATOM      2  C1  UNL d   1       1.743   1.010  -0.049  0.00  0.00     0.062 A 
ATOM      3  C2  UNL d   1       0.870   0.140  -0.695  0.00  0.00     0.162 A 
ATOM      4  C3  UNL d   1      -0.422  -0.052  -0.205  0.00  0.00    -0.034 A 
ATOM      5  C4  UNL d   1      -0.825   0.637   0.941  0.00  0.00     0.162 A 
ATOM      6  C5  UNL d   1       0.051   1.505   1.583  0.00  0.00     0.062 A 
ATOM      7  F   UNL d   1      -0.345   2.163   2.682  0.00  0.00    -0.097 F 
ATOM      8  F1  UNL d   1      -2.060   0.475   1.439  0.00  0.00    -0.096 F 
ATOM      9  I   UNL d   1      -1.732  -1.352  -1.168  0.00  0.00    -0.060 I 
ATOM     10  F2  UNL d   1       1.291  -0.505  -1.792  0.00  0.00    -0.096 F 
ATOM     11  F3  UNL d   1       2.983   1.189  -0.527  0.00  0.00    -0.097 F 
ATOM     12  F4  UNL d   1       2.178   2.528   1.709  0.00  0.00    -0.092 F 
ENDROOT
TORSDOF 0
ENDMDL
