MODEL 1
REMARK minimizedAffinity 0.452509612
REMARK minimizedRMSD -1
REMARK  1 active torsions:
REMARK  status: ('A' for Active; 'I' for Inactive)
REMARK    1  A    between atoms: C1_2  and  C2_3 
ROOT
ATOM      1  C2  UNL d   1       2.100   4.797   3.013  0.00  0.00    -0.073 A 
ATOM      2  C3  UNL d   1       0.836   5.118   3.520  0.00  0.00    -0.002 A 
ATOM      3  C4  UNL d   1       0.711   5.714   4.776  0.00  0.00     0.004 A 
ATOM      4  C5  UNL d   1       1.847   6.000   5.533  0.00  0.00    -0.004 A 
ATOM      5  C6  UNL d   1       3.119   5.697   5.038  0.00  0.00    -0.075 A 
ATOM      6  C7  UNL d   1       4.351   5.996   5.842  0.00  0.00     0.076 C 
ATOM      7  C8  UNL d   1       3.236   5.096   3.778  0.00  0.00     0.001 A 
ENDROOT
BRANCH   1   8
ATOM      8  C1  UNL d   1       2.240   4.159   1.654  0.00  0.00     0.053 C 
ATOM      9  C   UNL d   1       3.416   3.197   1.595  0.00  0.00     0.018 C 
ENDBRANCH   1   8
TORSDOF 1
ENDMDL
