MODEL 1
REMARK minimizedAffinity 0.104064114
REMARK minimizedRMSD -1
REMARK  1 active torsions:
REMARK  status: ('A' for Active; 'I' for Inactive)
REMARK    1  A    between atoms: C1_2  and  C2_3 
ROOT
ATOM      1  C2  UNL d   1       2.226   5.427   5.069  0.00  0.00    -0.073 A 
ATOM      2  C3  UNL d   1       0.951   6.000   5.002  0.00  0.00    -0.002 A 
ATOM      3  C4  UNL d   1      -0.019   5.462   4.154  0.00  0.00     0.004 A 
ATOM      4  C5  UNL d   1       0.273   4.344   3.373  0.00  0.00    -0.004 A 
ATOM      5  C6  UNL d   1       1.538   3.751   3.435  0.00  0.00    -0.075 A 
ATOM      6  C7  UNL d   1       1.869   2.549   2.600  0.00  0.00     0.076 C 
ATOM      7  C8  UNL d   1       2.508   4.298   4.287  0.00  0.00     0.001 A 
ENDROOT
BRANCH   1   8
ATOM      8  C1  UNL d   1       3.275   6.000   5.988  0.00  0.00     0.053 C 
ATOM      9  C   UNL d   1       4.654   6.000   5.348  0.00  0.00     0.018 C 
ENDBRANCH   1   8
TORSDOF 1
ENDMDL
