MODEL 1
REMARK minimizedAffinity -3.60852885
REMARK minimizedRMSD -1
REMARK  1 active torsions:
REMARK  status: ('A' for Active; 'I' for Inactive)
REMARK    1  A    between atoms: C1_2  and  C2_3 
ROOT
ATOM      1  C2  UNL d   1       2.167   4.056   3.230  0.00  0.00    -0.073 A 
ATOM      2  C3  UNL d   1       3.052   4.560   4.189  0.00  0.00    -0.002 A 
ATOM      3  C4  UNL d   1       2.629   5.529   5.100  0.00  0.00     0.004 A 
ATOM      4  C5  UNL d   1       1.316   5.999   5.065  0.00  0.00    -0.004 A 
ATOM      5  C6  UNL d   1       0.413   5.499   4.122  0.00  0.00    -0.075 A 
ATOM      6  C7  UNL d   1      -1.002   5.996   4.070  0.00  0.00     0.076 C 
ATOM      7  C8  UNL d   1       0.846   4.528   3.209  0.00  0.00     0.001 A 
ENDROOT
BRANCH   1   8
ATOM      8  C1  UNL d   1       2.617   3.005   2.249  0.00  0.00     0.053 C 
ATOM      9  C   UNL d   1       4.128   3.000   2.073  0.00  0.00     0.018 C 
ENDBRANCH   1   8
TORSDOF 1
ENDMDL
