MODEL 1
REMARK minimizedAffinity 4.01181459
REMARK minimizedRMSD -1
REMARK  1 active torsions:
REMARK  status: ('A' for Active; 'I' for Inactive)
REMARK    1  A    between atoms: C1_2  and  C2_3 
ROOT
ATOM      1  C2  UNL d   1       2.595   4.558   3.236  0.00  0.00    -0.073 A 
ATOM      2  C3  UNL d   1       1.377   4.939   3.812  0.00  0.00    -0.002 A 
ATOM      3  C4  UNL d   1       1.357   5.652   5.011  0.00  0.00     0.004 A 
ATOM      4  C5  UNL d   1       2.552   5.998   5.642  0.00  0.00    -0.004 A 
ATOM      5  C6  UNL d   1       3.779   5.637   5.076  0.00  0.00    -0.075 A 
ATOM      6  C7  UNL d   1       5.073   6.000   5.744  0.00  0.00     0.076 C 
ATOM      7  C8  UNL d   1       3.791   4.918   3.873  0.00  0.00     0.001 A 
ENDROOT
BRANCH   1   8
ATOM      8  C1  UNL d   1       2.621   3.793   1.938  0.00  0.00     0.053 C 
ATOM      9  C   UNL d   1       4.038   3.589   1.426  0.00  0.00     0.018 C 
ENDBRANCH   1   8
TORSDOF 1
ENDMDL
