MODEL 1
REMARK minimizedAffinity 6.56201982
REMARK minimizedRMSD -1
REMARK  1 active torsions:
REMARK  status: ('A' for Active; 'I' for Inactive)
REMARK    1  A    between atoms: C1_2  and  C2_3 
ROOT
ATOM      1  C2  UNL d   1       2.305   3.420   4.105  0.00  0.00    -0.073 A 
ATOM      2  C3  UNL d   1       1.231   4.312   4.000  0.00  0.00    -0.002 A 
ATOM      3  C4  UNL d   1       1.323   5.593   4.546  0.00  0.00     0.004 A 
ATOM      4  C5  UNL d   1       2.490   5.997   5.196  0.00  0.00    -0.004 A 
ATOM      5  C6  UNL d   1       3.578   5.124   5.300  0.00  0.00    -0.075 A 
ATOM      6  C7  UNL d   1       4.839   5.543   5.997  0.00  0.00     0.076 C 
ATOM      7  C8  UNL d   1       3.477   3.839   4.751  0.00  0.00     0.001 A 
ENDROOT
BRANCH   1   8
ATOM      8  C1  UNL d   1       2.213   2.038   3.511  0.00  0.00     0.053 C 
ATOM      9  C   UNL d   1       2.327   2.061   1.995  0.00  0.00     0.018 C 
ENDBRANCH   1   8
TORSDOF 1
ENDMDL
