MODEL 1
REMARK minimizedAffinity 1.11045563
REMARK minimizedRMSD -1
REMARK  1 active torsions:
REMARK  status: ('A' for Active; 'I' for Inactive)
REMARK    1  A    between atoms: C1_2  and  C2_3 
ROOT
ATOM      1  C2  UNL d   1       2.369   4.033   3.354  0.00  0.00    -0.073 A 
ATOM      2  C3  UNL d   1       3.390   4.541   4.166  0.00  0.00    -0.002 A 
ATOM      3  C4  UNL d   1       3.111   5.522   5.118  0.00  0.00     0.004 A 
ATOM      4  C5  UNL d   1       1.810   5.999   5.274  0.00  0.00    -0.004 A 
ATOM      5  C6  UNL d   1       0.774   5.496   4.481  0.00  0.00    -0.075 A 
ATOM      6  C7  UNL d   1      -0.631   6.000   4.635  0.00  0.00     0.076 C 
ATOM      7  C8  UNL d   1       1.062   4.513   3.525  0.00  0.00     0.001 A 
ENDROOT
BRANCH   1   8
ATOM      8  C1  UNL d   1       2.664   2.970   2.328  0.00  0.00     0.053 C 
ATOM      9  C   UNL d   1       4.110   3.015   1.860  0.00  0.00     0.018 C 
ENDBRANCH   1   8
TORSDOF 1
ENDMDL
