MODEL 1
REMARK minimizedAffinity 5.04168797
REMARK minimizedRMSD -1
REMARK  1 active torsions:
REMARK  status: ('A' for Active; 'I' for Inactive)
REMARK    1  A    between atoms: C1_2  and  C2_3 
ROOT
ATOM      1  C2  UNL d   1       2.517   4.416   3.619  0.00  0.00    -0.073 A 
ATOM      2  C3  UNL d   1       1.308   4.829   4.191  0.00  0.00    -0.002 A 
ATOM      3  C4  UNL d   1       1.307   5.610   5.347  0.00  0.00     0.004 A 
ATOM      4  C5  UNL d   1       2.511   5.991   5.939  0.00  0.00    -0.004 A 
ATOM      5  C6  UNL d   1       3.729   5.598   5.375  0.00  0.00    -0.075 A 
ATOM      6  C7  UNL d   1       5.033   5.998   6.000  0.00  0.00     0.076 C 
ATOM      7  C8  UNL d   1       3.722   4.811   4.215  0.00  0.00     0.001 A 
ENDROOT
BRANCH   1   8
ATOM      8  C1  UNL d   1       2.523   3.577   2.366  0.00  0.00     0.053 C 
ATOM      9  C   UNL d   1       3.894   2.982   2.087  0.00  0.00     0.018 C 
ENDBRANCH   1   8
TORSDOF 1
ENDMDL
