MODEL 1
REMARK minimizedAffinity 0.707247496
REMARK minimizedRMSD -1
REMARK  1 active torsions:
REMARK  status: ('A' for Active; 'I' for Inactive)
REMARK    1  A    between atoms: C1_2  and  C2_3 
ROOT
ATOM      1  C2  UNL d   1       3.036   5.443   5.066  0.00  0.00    -0.073 A 
ATOM      2  C3  UNL d   1       1.753   6.000   5.024  0.00  0.00    -0.002 A 
ATOM      3  C4  UNL d   1       0.787   5.479   4.162  0.00  0.00     0.004 A 
ATOM      4  C5  UNL d   1       1.091   4.394   3.340  0.00  0.00    -0.004 A 
ATOM      5  C6  UNL d   1       2.364   3.817   3.376  0.00  0.00    -0.075 A 
ATOM      6  C7  UNL d   1       2.708   2.651   2.496  0.00  0.00     0.076 C 
ATOM      7  C8  UNL d   1       3.330   4.347   4.242  0.00  0.00     0.001 A 
ENDROOT
BRANCH   1   8
ATOM      8  C1  UNL d   1       4.081   5.998   5.999  0.00  0.00     0.053 C 
ATOM      9  C   UNL d   1       5.465   5.999   5.370  0.00  0.00     0.018 C 
ENDBRANCH   1   8
TORSDOF 1
ENDMDL
