MODEL 1
REMARK minimizedAffinity -3.07972121
REMARK minimizedRMSD -1
REMARK  1 active torsions:
REMARK  status: ('A' for Active; 'I' for Inactive)
REMARK    1  A    between atoms: C3_4  and  O_7 
ROOT
ATOM      1  C   UNL d   1      -0.699   0.467   2.322  0.00  0.00    -0.033 A 
ATOM      2  C1  UNL d   1       0.613   0.144   1.973  0.00  0.00     0.039 A 
ATOM      3  C2  UNL d   1       0.946  -0.085   0.636  0.00  0.00    -0.080 A 
ATOM      4  C3  UNL d   1      -0.042   0.013  -0.340  0.00  0.00     0.150 A 
ATOM      5  C4  UNL d   1      -1.351   0.338   0.000  0.00  0.00    -0.007 A 
ATOM      6  C5  UNL d   1      -1.681   0.566   1.336  0.00  0.00     0.039 A 
ENDROOT
BRANCH   4   7
ATOM      7  O   UNL d   1       0.233  -0.207  -1.657  0.00  0.00    -0.526 OA
ATOM      8  H5  UNL d   1       1.171  -0.450  -1.739  0.00  0.00     0.418 HD
ENDBRANCH   4   7
TORSDOF 1
ENDMDL
