MODEL 1
REMARK minimizedAffinity -2.92288947
REMARK minimizedRMSD -1
REMARK  1 active torsions:
REMARK  status: ('A' for Active; 'I' for Inactive)
REMARK    1  A    between atoms: C3_4  and  O_7 
ROOT
ATOM      1  C   UNL d   1       0.122   0.639  -0.656  0.00  0.00    -0.033 A 
ATOM      2  C1  UNL d   1       0.228   1.147  -1.952  0.00  0.00     0.039 A 
ATOM      3  C2  UNL d   1       0.652   0.322  -2.995  0.00  0.00    -0.080 A 
ATOM      4  C3  UNL d   1       0.967  -1.008  -2.730  0.00  0.00     0.150 A 
ATOM      5  C4  UNL d   1       0.860  -1.522  -1.441  0.00  0.00    -0.007 A 
ATOM      6  C5  UNL d   1       0.437  -0.696  -0.401  0.00  0.00     0.039 A 
ENDROOT
BRANCH   4   7
ATOM      7  O   UNL d   1       1.390  -1.850  -3.714  0.00  0.00    -0.526 OA
ATOM      8  H5  UNL d   1       1.443  -1.350  -4.546  0.00  0.00     0.418 HD
ENDBRANCH   4   7
TORSDOF 1
ENDMDL
