MODEL 1
REMARK minimizedAffinity -3.84365869
REMARK minimizedRMSD -1
REMARK  1 active torsions:
REMARK  status: ('A' for Active; 'I' for Inactive)
REMARK    1  A    between atoms: C3_4  and  O_7 
ROOT
ATOM      1  C   UNL d   1       1.120  -0.026   0.495  0.00  0.00    -0.033 A 
ATOM      2  C1  UNL d   1       0.447   0.093   1.712  0.00  0.00     0.039 A 
ATOM      3  C2  UNL d   1      -0.930   0.325   1.731  0.00  0.00    -0.080 A 
ATOM      4  C3  UNL d   1      -1.621   0.435   0.528  0.00  0.00     0.150 A 
ATOM      5  C4  UNL d   1      -0.957   0.313  -0.689  0.00  0.00    -0.007 A 
ATOM      6  C5  UNL d   1       0.417   0.082  -0.706  0.00  0.00     0.039 A 
ENDROOT
BRANCH   4   7
ATOM      7  O   UNL d   1      -2.964   0.666   0.496  0.00  0.00    -0.526 OA
ATOM      8  H5  UNL d   1      -3.282   0.757   1.409  0.00  0.00     0.418 HD
ENDBRANCH   4   7
TORSDOF 1
ENDMDL
