MODEL 1
REMARK minimizedAffinity -4.07701492
REMARK minimizedRMSD -1
REMARK  1 active torsions:
REMARK  status: ('A' for Active; 'I' for Inactive)
REMARK    1  A    between atoms: C3_4  and  O_7 
ROOT
ATOM      1  C   UNL d   1      -1.538   0.667   2.565  0.00  0.00    -0.033 A 
ATOM      2  C1  UNL d   1      -0.186   0.358   2.401  0.00  0.00     0.039 A 
ATOM      3  C2  UNL d   1       0.317   0.071   1.131  0.00  0.00    -0.080 A 
ATOM      4  C3  UNL d   1      -0.540   0.097   0.034  0.00  0.00     0.150 A 
ATOM      5  C4  UNL d   1      -1.886   0.408   0.189  0.00  0.00    -0.007 A 
ATOM      6  C5  UNL d   1      -2.388   0.693   1.459  0.00  0.00     0.039 A 
ENDROOT
BRANCH   4   7
ATOM      7  O   UNL d   1      -0.095  -0.180  -1.224  0.00  0.00    -0.526 OA
ATOM      8  H5  UNL d   1       0.849  -0.405  -1.175  0.00  0.00     0.418 HD
ENDBRANCH   4   7
TORSDOF 1
ENDMDL
