MODEL 1
REMARK minimizedAffinity -1.76101375
REMARK minimizedRMSD -1
REMARK  1 active torsions:
REMARK  status: ('A' for Active; 'I' for Inactive)
REMARK    1  A    between atoms: C3_4  and  O_7 
ROOT
ATOM      1  C   UNL d   1       0.758  -0.753  -3.437  0.00  0.00    -0.033 A 
ATOM      2  C1  UNL d   1       0.555   0.591  -3.118  0.00  0.00     0.039 A 
ATOM      3  C2  UNL d   1       0.090   0.948  -1.851  0.00  0.00    -0.080 A 
ATOM      4  C3  UNL d   1      -0.167  -0.048  -0.912  0.00  0.00     0.150 A 
ATOM      5  C4  UNL d   1       0.036  -1.389  -1.222  0.00  0.00    -0.007 A 
ATOM      6  C5  UNL d   1       0.500  -1.743  -2.488  0.00  0.00     0.039 A 
ENDROOT
BRANCH   4   7
ATOM      7  O   UNL d   1      -0.627   0.250   0.336  0.00  0.00    -0.526 OA
ATOM      8  H5  UNL d   1      -0.747   1.213   0.397  0.00  0.00     0.418 HD
ENDBRANCH   4   7
TORSDOF 1
ENDMDL
