MODEL 1
REMARK minimizedAffinity -0.0382812656
REMARK minimizedRMSD -1
REMARK  1 active torsions:
REMARK  status: ('A' for Active; 'I' for Inactive)
REMARK    1  A    between atoms: C3_4  and  O_7 
ROOT
ATOM      1  C   UNL d   1       0.675  -0.399  -1.251  0.00  0.00    -0.033 A 
ATOM      2  C1  UNL d   1       1.523  -1.243  -0.531  0.00  0.00     0.039 A 
ATOM      3  C2  UNL d   1       1.710  -1.045   0.839  0.00  0.00    -0.080 A 
ATOM      4  C3  UNL d   1       1.043  -0.002   1.475  0.00  0.00     0.150 A 
ATOM      5  C4  UNL d   1       0.194   0.840   0.764  0.00  0.00    -0.007 A 
ATOM      6  C5  UNL d   1       0.009   0.641  -0.603  0.00  0.00     0.039 A 
ENDROOT
BRANCH   4   7
ATOM      7  O   UNL d   1       1.197   0.234   2.809  0.00  0.00    -0.526 OA
ATOM      8  H5  UNL d   1       1.834  -0.408   3.163  0.00  0.00     0.418 HD
ENDBRANCH   4   7
TORSDOF 1
ENDMDL
