MODEL 1
REMARK minimizedAffinity -2.9437623
REMARK minimizedRMSD -1
REMARK  1 active torsions:
REMARK  status: ('A' for Active; 'I' for Inactive)
REMARK    1  A    between atoms: C3_4  and  O_7 
ROOT
ATOM      1  C   UNL d   1       1.140  -0.717   0.378  0.00  0.00    -0.033 A 
ATOM      2  C1  UNL d   1       0.141   0.101  -0.151  0.00  0.00     0.039 A 
ATOM      3  C2  UNL d   1      -0.070   0.146  -1.531  0.00  0.00    -0.080 A 
ATOM      4  C3  UNL d   1       0.723  -0.633  -2.369  0.00  0.00     0.150 A 
ATOM      5  C4  UNL d   1       1.718  -1.454  -1.848  0.00  0.00    -0.007 A 
ATOM      6  C5  UNL d   1       1.928  -1.496  -0.470  0.00  0.00     0.039 A 
ENDROOT
BRANCH   4   7
ATOM      7  O   UNL d   1       0.558  -0.620  -3.722  0.00  0.00    -0.526 OA
ATOM      8  H5  UNL d   1      -0.146   0.014  -3.940  0.00  0.00     0.418 HD
ENDBRANCH   4   7
TORSDOF 1
ENDMDL
