MODEL 1
REMARK minimizedAffinity -3.86106658
REMARK minimizedRMSD -1
REMARK  1 active torsions:
REMARK  status: ('A' for Active; 'I' for Inactive)
REMARK    1  A    between atoms: C3_4  and  O_7 
ROOT
ATOM      1  C   UNL d   1       0.803   0.317   1.481  0.00  0.00    -0.033 A 
ATOM      2  C1  UNL d   1      -0.020   0.409   2.605  0.00  0.00     0.039 A 
ATOM      3  C2  UNL d   1      -1.397   0.584   2.452  0.00  0.00    -0.080 A 
ATOM      4  C3  UNL d   1      -1.937   0.665   1.171  0.00  0.00     0.150 A 
ATOM      5  C4  UNL d   1      -1.123   0.570   0.047  0.00  0.00    -0.007 A 
ATOM      6  C5  UNL d   1       0.251   0.396   0.202  0.00  0.00     0.039 A 
ENDROOT
BRANCH   4   7
ATOM      7  O   UNL d   1      -3.274   0.841   0.972  0.00  0.00    -0.526 OA
ATOM      8  H5  UNL d   1      -3.707   0.918   1.839  0.00  0.00     0.418 HD
ENDBRANCH   4   7
TORSDOF 1
ENDMDL
