MODEL 1
REMARK minimizedAffinity -1.32612824
REMARK minimizedRMSD -1
REMARK  1 active torsions:
REMARK  status: ('A' for Active; 'I' for Inactive)
REMARK    1  A    between atoms: C3_4  and  O_7 
ROOT
ATOM      1  C   UNL d   1       0.441  -0.130  -1.026  0.00  0.00    -0.033 A 
ATOM      2  C1  UNL d   1      -0.785   0.155  -0.422  0.00  0.00     0.039 A 
ATOM      3  C2  UNL d   1      -0.893   0.168   0.970  0.00  0.00    -0.080 A 
ATOM      4  C3  UNL d   1       0.231  -0.105   1.745  0.00  0.00     0.150 A 
ATOM      5  C4  UNL d   1       1.456  -0.385   1.149  0.00  0.00    -0.007 A 
ATOM      6  C5  UNL d   1       1.562  -0.399  -0.241  0.00  0.00     0.039 A 
ENDROOT
BRANCH   4   7
ATOM      7  O   UNL d   1       0.174  -0.108   3.107  0.00  0.00    -0.526 OA
ATOM      8  H5  UNL d   1      -0.742   0.074   3.377  0.00  0.00     0.418 HD
ENDBRANCH   4   7
TORSDOF 1
ENDMDL
