MODEL 1
REMARK minimizedAffinity -0.193503127
REMARK minimizedRMSD -1
REMARK  1 active torsions:
REMARK  status: ('A' for Active; 'I' for Inactive)
REMARK    1  A    between atoms: C3_4  and  O_7 
ROOT
ATOM      1  C   UNL d   1      -0.674   0.419   3.145  0.00  0.00    -0.033 A 
ATOM      2  C1  UNL d   1      -1.643   0.542   2.148  0.00  0.00     0.039 A 
ATOM      3  C2  UNL d   1      -1.281   0.439   0.804  0.00  0.00    -0.080 A 
ATOM      4  C3  UNL d   1       0.051   0.211   0.470  0.00  0.00     0.150 A 
ATOM      5  C4  UNL d   1       1.022   0.083   1.459  0.00  0.00    -0.007 A 
ATOM      6  C5  UNL d   1       0.659   0.188   2.801  0.00  0.00     0.039 A 
ENDROOT
BRANCH   4   7
ATOM      7  O   UNL d   1       0.453   0.107  -0.828  0.00  0.00    -0.526 OA
ATOM      8  H5  UNL d   1      -0.319   0.244  -1.401  0.00  0.00     0.418 HD
ENDBRANCH   4   7
TORSDOF 1
ENDMDL
