MODEL 1
REMARK minimizedAffinity -3.82649112
REMARK minimizedRMSD -1
REMARK  1 active torsions:
REMARK  status: ('A' for Active; 'I' for Inactive)
REMARK    1  A    between atoms: C3_4  and  O_7 
ROOT
ATOM      1  C   UNL d   1       0.806  -0.018   1.160  0.00  0.00    -0.033 A 
ATOM      2  C1  UNL d   1      -0.023   0.139   0.047  0.00  0.00     0.039 A 
ATOM      3  C2  UNL d   1      -1.386   0.384   0.219  0.00  0.00    -0.080 A 
ATOM      4  C3  UNL d   1      -1.908   0.471   1.507  0.00  0.00     0.150 A 
ATOM      5  C4  UNL d   1      -1.087   0.320   2.620  0.00  0.00    -0.007 A 
ATOM      6  C5  UNL d   1       0.274   0.074   2.446  0.00  0.00     0.039 A 
ENDROOT
BRANCH   4   7
ATOM      7  O   UNL d   1      -3.233   0.704   1.725  0.00  0.00    -0.526 OA
ATOM      8  H5  UNL d   1      -3.682   0.759   0.865  0.00  0.00     0.418 HD
ENDBRANCH   4   7
TORSDOF 1
ENDMDL
