MODEL 1
REMARK minimizedAffinity -1.78634286
REMARK minimizedRMSD -1
REMARK  1 active torsions:
REMARK  status: ('A' for Active; 'I' for Inactive)
REMARK    1  A    between atoms: C3_4  and  O_7 
ROOT
ATOM      1  C   UNL d   1       0.156  -0.364  -1.002  0.00  0.00    -0.033 A 
ATOM      2  C1  UNL d   1       0.894  -1.376  -0.383  0.00  0.00     0.039 A 
ATOM      3  C2  UNL d   1       1.318  -1.225   0.938  0.00  0.00    -0.080 A 
ATOM      4  C3  UNL d   1       0.998  -0.059   1.629  0.00  0.00     0.150 A 
ATOM      5  C4  UNL d   1       0.261   0.951   1.021  0.00  0.00    -0.007 A 
ATOM      6  C5  UNL d   1      -0.161   0.799  -0.299  0.00  0.00     0.039 A 
ENDROOT
BRANCH   4   7
ATOM      7  O   UNL d   1       1.394   0.136   2.919  0.00  0.00    -0.526 OA
ATOM      8  H5  UNL d   1       1.919  -0.632   3.199  0.00  0.00     0.418 HD
ENDBRANCH   4   7
TORSDOF 1
ENDMDL
