MODEL 1
REMARK minimizedAffinity -1.4814837
REMARK minimizedRMSD -1
REMARK  1 active torsions:
REMARK  status: ('A' for Active; 'I' for Inactive)
REMARK    1  A    between atoms: C3_4  and  O_7 
ROOT
ATOM      1  C   UNL d   1       0.181   0.484  -0.212  0.00  0.00    -0.033 A 
ATOM      2  C1  UNL d   1       0.034   0.998  -1.502  0.00  0.00     0.039 A 
ATOM      3  C2  UNL d   1       0.181   0.161  -2.610  0.00  0.00    -0.080 A 
ATOM      4  C3  UNL d   1       0.472  -1.186  -2.414  0.00  0.00     0.150 A 
ATOM      5  C4  UNL d   1       0.616  -1.706  -1.132  0.00  0.00    -0.007 A 
ATOM      6  C5  UNL d   1       0.471  -0.868  -0.027  0.00  0.00     0.039 A 
ENDROOT
BRANCH   4   7
ATOM      7  O   UNL d   1       0.629  -2.041  -3.465  0.00  0.00    -0.526 OA
ATOM      8  H5  UNL d   1       0.530  -1.537  -4.289  0.00  0.00     0.418 HD
ENDBRANCH   4   7
TORSDOF 1
ENDMDL
