MODEL 1
REMARK minimizedAffinity -4.29178667
REMARK minimizedRMSD -1
REMARK  1 active torsions:
REMARK  status: ('A' for Active; 'I' for Inactive)
REMARK    1  A    between atoms: C3_4  and  O_7 
ROOT
ATOM      1  C   UNL d   1      -0.564   0.742  -1.512  0.00  0.00    -0.033 A 
ATOM      2  C1  UNL d   1      -0.407   0.436  -2.866  0.00  0.00     0.039 A 
ATOM      3  C2  UNL d   1       0.652  -0.372  -3.282  0.00  0.00    -0.080 A 
ATOM      4  C3  UNL d   1       1.545  -0.869  -2.337  0.00  0.00     0.150 A 
ATOM      5  C4  UNL d   1       1.393  -0.571  -0.987  0.00  0.00    -0.007 A 
ATOM      6  C5  UNL d   1       0.335   0.237  -0.573  0.00  0.00     0.039 A 
ENDROOT
BRANCH   4   7
ATOM      7  O   UNL d   1       2.597  -1.658  -2.696  0.00  0.00    -0.526 OA
ATOM      8  H5  UNL d   1       2.593  -1.756  -3.663  0.00  0.00     0.418 HD
ENDBRANCH   4   7
TORSDOF 1
ENDMDL
