MODEL 1
REMARK minimizedAffinity -3.09075117
REMARK minimizedRMSD -1
REMARK  1 active torsions:
REMARK  status: ('A' for Active; 'I' for Inactive)
REMARK    1  A    between atoms: C1_2  and  C2_3 
ROOT
ATOM      1  C2  UNL d   1       0.485   0.091   0.141  0.00  0.00    -0.077 A 
ATOM      2  C3  UNL d   1      -0.080   0.668   1.287  0.00  0.00     0.002 A 
ATOM      3  C4  UNL d   1       0.221   1.987   1.635  0.00  0.00     0.002 A 
ATOM      4  C5  UNL d   1       1.082   2.740   0.841  0.00  0.00    -0.004 A 
ATOM      5  C6  UNL d   1       1.650   2.174  -0.300  0.00  0.00     0.002 A 
ATOM      6  C7  UNL d   1       1.352   0.856  -0.649  0.00  0.00     0.002 A 
ENDROOT
BRANCH   1   7
ATOM      7  C1  UNL d   1       0.124  -1.314  -0.263  0.00  0.00     0.055 C 
ATOM      8  C   UNL d   1      -0.909  -1.321  -1.381  0.00  0.00     0.019 C 
ENDBRANCH   1   7
TORSDOF 1
ENDMDL
