MODEL 1
REMARK minimizedAffinity -2.38677073
REMARK minimizedRMSD -1
REMARK  1 active torsions:
REMARK  status: ('A' for Active; 'I' for Inactive)
REMARK    1  A    between atoms: C1_2  and  C2_3 
ROOT
ATOM      1  C2  UNL d   1      -0.210   0.429   1.336  0.00  0.00    -0.077 A 
ATOM      2  C3  UNL d   1       0.497   1.241   2.234  0.00  0.00     0.002 A 
ATOM      3  C4  UNL d   1       0.974   2.490   1.832  0.00  0.00     0.002 A 
ATOM      4  C5  UNL d   1       0.746   2.940   0.534  0.00  0.00    -0.004 A 
ATOM      5  C6  UNL d   1       0.045   2.139  -0.368  0.00  0.00     0.002 A 
ATOM      6  C7  UNL d   1      -0.431   0.890   0.032  0.00  0.00     0.002 A 
ENDROOT
BRANCH   1   7
ATOM      7  C1  UNL d   1      -0.768  -0.897   1.782  0.00  0.00     0.055 C 
ATOM      8  C   UNL d   1      -1.630  -0.745   3.026  0.00  0.00     0.019 C 
ENDBRANCH   1   7
TORSDOF 1
ENDMDL
