MODEL 1
REMARK minimizedAffinity -3.49725819
REMARK minimizedRMSD -1
REMARK  1 active torsions:
REMARK  status: ('A' for Active; 'I' for Inactive)
REMARK    1  A    between atoms: C1_2  and  C2_3 
ROOT
ATOM      1  C2  UNL d   1       0.255   0.281   0.174  0.00  0.00    -0.077 A 
ATOM      2  C3  UNL d   1       0.931   1.252  -0.577  0.00  0.00     0.002 A 
ATOM      3  C4  UNL d   1       1.505   2.359   0.052  0.00  0.00     0.002 A 
ATOM      4  C5  UNL d   1       1.411   2.502   1.435  0.00  0.00    -0.004 A 
ATOM      5  C6  UNL d   1       0.739   1.543   2.190  0.00  0.00     0.002 A 
ATOM      6  C7  UNL d   1       0.164   0.436   1.563  0.00  0.00     0.002 A 
ENDROOT
BRANCH   1   7
ATOM      7  C1  UNL d   1      -0.322  -0.938  -0.497  0.00  0.00     0.055 C 
ATOM      8  C   UNL d   1      -1.112  -0.563  -1.742  0.00  0.00     0.019 C 
ENDBRANCH   1   7
TORSDOF 1
ENDMDL
