MODEL 1
REMARK minimizedAffinity -0.665444672
REMARK minimizedRMSD -1
REMARK  1 active torsions:
REMARK  status: ('A' for Active; 'I' for Inactive)
REMARK    1  A    between atoms: C1_2  and  C2_3 
ROOT
ATOM      1  C2  UNL d   1      -0.032   0.936   1.313  0.00  0.00    -0.077 A 
ATOM      2  C3  UNL d   1       0.468   2.246   1.304  0.00  0.00     0.002 A 
ATOM      3  C4  UNL d   1       1.541   2.586   0.478  0.00  0.00     0.002 A 
ATOM      4  C5  UNL d   1       2.120   1.624  -0.347  0.00  0.00    -0.004 A 
ATOM      5  C6  UNL d   1       1.631   0.318  -0.343  0.00  0.00     0.002 A 
ATOM      6  C7  UNL d   1       0.559  -0.024   0.482  0.00  0.00     0.002 A 
ENDROOT
BRANCH   1   7
ATOM      7  C1  UNL d   1      -1.221   0.579   2.167  0.00  0.00     0.055 C 
ATOM      8  C   UNL d   1      -1.322  -0.925   2.374  0.00  0.00     0.019 C 
ENDBRANCH   1   7
TORSDOF 1
ENDMDL
