MODEL 1
REMARK minimizedAffinity -5.28227329
REMARK minimizedRMSD -1
REMARK  1 active torsions:
REMARK  status: ('A' for Active; 'I' for Inactive)
REMARK    1  A    between atoms: C1_2  and  C2_3 
ROOT
ATOM      1  C2  UNL d   1       0.363  -0.257  -0.005  0.00  0.00    -0.077 A 
ATOM      2  C3  UNL d   1       1.363   0.548  -0.570  0.00  0.00     0.002 A 
ATOM      3  C4  UNL d   1       1.691   1.776   0.007  0.00  0.00     0.002 A 
ATOM      4  C5  UNL d   1       1.029   2.208   1.154  0.00  0.00    -0.004 A 
ATOM      5  C6  UNL d   1       0.032   1.416   1.722  0.00  0.00     0.002 A 
ATOM      6  C7  UNL d   1      -0.299   0.189   1.146  0.00  0.00     0.002 A 
ENDROOT
BRANCH   1   7
ATOM      7  C1  UNL d   1       0.042  -1.604  -0.597  0.00  0.00     0.055 C 
ATOM      8  C   UNL d   1      -1.410  -1.679  -1.047  0.00  0.00     0.019 C 
ENDBRANCH   1   7
TORSDOF 1
ENDMDL
