MODEL 1
REMARK minimizedAffinity -2.88240314
REMARK minimizedRMSD -1
REMARK  1 active torsions:
REMARK  status: ('A' for Active; 'I' for Inactive)
REMARK    1  A    between atoms: C1_2  and  C2_3 
ROOT
ATOM      1  C2  UNL d   1      -0.720  -0.523  -1.131  0.00  0.00    -0.077 A 
ATOM      2  C3  UNL d   1      -1.191   0.121  -2.284  0.00  0.00     0.002 A 
ATOM      3  C4  UNL d   1      -2.069  -0.533  -3.150  0.00  0.00     0.002 A 
ATOM      4  C5  UNL d   1      -2.487  -1.832  -2.870  0.00  0.00    -0.004 A 
ATOM      5  C6  UNL d   1      -2.023  -2.482  -1.727  0.00  0.00     0.002 A 
ATOM      6  C7  UNL d   1      -1.145  -1.830  -0.861  0.00  0.00     0.002 A 
ENDROOT
BRANCH   1   7
ATOM      7  C1  UNL d   1       0.188   0.199  -0.170  0.00  0.00     0.055 C 
ATOM      8  C   UNL d   1      -0.607   0.903   0.920  0.00  0.00     0.019 C 
ENDBRANCH   1   7
TORSDOF 1
ENDMDL
