MODEL 1
REMARK minimizedAffinity -5.62947416
REMARK minimizedRMSD -1
REMARK  1 active torsions:
REMARK  status: ('A' for Active; 'I' for Inactive)
REMARK    1  A    between atoms: C1_2  and  C2_3 
ROOT
ATOM      1  C2  UNL d   1      -0.177   0.221   0.759  0.00  0.00    -0.077 A 
ATOM      2  C3  UNL d   1       0.867   0.353  -0.168  0.00  0.00     0.002 A 
ATOM      3  C4  UNL d   1       1.607   1.535  -0.234  0.00  0.00     0.002 A 
ATOM      4  C5  UNL d   1       1.315   2.592   0.625  0.00  0.00    -0.004 A 
ATOM      5  C6  UNL d   1       0.277   2.471   1.549  0.00  0.00     0.002 A 
ATOM      6  C7  UNL d   1      -0.465   1.291   1.616  0.00  0.00     0.002 A 
ENDROOT
BRANCH   1   7
ATOM      7  C1  UNL d   1      -0.945  -1.070   0.865  0.00  0.00     0.055 C 
ATOM      8  C   UNL d   1      -0.877  -1.863  -0.432  0.00  0.00     0.019 C 
ENDBRANCH   1   7
TORSDOF 1
ENDMDL
