MODEL 1
REMARK minimizedAffinity -4.40437174
REMARK minimizedRMSD -1
REMARK  1 active torsions:
REMARK  status: ('A' for Active; 'I' for Inactive)
REMARK    1  A    between atoms: C1_2  and  C2_3 
ROOT
ATOM      1  C2  UNL d   1      -0.733  -0.753  -0.840  0.00  0.00    -0.077 A 
ATOM      2  C3  UNL d   1      -1.021   0.561  -0.444  0.00  0.00     0.002 A 
ATOM      3  C4  UNL d   1      -0.125   1.269   0.359  0.00  0.00     0.002 A 
ATOM      4  C5  UNL d   1       1.066   0.673   0.770  0.00  0.00    -0.004 A 
ATOM      5  C6  UNL d   1       1.360  -0.634   0.383  0.00  0.00     0.002 A 
ATOM      6  C7  UNL d   1       0.465  -1.343  -0.419  0.00  0.00     0.002 A 
ENDROOT
BRANCH   1   7
ATOM      7  C1  UNL d   1      -1.675  -1.500  -1.748  0.00  0.00     0.055 C 
ATOM      8  C   UNL d   1      -1.331  -1.271  -3.212  0.00  0.00     0.019 C 
ENDBRANCH   1   7
TORSDOF 1
ENDMDL
