MODEL 1
REMARK minimizedAffinity -3.75313878
REMARK minimizedRMSD -1
REMARK  1 active torsions:
REMARK  status: ('A' for Active; 'I' for Inactive)
REMARK    1  A    between atoms: C1_2  and  C2_3 
ROOT
ATOM      1  C2  UNL d   1      -0.358  -1.058  -0.124  0.00  0.00    -0.077 A 
ATOM      2  C3  UNL d   1      -0.566   0.237   0.370  0.00  0.00     0.002 A 
ATOM      3  C4  UNL d   1       0.489   1.149   0.428  0.00  0.00     0.002 A 
ATOM      4  C5  UNL d   1       1.758   0.778  -0.011  0.00  0.00    -0.004 A 
ATOM      5  C6  UNL d   1       1.976  -0.509  -0.502  0.00  0.00     0.002 A 
ATOM      6  C7  UNL d   1       0.923  -1.423  -0.559  0.00  0.00     0.002 A 
ENDROOT
BRANCH   1   7
ATOM      7  C1  UNL d   1      -1.506  -2.028  -0.234  0.00  0.00     0.055 C 
ATOM      8  C   UNL d   1      -2.285  -1.820  -1.524  0.00  0.00     0.019 C 
ENDBRANCH   1   7
TORSDOF 1
ENDMDL
