MODEL 1
REMARK minimizedAffinity -3.7995441
REMARK minimizedRMSD -1
REMARK  1 active torsions:
REMARK  status: ('A' for Active; 'I' for Inactive)
REMARK    1  A    between atoms: C1_2  and  C2_3 
ROOT
ATOM      1  C2  UNL d   1       1.196   0.673   0.276  0.00  0.00    -0.077 A 
ATOM      2  C3  UNL d   1       1.135   1.405   1.469  0.00  0.00     0.002 A 
ATOM      3  C4  UNL d   1      -0.022   1.385   2.251  0.00  0.00     0.002 A 
ATOM      4  C5  UNL d   1      -1.123   0.632   1.850  0.00  0.00    -0.004 A 
ATOM      5  C6  UNL d   1      -1.072  -0.099   0.664  0.00  0.00     0.002 A 
ATOM      6  C7  UNL d   1       0.082  -0.079  -0.120  0.00  0.00     0.002 A 
ENDROOT
BRANCH   1   7
ATOM      7  C1  UNL d   1       2.460   0.654  -0.544  0.00  0.00     0.055 C 
ATOM      8  C   UNL d   1       3.148  -0.702  -0.469  0.00  0.00     0.019 C 
ENDBRANCH   1   7
TORSDOF 1
ENDMDL
