MODEL 1
REMARK minimizedAffinity -6.396626
REMARK minimizedRMSD -1
REMARK  1 active torsions:
REMARK  status: ('A' for Active; 'I' for Inactive)
REMARK    1  A    between atoms: C1_2  and  C2_3 
ROOT
ATOM      1  C2  UNL d   1      -1.778  -1.667   0.548  0.00  0.00    -0.081 A 
ATOM      2  C3  UNL d   1      -2.641  -1.081  -0.387  0.00  0.00     0.006 A 
ATOM      3  C4  UNL d   1      -2.144  -0.212  -1.361  0.00  0.00     0.002 A 
ATOM      4  C5  UNL d   1      -0.777   0.079  -1.422  0.00  0.00    -0.080 A 
ATOM      5  C6  UNL d   1      -0.227   0.986  -2.482  0.00  0.00     0.076 C 
ATOM      6  C7  UNL d   1       0.082  -0.493  -0.478  0.00  0.00     0.002 A 
ATOM      7  C8  UNL d   1      -0.414  -1.362   0.497  0.00  0.00     0.006 A 
ENDROOT
BRANCH   1   8
ATOM      8  C1  UNL d   1      -2.301  -2.655   1.559  0.00  0.00     0.054 C 
ATOM      9  C   UNL d   1      -1.336  -3.817   1.749  0.00  0.00     0.018 C 
ENDBRANCH   1   8
TORSDOF 1
ENDMDL
