MODEL 1
REMARK minimizedAffinity -3.98418283
REMARK minimizedRMSD -1
REMARK  1 active torsions:
REMARK  status: ('A' for Active; 'I' for Inactive)
REMARK    1  A    between atoms: C1_2  and  C2_3 
ROOT
ATOM      1  C2  UNL d   1       0.555  -0.202   0.359  0.00  0.00    -0.081 A 
ATOM      2  C3  UNL d   1       0.427  -1.195   1.338  0.00  0.00     0.006 A 
ATOM      3  C4  UNL d   1      -0.763  -1.915   1.466  0.00  0.00     0.002 A 
ATOM      4  C5  UNL d   1      -1.842  -1.660   0.613  0.00  0.00    -0.080 A 
ATOM      5  C6  UNL d   1      -3.114  -2.446   0.719  0.00  0.00     0.076 C 
ATOM      6  C7  UNL d   1      -1.721  -0.656  -0.354  0.00  0.00     0.002 A 
ATOM      7  C8  UNL d   1      -0.531   0.065  -0.482  0.00  0.00     0.006 A 
ENDROOT
BRANCH   1   8
ATOM      8  C1  UNL d   1       1.859   0.531   0.177  0.00  0.00     0.054 C 
ATOM      9  C   UNL d   1       2.146   1.452   1.354  0.00  0.00     0.018 C 
ENDBRANCH   1   8
TORSDOF 1
ENDMDL
