MODEL 1
REMARK minimizedAffinity -5.47779894
REMARK minimizedRMSD -1
REMARK  1 active torsions:
REMARK  status: ('A' for Active; 'I' for Inactive)
REMARK    1  A    between atoms: C1_2  and  C2_3 
ROOT
ATOM      1  C2  UNL d   1       0.649   0.313   0.093  0.00  0.00    -0.081 A 
ATOM      2  C3  UNL d   1      -0.087   0.531  -1.078  0.00  0.00     0.006 A 
ATOM      3  C4  UNL d   1      -1.422   0.127  -1.162  0.00  0.00     0.002 A 
ATOM      4  C5  UNL d   1      -2.045  -0.494  -0.074  0.00  0.00    -0.080 A 
ATOM      5  C6  UNL d   1      -3.486  -0.905  -0.140  0.00  0.00     0.076 C 
ATOM      6  C7  UNL d   1      -1.305  -0.728   1.090  0.00  0.00     0.002 A 
ATOM      7  C8  UNL d   1       0.030  -0.325   1.174  0.00  0.00     0.006 A 
ENDROOT
BRANCH   1   8
ATOM      8  C1  UNL d   1       2.069   0.805   0.209  0.00  0.00     0.054 C 
ATOM      9  C   UNL d   1       2.150   2.062   1.064  0.00  0.00     0.018 C 
ENDBRANCH   1   8
TORSDOF 1
ENDMDL
