MODEL 1
REMARK minimizedAffinity -5.45032644
REMARK minimizedRMSD -1
REMARK  1 active torsions:
REMARK  status: ('A' for Active; 'I' for Inactive)
REMARK    1  A    between atoms: C1_2  and  C2_3 
ROOT
ATOM      1  C2  UNL d   1       0.587   0.305   0.070  0.00  0.00    -0.081 A 
ATOM      2  C3  UNL d   1      -0.275   0.463  -1.023  0.00  0.00     0.006 A 
ATOM      3  C4  UNL d   1      -1.585  -0.018  -0.967  0.00  0.00     0.002 A 
ATOM      4  C5  UNL d   1      -2.058  -0.657   0.184  0.00  0.00    -0.080 A 
ATOM      5  C6  UNL d   1      -3.472  -1.150   0.268  0.00  0.00     0.076 C 
ATOM      6  C7  UNL d   1      -1.193  -0.830   1.269  0.00  0.00     0.002 A 
ATOM      7  C8  UNL d   1       0.118  -0.351   1.214  0.00  0.00     0.006 A 
ENDROOT
BRANCH   1   8
ATOM      8  C1  UNL d   1       1.980   0.879   0.037  0.00  0.00     0.054 C 
ATOM      9  C   UNL d   1       2.015   2.280   0.630  0.00  0.00     0.018 C 
ENDBRANCH   1   8
TORSDOF 1
ENDMDL
