MODEL 1
REMARK minimizedAffinity -5.22179079
REMARK minimizedRMSD -1
REMARK  1 active torsions:
REMARK  status: ('A' for Active; 'I' for Inactive)
REMARK    1  A    between atoms: C1_2  and  C2_3 
ROOT
ATOM      1  C2  UNL d   1       1.307   0.234   0.016  0.00  0.00    -0.081 A 
ATOM      2  C3  UNL d   1       0.639   0.329  -1.211  0.00  0.00     0.006 A 
ATOM      3  C4  UNL d   1      -0.685  -0.098  -1.331  0.00  0.00     0.002 A 
ATOM      4  C5  UNL d   1      -1.366  -0.619  -0.226  0.00  0.00    -0.080 A 
ATOM      5  C6  UNL d   1      -2.798  -1.053  -0.334  0.00  0.00     0.076 C 
ATOM      6  C7  UNL d   1      -0.693  -0.730   0.996  0.00  0.00     0.002 A 
ATOM      7  C8  UNL d   1       0.631  -0.304   1.116  0.00  0.00     0.006 A 
ENDROOT
BRANCH   1   8
ATOM      8  C1  UNL d   1       2.715   0.754   0.164  0.00  0.00     0.054 C 
ATOM      9  C   UNL d   1       2.733   2.113   0.849  0.00  0.00     0.018 C 
ENDBRANCH   1   8
TORSDOF 1
ENDMDL
