MODEL 1
REMARK minimizedAffinity -2.89801025
REMARK minimizedRMSD -1
REMARK  1 active torsions:
REMARK  status: ('A' for Active; 'I' for Inactive)
REMARK    1  A    between atoms: C1_2  and  C2_3 
ROOT
ATOM      1  C2  UNL d   1       0.754   1.111   0.715  0.00  0.00    -0.081 A 
ATOM      2  C3  UNL d   1       0.713  -0.168   0.147  0.00  0.00     0.006 A 
ATOM      3  C4  UNL d   1      -0.504  -0.838  -0.004  0.00  0.00     0.002 A 
ATOM      4  C5  UNL d   1      -1.700  -0.237   0.405  0.00  0.00    -0.080 A 
ATOM      5  C6  UNL d   1      -3.016  -0.932   0.221  0.00  0.00     0.076 C 
ATOM      6  C7  UNL d   1      -1.657   1.033   0.989  0.00  0.00     0.002 A 
ATOM      7  C8  UNL d   1      -0.440   1.703   1.140  0.00  0.00     0.006 A 
ENDROOT
BRANCH   1   8
ATOM      8  C1  UNL d   1       2.057   1.862   0.819  0.00  0.00     0.054 C 
ATOM      9  C   UNL d   1       1.967   2.987   1.840  0.00  0.00     0.018 C 
ENDBRANCH   1   8
TORSDOF 1
ENDMDL
