MODEL 1
REMARK minimizedAffinity -1.95673883
REMARK minimizedRMSD -1
REMARK  1 active torsions:
REMARK  status: ('A' for Active; 'I' for Inactive)
REMARK    1  A    between atoms: C1_2  and  C2_3 
ROOT
ATOM      1  C2  UNL d   1       1.633   0.533   1.027  0.00  0.00    -0.081 A 
ATOM      2  C3  UNL d   1       0.633   1.376   0.525  0.00  0.00     0.006 A 
ATOM      3  C4  UNL d   1      -0.689   0.934   0.440  0.00  0.00     0.002 A 
ATOM      4  C5  UNL d   1      -1.035  -0.354   0.861  0.00  0.00    -0.080 A 
ATOM      5  C6  UNL d   1      -2.456  -0.831   0.803  0.00  0.00     0.076 C 
ATOM      6  C7  UNL d   1      -0.034  -1.203   1.346  0.00  0.00     0.002 A 
ATOM      7  C8  UNL d   1       1.288  -0.762   1.431  0.00  0.00     0.006 A 
ENDROOT
BRANCH   1   8
ATOM      8  C1  UNL d   1       3.048   1.029   1.181  0.00  0.00     0.054 C 
ATOM      9  C   UNL d   1       3.428   1.169   2.648  0.00  0.00     0.018 C 
ENDBRANCH   1   8
TORSDOF 1
ENDMDL
