MODEL 1
REMARK minimizedAffinity -5.23616648
REMARK minimizedRMSD -1
REMARK  1 active torsions:
REMARK  status: ('A' for Active; 'I' for Inactive)
REMARK    1  A    between atoms: C1_2  and  C2_3 
ROOT
ATOM      1  C2  UNL d   1       0.418   0.290  -0.240  0.00  0.00    -0.081 A 
ATOM      2  C3  UNL d   1      -0.477   0.553  -1.284  0.00  0.00     0.006 A 
ATOM      3  C4  UNL d   1      -1.797   0.101  -1.215  0.00  0.00     0.002 A 
ATOM      4  C5  UNL d   1      -2.246  -0.613  -0.099  0.00  0.00    -0.080 A 
ATOM      5  C6  UNL d   1      -3.669  -1.077   0.001  0.00  0.00     0.076 C 
ATOM      6  C7  UNL d   1      -1.347  -0.891   0.936  0.00  0.00     0.002 A 
ATOM      7  C8  UNL d   1      -0.027  -0.440   0.868  0.00  0.00     0.006 A 
ENDROOT
BRANCH   1   8
ATOM      8  C1  UNL d   1       1.824   0.831  -0.282  0.00  0.00     0.054 C 
ATOM      9  C   UNL d   1       2.047   1.878   0.800  0.00  0.00     0.018 C 
ENDBRANCH   1   8
TORSDOF 1
ENDMDL
