MODEL 1
REMARK minimizedAffinity -4.71368408
REMARK minimizedRMSD -1
REMARK  1 active torsions:
REMARK  status: ('A' for Active; 'I' for Inactive)
REMARK    1  A    between atoms: C1_2  and  C2_3 
ROOT
ATOM      1  C2  UNL d   1       0.848   0.432   0.146  0.00  0.00    -0.081 A 
ATOM      2  C3  UNL d   1       0.149   0.538  -1.062  0.00  0.00     0.006 A 
ATOM      3  C4  UNL d   1      -1.134  -0.001  -1.187  0.00  0.00     0.002 A 
ATOM      4  C5  UNL d   1      -1.742  -0.646  -0.105  0.00  0.00    -0.080 A 
ATOM      5  C6  UNL d   1      -3.131  -1.201  -0.217  0.00  0.00     0.076 C 
ATOM      6  C7  UNL d   1      -1.037  -0.767   1.097  0.00  0.00     0.002 A 
ATOM      7  C8  UNL d   1       0.246  -0.229   1.223  0.00  0.00     0.006 A 
ENDROOT
BRANCH   1   8
ATOM      8  C1  UNL d   1       2.206   1.068   0.304  0.00  0.00     0.054 C 
ATOM      9  C   UNL d   1       2.454   1.490   1.745  0.00  0.00     0.018 C 
ENDBRANCH   1   8
TORSDOF 1
ENDMDL
