MODEL 1
REMARK minimizedAffinity -5.37343788
REMARK minimizedRMSD -1
REMARK  1 active torsions:
REMARK  status: ('A' for Active; 'I' for Inactive)
REMARK    1  A    between atoms: C1_2  and  C2_3 
ROOT
ATOM      1  C2  UNL d   1       3.936   3.553  -2.353  0.00  0.00    -0.081 A 
ATOM      2  C3  UNL d   1       3.785   4.659  -1.507  0.00  0.00     0.006 A 
ATOM      3  C4  UNL d   1       3.302   4.495  -0.207  0.00  0.00     0.002 A 
ATOM      4  C5  UNL d   1       2.971   3.223   0.272  0.00  0.00    -0.080 A 
ATOM      5  C6  UNL d   1       2.480   3.030   1.676  0.00  0.00     0.076 C 
ATOM      6  C7  UNL d   1       3.106   2.121  -0.578  0.00  0.00     0.002 A 
ATOM      7  C8  UNL d   1       3.588   2.284  -1.879  0.00  0.00     0.006 A 
ENDROOT
BRANCH   1   8
ATOM      8  C1  UNL d   1       4.518   3.718  -3.734  0.00  0.00     0.054 C 
ATOM      9  C   UNL d   1       6.000   3.374  -3.755  0.00  0.00     0.018 C 
ENDBRANCH   1   8
TORSDOF 1
ENDMDL
