MODEL 1
REMARK minimizedAffinity -3.4469974
REMARK minimizedRMSD -1
REMARK  1 active torsions:
REMARK  status: ('A' for Active; 'I' for Inactive)
REMARK    1  A    between atoms: C1_2  and  C2_3 
ROOT
ATOM      1  C2  UNL d   1       0.845  -0.097  -0.229  0.00  0.00    -0.081 A 
ATOM      2  C3  UNL d   1       0.744  -1.086   0.757  0.00  0.00     0.006 A 
ATOM      3  C4  UNL d   1      -0.390  -1.897   0.833  0.00  0.00     0.002 A 
ATOM      4  C5  UNL d   1      -1.438  -1.739  -0.080  0.00  0.00    -0.080 A 
ATOM      5  C6  UNL d   1      -2.648  -2.624  -0.030  0.00  0.00     0.076 C 
ATOM      6  C7  UNL d   1      -1.345  -0.739  -1.055  0.00  0.00     0.002 A 
ATOM      7  C8  UNL d   1      -0.211   0.073  -1.130  0.00  0.00     0.006 A 
ENDROOT
BRANCH   1   8
ATOM      8  C1  UNL d   1       2.095   0.737  -0.353  0.00  0.00     0.054 C 
ATOM      9  C   UNL d   1       2.284   1.636   0.861  0.00  0.00     0.018 C 
ENDBRANCH   1   8
TORSDOF 1
ENDMDL
