MODEL 1
REMARK minimizedAffinity -4.09999752
REMARK minimizedRMSD -1
REMARK  1 active torsions:
REMARK  status: ('A' for Active; 'I' for Inactive)
REMARK    1  A    between atoms: C1_2  and  C2_3 
ROOT
ATOM      1  C2  UNL d   1       1.723   0.301  -0.085  0.00  0.00    -0.081 A 
ATOM      2  C3  UNL d   1       1.319  -0.928   0.452  0.00  0.00     0.006 A 
ATOM      3  C4  UNL d   1       0.123  -1.521   0.042  0.00  0.00     0.002 A 
ATOM      4  C5  UNL d   1      -0.685  -0.899  -0.916  0.00  0.00    -0.080 A 
ATOM      5  C6  UNL d   1      -1.957  -1.540  -1.387  0.00  0.00     0.076 C 
ATOM      6  C7  UNL d   1      -0.291   0.337  -1.439  0.00  0.00     0.002 A 
ATOM      7  C8  UNL d   1       0.905   0.930  -1.029  0.00  0.00     0.006 A 
ENDROOT
BRANCH   1   8
ATOM      8  C1  UNL d   1       3.044   0.911   0.308  0.00  0.00     0.054 C 
ATOM      9  C   UNL d   1       2.893   1.834   1.508  0.00  0.00     0.018 C 
ENDBRANCH   1   8
TORSDOF 1
ENDMDL
