MODEL 1
REMARK minimizedAffinity -4.60822535
REMARK minimizedRMSD -1
REMARK  1 active torsions:
REMARK  status: ('A' for Active; 'I' for Inactive)
REMARK    1  A    between atoms: C1_2  and  C2_3 
ROOT
ATOM      1  C2  UNL d   1       1.437   0.764  -0.036  0.00  0.00    -0.081 A 
ATOM      2  C3  UNL d   1       0.624   1.056  -1.137  0.00  0.00     0.006 A 
ATOM      3  C4  UNL d   1      -0.521   0.298  -1.393  0.00  0.00     0.002 A 
ATOM      4  C5  UNL d   1      -0.876  -0.759  -0.549  0.00  0.00    -0.080 A 
ATOM      5  C6  UNL d   1      -2.119  -1.562  -0.795  0.00  0.00     0.076 C 
ATOM      6  C7  UNL d   1      -0.054  -1.062   0.542  0.00  0.00     0.002 A 
ATOM      7  C8  UNL d   1       1.091  -0.305   0.798  0.00  0.00     0.006 A 
ENDROOT
BRANCH   1   8
ATOM      8  C1  UNL d   1       2.637   1.621   0.280  0.00  0.00     0.054 C 
ATOM      9  C   UNL d   1       2.523   2.993  -0.369  0.00  0.00     0.018 C 
ENDBRANCH   1   8
TORSDOF 1
ENDMDL
