MODEL 1
REMARK minimizedAffinity 4.73624563
REMARK minimizedRMSD -1
REMARK  0 active torsions:
REMARK  status: ('A' for Active; 'I' for Inactive)
ROOT
ATOM      1  C   UNL d   1      -0.684   5.409  -2.693  0.00  0.00     0.023 A 
ATOM      2  C1  UNL d   1      -1.802   4.987  -1.973  0.00  0.00     0.003 A 
ATOM      3  C2  UNL d   1      -1.639   4.286  -0.776  0.00  0.00     0.048 A 
ATOM      4  C3  UNL d   1      -0.355   4.011  -0.305  0.00  0.00     0.023 A 
ATOM      5  C4  UNL d   1       0.766   4.432  -1.022  0.00  0.00     0.048 A 
ATOM      6  C5  UNL d   1       0.598   5.132  -2.218  0.00  0.00     0.003 A 
ATOM      7  I   UNL d   1      -0.110   2.967   1.475  0.00  0.00    -0.146 I 
ENDROOT
TORSDOF 0
ENDMDL
