MODEL 1
REMARK minimizedAffinity 9.12938786
REMARK minimizedRMSD -1
REMARK  0 active torsions:
REMARK  status: ('A' for Active; 'I' for Inactive)
ROOT
ATOM      1  C   UNL d   1      -0.787   5.709  -2.565  0.00  0.00     0.023 A 
ATOM      2  C1  UNL d   1      -1.691   5.540  -1.517  0.00  0.00     0.003 A 
ATOM      3  C2  UNL d   1      -1.417   4.624  -0.499  0.00  0.00     0.048 A 
ATOM      4  C3  UNL d   1      -0.237   3.882  -0.535  0.00  0.00     0.023 A 
ATOM      5  C4  UNL d   1       0.671   4.049  -1.582  0.00  0.00     0.048 A 
ATOM      6  C5  UNL d   1       0.392   4.965  -2.598  0.00  0.00     0.003 A 
ATOM      7  I   UNL d   1       0.173   2.519   0.980  0.00  0.00    -0.146 I 
ENDROOT
TORSDOF 0
ENDMDL
