MODEL 1
REMARK minimizedAffinity 10.0349064
REMARK minimizedRMSD -1
REMARK  0 active torsions:
REMARK  status: ('A' for Active; 'I' for Inactive)
ROOT
ATOM      1  C   UNL d   1       2.093   4.049   0.079  0.00  0.00     0.023 A 
ATOM      2  C1  UNL d   1       2.961   3.869   1.156  0.00  0.00     0.003 A 
ATOM      3  C2  UNL d   1       2.538   3.167   2.286  0.00  0.00     0.048 A 
ATOM      4  C3  UNL d   1       1.245   2.646   2.332  0.00  0.00     0.023 A 
ATOM      5  C4  UNL d   1       0.373   2.823   1.257  0.00  0.00     0.048 A 
ATOM      6  C5  UNL d   1       0.801   3.526   0.129  0.00  0.00     0.003 A 
ATOM      7  I   UNL d   1       0.612   1.600   4.013  0.00  0.00    -0.146 I 
ENDROOT
TORSDOF 0
ENDMDL
