MODEL 1
REMARK minimizedAffinity 6.08957338
REMARK minimizedRMSD -1
REMARK  0 active torsions:
REMARK  status: ('A' for Active; 'I' for Inactive)
ROOT
ATOM      1  C   UNL d   1      -0.121   5.392  -2.686  0.00  0.00     0.023 A 
ATOM      2  C1  UNL d   1      -0.828   4.196  -2.559  0.00  0.00     0.003 A 
ATOM      3  C2  UNL d   1      -0.607   3.367  -1.457  0.00  0.00     0.048 A 
ATOM      4  C3  UNL d   1       0.321   3.741  -0.485  0.00  0.00     0.023 A 
ATOM      5  C4  UNL d   1       1.029   4.937  -0.608  0.00  0.00     0.048 A 
ATOM      6  C5  UNL d   1       0.806   5.762  -1.712  0.00  0.00     0.003 A 
ATOM      7  I   UNL d   1       0.651   2.509   1.156  0.00  0.00    -0.146 I 
ENDROOT
TORSDOF 0
ENDMDL
