MODEL 1
REMARK minimizedAffinity 4.89809132
REMARK minimizedRMSD -1
REMARK  0 active torsions:
REMARK  status: ('A' for Active; 'I' for Inactive)
ROOT
ATOM      1  C   UNL d   1       0.539  -2.436   5.997  0.00  0.00     0.023 A 
ATOM      2  C1  UNL d   1      -0.699  -2.007   5.518  0.00  0.00     0.003 A 
ATOM      3  C2  UNL d   1      -0.770  -0.952   4.607  0.00  0.00     0.048 A 
ATOM      4  C3  UNL d   1       0.401  -0.330   4.177  0.00  0.00     0.023 A 
ATOM      5  C4  UNL d   1       1.643  -0.756   4.652  0.00  0.00     0.048 A 
ATOM      6  C5  UNL d   1       1.709  -1.810   5.565  0.00  0.00     0.003 A 
ATOM      7  I   UNL d   1       0.299   1.241   2.820  0.00  0.00    -0.146 I 
ENDROOT
TORSDOF 0
ENDMDL
