MODEL 1
REMARK minimizedAffinity 10.3852682
REMARK minimizedRMSD -1
REMARK  0 active torsions:
REMARK  status: ('A' for Active; 'I' for Inactive)
ROOT
ATOM      1  C   UNL d   1      -1.499   5.572  -1.996  0.00  0.00     0.023 A 
ATOM      2  C1  UNL d   1      -1.153   5.999  -0.714  0.00  0.00     0.003 A 
ATOM      3  C2  UNL d   1      -0.411   5.165   0.125  0.00  0.00     0.048 A 
ATOM      4  C3  UNL d   1      -0.018   3.905  -0.325  0.00  0.00     0.023 A 
ATOM      5  C4  UNL d   1      -0.361   3.473  -1.607  0.00  0.00     0.048 A 
ATOM      6  C5  UNL d   1      -1.103   4.311  -2.442  0.00  0.00     0.003 A 
ATOM      7  I   UNL d   1       1.086   2.661   0.922  0.00  0.00    -0.146 I 
ENDROOT
TORSDOF 0
ENDMDL
