MODEL 1
REMARK minimizedAffinity 12.3196745
REMARK minimizedRMSD -1
REMARK  0 active torsions:
REMARK  status: ('A' for Active; 'I' for Inactive)
ROOT
ATOM      1  C   UNL d   1      -0.565   5.087  -0.859  0.00  0.00     0.023 A 
ATOM      2  C1  UNL d   1      -0.083   4.321  -1.920  0.00  0.00     0.003 A 
ATOM      3  C2  UNL d   1       0.053   2.939  -1.780  0.00  0.00     0.048 A 
ATOM      4  C3  UNL d   1      -0.296   2.328  -0.576  0.00  0.00     0.023 A 
ATOM      5  C4  UNL d   1      -0.780   3.090   0.489  0.00  0.00     0.048 A 
ATOM      6  C5  UNL d   1      -0.913   4.472   0.344  0.00  0.00     0.003 A 
ATOM      7  I   UNL d   1      -0.094   0.270  -0.365  0.00  0.00    -0.146 I 
ENDROOT
TORSDOF 0
ENDMDL
