MODEL 1
REMARK minimizedAffinity 7.6712451
REMARK minimizedRMSD -1
REMARK  0 active torsions:
REMARK  status: ('A' for Active; 'I' for Inactive)
ROOT
ATOM      1  C   UNL d   1       3.936  -5.904  -4.890  0.00  0.00     0.023 A 
ATOM      2  C1  UNL d   1       5.222  -5.362  -4.892  0.00  0.00     0.003 A 
ATOM      3  C2  UNL d   1       5.794  -4.914  -3.700  0.00  0.00     0.048 A 
ATOM      4  C3  UNL d   1       5.076  -5.012  -2.509  0.00  0.00     0.023 A 
ATOM      5  C4  UNL d   1       3.790  -5.554  -2.501  0.00  0.00     0.048 A 
ATOM      6  C5  UNL d   1       3.221  -6.000  -3.696  0.00  0.00     0.003 A 
ATOM      7  I   UNL d   1       5.926  -4.346  -0.733  0.00  0.00    -0.146 I 
ENDROOT
TORSDOF 0
ENDMDL
