MODEL 1
REMARK minimizedAffinity 7.65133572
REMARK minimizedRMSD -1
REMARK  0 active torsions:
REMARK  status: ('A' for Active; 'I' for Inactive)
ROOT
ATOM      1  C   UNL d   1      -0.503   4.012  -1.017  0.00  0.00     0.023 A 
ATOM      2  C1  UNL d   1       0.612   4.741  -0.603  0.00  0.00     0.003 A 
ATOM      3  C2  UNL d   1       1.318   4.351   0.537  0.00  0.00     0.048 A 
ATOM      4  C3  UNL d   1       0.903   3.232   1.259  0.00  0.00     0.023 A 
ATOM      5  C4  UNL d   1      -0.212   2.500   0.848  0.00  0.00     0.048 A 
ATOM      6  C5  UNL d   1      -0.915   2.893  -0.292  0.00  0.00     0.003 A 
ATOM      7  I   UNL d   1       1.952   2.651   2.956  0.00  0.00    -0.146 I 
ENDROOT
TORSDOF 0
ENDMDL
