MODEL 1
REMARK minimizedAffinity 4.10248852
REMARK minimizedRMSD -1
REMARK  0 active torsions:
REMARK  status: ('A' for Active; 'I' for Inactive)
ROOT
ATOM      1  C   UNL d   1       0.740   0.641   3.702  0.00  0.00     0.023 A 
ATOM      2  C1  UNL d   1      -0.485   1.168   3.292  0.00  0.00     0.003 A 
ATOM      3  C2  UNL d   1      -0.562   1.937   2.129  0.00  0.00     0.048 A 
ATOM      4  C3  UNL d   1       0.590   2.174   1.380  0.00  0.00     0.023 A 
ATOM      5  C4  UNL d   1       1.818   1.648   1.786  0.00  0.00     0.048 A 
ATOM      6  C5  UNL d   1       1.890   0.881   2.949  0.00  0.00     0.003 A 
ATOM      7  I   UNL d   1       0.478   3.319  -0.351  0.00  0.00    -0.146 I 
ENDROOT
TORSDOF 0
ENDMDL
