MODEL 1
REMARK minimizedAffinity 13.2312288
REMARK minimizedRMSD -1
REMARK  0 active torsions:
REMARK  status: ('A' for Active; 'I' for Inactive)
ROOT
ATOM      1  C   UNL d   1       5.962  -3.503  -0.780  0.00  0.00     0.023 A 
ATOM      2  C1  UNL d   1       5.073  -2.477  -0.458  0.00  0.00     0.003 A 
ATOM      3  C2  UNL d   1       3.697  -2.708  -0.493  0.00  0.00     0.048 A 
ATOM      4  C3  UNL d   1       3.216  -3.968  -0.849  0.00  0.00     0.023 A 
ATOM      5  C4  UNL d   1       4.102  -4.997  -1.171  0.00  0.00     0.048 A 
ATOM      6  C5  UNL d   1       5.477  -4.761  -1.136  0.00  0.00     0.003 A 
ATOM      7  I   UNL d   1       1.167  -4.314  -0.901  0.00  0.00    -0.146 I 
ENDROOT
TORSDOF 0
ENDMDL
