MODEL 1
REMARK minimizedAffinity -3.44491863
REMARK minimizedRMSD -1
REMARK  0 active torsions:
REMARK  status: ('A' for Active; 'I' for Inactive)
ROOT
ATOM      1  C1  DEN d   1      -0.972   3.291   3.920  0.00  0.00     0.130 A 
ATOM      2  C2  DEN d   1      -0.194   4.459   4.326  0.00  0.00    -0.031 A 
ATOM      3  C3  DEN d   1       0.858   4.681   3.314  0.00  0.00     0.027 A 
ATOM      4  C4  DEN d   1       1.352   3.342   1.165  0.00  0.00     0.027 A 
ATOM      5  C5  DEN d   1       0.968   2.261   0.404  0.00  0.00    -0.003 A 
ATOM      6  C6  DEN d   1      -0.059   1.434   0.775  0.00  0.00     0.001 A 
ATOM      7  C7  DEN d   1      -0.768   1.702   1.916  0.00  0.00     0.017 A 
ATOM      8  C8  DEN d   1      -0.382   2.786   2.694  0.00  0.00    -0.094 A 
ATOM      9  C9  DEN d   1       0.651   3.617   2.295  0.00  0.00    -0.072 A 
ENDROOT
TORSDOF 0
ENDMDL
