MODEL 1
REMARK minimizedAffinity 1.37577641
REMARK minimizedRMSD -1
REMARK  0 active torsions:
REMARK  status: ('A' for Active; 'I' for Inactive)
ROOT
ATOM      1  C1  DEN d   1       0.277   4.484   3.743  0.00  0.00     0.130 A 
ATOM      2  C2  DEN d   1      -1.011   4.290   4.403  0.00  0.00    -0.031 A 
ATOM      3  C3  DEN d   1      -1.686   3.146   3.760  0.00  0.00     0.027 A 
ATOM      4  C4  DEN d   1      -0.864   1.659   1.819  0.00  0.00     0.027 A 
ATOM      5  C5  DEN d   1       0.163   1.445   0.926  0.00  0.00    -0.003 A 
ATOM      6  C6  DEN d   1       1.275   2.243   0.887  0.00  0.00     0.001 A 
ATOM      7  C7  DEN d   1       1.408   3.267   1.788  0.00  0.00     0.017 A 
ATOM      8  C8  DEN d   1       0.374   3.493   2.686  0.00  0.00    -0.094 A 
ATOM      9  C9  DEN d   1      -0.737   2.668   2.718  0.00  0.00    -0.072 A 
ENDROOT
TORSDOF 0
ENDMDL
