MODEL 1
REMARK minimizedAffinity 5.54857302
REMARK minimizedRMSD -1
REMARK  0 active torsions:
REMARK  status: ('A' for Active; 'I' for Inactive)
ROOT
ATOM      1  C1  DEN d   1       0.753   0.635   0.915  0.00  0.00     0.130 A 
ATOM      2  C2  DEN d   1      -0.587   0.063   0.815  0.00  0.00    -0.031 A 
ATOM      3  C3  DEN d   1      -1.411   0.641   1.896  0.00  0.00     0.027 A 
ATOM      4  C4  DEN d   1      -0.748   2.359   3.701  0.00  0.00     0.027 A 
ATOM      5  C5  DEN d   1       0.284   3.125   4.197  0.00  0.00    -0.003 A 
ATOM      6  C6  DEN d   1       1.543   3.089   3.659  0.00  0.00     0.001 A 
ATOM      7  C7  DEN d   1       1.792   2.304   2.564  0.00  0.00     0.017 A 
ATOM      8  C8  DEN d   1       0.758   1.524   2.063  0.00  0.00    -0.094 A 
ATOM      9  C9  DEN d   1      -0.511   1.583   2.614  0.00  0.00    -0.072 A 
ENDROOT
TORSDOF 0
ENDMDL
