MODEL 1
REMARK minimizedAffinity -3.88966823
REMARK minimizedRMSD -1
REMARK  0 active torsions:
REMARK  status: ('A' for Active; 'I' for Inactive)
ROOT
ATOM      1  C1  DEN d   1       0.040   4.525   3.795  0.00  0.00     0.130 A 
ATOM      2  C2  DEN d   1      -1.131   4.315   4.643  0.00  0.00    -0.031 A 
ATOM      3  C3  DEN d   1      -1.755   3.036   4.251  0.00  0.00     0.027 A 
ATOM      4  C4  DEN d   1      -1.025   1.365   2.426  0.00  0.00     0.027 A 
ATOM      5  C5  DEN d   1      -0.098   1.117   1.438  0.00  0.00    -0.003 A 
ATOM      6  C6  DEN d   1       0.911   1.995   1.146  0.00  0.00     0.001 A 
ATOM      7  C7  DEN d   1       1.045   3.144   1.880  0.00  0.00     0.017 A 
ATOM      8  C8  DEN d   1       0.110   3.405   2.873  0.00  0.00    -0.094 A 
ATOM      9  C9  DEN d   1      -0.896   2.499   3.161  0.00  0.00    -0.072 A 
ENDROOT
TORSDOF 0
ENDMDL
