MODEL 1
REMARK minimizedAffinity 1.0649128
REMARK minimizedRMSD -1
REMARK  0 active torsions:
REMARK  status: ('A' for Active; 'I' for Inactive)
ROOT
ATOM      1  C1  DEN d   1      -0.731   1.270   1.832  0.00  0.00     0.130 A 
ATOM      2  C2  DEN d   1       0.308   1.526   0.838  0.00  0.00    -0.031 A 
ATOM      3  C3  DEN d   1       0.815   2.897   1.051  0.00  0.00     0.027 A 
ATOM      4  C4  DEN d   1       0.100   4.636   2.815  0.00  0.00     0.027 A 
ATOM      5  C5  DEN d   1      -0.753   4.881   3.869  0.00  0.00    -0.003 A 
ATOM      6  C6  DEN d   1      -1.674   3.960   4.292  0.00  0.00     0.001 A 
ATOM      7  C7  DEN d   1      -1.733   2.732   3.687  0.00  0.00     0.017 A 
ATOM      8  C8  DEN d   1      -0.882   2.481   2.620  0.00  0.00    -0.094 A 
ATOM      9  C9  DEN d   1       0.051   3.420   2.215  0.00  0.00    -0.072 A 
ENDROOT
TORSDOF 0
ENDMDL
