MODEL 1
REMARK minimizedAffinity 11.5224161
REMARK minimizedRMSD -1
REMARK  0 active torsions:
REMARK  status: ('A' for Active; 'I' for Inactive)
ROOT
ATOM      1  C1  DEN d   1      -0.600   0.934   1.765  0.00  0.00     0.130 A 
ATOM      2  C2  DEN d   1       0.346   0.603   0.702  0.00  0.00    -0.031 A 
ATOM      3  C3  DEN d   1       1.561   1.418   0.903  0.00  0.00     0.027 A 
ATOM      4  C4  DEN d   1       2.071   3.145   2.749  0.00  0.00     0.027 A 
ATOM      5  C5  DEN d   1       1.570   3.774   3.867  0.00  0.00    -0.003 A 
ATOM      6  C6  DEN d   1       0.308   3.527   4.339  0.00  0.00     0.001 A 
ATOM      7  C7  DEN d   1      -0.480   2.595   3.717  0.00  0.00     0.017 A 
ATOM      8  C8  DEN d   1       0.016   1.962   2.585  0.00  0.00    -0.094 A 
ATOM      9  C9  DEN d   1       1.299   2.216   2.130  0.00  0.00    -0.072 A 
ENDROOT
TORSDOF 0
ENDMDL
