MODEL 1
REMARK minimizedAffinity 1.71600235
REMARK minimizedRMSD -1
REMARK  0 active torsions:
REMARK  status: ('A' for Active; 'I' for Inactive)
ROOT
ATOM      1  C1  DEN d   1      -2.564   0.817   1.134  0.00  0.00     0.130 A 
ATOM      2  C2  DEN d   1      -1.185   0.339   1.089  0.00  0.00    -0.031 A 
ATOM      3  C3  DEN d   1      -1.133  -0.971   1.768  0.00  0.00     0.027 A 
ATOM      4  C4  DEN d   1      -3.045  -2.301   2.876  0.00  0.00     0.027 A 
ATOM      5  C5  DEN d   1      -4.389  -2.295   3.176  0.00  0.00    -0.003 A 
ATOM      6  C6  DEN d   1      -5.206  -1.246   2.849  0.00  0.00     0.001 A 
ATOM      7  C7  DEN d   1      -4.695  -0.176   2.162  0.00  0.00     0.017 A 
ATOM      8  C8  DEN d   1      -3.339  -0.171   1.863  0.00  0.00    -0.094 A 
ATOM      9  C9  DEN d   1      -2.532  -1.248   2.191  0.00  0.00    -0.072 A 
ENDROOT
TORSDOF 0
ENDMDL
