MODEL 1
REMARK minimizedAffinity 9.08665562
REMARK minimizedRMSD -1
REMARK  0 active torsions:
REMARK  status: ('A' for Active; 'I' for Inactive)
ROOT
ATOM      1  C1  DEN d   1       3.713   1.706  -2.633  0.00  0.00     0.130 A 
ATOM      2  C2  DEN d   1       2.963   2.671  -1.835  0.00  0.00    -0.031 A 
ATOM      3  C3  DEN d   1       2.878   3.930  -2.602  0.00  0.00     0.027 A 
ATOM      4  C4  DEN d   1       3.828   4.473  -4.938  0.00  0.00     0.027 A 
ATOM      5  C5  DEN d   1       4.550   3.975  -6.000  0.00  0.00    -0.003 A 
ATOM      6  C6  DEN d   1       5.069   2.708  -6.000  0.00  0.00     0.001 A 
ATOM      7  C7  DEN d   1       4.834   1.878  -4.935  0.00  0.00     0.017 A 
ATOM      8  C8  DEN d   1       4.113   2.376  -3.857  0.00  0.00    -0.094 A 
ATOM      9  C9  DEN d   1       3.587   3.656  -3.882  0.00  0.00    -0.072 A 
ENDROOT
TORSDOF 0
ENDMDL
