MODEL 1
REMARK minimizedAffinity 9.05840206
REMARK minimizedRMSD -1
REMARK  0 active torsions:
REMARK  status: ('A' for Active; 'I' for Inactive)
ROOT
ATOM      1  C1  DEN d   1       1.447   1.445   0.610  0.00  0.00     0.130 A 
ATOM      2  C2  DEN d   1       0.072   0.979   0.457  0.00  0.00    -0.031 A 
ATOM      3  C3  DEN d   1      -0.737   1.581   1.537  0.00  0.00     0.027 A 
ATOM      4  C4  DEN d   1       0.004   3.183   3.417  0.00  0.00     0.027 A 
ATOM      5  C5  DEN d   1       1.076   3.853   3.964  0.00  0.00    -0.003 A 
ATOM      6  C6  DEN d   1       2.343   3.741   3.456  0.00  0.00     0.001 A 
ATOM      7  C7  DEN d   1       2.562   2.976   2.340  0.00  0.00     0.017 A 
ATOM      8  C8  DEN d   1       1.487   2.292   1.788  0.00  0.00    -0.094 A 
ATOM      9  C9  DEN d   1       0.212   2.428   2.309  0.00  0.00    -0.072 A 
ENDROOT
TORSDOF 0
ENDMDL
