MODEL 1
REMARK minimizedAffinity 4.51862955
REMARK minimizedRMSD -1
REMARK  0 active torsions:
REMARK  status: ('A' for Active; 'I' for Inactive)
ROOT
ATOM      1  C1  DEN d   1       1.108   2.990   1.996  0.00  0.00     0.130 A 
ATOM      2  C2  DEN d   1       0.370   1.846   1.467  0.00  0.00    -0.031 A 
ATOM      3  C3  DEN d   1      -0.897   1.735   2.217  0.00  0.00     0.027 A 
ATOM      4  C4  DEN d   1      -1.786   3.218   4.131  0.00  0.00     0.027 A 
ATOM      5  C5  DEN d   1      -1.508   4.303   4.932  0.00  0.00    -0.003 A 
ATOM      6  C6  DEN d   1      -0.333   5.001   4.834  0.00  0.00     0.001 A 
ATOM      7  C7  DEN d   1       0.589   4.648   3.884  0.00  0.00     0.017 A 
ATOM      8  C8  DEN d   1       0.318   3.550   3.078  0.00  0.00    -0.094 A 
ATOM      9  C9  DEN d   1      -0.880   2.865   3.184  0.00  0.00    -0.072 A 
ENDROOT
TORSDOF 0
ENDMDL
