MODEL 1
REMARK minimizedAffinity -1.94922256
REMARK minimizedRMSD -1
REMARK  0 active torsions:
REMARK  status: ('A' for Active; 'I' for Inactive)
ROOT
ATOM      1  C1  DEN d   1      -2.263   2.910   3.574  0.00  0.00     0.130 A 
ATOM      2  C2  DEN d   1      -1.751   3.465   4.824  0.00  0.00    -0.031 A 
ATOM      3  C3  DEN d   1      -0.277   3.384   4.789  0.00  0.00     0.027 A 
ATOM      4  C4  DEN d   1       1.254   2.463   2.928  0.00  0.00     0.027 A 
ATOM      5  C5  DEN d   1       1.278   1.875   1.683  0.00  0.00    -0.003 A 
ATOM      6  C6  DEN d   1       0.132   1.562   1.001  0.00  0.00     0.001 A 
ATOM      7  C7  DEN d   1      -1.087   1.878   1.541  0.00  0.00     0.017 A 
ATOM      8  C8  DEN d   1      -1.119   2.464   2.799  0.00  0.00    -0.094 A 
ATOM      9  C9  DEN d   1       0.051   2.783   3.467  0.00  0.00    -0.072 A 
ENDROOT
TORSDOF 0
ENDMDL
