MODEL 1
REMARK minimizedAffinity 7.79799461
REMARK minimizedRMSD -1
REMARK  0 active torsions:
REMARK  status: ('A' for Active; 'I' for Inactive)
ROOT
ATOM      1  C1  DEN d   1      -4.165   0.426   2.500  0.00  0.00     0.130 A 
ATOM      2  C2  DEN d   1      -5.133  -0.247   3.362  0.00  0.00    -0.031 A 
ATOM      3  C3  DEN d   1      -4.499  -1.472   3.891  0.00  0.00     0.027 A 
ATOM      4  C4  DEN d   1      -2.124  -2.383   3.466  0.00  0.00     0.027 A 
ATOM      5  C5  DEN d   1      -0.941  -2.164   2.795  0.00  0.00    -0.003 A 
ATOM      6  C6  DEN d   1      -0.763  -1.093   1.959  0.00  0.00     0.001 A 
ATOM      7  C7  DEN d   1      -1.769  -0.176   1.807  0.00  0.00     0.017 A 
ATOM      8  C8  DEN d   1      -2.967  -0.394   2.474  0.00  0.00    -0.094 A 
ATOM      9  C9  DEN d   1      -3.123  -1.476   3.324  0.00  0.00    -0.072 A 
ENDROOT
TORSDOF 0
ENDMDL
