MODEL 1
REMARK minimizedAffinity 14.0725107
REMARK minimizedRMSD -1
REMARK  0 active torsions:
REMARK  status: ('A' for Active; 'I' for Inactive)
ROOT
ATOM      1  C1  DEN d   1      -0.295   3.649   4.783  0.00  0.00     0.130 A 
ATOM      2  C2  DEN d   1      -1.511   3.459   5.570  0.00  0.00    -0.031 A 
ATOM      3  C3  DEN d   1      -2.437   2.619   4.783  0.00  0.00     0.027 A 
ATOM      4  C4  DEN d   1      -2.106   1.598   2.438  0.00  0.00     0.027 A 
ATOM      5  C5  DEN d   1      -1.241   1.492   1.371  0.00  0.00    -0.003 A 
ATOM      6  C6  DEN d   1      -0.025   2.121   1.353  0.00  0.00     0.001 A 
ATOM      7  C7  DEN d   1       0.381   2.847   2.441  0.00  0.00     0.017 A 
ATOM      8  C8  DEN d   1      -0.489   2.964   3.518  0.00  0.00    -0.094 A 
ATOM      9  C9  DEN d   1      -1.710   2.311   3.522  0.00  0.00    -0.072 A 
ENDROOT
TORSDOF 0
ENDMDL
