MODEL 1
REMARK minimizedAffinity 8.14372444
REMARK minimizedRMSD -1
REMARK  0 active torsions:
REMARK  status: ('A' for Active; 'I' for Inactive)
ROOT
ATOM      1  C1  DEN d   1       2.168   4.828   5.301  0.00  0.00     0.130 A 
ATOM      2  C2  DEN d   1       3.244   5.278   4.423  0.00  0.00    -0.031 A 
ATOM      3  C3  DEN d   1       2.985   4.743   3.071  0.00  0.00     0.027 A 
ATOM      4  C4  DEN d   1       1.029   3.272   2.256  0.00  0.00     0.027 A 
ATOM      5  C5  DEN d   1      -0.124   2.625   2.641  0.00  0.00    -0.003 A 
ATOM      6  C6  DEN d   1      -0.573   2.638   3.935  0.00  0.00     0.001 A 
ATOM      7  C7  DEN d   1       0.113   3.350   4.883  0.00  0.00     0.017 A 
ATOM      8  C8  DEN d   1       1.281   3.999   4.505  0.00  0.00    -0.094 A 
ATOM      9  C9  DEN d   1       1.711   3.984   3.189  0.00  0.00    -0.072 A 
ENDROOT
TORSDOF 0
ENDMDL
