MODEL 1
REMARK minimizedAffinity 8.46220016
REMARK minimizedRMSD -1
REMARK  0 active torsions:
REMARK  status: ('A' for Active; 'I' for Inactive)
ROOT
ATOM      1  C1  DEN d   1      -0.409   0.936   1.394  0.00  0.00     0.130 A 
ATOM      2  C2  DEN d   1      -1.701   0.255   1.416  0.00  0.00    -0.031 A 
ATOM      3  C3  DEN d   1      -2.487   0.804   2.539  0.00  0.00     0.027 A 
ATOM      4  C4  DEN d   1      -1.835   2.635   4.234  0.00  0.00     0.027 A 
ATOM      5  C5  DEN d   1      -0.836   3.499   4.625  0.00  0.00    -0.003 A 
ATOM      6  C6  DEN d   1       0.378   3.545   3.992  0.00  0.00     0.001 A 
ATOM      7  C7  DEN d   1       0.608   2.743   2.905  0.00  0.00     0.017 A 
ATOM      8  C8  DEN d   1      -0.392   1.864   2.511  0.00  0.00    -0.094 A 
ATOM      9  C9  DEN d   1      -1.617   1.841   3.156  0.00  0.00    -0.072 A 
ENDROOT
TORSDOF 0
ENDMDL
