MODEL 1
REMARK minimizedAffinity 8.49077988
REMARK minimizedRMSD -1
REMARK  0 active torsions:
REMARK  status: ('A' for Active; 'I' for Inactive)
ROOT
ATOM      1  C1  DEN d   1       2.162  -5.611  -3.607  0.00  0.00     0.130 A 
ATOM      2  C2  DEN d   1       1.370  -5.835  -4.813  0.00  0.00    -0.031 A 
ATOM      3  C3  DEN d   1       2.302  -5.994  -5.948  0.00  0.00     0.027 A 
ATOM      4  C4  DEN d   1       4.880  -5.920  -5.953  0.00  0.00     0.027 A 
ATOM      5  C5  DEN d   1       6.000  -5.745  -5.170  0.00  0.00    -0.003 A 
ATOM      6  C6  DEN d   1       5.918  -5.482  -3.828  0.00  0.00     0.001 A 
ATOM      7  C7  DEN d   1       4.692  -5.430  -3.220  0.00  0.00     0.017 A 
ATOM      8  C8  DEN d   1       3.559  -5.598  -4.004  0.00  0.00    -0.094 A 
ATOM      9  C9  DEN d   1       3.662  -5.876  -5.356  0.00  0.00    -0.072 A 
ENDROOT
TORSDOF 0
ENDMDL
