MODEL 1
REMARK minimizedAffinity 11.1225443
REMARK minimizedRMSD -1
REMARK  0 active torsions:
REMARK  status: ('A' for Active; 'I' for Inactive)
ROOT
ATOM      1  C1  DEN d   1       1.246  -3.711  -2.454  0.00  0.00     0.130 A 
ATOM      2  C2  DEN d   1       0.171  -4.336  -1.688  0.00  0.00    -0.031 A 
ATOM      3  C3  DEN d   1       0.140  -3.712  -0.350  0.00  0.00     0.027 A 
ATOM      4  C4  DEN d   1       1.642  -1.845   0.604  0.00  0.00     0.027 A 
ATOM      5  C5  DEN d   1       2.702  -1.009   0.333  0.00  0.00    -0.003 A 
ATOM      6  C6  DEN d   1       3.368  -1.038  -0.864  0.00  0.00     0.001 A 
ATOM      7  C7  DEN d   1       2.951  -1.890  -1.852  0.00  0.00     0.017 A 
ATOM      8  C8  DEN d   1       1.887  -2.742  -1.583  0.00  0.00    -0.094 A 
ATOM      9  C9  DEN d   1       1.220  -2.689  -0.372  0.00  0.00    -0.072 A 
ENDROOT
TORSDOF 0
ENDMDL
