MODEL 1
REMARK minimizedAffinity -0.914349675
REMARK minimizedRMSD -1
REMARK  0 active torsions:
REMARK  status: ('A' for Active; 'I' for Inactive)
ROOT
ATOM      1  C1  DEN d   1       0.020   1.337   0.081  0.00  0.00     0.130 A 
ATOM      2  C2  DEN d   1      -1.149   0.642   0.612  0.00  0.00    -0.031 A 
ATOM      3  C3  DEN d   1      -1.343   1.079   2.009  0.00  0.00     0.027 A 
ATOM      4  C4  DEN d   1       0.042   2.759   3.392  0.00  0.00     0.027 A 
ATOM      5  C5  DEN d   1       1.135   3.596   3.373  0.00  0.00    -0.003 A 
ATOM      6  C6  DEN d   1       1.947   3.713   2.276  0.00  0.00     0.001 A 
ATOM      7  C7  DEN d   1       1.651   3.014   1.136  0.00  0.00     0.017 A 
ATOM      8  C8  DEN d   1       0.554   2.162   1.149  0.00  0.00    -0.094 A 
ATOM      9  C9  DEN d   1      -0.261   2.067   2.265  0.00  0.00    -0.072 A 
ENDROOT
TORSDOF 0
ENDMDL
