MODEL 1
REMARK minimizedAffinity 6.32263947
REMARK minimizedRMSD -1
REMARK  0 active torsions:
REMARK  status: ('A' for Active; 'I' for Inactive)
ROOT
ATOM      1  C2' OXE d   1       1.105   4.260  -0.399  0.00  0.00     0.078 C 
ATOM      2  C1' OXE d   1      -1.180   5.022   1.043  0.00  0.00     0.078 C 
ATOM      3  C1  OXE d   1      -0.393   3.838   1.546  0.00  0.00    -0.078 A 
ATOM      4  C2  OXE d   1       0.697   3.443   0.808  0.00  0.00    -0.078 A 
ATOM      5  C3  OXE d   1       1.489   2.391   1.257  0.00  0.00     0.003 A 
ATOM      6  C4  OXE d   1       1.099   1.634   2.368  0.00  0.00    -0.002 A 
ATOM      7  C5  OXE d   1      -0.030   1.994   3.111  0.00  0.00    -0.002 A 
ATOM      8  C6  OXE d   1      -0.761   3.117   2.739  0.00  0.00     0.003 A 
ENDROOT
TORSDOF 0
ENDMDL
