MODEL 1
REMARK minimizedAffinity 1.5414027
REMARK minimizedRMSD -1
REMARK  0 active torsions:
REMARK  status: ('A' for Active; 'I' for Inactive)
ROOT
ATOM      1  C2' OXE d   1      -5.998   3.405  -5.945  0.00  0.00     0.078 C 
ATOM      2  C1' OXE d   1      -3.661   4.833  -5.329  0.00  0.00     0.078 C 
ATOM      3  C1  OXE d   1      -4.260   3.965  -4.251  0.00  0.00    -0.078 A 
ATOM      4  C2  OXE d   1      -5.429   3.306  -4.546  0.00  0.00    -0.078 A 
ATOM      5  C3  OXE d   1      -5.995   2.450  -3.605  0.00  0.00     0.003 A 
ATOM      6  C4  OXE d   1      -5.468   2.372  -2.310  0.00  0.00    -0.002 A 
ATOM      7  C5  OXE d   1      -4.300   3.066  -1.976  0.00  0.00    -0.002 A 
ATOM      8  C6  OXE d   1      -3.661   3.831  -2.946  0.00  0.00     0.003 A 
ENDROOT
TORSDOF 0
ENDMDL
