MODEL 1
REMARK minimizedAffinity 1.06831419
REMARK minimizedRMSD -1
REMARK  0 active torsions:
REMARK  status: ('A' for Active; 'I' for Inactive)
ROOT
ATOM      1  C2' OXE d   1      -6.000   3.311  -2.030  0.00  0.00     0.078 C 
ATOM      2  C1' OXE d   1      -3.574   1.974  -2.486  0.00  0.00     0.078 C 
ATOM      3  C1  OXE d   1      -4.196   2.717  -3.642  0.00  0.00    -0.078 A 
ATOM      4  C2  OXE d   1      -5.407   3.329  -3.422  0.00  0.00    -0.078 A 
ATOM      5  C3  OXE d   1      -5.997   4.073  -4.439  0.00  0.00     0.003 A 
ATOM      6  C4  OXE d   1      -5.447   4.076  -5.727  0.00  0.00    -0.002 A 
ATOM      7  C5  OXE d   1      -4.235   3.426  -5.982  0.00  0.00    -0.002 A 
ATOM      8  C6  OXE d   1      -3.576   2.779  -4.942  0.00  0.00     0.003 A 
ENDROOT
TORSDOF 0
ENDMDL
