MODEL 1
REMARK minimizedAffinity 0.0431217849
REMARK minimizedRMSD -1
REMARK  0 active torsions:
REMARK  status: ('A' for Active; 'I' for Inactive)
ROOT
ATOM      1  C2' OXE d   1      -2.990   2.612  -2.505  0.00  0.00     0.078 C 
ATOM      2  C1' OXE d   1      -5.753   2.130  -2.399  0.00  0.00     0.078 C 
ATOM      3  C1  OXE d   1      -5.183   2.674  -3.685  0.00  0.00    -0.078 A 
ATOM      4  C2  OXE d   1      -3.837   2.951  -3.712  0.00  0.00    -0.078 A 
ATOM      5  C3  OXE d   1      -3.250   3.404  -4.891  0.00  0.00     0.003 A 
ATOM      6  C4  OXE d   1      -4.043   3.724  -6.000  0.00  0.00    -0.002 A 
ATOM      7  C5  OXE d   1      -5.421   3.487  -5.979  0.00  0.00    -0.002 A 
ATOM      8  C6  OXE d   1      -5.999   2.924  -4.847  0.00  0.00     0.003 A 
ENDROOT
TORSDOF 0
ENDMDL
