MODEL 1
REMARK minimizedAffinity 4.51570177
REMARK minimizedRMSD -1
REMARK  0 active torsions:
REMARK  status: ('A' for Active; 'I' for Inactive)
ROOT
ATOM      1  C2' OXE d   1      -4.626   3.783  -4.762  0.00  0.00     0.078 C 
ATOM      2  C1' OXE d   1      -5.904   5.101  -2.639  0.00  0.00     0.078 C 
ATOM      3  C1  OXE d   1      -5.642   3.623  -2.493  0.00  0.00    -0.078 A 
ATOM      4  C2  OXE d   1      -5.058   2.977  -3.556  0.00  0.00    -0.078 A 
ATOM      5  C3  OXE d   1      -4.744   1.624  -3.452  0.00  0.00     0.003 A 
ATOM      6  C4  OXE d   1      -5.157   0.884  -2.338  0.00  0.00    -0.002 A 
ATOM      7  C5  OXE d   1      -5.788   1.515  -1.261  0.00  0.00    -0.002 A 
ATOM      8  C6  OXE d   1      -6.000   2.889  -1.304  0.00  0.00     0.003 A 
ENDROOT
TORSDOF 0
ENDMDL
