MODEL 1
REMARK minimizedAffinity 0.172848821
REMARK minimizedRMSD -1
REMARK  0 active torsions:
REMARK  status: ('A' for Active; 'I' for Inactive)
ROOT
ATOM      1  C2' OXE d   1       0.278   1.927  -0.420  0.00  0.00     0.078 C 
ATOM      2  C1' OXE d   1      -0.018   2.609   2.287  0.00  0.00     0.078 C 
ATOM      3  C1  OXE d   1      -0.243   3.691   1.260  0.00  0.00    -0.078 A 
ATOM      4  C2  OXE d   1      -0.050   3.360  -0.060  0.00  0.00    -0.078 A 
ATOM      5  C3  OXE d   1      -0.298   4.305  -1.051  0.00  0.00     0.003 A 
ATOM      6  C4  OXE d   1      -0.591   5.631  -0.709  0.00  0.00    -0.002 A 
ATOM      7  C5  OXE d   1      -0.753   5.999   0.631  0.00  0.00    -0.002 A 
ATOM      8  C6  OXE d   1      -0.624   5.033   1.624  0.00  0.00     0.003 A 
ENDROOT
TORSDOF 0
ENDMDL
