MODEL 1
REMARK minimizedAffinity 12.46803
REMARK minimizedRMSD -1
REMARK  0 active torsions:
REMARK  status: ('A' for Active; 'I' for Inactive)
ROOT
ATOM      1  C4' PXY d   1       2.260  -2.306   4.418  0.00  0.00     0.077 C 
ATOM      2  C1' PXY d   1       0.269   2.683   2.283  0.00  0.00     0.077 C 
ATOM      3  C1  PXY d   1       0.795   1.371   2.831  0.00  0.00    -0.082 A 
ATOM      4  C2  PXY d   1       0.310   0.895   3.967  0.00  0.00     0.003 A 
ATOM      5  C3  PXY d   1       0.797  -0.274   4.493  0.00  0.00     0.003 A 
ATOM      6  C4  PXY d   1       1.752  -0.990   3.823  0.00  0.00    -0.082 A 
ATOM      7  C5  PXY d   1       2.244  -0.517   2.658  0.00  0.00     0.003 A 
ATOM      8  C6  PXY d   1       1.766   0.693   2.162  0.00  0.00     0.003 A 
ENDROOT
TORSDOF 0
ENDMDL
