MODEL 1
REMARK minimizedAffinity 11.1580696
REMARK minimizedRMSD -1
REMARK  0 active torsions:
REMARK  status: ('A' for Active; 'I' for Inactive)
ROOT
ATOM      1  C4' PXY d   1      -0.421   3.333   0.649  0.00  0.00     0.077 C 
ATOM      2  C1' PXY d   1      -1.155  -1.227  -2.827  0.00  0.00     0.077 C 
ATOM      3  C1  PXY d   1      -0.975  -0.027  -1.919  0.00  0.00    -0.082 A 
ATOM      4  C2  PXY d   1       0.245   0.357  -1.578  0.00  0.00     0.003 A 
ATOM      5  C3  PXY d   1       0.425   1.421  -0.732  0.00  0.00     0.003 A 
ATOM      6  C4  PXY d   1      -0.651   2.132  -0.273  0.00  0.00    -0.082 A 
ATOM      7  C5  PXY d   1      -1.898   1.753  -0.626  0.00  0.00     0.003 A 
ATOM      8  C6  PXY d   1      -2.062   0.646  -1.452  0.00  0.00     0.003 A 
ENDROOT
TORSDOF 0
ENDMDL
