MODEL 1
REMARK minimizedAffinity 4.02211523
REMARK minimizedRMSD -1
REMARK  0 active torsions:
REMARK  status: ('A' for Active; 'I' for Inactive)
ROOT
ATOM      1  C4' PXY d   1       1.501   2.096   3.596  0.00  0.00     0.077 C 
ATOM      2  C1' PXY d   1       0.134   5.298  -1.018  0.00  0.00     0.077 C 
ATOM      3  C1  PXY d   1       0.505   4.460   0.189  0.00  0.00    -0.082 A 
ATOM      4  C2  PXY d   1      -0.371   3.599   0.682  0.00  0.00     0.003 A 
ATOM      5  C3  PXY d   1      -0.063   2.856   1.793  0.00  0.00     0.003 A 
ATOM      6  C4  PXY d   1       1.173   2.956   2.373  0.00  0.00    -0.082 A 
ATOM      7  C5  PXY d   1       2.076   3.824   1.869  0.00  0.00     0.003 A 
ATOM      8  C6  PXY d   1       1.729   4.599   0.766  0.00  0.00     0.003 A 
ENDROOT
TORSDOF 0
ENDMDL
