MODEL 1
REMARK minimizedAffinity 6.19183588
REMARK minimizedRMSD -1
REMARK  0 active torsions:
REMARK  status: ('A' for Active; 'I' for Inactive)
ROOT
ATOM      1  C4' PXY d   1      -1.497   3.460   2.717  0.00  0.00     0.077 C 
ATOM      2  C1' PXY d   1       0.829   6.000  -1.925  0.00  0.00     0.077 C 
ATOM      3  C1  PXY d   1       0.216   5.345  -0.703  0.00  0.00    -0.082 A 
ATOM      4  C2  PXY d   1       0.606   4.133  -0.345  0.00  0.00     0.003 A 
ATOM      5  C3  PXY d   1       0.039   3.514   0.739  0.00  0.00     0.003 A 
ATOM      6  C4  PXY d   1      -0.899   4.163   1.496  0.00  0.00    -0.082 A 
ATOM      7  C5  PXY d   1      -1.295   5.405   1.143  0.00  0.00     0.003 A 
ATOM      8  C6  PXY d   1      -0.737   6.000   0.015  0.00  0.00     0.003 A 
ENDROOT
TORSDOF 0
ENDMDL
