MODEL 1
REMARK minimizedAffinity 6.50263977
REMARK minimizedRMSD -1
REMARK  0 active torsions:
REMARK  status: ('A' for Active; 'I' for Inactive)
ROOT
ATOM      1  C4' PXY d   1      -3.759   0.717   0.718  0.00  0.00     0.077 C 
ATOM      2  C1' PXY d   1       0.901   4.138   0.657  0.00  0.00     0.077 C 
ATOM      3  C1  PXY d   1      -0.325   3.247   0.662  0.00  0.00    -0.082 A 
ATOM      4  C2  PXY d   1      -0.769   2.751   1.805  0.00  0.00     0.003 A 
ATOM      5  C3  PXY d   1      -1.857   1.917   1.824  0.00  0.00     0.003 A 
ATOM      6  C4  PXY d   1      -2.530   1.630   0.666  0.00  0.00    -0.082 A 
ATOM      7  C5  PXY d   1      -2.090   2.141  -0.503  0.00  0.00     0.003 A 
ATOM      8  C6  PXY d   1      -0.959   2.952  -0.506  0.00  0.00     0.003 A 
ENDROOT
TORSDOF 0
ENDMDL
