MODEL 1
REMARK minimizedAffinity 11.3170366
REMARK minimizedRMSD -1
REMARK  0 active torsions:
REMARK  status: ('A' for Active; 'I' for Inactive)
ROOT
ATOM      1  C4' PXY d   1      -0.028   1.814   3.068  0.00  0.00     0.077 C 
ATOM      2  C1' PXY d   1      -0.463   5.828  -1.068  0.00  0.00     0.077 C 
ATOM      3  C1  PXY d   1      -0.345   4.767   0.008  0.00  0.00    -0.082 A 
ATOM      4  C2  PXY d   1      -1.097   4.849   1.094  0.00  0.00     0.003 A 
ATOM      5  C3  PXY d   1      -0.979   3.915   2.091  0.00  0.00     0.003 A 
ATOM      6  C4  PXY d   1      -0.121   2.857   1.952  0.00  0.00    -0.082 A 
ATOM      7  C5  PXY d   1       0.641   2.761   0.843  0.00  0.00     0.003 A 
ATOM      8  C6  PXY d   1       0.537   3.741  -0.140  0.00  0.00     0.003 A 
ENDROOT
TORSDOF 0
ENDMDL
