MODEL 1
REMARK minimizedAffinity 4.43804789
REMARK minimizedRMSD -1
REMARK  0 active torsions:
REMARK  status: ('A' for Active; 'I' for Inactive)
ROOT
ATOM      1  C4' PXY d   1      -5.928  -6.000  -4.866  0.00  0.00     0.077 C 
ATOM      2  C1' PXY d   1      -0.148  -5.916  -4.849  0.00  0.00     0.077 C 
ATOM      3  C1  PXY d   1      -1.664  -5.943  -4.841  0.00  0.00    -0.082 A 
ATOM      4  C2  PXY d   1      -2.323  -5.998  -5.987  0.00  0.00     0.003 A 
ATOM      5  C3  PXY d   1      -3.694  -5.991  -6.000  0.00  0.00     0.003 A 
ATOM      6  C4  PXY d   1      -4.398  -5.980  -4.826  0.00  0.00    -0.082 A 
ATOM      7  C5  PXY d   1      -3.733  -5.935  -3.652  0.00  0.00     0.003 A 
ATOM      8  C6  PXY d   1      -2.341  -5.902  -3.662  0.00  0.00     0.003 A 
ENDROOT
TORSDOF 0
ENDMDL
