MODEL 1
REMARK minimizedAffinity 12.3499117
REMARK minimizedRMSD -1
REMARK  0 active torsions:
REMARK  status: ('A' for Active; 'I' for Inactive)
ROOT
ATOM      1  C4' PXY d   1      -1.424  -1.446  -1.932  0.00  0.00     0.077 C 
ATOM      2  C1' PXY d   1       1.829  -0.130   2.662  0.00  0.00     0.077 C 
ATOM      3  C1  PXY d   1       0.977  -0.462   1.453  0.00  0.00    -0.082 A 
ATOM      4  C2  PXY d   1       0.103  -1.453   1.521  0.00  0.00     0.003 A 
ATOM      5  C3  PXY d   1      -0.652  -1.788   0.427  0.00  0.00     0.003 A 
ATOM      6  C4  PXY d   1      -0.550  -1.068  -0.733  0.00  0.00    -0.082 A 
ATOM      7  C5  PXY d   1       0.332  -0.049  -0.807  0.00  0.00     0.003 A 
ATOM      8  C6  PXY d   1       1.119   0.249   0.302  0.00  0.00     0.003 A 
ENDROOT
TORSDOF 0
ENDMDL
