MODEL 1
REMARK minimizedAffinity 8.6608305
REMARK minimizedRMSD -1
REMARK  0 active torsions:
REMARK  status: ('A' for Active; 'I' for Inactive)
ROOT
ATOM      1  C4' PXY d   1      -5.997  -1.374   5.406  0.00  0.00     0.077 C 
ATOM      2  C1' PXY d   1      -2.374   0.542   1.330  0.00  0.00     0.077 C 
ATOM      3  C1  PXY d   1      -3.319   0.027   2.398  0.00  0.00    -0.082 A 
ATOM      4  C2  PXY d   1      -4.461   0.657   2.619  0.00  0.00     0.003 A 
ATOM      5  C3  PXY d   1      -5.313   0.225   3.602  0.00  0.00     0.003 A 
ATOM      6  C4  PXY d   1      -5.016  -0.896   4.332  0.00  0.00    -0.082 A 
ATOM      7  C5  PXY d   1      -3.858  -1.550   4.105  0.00  0.00     0.003 A 
ATOM      8  C6  PXY d   1      -2.988  -1.071   3.130  0.00  0.00     0.003 A 
ENDROOT
TORSDOF 0
ENDMDL
