MODEL 1
REMARK minimizedAffinity -3.68992877
REMARK minimizedRMSD -1
REMARK  0 active torsions:
REMARK  status: ('A' for Active; 'I' for Inactive)
ROOT
ATOM      1  C2' OXE d   1      -0.697  -2.314  -1.079  0.00  0.00     0.078 C 
ATOM      2  C1' OXE d   1       1.927  -1.822  -0.213  0.00  0.00     0.078 C 
ATOM      3  C1  OXE d   1       0.991  -0.645  -0.324  0.00  0.00    -0.078 A 
ATOM      4  C2  OXE d   1      -0.278  -0.889  -0.793  0.00  0.00    -0.078 A 
ATOM      5  C3  OXE d   1      -1.199   0.153  -0.862  0.00  0.00     0.003 A 
ATOM      6  C4  OXE d   1      -0.800   1.470  -0.606  0.00  0.00    -0.002 A 
ATOM      7  C5  OXE d   1       0.499   1.745  -0.165  0.00  0.00    -0.002 A 
ATOM      8  C6  OXE d   1       1.392   0.696   0.022  0.00  0.00     0.003 A 
ENDROOT
TORSDOF 0
ENDMDL
