MODEL 1
REMARK minimizedAffinity -1.65367818
REMARK minimizedRMSD -1
REMARK  0 active torsions:
REMARK  status: ('A' for Active; 'I' for Inactive)
ROOT
ATOM      1  C2' OXE d   1       3.026  -0.903   0.318  0.00  0.00     0.078 C 
ATOM      2  C1' OXE d   1       1.572   1.497   0.418  0.00  0.00     0.078 C 
ATOM      3  C1  OXE d   1       0.819   0.231   0.091  0.00  0.00    -0.078 A 
ATOM      4  C2  OXE d   1       1.546  -0.931  -0.002  0.00  0.00    -0.078 A 
ATOM      5  C3  OXE d   1       0.893  -2.135  -0.247  0.00  0.00     0.003 A 
ATOM      6  C4  OXE d   1      -0.474  -2.151  -0.551  0.00  0.00    -0.002 A 
ATOM      7  C5  OXE d   1      -1.226  -0.972  -0.501  0.00  0.00    -0.002 A 
ATOM      8  C6  OXE d   1      -0.604   0.218  -0.141  0.00  0.00     0.003 A 
ENDROOT
TORSDOF 0
ENDMDL
