MODEL 1
REMARK minimizedAffinity -1.91095817
REMARK minimizedRMSD -1
REMARK  0 active torsions:
REMARK  status: ('A' for Active; 'I' for Inactive)
ROOT
ATOM      1  C2' OXE d   1       1.855  -1.841  -0.097  0.00  0.00     0.078 C 
ATOM      2  C1' OXE d   1      -0.599  -2.815  -1.050  0.00  0.00     0.078 C 
ATOM      3  C1  OXE d   1      -0.545  -1.382  -0.584  0.00  0.00    -0.078 A 
ATOM      4  C2  OXE d   1       0.648  -0.928  -0.075  0.00  0.00    -0.078 A 
ATOM      5  C3  OXE d   1       0.768   0.402   0.318  0.00  0.00     0.003 A 
ATOM      6  C4  OXE d   1      -0.355   1.238   0.344  0.00  0.00    -0.002 A 
ATOM      7  C5  OXE d   1      -1.589   0.783  -0.132  0.00  0.00    -0.002 A 
ATOM      8  C6  OXE d   1      -1.691  -0.508  -0.638  0.00  0.00     0.003 A 
ENDROOT
TORSDOF 0
ENDMDL
