MODEL 1
REMARK minimizedAffinity -2.68748951
REMARK minimizedRMSD -1
REMARK  0 active torsions:
REMARK  status: ('A' for Active; 'I' for Inactive)
ROOT
ATOM      1  C2' OXE d   1       0.748   1.999  -0.331  0.00  0.00     0.078 C 
ATOM      2  C1' OXE d   1      -1.623   0.698   0.422  0.00  0.00     0.078 C 
ATOM      3  C1  OXE d   1      -0.425  -0.157   0.096  0.00  0.00    -0.078 A 
ATOM      4  C2  OXE d   1       0.717   0.486  -0.317  0.00  0.00    -0.078 A 
ATOM      5  C3  OXE d   1       1.868  -0.253  -0.577  0.00  0.00     0.003 A 
ATOM      6  C4  OXE d   1       1.829  -1.652  -0.571  0.00  0.00    -0.002 A 
ATOM      7  C5  OXE d   1       0.664  -2.328  -0.192  0.00  0.00    -0.002 A 
ATOM      8  C6  OXE d   1      -0.456  -1.596   0.185  0.00  0.00     0.003 A 
ENDROOT
TORSDOF 0
ENDMDL
