MODEL 1
REMARK minimizedAffinity -0.677219212
REMARK minimizedRMSD -1
REMARK  0 active torsions:
REMARK  status: ('A' for Active; 'I' for Inactive)
ROOT
ATOM      1  C2' OXE d   1      -0.966   0.405  -0.596  0.00  0.00     0.078 C 
ATOM      2  C1' OXE d   1       1.295   1.959  -0.000  0.00  0.00     0.078 C 
ATOM      3  C1  OXE d   1       1.489   0.474  -0.178  0.00  0.00    -0.078 A 
ATOM      4  C2  OXE d   1       0.370  -0.285  -0.424  0.00  0.00    -0.078 A 
ATOM      5  C3  OXE d   1       0.501  -1.652  -0.650  0.00  0.00     0.003 A 
ATOM      6  C4  OXE d   1       1.738  -2.284  -0.479  0.00  0.00    -0.002 A 
ATOM      7  C5  OXE d   1       2.884  -1.535  -0.189  0.00  0.00    -0.002 A 
ATOM      8  C6  OXE d   1       2.784  -0.153  -0.078  0.00  0.00     0.003 A 
ENDROOT
TORSDOF 0
ENDMDL
