MODEL 1
REMARK minimizedAffinity -3.2851069
REMARK minimizedRMSD -1
REMARK  0 active torsions:
REMARK  status: ('A' for Active; 'I' for Inactive)
ROOT
ATOM      1  C2' OXE d   1      -1.801   0.428  -0.534  0.00  0.00     0.078 C 
ATOM      2  C1' OXE d   1       0.745   1.609  -0.562  0.00  0.00     0.078 C 
ATOM      3  C1  OXE d   1       0.664   0.109  -0.690  0.00  0.00    -0.078 A 
ATOM      4  C2  OXE d   1      -0.583  -0.465  -0.629  0.00  0.00    -0.078 A 
ATOM      5  C3  OXE d   1      -0.719  -1.840  -0.797  0.00  0.00     0.003 A 
ATOM      6  C4  OXE d   1       0.414  -2.660  -0.874  0.00  0.00    -0.002 A 
ATOM      7  C5  OXE d   1       1.695  -2.100  -0.898  0.00  0.00    -0.002 A 
ATOM      8  C6  OXE d   1       1.836  -0.717  -0.850  0.00  0.00     0.003 A 
ENDROOT
TORSDOF 0
ENDMDL
