MODEL 1
REMARK minimizedAffinity -2.91819334
REMARK minimizedRMSD -1
REMARK  0 active torsions:
REMARK  status: ('A' for Active; 'I' for Inactive)
ROOT
ATOM      1  C2' OXE d   1      -0.913   0.731  -0.335  0.00  0.00     0.078 C 
ATOM      2  C1' OXE d   1      -0.794  -2.034  -0.800  0.00  0.00     0.078 C 
ATOM      3  C1  OXE d   1       0.506  -1.301  -0.577  0.00  0.00    -0.078 A 
ATOM      4  C2  OXE d   1       0.441   0.059  -0.397  0.00  0.00    -0.078 A 
ATOM      5  C3  OXE d   1       1.605   0.776  -0.133  0.00  0.00     0.003 A 
ATOM      6  C4  OXE d   1       2.855   0.148  -0.202  0.00  0.00    -0.002 A 
ATOM      7  C5  OXE d   1       2.946  -1.230  -0.424  0.00  0.00    -0.002 A 
ATOM      8  C6  OXE d   1       1.781  -1.975  -0.571  0.00  0.00     0.003 A 
ENDROOT
TORSDOF 0
ENDMDL
