MODEL 1
REMARK minimizedAffinity -3.11180949
REMARK minimizedRMSD -1
REMARK  0 active torsions:
REMARK  status: ('A' for Active; 'I' for Inactive)
ROOT
ATOM      1  C2' OXE d   1      -0.818  -0.015  -0.973  0.00  0.00     0.078 C 
ATOM      2  C1' OXE d   1      -0.079  -2.650  -1.596  0.00  0.00     0.078 C 
ATOM      3  C1  OXE d   1       0.973  -1.745  -1.006  0.00  0.00    -0.078 A 
ATOM      4  C2  OXE d   1       0.616  -0.444  -0.747  0.00  0.00    -0.078 A 
ATOM      5  C3  OXE d   1       1.532   0.418  -0.152  0.00  0.00     0.003 A 
ATOM      6  C4  OXE d   1       2.859   0.016   0.044  0.00  0.00    -0.002 A 
ATOM      7  C5  OXE d   1       3.255  -1.294  -0.249  0.00  0.00    -0.002 A 
ATOM      8  C6  OXE d   1       2.316  -2.197  -0.734  0.00  0.00     0.003 A 
ENDROOT
TORSDOF 0
ENDMDL
