MODEL 1
REMARK minimizedAffinity 1.69224203
REMARK minimizedRMSD -1
REMARK  2 active torsions:
REMARK  status: ('A' for Active; 'I' for Inactive)
REMARK    1  A    between atoms: C2'_3  and  C1'_4 
REMARK    2  A    between atoms: C1'_4  and  C1_5 
ROOT
ATOM      1  C1  I4B d   1       0.490   1.163   1.192  0.00  0.00    -0.075 A 
ATOM      2  C2  I4B d   1       0.948   2.071   2.114  0.00  0.00     0.003 A 
ATOM      3  C3  I4B d   1       1.084   3.436   1.763  0.00  0.00     0.002 A 
ATOM      4  C4  I4B d   1       0.801   3.838   0.473  0.00  0.00    -0.004 A 
ATOM      5  C5  I4B d   1       0.315   2.920  -0.453  0.00  0.00     0.002 A 
ATOM      6  C6  I4B d   1       0.147   1.576  -0.088  0.00  0.00     0.003 A 
ENDROOT
BRANCH   1   7
ATOM      7  C1' I4B d   1       0.390  -0.276   1.587  0.00  0.00     0.060 C 
BRANCH   7   8
ATOM      8  C2' I4B d   1       1.789  -0.779   1.879  0.00  0.00    -0.013 C 
ATOM      9  C4' I4B d   1       1.868  -1.409   3.245  0.00  0.00     0.013 C 
ATOM     10  C3' I4B d   1       2.161  -1.760   0.808  0.00  0.00     0.013 C 
ENDBRANCH   7   8
ENDBRANCH   1   7
TORSDOF 2
ENDMDL
