MODEL 1
REMARK minimizedAffinity -2.04861498
REMARK minimizedRMSD -1
REMARK  2 active torsions:
REMARK  status: ('A' for Active; 'I' for Inactive)
REMARK    1  A    between atoms: C2'_3  and  C1'_4 
REMARK    2  A    between atoms: C1'_4  and  C1_5 
ROOT
ATOM      1  C1  I4B d   1       0.914  -0.202   0.547  0.00  0.00    -0.075 A 
ATOM      2  C2  I4B d   1       1.208  -0.726  -0.687  0.00  0.00     0.003 A 
ATOM      3  C3  I4B d   1       2.190  -1.738  -0.816  0.00  0.00     0.002 A 
ATOM      4  C4  I4B d   1       2.884  -2.158   0.300  0.00  0.00    -0.004 A 
ATOM      5  C5  I4B d   1       2.568  -1.642   1.554  0.00  0.00     0.002 A 
ATOM      6  C6  I4B d   1       1.568  -0.667   1.680  0.00  0.00     0.003 A 
ENDROOT
BRANCH   1   7
ATOM      7  C1' I4B d   1      -0.106   0.888   0.643  0.00  0.00     0.060 C 
BRANCH   7   8
ATOM      8  C2' I4B d   1       0.630   2.212   0.688  0.00  0.00    -0.013 C 
ATOM      9  C4' I4B d   1       0.080   3.177  -0.329  0.00  0.00     0.013 C 
ATOM     10  C3' I4B d   1       0.508   2.762   2.078  0.00  0.00     0.013 C 
ENDBRANCH   7   8
ENDBRANCH   1   7
TORSDOF 2
ENDMDL
