MODEL 1
REMARK minimizedAffinity 2.7812438
REMARK minimizedRMSD -1
REMARK  2 active torsions:
REMARK  status: ('A' for Active; 'I' for Inactive)
REMARK    1  A    between atoms: C2'_3  and  C1'_4 
REMARK    2  A    between atoms: C1'_4  and  C1_5 
ROOT
ATOM      1  C1  I4B d   1       0.361   0.863  -0.655  0.00  0.00    -0.075 A 
ATOM      2  C2  I4B d   1       1.331   0.471   0.234  0.00  0.00     0.003 A 
ATOM      3  C3  I4B d   1       1.321   0.961   1.562  0.00  0.00     0.002 A 
ATOM      4  C4  I4B d   1       0.359   1.874   1.942  0.00  0.00    -0.004 A 
ATOM      5  C5  I4B d   1      -0.637   2.253   1.047  0.00  0.00     0.002 A 
ATOM      6  C6  I4B d   1      -0.643   1.735  -0.256  0.00  0.00     0.003 A 
ENDROOT
BRANCH   1   7
ATOM      7  C1' I4B d   1       0.421   0.351  -2.059  0.00  0.00     0.060 C 
BRANCH   7   8
ATOM      8  C2' I4B d   1      -0.268  -0.998  -2.094  0.00  0.00    -0.013 C 
ATOM      9  C4' I4B d   1      -1.657  -0.915  -1.518  0.00  0.00     0.013 C 
ATOM     10  C3' I4B d   1      -0.300  -1.464  -3.519  0.00  0.00     0.013 C 
ENDBRANCH   7   8
ENDBRANCH   1   7
TORSDOF 2
ENDMDL
