MODEL 1
REMARK minimizedAffinity 4.59633398
REMARK minimizedRMSD -1
REMARK  2 active torsions:
REMARK  status: ('A' for Active; 'I' for Inactive)
REMARK    1  A    between atoms: C2'_3  and  C1'_4 
REMARK    2  A    between atoms: C1'_4  and  C1_5 
ROOT
ATOM      1  C1  I4B d   1      -0.874   2.908   0.684  0.00  0.00    -0.075 A 
ATOM      2  C2  I4B d   1       0.378   2.348   0.740  0.00  0.00     0.003 A 
ATOM      3  C3  I4B d   1       0.678   1.371   1.720  0.00  0.00     0.002 A 
ATOM      4  C4  I4B d   1      -0.281   1.023   2.649  0.00  0.00    -0.004 A 
ATOM      5  C5  I4B d   1      -1.557   1.574   2.576  0.00  0.00     0.002 A 
ATOM      6  C6  I4B d   1      -1.860   2.514   1.580  0.00  0.00     0.003 A 
ENDROOT
BRANCH   1   7
ATOM      7  C1' I4B d   1      -1.147   3.961  -0.343  0.00  0.00     0.060 C 
BRANCH   7   8
ATOM      8  C2' I4B d   1      -0.045   3.899  -1.380  0.00  0.00    -0.013 C 
ATOM      9  C4' I4B d   1      -0.594   3.557  -2.740  0.00  0.00     0.013 C 
ATOM     10  C3' I4B d   1       0.652   5.226  -1.396  0.00  0.00     0.013 C 
ENDBRANCH   7   8
ENDBRANCH   1   7
TORSDOF 2
ENDMDL
