MODEL 1
REMARK minimizedAffinity 3.22310853
REMARK minimizedRMSD -1
REMARK  2 active torsions:
REMARK  status: ('A' for Active; 'I' for Inactive)
REMARK    1  A    between atoms: C2'_3  and  C1'_4 
REMARK    2  A    between atoms: C1'_4  and  C1_5 
ROOT
ATOM      1  C1  I4B d   1      -0.290   1.772   1.675  0.00  0.00    -0.075 A 
ATOM      2  C2  I4B d   1      -0.619   2.824   2.493  0.00  0.00     0.003 A 
ATOM      3  C3  I4B d   1      -1.160   4.011   1.943  0.00  0.00     0.002 A 
ATOM      4  C4  I4B d   1      -1.307   4.122   0.576  0.00  0.00    -0.004 A 
ATOM      5  C5  I4B d   1      -0.994   3.046  -0.250  0.00  0.00     0.002 A 
ATOM      6  C6  I4B d   1      -0.494   1.859   0.304  0.00  0.00     0.003 A 
ENDROOT
BRANCH   1   7
ATOM      7  C1' I4B d   1       0.310   0.545   2.285  0.00  0.00     0.060 C 
BRANCH   7   8
ATOM      8  C2' I4B d   1      -0.538   0.154   3.478  0.00  0.00    -0.013 C 
ATOM      9  C4' I4B d   1      -1.989   0.024   3.097  0.00  0.00     0.013 C 
ATOM     10  C3' I4B d   1      -0.004  -1.136   4.024  0.00  0.00     0.013 C 
ENDBRANCH   7   8
ENDBRANCH   1   7
TORSDOF 2
ENDMDL
