MODEL 1
REMARK minimizedAffinity -0.615054846
REMARK minimizedRMSD -1
REMARK  2 active torsions:
REMARK  status: ('A' for Active; 'I' for Inactive)
REMARK    1  A    between atoms: C2'_3  and  C1'_4 
REMARK    2  A    between atoms: C1'_4  and  C1_5 
ROOT
ATOM      1  C1  I4B d   1      -0.639   3.712   1.211  0.00  0.00    -0.075 A 
ATOM      2  C2  I4B d   1       0.450   4.489   0.904  0.00  0.00     0.003 A 
ATOM      3  C3  I4B d   1       1.657   4.344   1.630  0.00  0.00     0.002 A 
ATOM      4  C4  I4B d   1       1.715   3.451   2.680  0.00  0.00    -0.004 A 
ATOM      5  C5  I4B d   1       0.618   2.647   2.975  0.00  0.00     0.002 A 
ATOM      6  C6  I4B d   1      -0.563   2.769   2.228  0.00  0.00     0.003 A 
ENDROOT
BRANCH   1   7
ATOM      7  C1' I4B d   1      -1.908   3.914   0.446  0.00  0.00     0.060 C 
BRANCH   7   8
ATOM      8  C2' I4B d   1      -2.927   4.527   1.386  0.00  0.00    -0.013 C 
ATOM      9  C4' I4B d   1      -2.888   3.865   2.738  0.00  0.00     0.013 C 
ATOM     10  C3' I4B d   1      -2.635   5.994   1.492  0.00  0.00     0.013 C 
ENDBRANCH   7   8
ENDBRANCH   1   7
TORSDOF 2
ENDMDL
