MODEL 1
REMARK minimizedAffinity 8.24700451
REMARK minimizedRMSD -1
REMARK  2 active torsions:
REMARK  status: ('A' for Active; 'I' for Inactive)
REMARK    1  A    between atoms: C2'_3  and  C1'_4 
REMARK    2  A    between atoms: C1'_4  and  C1_5 
ROOT
ATOM      1  C1  I4B d   1      -0.781   2.743  -0.472  0.00  0.00    -0.075 A 
ATOM      2  C2  I4B d   1      -0.907   3.625  -1.515  0.00  0.00     0.003 A 
ATOM      3  C3  I4B d   1      -0.599   3.216  -2.835  0.00  0.00     0.002 A 
ATOM      4  C4  I4B d   1      -0.122   1.941  -3.058  0.00  0.00    -0.004 A 
ATOM      5  C5  I4B d   1      -0.017   1.040  -2.002  0.00  0.00     0.002 A 
ATOM      6  C6  I4B d   1      -0.359   1.439  -0.702  0.00  0.00     0.003 A 
ENDROOT
BRANCH   1   7
ATOM      7  C1' I4B d   1      -1.083   3.217   0.914  0.00  0.00     0.060 C 
BRANCH   7   8
ATOM      8  C2' I4B d   1      -0.171   2.477   1.871  0.00  0.00    -0.013 C 
ATOM      9  C4' I4B d   1       0.860   3.401   2.466  0.00  0.00     0.013 C 
ATOM     10  C3' I4B d   1      -1.023   1.858   2.938  0.00  0.00     0.013 C 
ENDBRANCH   7   8
ENDBRANCH   1   7
TORSDOF 2
ENDMDL
