MODEL 1
REMARK minimizedAffinity 2.71533132
REMARK minimizedRMSD -1
REMARK  2 active torsions:
REMARK  status: ('A' for Active; 'I' for Inactive)
REMARK    1  A    between atoms: C2'_3  and  C1'_4 
REMARK    2  A    between atoms: C1'_4  and  C1_5 
ROOT
ATOM      1  C1  I4B d   1       3.439  -3.189  -1.938  0.00  0.00    -0.075 A 
ATOM      2  C2  I4B d   1       2.537  -3.853  -2.731  0.00  0.00     0.003 A 
ATOM      3  C3  I4B d   1       2.563  -5.266  -2.813  0.00  0.00     0.002 A 
ATOM      4  C4  I4B d   1       3.534  -5.968  -2.129  0.00  0.00    -0.004 A 
ATOM      5  C5  I4B d   1       4.434  -5.295  -1.307  0.00  0.00     0.002 A 
ATOM      6  C6  I4B d   1       4.379  -3.898  -1.201  0.00  0.00     0.003 A 
ENDROOT
BRANCH   1   7
ATOM      7  C1' I4B d   1       3.404  -1.694  -1.901  0.00  0.00     0.060 C 
BRANCH   7   8
ATOM      8  C2' I4B d   1       2.363  -1.277  -0.882  0.00  0.00    -0.013 C 
ATOM      9  C4' I4B d   1       1.298  -0.418  -1.511  0.00  0.00     0.013 C 
ATOM     10  C3' I4B d   1       1.773  -2.521  -0.287  0.00  0.00     0.013 C 
ENDBRANCH   7   8
ENDBRANCH   1   7
TORSDOF 2
ENDMDL
