MODEL 1
REMARK minimizedAffinity 2.21358418
REMARK minimizedRMSD -1
REMARK  2 active torsions:
REMARK  status: ('A' for Active; 'I' for Inactive)
REMARK    1  A    between atoms: C2'_3  and  C1'_4 
REMARK    2  A    between atoms: C1'_4  and  C1_5 
ROOT
ATOM      1  C1  I4B d   1      -1.121   1.365  -0.981  0.00  0.00    -0.075 A 
ATOM      2  C2  I4B d   1      -2.372   0.880  -0.692  0.00  0.00     0.003 A 
ATOM      3  C3  I4B d   1      -2.712  -0.456  -1.019  0.00  0.00     0.002 A 
ATOM      4  C4  I4B d   1      -1.794  -1.249  -1.676  0.00  0.00    -0.004 A 
ATOM      5  C5  I4B d   1      -0.518  -0.762  -1.948  0.00  0.00     0.002 A 
ATOM      6  C6  I4B d   1      -0.175   0.549  -1.587  0.00  0.00     0.003 A 
ENDROOT
BRANCH   1   7
ATOM      7  C1' I4B d   1      -0.807   2.790  -0.652  0.00  0.00     0.060 C 
BRANCH   7   8
ATOM      8  C2' I4B d   1      -1.143   3.016   0.809  0.00  0.00    -0.013 C 
ATOM      9  C4' I4B d   1       0.093   3.334   1.609  0.00  0.00     0.013 C 
ATOM     10  C3' I4B d   1      -2.141   4.133   0.887  0.00  0.00     0.013 C 
ENDBRANCH   7   8
ENDBRANCH   1   7
TORSDOF 2
ENDMDL
