MODEL 1
REMARK minimizedAffinity 0.0325828642
REMARK minimizedRMSD -1
REMARK  0 active torsions:
REMARK  status: ('A' for Active; 'I' for Inactive)
ROOT
ATOM      1  C2' OXE d   1      -1.308   1.227  -0.129  0.00  0.00     0.078 C 
ATOM      2  C1' OXE d   1      -1.309  -0.755   1.859  0.00  0.00     0.078 C 
ATOM      3  C1  OXE d   1      -0.063  -0.596   1.025  0.00  0.00    -0.078 A 
ATOM      4  C2  OXE d   1      -0.087   0.344   0.024  0.00  0.00    -0.078 A 
ATOM      5  C3  OXE d   1       1.055   0.570  -0.739  0.00  0.00     0.003 A 
ATOM      6  C4  OXE d   1       2.176  -0.258  -0.599  0.00  0.00    -0.002 A 
ATOM      7  C5  OXE d   1       2.207  -1.248   0.389  0.00  0.00    -0.002 A 
ATOM      8  C6  OXE d   1       1.115  -1.402   1.235  0.00  0.00     0.003 A 
ENDROOT
TORSDOF 0
ENDMDL
