MODEL 1
REMARK minimizedAffinity -1.29740882
REMARK minimizedRMSD -1
REMARK  0 active torsions:
REMARK  status: ('A' for Active; 'I' for Inactive)
ROOT
ATOM      1  C2' OXE d   1      -1.770   3.854  -1.722  0.00  0.00     0.078 C 
ATOM      2  C1' OXE d   1      -2.710   1.624  -3.144  0.00  0.00     0.078 C 
ATOM      3  C1  OXE d   1      -1.795   1.376  -1.971  0.00  0.00    -0.078 A 
ATOM      4  C2  OXE d   1      -1.303   2.475  -1.309  0.00  0.00    -0.078 A 
ATOM      5  C3  OXE d   1      -0.499   2.302  -0.186  0.00  0.00     0.003 A 
ATOM      6  C4  OXE d   1      -0.064   1.023   0.183  0.00  0.00    -0.002 A 
ATOM      7  C5  OXE d   1      -0.521  -0.108  -0.502  0.00  0.00    -0.002 A 
ATOM      8  C6  OXE d   1      -1.419   0.048  -1.552  0.00  0.00     0.003 A 
ENDROOT
TORSDOF 0
ENDMDL
