MODEL 1
REMARK minimizedAffinity -3.4137485
REMARK minimizedRMSD -1
REMARK  0 active torsions:
REMARK  status: ('A' for Active; 'I' for Inactive)
ROOT
ATOM      1  C2' OXE d   1      -1.983   2.447  -1.679  0.00  0.00     0.078 C 
ATOM      2  C1' OXE d   1      -1.543   0.189  -3.287  0.00  0.00     0.078 C 
ATOM      3  C1  OXE d   1      -0.728   0.323  -2.026  0.00  0.00    -0.078 A 
ATOM      4  C2  OXE d   1      -0.917   1.455  -1.269  0.00  0.00    -0.078 A 
ATOM      5  C3  OXE d   1      -0.230   1.603  -0.067  0.00  0.00     0.003 A 
ATOM      6  C4  OXE d   1       0.762   0.685   0.300  0.00  0.00    -0.002 A 
ATOM      7  C5  OXE d   1       0.999  -0.454  -0.477  0.00  0.00    -0.002 A 
ATOM      8  C6  OXE d   1       0.234  -0.671  -1.618  0.00  0.00     0.003 A 
ENDROOT
TORSDOF 0
ENDMDL
