MODEL 1
REMARK minimizedAffinity -0.811457992
REMARK minimizedRMSD -1
REMARK  0 active torsions:
REMARK  status: ('A' for Active; 'I' for Inactive)
ROOT
ATOM      1  C2' OXE d   1      -1.461  -1.109   2.847  0.00  0.00     0.078 C 
ATOM      2  C1' OXE d   1       0.968  -1.864   1.659  0.00  0.00     0.078 C 
ATOM      3  C1  OXE d   1       0.208  -0.718   1.040  0.00  0.00    -0.078 A 
ATOM      4  C2  OXE d   1      -1.002  -0.385   1.600  0.00  0.00    -0.078 A 
ATOM      5  C3  OXE d   1      -1.718   0.699   1.101  0.00  0.00     0.003 A 
ATOM      6  C4  OXE d   1      -1.291   1.357  -0.059  0.00  0.00    -0.002 A 
ATOM      7  C5  OXE d   1      -0.081   1.009  -0.668  0.00  0.00    -0.002 A 
ATOM      8  C6  OXE d   1       0.700   0.004  -0.108  0.00  0.00     0.003 A 
ENDROOT
TORSDOF 0
ENDMDL
