MODEL 1
REMARK minimizedAffinity -3.47185636
REMARK minimizedRMSD -1
REMARK  0 active torsions:
REMARK  status: ('A' for Active; 'I' for Inactive)
ROOT
ATOM      1  C2' OXE d   1      -1.180   0.777   1.396  0.00  0.00     0.078 C 
ATOM      2  C1' OXE d   1      -0.458  -1.394   3.023  0.00  0.00     0.078 C 
ATOM      3  C1  OXE d   1       0.304  -1.195   1.736  0.00  0.00    -0.078 A 
ATOM      4  C2  OXE d   1      -0.087  -0.158   0.924  0.00  0.00    -0.078 A 
ATOM      5  C3  OXE d   1       0.617   0.103  -0.248  0.00  0.00     0.003 A 
ATOM      6  C4  OXE d   1       1.619  -0.772  -0.682  0.00  0.00    -0.002 A 
ATOM      7  C5  OXE d   1       2.007  -1.858   0.111  0.00  0.00    -0.002 A 
ATOM      8  C6  OXE d   1       1.389  -2.058   1.340  0.00  0.00     0.003 A 
ENDROOT
TORSDOF 0
ENDMDL
