MODEL 1
REMARK minimizedAffinity 4.0450592
REMARK minimizedRMSD -1
REMARK  0 active torsions:
REMARK  status: ('A' for Active; 'I' for Inactive)
ROOT
ATOM      1  C2' OXE d   1      -1.279  -0.112   0.358  0.00  0.00     0.078 C 
ATOM      2  C1' OXE d   1       1.050   1.300  -0.324  0.00  0.00     0.078 C 
ATOM      3  C1  OXE d   1      -0.143   1.427  -1.239  0.00  0.00    -0.078 A 
ATOM      4  C2  OXE d   1      -1.262   0.696  -0.922  0.00  0.00    -0.078 A 
ATOM      5  C3  OXE d   1      -2.409   0.818  -1.703  0.00  0.00     0.003 A 
ATOM      6  C4  OXE d   1      -2.382   1.559  -2.890  0.00  0.00    -0.002 A 
ATOM      7  C5  OXE d   1      -1.239   2.280  -3.252  0.00  0.00    -0.002 A 
ATOM      8  C6  OXE d   1      -0.127   2.258  -2.417  0.00  0.00     0.003 A 
ENDROOT
TORSDOF 0
ENDMDL
