MODEL 1
REMARK minimizedAffinity -3.86281562
REMARK minimizedRMSD -1
REMARK  0 active torsions:
REMARK  status: ('A' for Active; 'I' for Inactive)
ROOT
ATOM      1  C2' OXE d   1      -0.474   0.529  -0.469  0.00  0.00     0.078 C 
ATOM      2  C1' OXE d   1       2.096  -0.584  -0.660  0.00  0.00     0.078 C 
ATOM      3  C1  OXE d   1       1.248  -0.971   0.526  0.00  0.00    -0.078 A 
ATOM      4  C2  OXE d   1       0.010  -0.385   0.636  0.00  0.00    -0.078 A 
ATOM      5  C3  OXE d   1      -0.835  -0.749   1.681  0.00  0.00     0.003 A 
ATOM      6  C4  OXE d   1      -0.376  -1.587   2.704  0.00  0.00    -0.002 A 
ATOM      7  C5  OXE d   1       0.897  -2.163   2.632  0.00  0.00    -0.002 A 
ATOM      8  C6  OXE d   1       1.703  -1.900   1.531  0.00  0.00     0.003 A 
ENDROOT
TORSDOF 0
ENDMDL
