MODEL 1
REMARK minimizedAffinity -3.84374785
REMARK minimizedRMSD -1
REMARK  0 active torsions:
REMARK  status: ('A' for Active; 'I' for Inactive)
ROOT
ATOM      1  C2' OXE d   1       2.013  -0.073  -0.867  0.00  0.00     0.078 C 
ATOM      2  C1' OXE d   1      -0.488   1.086  -0.335  0.00  0.00     0.078 C 
ATOM      3  C1  OXE d   1       0.063   0.109   0.673  0.00  0.00    -0.078 A 
ATOM      4  C2  OXE d   1       1.266  -0.489   0.382  0.00  0.00    -0.078 A 
ATOM      5  C3  OXE d   1       1.846  -1.356   1.303  0.00  0.00     0.003 A 
ATOM      6  C4  OXE d   1       1.144  -1.743   2.451  0.00  0.00    -0.002 A 
ATOM      7  C5  OXE d   1      -0.101  -1.176   2.747  0.00  0.00    -0.002 A 
ATOM      8  C6  OXE d   1      -0.634  -0.219   1.892  0.00  0.00     0.003 A 
ENDROOT
TORSDOF 0
ENDMDL
