MODEL 1
REMARK minimizedAffinity -2.47574043
REMARK minimizedRMSD -1
REMARK  0 active torsions:
REMARK  status: ('A' for Active; 'I' for Inactive)
ROOT
ATOM      1  C2' OXE d   1      -0.912  -1.198   2.622  0.00  0.00     0.078 C 
ATOM      2  C1' OXE d   1       1.591  -1.768   1.485  0.00  0.00     0.078 C 
ATOM      3  C1  OXE d   1       0.760  -0.682   0.849  0.00  0.00    -0.078 A 
ATOM      4  C2  OXE d   1      -0.483  -0.442   1.383  0.00  0.00    -0.078 A 
ATOM      5  C3  OXE d   1      -1.268   0.586   0.868  0.00  0.00     0.003 A 
ATOM      6  C4  OXE d   1      -0.869   1.273  -0.284  0.00  0.00    -0.002 A 
ATOM      7  C5  OXE d   1       0.376   1.017  -0.868  0.00  0.00    -0.002 A 
ATOM      8  C6  OXE d   1       1.219   0.074  -0.290  0.00  0.00     0.003 A 
ENDROOT
TORSDOF 0
ENDMDL
