MODEL 1
REMARK minimizedAffinity -2.53767705
REMARK minimizedRMSD -1
REMARK  0 active torsions:
REMARK  status: ('A' for Active; 'I' for Inactive)
ROOT
ATOM      1  C2' OXE d   1      -1.949  -0.114   1.928  0.00  0.00     0.078 C 
ATOM      2  C1' OXE d   1      -1.161   1.265  -0.386  0.00  0.00     0.078 C 
ATOM      3  C1  OXE d   1      -0.216   0.231   0.173  0.00  0.00    -0.078 A 
ATOM      4  C2  OXE d   1      -0.589  -0.406   1.332  0.00  0.00    -0.078 A 
ATOM      5  C3  OXE d   1       0.220  -1.407   1.860  0.00  0.00     0.003 A 
ATOM      6  C4  OXE d   1       1.481  -1.664   1.308  0.00  0.00    -0.002 A 
ATOM      7  C5  OXE d   1       1.898  -0.999   0.150  0.00  0.00    -0.002 A 
ATOM      8  C6  OXE d   1       1.045  -0.081  -0.453  0.00  0.00     0.003 A 
ENDROOT
TORSDOF 0
ENDMDL
