MODEL 1
REMARK minimizedAffinity -1.64053404
REMARK minimizedRMSD -1
REMARK  0 active torsions:
REMARK  status: ('A' for Active; 'I' for Inactive)
ROOT
ATOM      1  C2' OXE d   1       1.098  -2.404   2.043  0.00  0.00     0.078 C 
ATOM      2  C1' OXE d   1       3.273  -0.787   1.312  0.00  0.00     0.078 C 
ATOM      3  C1  OXE d   1       1.904  -0.391   0.818  0.00  0.00    -0.078 A 
ATOM      4  C2  OXE d   1       0.852  -1.214   1.141  0.00  0.00    -0.078 A 
ATOM      5  C3  OXE d   1      -0.439  -0.865   0.757  0.00  0.00     0.003 A 
ATOM      6  C4  OXE d   1      -0.656   0.232  -0.086  0.00  0.00    -0.002 A 
ATOM      7  C5  OXE d   1       0.407   1.061  -0.460  0.00  0.00    -0.002 A 
ATOM      8  C6  OXE d   1       1.684   0.788   0.017  0.00  0.00     0.003 A 
ENDROOT
TORSDOF 0
ENDMDL
