MODEL 1
REMARK minimizedAffinity -2.85677719
REMARK minimizedRMSD -1
REMARK  0 active torsions:
REMARK  status: ('A' for Active; 'I' for Inactive)
ROOT
ATOM      1  C2' OXE d   1      -0.154   0.993  -0.965  0.00  0.00     0.078 C 
ATOM      2  C1' OXE d   1       1.927  -0.334  -2.302  0.00  0.00     0.078 C 
ATOM      3  C1  OXE d   1       1.672  -0.698  -0.860  0.00  0.00    -0.078 A 
ATOM      4  C2  OXE d   1       0.683  -0.010  -0.200  0.00  0.00    -0.078 A 
ATOM      5  C3  OXE d   1       0.370  -0.344   1.114  0.00  0.00     0.003 A 
ATOM      6  C4  OXE d   1       1.156  -1.266   1.817  0.00  0.00    -0.002 A 
ATOM      7  C5  OXE d   1       2.194  -1.949   1.176  0.00  0.00    -0.002 A 
ATOM      8  C6  OXE d   1       2.438  -1.708  -0.172  0.00  0.00     0.003 A 
ENDROOT
TORSDOF 0
ENDMDL
