MODEL 1
REMARK minimizedAffinity -4.43177795
REMARK minimizedRMSD -1
REMARK  0 active torsions:
REMARK  status: ('A' for Active; 'I' for Inactive)
ROOT
ATOM      1  C2' OXE d   1      -3.151   2.311  -2.960  0.00  0.00     0.078 C 
ATOM      2  C1' OXE d   1      -2.152  -0.213  -3.674  0.00  0.00     0.078 C 
ATOM      3  C1  OXE d   1      -1.676   0.390  -2.376  0.00  0.00    -0.078 A 
ATOM      4  C2  OXE d   1      -2.134   1.646  -2.057  0.00  0.00    -0.078 A 
ATOM      5  C3  OXE d   1      -1.769   2.226  -0.846  0.00  0.00     0.003 A 
ATOM      6  C4  OXE d   1      -0.820   1.609  -0.022  0.00  0.00    -0.002 A 
ATOM      7  C5  OXE d   1      -0.311   0.347  -0.347  0.00  0.00    -0.002 A 
ATOM      8  C6  OXE d   1      -0.760  -0.293  -1.497  0.00  0.00     0.003 A 
ENDROOT
TORSDOF 0
ENDMDL
