MODEL 1
REMARK minimizedAffinity -2.96088004
REMARK minimizedRMSD -1
REMARK  0 active torsions:
REMARK  status: ('A' for Active; 'I' for Inactive)
ROOT
ATOM      1  C2' OXE d   1       2.086  -0.096  -1.028  0.00  0.00     0.078 C 
ATOM      2  C1' OXE d   1      -0.584   0.595  -0.504  0.00  0.00     0.078 C 
ATOM      3  C1  OXE d   1       0.090  -0.373   0.437  0.00  0.00    -0.078 A 
ATOM      4  C2  OXE d   1       1.382  -0.742   0.146  0.00  0.00    -0.078 A 
ATOM      5  C3  OXE d   1       2.068  -1.589   1.011  0.00  0.00     0.003 A 
ATOM      6  C4  OXE d   1       1.406  -2.189   2.089  0.00  0.00    -0.002 A 
ATOM      7  C5  OXE d   1       0.078  -1.859   2.380  0.00  0.00    -0.002 A 
ATOM      8  C6  OXE d   1      -0.579  -0.922   1.590  0.00  0.00     0.003 A 
ENDROOT
TORSDOF 0
ENDMDL
