MODEL 1
REMARK minimizedAffinity -3.64098883
REMARK minimizedRMSD -1
REMARK  0 active torsions:
REMARK  status: ('A' for Active; 'I' for Inactive)
ROOT
ATOM      1  C2' OXE d   1      -0.507   0.957  -1.484  0.00  0.00     0.078 C 
ATOM      2  C1' OXE d   1      -0.990   0.851   1.280  0.00  0.00     0.078 C 
ATOM      3  C1  OXE d   1       0.203   0.099   0.745  0.00  0.00    -0.078 A 
ATOM      4  C2  OXE d   1       0.405   0.118  -0.614  0.00  0.00    -0.078 A 
ATOM      5  C3  OXE d   1       1.522  -0.513  -1.154  0.00  0.00     0.003 A 
ATOM      6  C4  OXE d   1       2.355  -1.295  -0.344  0.00  0.00    -0.002 A 
ATOM      7  C5  OXE d   1       2.144  -1.360   1.037  0.00  0.00    -0.002 A 
ATOM      8  C6  OXE d   1       1.100  -0.636   1.602  0.00  0.00     0.003 A 
ENDROOT
TORSDOF 0
ENDMDL
