MODEL 1
REMARK minimizedAffinity -4.0199542
REMARK minimizedRMSD -1
REMARK  0 active torsions:
REMARK  status: ('A' for Active; 'I' for Inactive)
ROOT
ATOM      1  C2' OXE d   1      -0.025   1.023  -0.051  0.00  0.00     0.078 C 
ATOM      2  C1' OXE d   1       2.164  -0.709  -0.343  0.00  0.00     0.078 C 
ATOM      3  C1  OXE d   1       1.105  -1.078   0.666  0.00  0.00    -0.078 A 
ATOM      4  C2  OXE d   1       0.061  -0.201   0.835  0.00  0.00    -0.078 A 
ATOM      5  C3  OXE d   1      -0.971  -0.519   1.713  0.00  0.00     0.003 A 
ATOM      6  C4  OXE d   1      -0.879  -1.648   2.536  0.00  0.00    -0.002 A 
ATOM      7  C5  OXE d   1       0.196  -2.534   2.408  0.00  0.00    -0.002 A 
ATOM      8  C6  OXE d   1       1.173  -2.286   1.449  0.00  0.00     0.003 A 
ENDROOT
TORSDOF 0
ENDMDL
