MODEL 1
REMARK minimizedAffinity -1.63132823
REMARK minimizedRMSD -1
REMARK  0 active torsions:
REMARK  status: ('A' for Active; 'I' for Inactive)
ROOT
ATOM      1  C2' OXE d   1      -1.108   1.810  -1.582  0.00  0.00     0.078 C 
ATOM      2  C1' OXE d   1       0.993   0.106  -0.835  0.00  0.00     0.078 C 
ATOM      3  C1  OXE d   1      -0.211   0.176   0.070  0.00  0.00    -0.078 A 
ATOM      4  C2  OXE d   1      -1.215   1.048  -0.279  0.00  0.00    -0.078 A 
ATOM      5  C3  OXE d   1      -2.372   1.111   0.492  0.00  0.00     0.003 A 
ATOM      6  C4  OXE d   1      -2.458   0.409   1.700  0.00  0.00    -0.002 A 
ATOM      7  C5  OXE d   1      -1.430  -0.454   2.095  0.00  0.00    -0.002 A 
ATOM      8  C6  OXE d   1      -0.321  -0.614   1.272  0.00  0.00     0.003 A 
ENDROOT
TORSDOF 0
ENDMDL
