MODEL 1
REMARK minimizedAffinity -3.21850944
REMARK minimizedRMSD -1
REMARK  0 active torsions:
REMARK  status: ('A' for Active; 'I' for Inactive)
ROOT
ATOM      1  C2' OXE d   1      -1.350  -0.626   0.990  0.00  0.00     0.078 C 
ATOM      2  C1' OXE d   1       0.831   0.792  -0.067  0.00  0.00     0.078 C 
ATOM      3  C1  OXE d   1      -0.520   0.999  -0.706  0.00  0.00    -0.078 A 
ATOM      4  C2  OXE d   1      -1.572   0.266  -0.212  0.00  0.00    -0.078 A 
ATOM      5  C3  OXE d   1      -2.850   0.460  -0.729  0.00  0.00     0.003 A 
ATOM      6  C4  OXE d   1      -3.045   1.279  -1.848  0.00  0.00    -0.002 A 
ATOM      7  C5  OXE d   1      -1.980   2.004  -2.391  0.00  0.00    -0.002 A 
ATOM      8  C6  OXE d   1      -0.722   1.909  -1.807  0.00  0.00     0.003 A 
ENDROOT
TORSDOF 0
ENDMDL
