MODEL 1
REMARK minimizedAffinity -3.84227228
REMARK minimizedRMSD -1
REMARK  1 active torsions:
REMARK  status: ('A' for Active; 'I' for Inactive)
REMARK    1  A    between atoms: C3_4  and  O_7 
ROOT
ATOM      1  C   UNL d   1      -2.561   0.235   1.004  0.00  0.00    -0.033 A 
ATOM      2  C1  UNL d   1      -1.182   0.016   0.983  0.00  0.00     0.039 A 
ATOM      3  C2  UNL d   1      -0.399   0.376   2.082  0.00  0.00    -0.080 A 
ATOM      4  C3  UNL d   1      -1.007   0.951   3.195  0.00  0.00     0.150 A 
ATOM      5  C4  UNL d   1      -2.381   1.168   3.224  0.00  0.00    -0.007 A 
ATOM      6  C5  UNL d   1      -3.160   0.809   2.125  0.00  0.00     0.039 A 
ENDROOT
BRANCH   4   7
ATOM      7  O   UNL d   1      -0.284   1.323   4.289  0.00  0.00    -0.526 OA
ATOM      8  H5  UNL d   1       0.654   1.139   4.115  0.00  0.00     0.418 HD
ENDBRANCH   4   7
TORSDOF 1
ENDMDL
