MODEL 1
REMARK minimizedAffinity -4.19805002
REMARK minimizedRMSD -1
REMARK  1 active torsions:
REMARK  status: ('A' for Active; 'I' for Inactive)
REMARK    1  A    between atoms: C3_4  and  O_7 
ROOT
ATOM      1  C   UNL d   1      -1.950   0.899   3.153  0.00  0.00    -0.033 A 
ATOM      2  C1  UNL d   1      -0.896   1.777   2.892  0.00  0.00     0.039 A 
ATOM      3  C2  UNL d   1      -0.166   1.662   1.707  0.00  0.00    -0.080 A 
ATOM      4  C3  UNL d   1      -0.500   0.666   0.793  0.00  0.00     0.150 A 
ATOM      5  C4  UNL d   1      -1.551  -0.209   1.045  0.00  0.00    -0.007 A 
ATOM      6  C5  UNL d   1      -2.278  -0.093   2.229  0.00  0.00     0.039 A 
ENDROOT
BRANCH   4   7
ATOM      7  O   UNL d   1       0.186   0.512  -0.375  0.00  0.00    -0.526 OA
ATOM      8  H5  UNL d   1       0.902   1.169  -0.400  0.00  0.00     0.418 HD
ENDBRANCH   4   7
TORSDOF 1
ENDMDL
