MODEL 1
REMARK minimizedAffinity -3.23794389
REMARK minimizedRMSD -1
REMARK  1 active torsions:
REMARK  status: ('A' for Active; 'I' for Inactive)
REMARK    1  A    between atoms: C3_4  and  O_7 
ROOT
ATOM      1  C   UNL d   1       0.463  -1.247  -0.079  0.00  0.00    -0.033 A 
ATOM      2  C1  UNL d   1      -0.212  -0.030  -0.183  0.00  0.00     0.039 A 
ATOM      3  C2  UNL d   1       0.110   0.865  -1.206  0.00  0.00    -0.080 A 
ATOM      4  C3  UNL d   1       1.108   0.529  -2.117  0.00  0.00     0.150 A 
ATOM      5  C4  UNL d   1       1.782  -0.683  -2.022  0.00  0.00    -0.007 A 
ATOM      6  C5  UNL d   1       1.459  -1.575  -0.999  0.00  0.00     0.039 A 
ENDROOT
BRANCH   4   7
ATOM      7  O   UNL d   1       1.461   1.372  -3.129  0.00  0.00    -0.526 OA
ATOM      8  H5  UNL d   1       0.931   2.183  -3.053  0.00  0.00     0.418 HD
ENDBRANCH   4   7
TORSDOF 1
ENDMDL
