MODEL 1
REMARK minimizedAffinity -3.27005553
REMARK minimizedRMSD -1
REMARK  1 active torsions:
REMARK  status: ('A' for Active; 'I' for Inactive)
REMARK    1  A    between atoms: C3_4  and  O_7 
ROOT
ATOM      1  C   UNL d   1       1.716  -1.020  -1.614  0.00  0.00    -0.033 A 
ATOM      2  C1  UNL d   1       1.214   0.282  -1.651  0.00  0.00     0.039 A 
ATOM      3  C2  UNL d   1       0.266   0.694  -0.713  0.00  0.00    -0.080 A 
ATOM      4  C3  UNL d   1      -0.172  -0.204   0.256  0.00  0.00     0.150 A 
ATOM      5  C4  UNL d   1       0.327  -1.502   0.301  0.00  0.00    -0.007 A 
ATOM      6  C5  UNL d   1       1.273  -1.912  -0.637  0.00  0.00     0.039 A 
ENDROOT
BRANCH   4   7
ATOM      7  O   UNL d   1      -1.100   0.151   1.190  0.00  0.00    -0.526 OA
ATOM      8  H5  UNL d   1      -1.374   1.067   1.018  0.00  0.00     0.418 HD
ENDBRANCH   4   7
TORSDOF 1
ENDMDL
