MODEL 1
REMARK minimizedAffinity -4.6509037
REMARK minimizedRMSD -1
REMARK  1 active torsions:
REMARK  status: ('A' for Active; 'I' for Inactive)
REMARK    1  A    between atoms: C3_4  and  O_7 
ROOT
ATOM      1  C   UNL d   1       1.992  -1.107  -1.244  0.00  0.00    -0.033 A 
ATOM      2  C1  UNL d   1       1.635   0.226  -1.459  0.00  0.00     0.039 A 
ATOM      3  C2  UNL d   1       0.490   0.750  -0.855  0.00  0.00    -0.080 A 
ATOM      4  C3  UNL d   1      -0.286  -0.068  -0.038  0.00  0.00     0.150 A 
ATOM      5  C4  UNL d   1       0.066  -1.395   0.184  0.00  0.00    -0.007 A 
ATOM      6  C5  UNL d   1       1.209  -1.917  -0.422  0.00  0.00     0.039 A 
ENDROOT
BRANCH   4   7
ATOM      7  O   UNL d   1      -1.414   0.397   0.570  0.00  0.00    -0.526 OA
ATOM      8  H5  UNL d   1      -1.549   1.322   0.303  0.00  0.00     0.418 HD
ENDBRANCH   4   7
TORSDOF 1
ENDMDL
