MODEL 1
REMARK minimizedAffinity -2.89616513
REMARK minimizedRMSD -1
REMARK  1 active torsions:
REMARK  status: ('A' for Active; 'I' for Inactive)
REMARK    1  A    between atoms: C3_4  and  O_7 
ROOT
ATOM      1  C   UNL d   1      -0.217   1.658   0.548  0.00  0.00    -0.033 A 
ATOM      2  C1  UNL d   1      -0.103   2.481   1.671  0.00  0.00     0.039 A 
ATOM      3  C2  UNL d   1      -0.648   2.079   2.892  0.00  0.00    -0.080 A 
ATOM      4  C3  UNL d   1      -1.303   0.854   2.977  0.00  0.00     0.150 A 
ATOM      5  C4  UNL d   1      -1.417   0.027   1.864  0.00  0.00    -0.007 A 
ATOM      6  C5  UNL d   1      -0.873   0.431   0.646  0.00  0.00     0.039 A 
ENDROOT
BRANCH   4   7
ATOM      7  O   UNL d   1      -1.855   0.421   4.146  0.00  0.00    -0.526 OA
ATOM      8  H5  UNL d   1      -1.724   1.108   4.821  0.00  0.00     0.418 HD
ENDBRANCH   4   7
TORSDOF 1
ENDMDL
