MODEL 1
REMARK minimizedAffinity -3.90436816
REMARK minimizedRMSD -1
REMARK  1 active torsions:
REMARK  status: ('A' for Active; 'I' for Inactive)
REMARK    1  A    between atoms: C3_4  and  O_7 
ROOT
ATOM      1  C   UNL d   1      -0.938   0.367   0.125  0.00  0.00    -0.033 A 
ATOM      2  C1  UNL d   1      -0.609  -0.922   0.549  0.00  0.00     0.039 A 
ATOM      3  C2  UNL d   1       0.591  -1.507   0.140  0.00  0.00    -0.080 A 
ATOM      4  C3  UNL d   1       1.452  -0.794  -0.689  0.00  0.00     0.150 A 
ATOM      5  C4  UNL d   1       1.132   0.492  -1.111  0.00  0.00    -0.007 A 
ATOM      6  C5  UNL d   1      -0.067   1.075  -0.703  0.00  0.00     0.039 A 
ENDROOT
BRANCH   4   7
ATOM      7  O   UNL d   1       2.632  -1.325  -1.117  0.00  0.00    -0.526 OA
ATOM      8  H5  UNL d   1       2.706  -2.230  -0.770  0.00  0.00     0.418 HD
ENDBRANCH   4   7
TORSDOF 1
ENDMDL
