MODEL 1
REMARK minimizedAffinity -1.74357533
REMARK minimizedRMSD -1
REMARK  1 active torsions:
REMARK  status: ('A' for Active; 'I' for Inactive)
REMARK    1  A    between atoms: C3_4  and  O_7 
ROOT
ATOM      1  C   UNL d   1       1.400  -1.298  -1.397  0.00  0.00    -0.033 A 
ATOM      2  C1  UNL d   1       1.258  -1.982  -0.188  0.00  0.00     0.039 A 
ATOM      3  C2  UNL d   1       0.529  -1.412   0.857  0.00  0.00    -0.080 A 
ATOM      4  C3  UNL d   1      -0.053  -0.160   0.681  0.00  0.00     0.150 A 
ATOM      5  C4  UNL d   1       0.081   0.526  -0.522  0.00  0.00    -0.007 A 
ATOM      6  C5  UNL d   1       0.810  -0.045  -1.565  0.00  0.00     0.039 A 
ENDROOT
BRANCH   4   7
ATOM      7  O   UNL d   1      -0.770   0.439   1.674  0.00  0.00    -0.526 OA
ATOM      8  H5  UNL d   1      -0.754  -0.138   2.456  0.00  0.00     0.418 HD
ENDBRANCH   4   7
TORSDOF 1
ENDMDL
