MODEL 1
REMARK minimizedAffinity -0.655370057
REMARK minimizedRMSD -1
REMARK  1 active torsions:
REMARK  status: ('A' for Active; 'I' for Inactive)
REMARK    1  A    between atoms: C3_4  and  O_7 
ROOT
ATOM      1  C   UNL d   1      -0.395  -1.029  -0.622  0.00  0.00    -0.033 A 
ATOM      2  C1  UNL d   1       0.357  -1.224   0.537  0.00  0.00     0.039 A 
ATOM      3  C2  UNL d   1       0.116  -0.441   1.668  0.00  0.00    -0.080 A 
ATOM      4  C3  UNL d   1      -0.879   0.531   1.626  0.00  0.00     0.150 A 
ATOM      5  C4  UNL d   1      -1.635   0.728   0.475  0.00  0.00    -0.007 A 
ATOM      6  C5  UNL d   1      -1.393  -0.054  -0.653  0.00  0.00     0.039 A 
ENDROOT
BRANCH   4   7
ATOM      7  O   UNL d   1      -1.147   1.323   2.703  0.00  0.00    -0.526 OA
ATOM      8  H5  UNL d   1      -0.528   1.093   3.416  0.00  0.00     0.418 HD
ENDBRANCH   4   7
TORSDOF 1
ENDMDL
