MODEL 1
REMARK minimizedAffinity -3.58111763
REMARK minimizedRMSD -1
REMARK  1 active torsions:
REMARK  status: ('A' for Active; 'I' for Inactive)
REMARK    1  A    between atoms: C3_4  and  O_7 
ROOT
ATOM      1  C   UNL d   1      -1.932   0.786   0.774  0.00  0.00    -0.033 A 
ATOM      2  C1  UNL d   1      -0.715   0.137   0.994  0.00  0.00     0.039 A 
ATOM      3  C2  UNL d   1      -0.165   0.097   2.276  0.00  0.00    -0.080 A 
ATOM      4  C3  UNL d   1      -0.840   0.709   3.329  0.00  0.00     0.150 A 
ATOM      5  C4  UNL d   1      -2.054   1.354   3.118  0.00  0.00    -0.007 A 
ATOM      6  C5  UNL d   1      -2.602   1.393   1.837  0.00  0.00     0.039 A 
ENDROOT
BRANCH   4   7
ATOM      7  O   UNL d   1      -0.340   0.701   4.597  0.00  0.00    -0.526 OA
ATOM      8  H5  UNL d   1       0.518   0.244   4.586  0.00  0.00     0.418 HD
ENDBRANCH   4   7
TORSDOF 1
ENDMDL
