MODEL 1
REMARK minimizedAffinity -1.30731988
REMARK minimizedRMSD -1
REMARK  1 active torsions:
REMARK  status: ('A' for Active; 'I' for Inactive)
REMARK    1  A    between atoms: C3_4  and  O_7 
ROOT
ATOM      1  C   UNL d   1       1.195  -1.328  -0.375  0.00  0.00    -0.033 A 
ATOM      2  C1  UNL d   1       0.433  -0.160  -0.441  0.00  0.00     0.039 A 
ATOM      3  C2  UNL d   1       0.502   0.658  -1.571  0.00  0.00    -0.080 A 
ATOM      4  C3  UNL d   1       1.335   0.296  -2.626  0.00  0.00     0.150 A 
ATOM      5  C4  UNL d   1       2.094  -0.868  -2.568  0.00  0.00    -0.007 A 
ATOM      6  C5  UNL d   1       2.025  -1.682  -1.439  0.00  0.00     0.039 A 
ENDROOT
BRANCH   4   7
ATOM      7  O   UNL d   1       1.439   1.065  -3.747  0.00  0.00    -0.526 OA
ATOM      8  H5  UNL d   1       0.880   1.852  -3.634  0.00  0.00     0.418 HD
ENDBRANCH   4   7
TORSDOF 1
ENDMDL
