MODEL 1
REMARK minimizedAffinity -2.74150324
REMARK minimizedRMSD -1
REMARK  1 active torsions:
REMARK  status: ('A' for Active; 'I' for Inactive)
REMARK    1  A    between atoms: C3_4  and  O_7 
ROOT
ATOM      1  C   UNL d   1      -2.415   1.079   3.534  0.00  0.00    -0.033 A 
ATOM      2  C1  UNL d   1      -1.432   1.836   2.893  0.00  0.00     0.039 A 
ATOM      3  C2  UNL d   1      -0.983   1.469   1.623  0.00  0.00    -0.080 A 
ATOM      4  C3  UNL d   1      -1.525   0.345   1.005  0.00  0.00     0.150 A 
ATOM      5  C4  UNL d   1      -2.507  -0.412   1.636  0.00  0.00    -0.007 A 
ATOM      6  C5  UNL d   1      -2.953  -0.044   2.905  0.00  0.00     0.039 A 
ENDROOT
BRANCH   4   7
ATOM      7  O   UNL d   1      -1.115  -0.056  -0.232  0.00  0.00    -0.526 OA
ATOM      8  H5  UNL d   1      -0.413   0.545  -0.533  0.00  0.00     0.418 HD
ENDBRANCH   4   7
TORSDOF 1
ENDMDL
