MODEL 1
REMARK minimizedAffinity -2.30795765
REMARK minimizedRMSD -1
REMARK  1 active torsions:
REMARK  status: ('A' for Active; 'I' for Inactive)
REMARK    1  A    between atoms: C3_4  and  O_7 
ROOT
ATOM      1  C   UNL d   1      -1.753   1.162   3.659  0.00  0.00    -0.033 A 
ATOM      2  C1  UNL d   1      -0.598   1.658   3.051  0.00  0.00     0.039 A 
ATOM      3  C2  UNL d   1      -0.316   1.343   1.721  0.00  0.00    -0.080 A 
ATOM      4  C3  UNL d   1      -1.196   0.531   1.010  0.00  0.00     0.150 A 
ATOM      5  C4  UNL d   1      -2.350   0.036   1.607  0.00  0.00    -0.007 A 
ATOM      6  C5  UNL d   1      -2.630   0.352   2.936  0.00  0.00     0.039 A 
ENDROOT
BRANCH   4   7
ATOM      7  O   UNL d   1      -0.960   0.192  -0.290  0.00  0.00    -0.526 OA
ATOM      8  H5  UNL d   1      -0.112   0.582  -0.561  0.00  0.00     0.418 HD
ENDBRANCH   4   7
TORSDOF 1
ENDMDL
