MODEL 1
REMARK minimizedAffinity -4.86243916
REMARK minimizedRMSD -1
REMARK  1 active torsions:
REMARK  status: ('A' for Active; 'I' for Inactive)
REMARK    1  A    between atoms: C3_4  and  O_7 
ROOT
ATOM      1  C   UNL d   1       0.335  -1.818   0.407  0.00  0.00    -0.033 A 
ATOM      2  C1  UNL d   1      -0.532  -0.723   0.402  0.00  0.00     0.039 A 
ATOM      3  C2  UNL d   1      -0.290   0.357  -0.449  0.00  0.00    -0.080 A 
ATOM      4  C3  UNL d   1       0.819   0.329  -1.290  0.00  0.00     0.150 A 
ATOM      5  C4  UNL d   1       1.684  -0.760  -1.294  0.00  0.00    -0.007 A 
ATOM      6  C5  UNL d   1       1.441  -1.837  -0.443  0.00  0.00     0.039 A 
ENDROOT
BRANCH   4   7
ATOM      7  O   UNL d   1       1.098   1.362  -2.135  0.00  0.00    -0.526 OA
ATOM      8  H5  UNL d   1       0.432   2.057  -2.003  0.00  0.00     0.418 HD
ENDBRANCH   4   7
TORSDOF 1
ENDMDL
