MODEL 1
REMARK minimizedAffinity -0.0973868221
REMARK minimizedRMSD -1
REMARK  1 active torsions:
REMARK  status: ('A' for Active; 'I' for Inactive)
REMARK    1  A    between atoms: C3_4  and  O_7 
ROOT
ATOM      1  C   UNL d   1      -1.748   0.666   4.297  0.00  0.00    -0.033 A 
ATOM      2  C1  UNL d   1      -2.245  -0.434   3.595  0.00  0.00     0.039 A 
ATOM      3  C2  UNL d   1      -2.285  -0.413   2.199  0.00  0.00    -0.080 A 
ATOM      4  C3  UNL d   1      -1.825   0.711   1.519  0.00  0.00     0.150 A 
ATOM      5  C4  UNL d   1      -1.326   1.809   2.212  0.00  0.00    -0.007 A 
ATOM      6  C5  UNL d   1      -1.287   1.787   3.606  0.00  0.00     0.039 A 
ENDROOT
BRANCH   4   7
ATOM      7  O   UNL d   1      -1.849   0.780   0.158  0.00  0.00    -0.526 OA
ATOM      8  H5  UNL d   1      -2.247  -0.038  -0.185  0.00  0.00     0.418 HD
ENDBRANCH   4   7
TORSDOF 1
ENDMDL
