MODEL 1
REMARK minimizedAffinity -2.09051514
REMARK minimizedRMSD -1
REMARK  1 active torsions:
REMARK  status: ('A' for Active; 'I' for Inactive)
REMARK    1  A    between atoms: C3_4  and  O_7 
ROOT
ATOM      1  C   UNL d   1       0.456  -1.612   0.217  0.00  0.00    -0.033 A 
ATOM      2  C1  UNL d   1       1.371  -1.748  -0.829  0.00  0.00     0.039 A 
ATOM      3  C2  UNL d   1       1.536  -0.715  -1.753  0.00  0.00    -0.080 A 
ATOM      4  C3  UNL d   1       0.783   0.448  -1.620  0.00  0.00     0.150 A 
ATOM      5  C4  UNL d   1      -0.128   0.592  -0.578  0.00  0.00    -0.007 A 
ATOM      6  C5  UNL d   1      -0.292  -0.441   0.343  0.00  0.00     0.039 A 
ENDROOT
BRANCH   4   7
ATOM      7  O   UNL d   1       0.906   1.481  -2.501  0.00  0.00    -0.526 OA
ATOM      8  H5  UNL d   1       1.550   1.229  -3.183  0.00  0.00     0.418 HD
ENDBRANCH   4   7
TORSDOF 1
ENDMDL
