MODEL 1
REMARK minimizedAffinity 3.83244491
REMARK minimizedRMSD -1
REMARK  1 active torsions:
REMARK  status: ('A' for Active; 'I' for Inactive)
REMARK    1  A    between atoms: C3_4  and  O_7 
ROOT
ATOM      1  C   UNL d   1       2.625  -3.000  -0.376  0.00  0.00    -0.033 A 
ATOM      2  C1  UNL d   1       3.581  -4.016  -0.438  0.00  0.00     0.039 A 
ATOM      3  C2  UNL d   1       4.336  -4.337   0.691  0.00  0.00    -0.080 A 
ATOM      4  C3  UNL d   1       4.125  -3.636   1.876  0.00  0.00     0.150 A 
ATOM      5  C4  UNL d   1       3.172  -2.625   1.946  0.00  0.00    -0.007 A 
ATOM      6  C5  UNL d   1       2.419  -2.306   0.817  0.00  0.00     0.039 A 
ENDROOT
BRANCH   4   7
ATOM      7  O   UNL d   1       4.842  -3.910   3.003  0.00  0.00    -0.526 OA
ATOM      8  H5  UNL d   1       5.483  -4.611   2.797  0.00  0.00     0.418 HD
ENDBRANCH   4   7
TORSDOF 1
ENDMDL
