MODEL 1
REMARK minimizedAffinity -3.03724456
REMARK minimizedRMSD -1
REMARK  1 active torsions:
REMARK  status: ('A' for Active; 'I' for Inactive)
REMARK    1  A    between atoms: C3_4  and  O_7 
ROOT
ATOM      1  C   UNL d   1       3.449   5.226  -5.968  0.00  0.00    -0.033 A 
ATOM      2  C1  UNL d   1       2.581   4.133  -5.993  0.00  0.00     0.039 A 
ATOM      3  C2  UNL d   1       3.091   2.833  -6.000  0.00  0.00    -0.080 A 
ATOM      4  C3  UNL d   1       4.470   2.641  -5.980  0.00  0.00     0.150 A 
ATOM      5  C4  UNL d   1       5.341   3.725  -5.951  0.00  0.00    -0.007 A 
ATOM      6  C5  UNL d   1       4.829   5.022  -5.946  0.00  0.00     0.039 A 
ENDROOT
BRANCH   4   7
ATOM      7  O   UNL d   1       5.015   1.391  -5.991  0.00  0.00    -0.526 OA
ATOM      8  H5  UNL d   1       4.294   0.741  -6.040  0.00  0.00     0.418 HD
ENDBRANCH   4   7
TORSDOF 1
ENDMDL
