MODEL 1
REMARK minimizedAffinity 6.23127651
REMARK minimizedRMSD -1
REMARK  1 active torsions:
REMARK  status: ('A' for Active; 'I' for Inactive)
REMARK    1  A    between atoms: C3_4  and  O_7 
ROOT
ATOM      1  C   UNL d   1       1.550  -1.989   0.397  0.00  0.00    -0.033 A 
ATOM      2  C1  UNL d   1       2.556  -2.931   0.174  0.00  0.00     0.039 A 
ATOM      3  C2  UNL d   1       3.520  -3.172   1.155  0.00  0.00    -0.080 A 
ATOM      4  C3  UNL d   1       3.465  -2.467   2.354  0.00  0.00     0.150 A 
ATOM      5  C4  UNL d   1       2.463  -1.530   2.585  0.00  0.00    -0.007 A 
ATOM      6  C5  UNL d   1       1.503  -1.290   1.604  0.00  0.00     0.039 A 
ENDROOT
BRANCH   4   7
ATOM      7  O   UNL d   1       4.386  -2.664   3.340  0.00  0.00    -0.526 OA
ATOM      8  H5  UNL d   1       5.034  -3.319   3.029  0.00  0.00     0.418 HD
ENDBRANCH   4   7
TORSDOF 1
ENDMDL
