MODEL 1
REMARK minimizedAffinity -0.0687804371
REMARK minimizedRMSD -1
REMARK  1 active torsions:
REMARK  status: ('A' for Active; 'I' for Inactive)
REMARK    1  A    between atoms: C3_4  and  O_7 
ROOT
ATOM      1  C   UNL d   1       1.746   3.787  -6.000  0.00  0.00    -0.033 A 
ATOM      2  C1  UNL d   1       1.831   5.181  -5.999  0.00  0.00     0.039 A 
ATOM      3  C2  UNL d   1       3.080   5.805  -5.992  0.00  0.00    -0.080 A 
ATOM      4  C3  UNL d   1       4.233   5.026  -5.988  0.00  0.00     0.150 A 
ATOM      5  C4  UNL d   1       4.156   3.637  -5.993  0.00  0.00    -0.007 A 
ATOM      6  C5  UNL d   1       2.908   3.015  -5.998  0.00  0.00     0.039 A 
ENDROOT
BRANCH   4   7
ATOM      7  O   UNL d   1       5.474   5.591  -5.977  0.00  0.00    -0.526 OA
ATOM      8  H5  UNL d   1       5.373   6.557  -5.945  0.00  0.00     0.418 HD
ENDBRANCH   4   7
TORSDOF 1
ENDMDL
