MODEL 1
REMARK minimizedAffinity -1.02493238
REMARK minimizedRMSD -1
REMARK  1 active torsions:
REMARK  status: ('A' for Active; 'I' for Inactive)
REMARK    1  A    between atoms: C3_4  and  O_7 
ROOT
ATOM      1  C   UNL d   1       5.270   3.644  -5.985  0.00  0.00    -0.033 A 
ATOM      2  C1  UNL d   1       4.101   4.409  -5.997  0.00  0.00     0.039 A 
ATOM      3  C2  UNL d   1       2.854   3.781  -6.000  0.00  0.00    -0.080 A 
ATOM      4  C3  UNL d   1       2.789   2.390  -5.989  0.00  0.00     0.150 A 
ATOM      5  C4  UNL d   1       3.949   1.623  -5.973  0.00  0.00    -0.007 A 
ATOM      6  C5  UNL d   1       5.194   2.251  -5.972  0.00  0.00     0.039 A 
ENDROOT
BRANCH   4   7
ATOM      7  O   UNL d   1       1.595   1.732  -5.996  0.00  0.00    -0.526 OA
ATOM      8  H5  UNL d   1       0.882   2.391  -6.036  0.00  0.00     0.418 HD
ENDBRANCH   4   7
TORSDOF 1
ENDMDL
