MODEL 1
REMARK minimizedAffinity 3.59428692
REMARK minimizedRMSD -1
REMARK  1 active torsions:
REMARK  status: ('A' for Active; 'I' for Inactive)
REMARK    1  A    between atoms: C3_4  and  O_7 
ROOT
ATOM      1  C   UNL d   1       2.306   1.108  -5.124  0.00  0.00    -0.033 A 
ATOM      2  C1  UNL d   1       1.045   1.634  -4.833  0.00  0.00     0.039 A 
ATOM      3  C2  UNL d   1       0.760   2.969  -5.122  0.00  0.00    -0.080 A 
ATOM      4  C3  UNL d   1       1.742   3.767  -5.703  0.00  0.00     0.150 A 
ATOM      5  C4  UNL d   1       2.998   3.250  -5.999  0.00  0.00    -0.007 A 
ATOM      6  C5  UNL d   1       3.282   1.916  -5.708  0.00  0.00     0.039 A 
ENDROOT
BRANCH   4   7
ATOM      7  O   UNL d   1       1.511   5.078  -6.000  0.00  0.00    -0.526 OA
ATOM      8  H5  UNL d   1       0.611   5.305  -5.714  0.00  0.00     0.418 HD
ENDBRANCH   4   7
TORSDOF 1
ENDMDL
