MODEL 1
REMARK minimizedAffinity 0.664666831
REMARK minimizedRMSD -1
REMARK  1 active torsions:
REMARK  status: ('A' for Active; 'I' for Inactive)
REMARK    1  A    between atoms: C3_4  and  O_7 
ROOT
ATOM      1  C   UNL d   1       2.921  -3.153   0.133  0.00  0.00    -0.033 A 
ATOM      2  C1  UNL d   1       2.223  -2.845   1.302  0.00  0.00     0.039 A 
ATOM      3  C2  UNL d   1       2.769  -3.161   2.548  0.00  0.00    -0.080 A 
ATOM      4  C3  UNL d   1       4.013  -3.783   2.610  0.00  0.00     0.150 A 
ATOM      5  C4  UNL d   1       4.716  -4.089   1.450  0.00  0.00    -0.007 A 
ATOM      6  C5  UNL d   1       4.169  -3.774   0.207  0.00  0.00     0.039 A 
ENDROOT
BRANCH   4   7
ATOM      7  O   UNL d   1       4.585  -4.115   3.803  0.00  0.00    -0.526 OA
ATOM      8  H5  UNL d   1       3.973  -3.870   4.516  0.00  0.00     0.418 HD
ENDBRANCH   4   7
TORSDOF 1
ENDMDL
