MODEL 1
REMARK minimizedAffinity 2.9134202
REMARK minimizedRMSD -1
REMARK  1 active torsions:
REMARK  status: ('A' for Active; 'I' for Inactive)
REMARK    1  A    between atoms: C3_4  and  O_7 
ROOT
ATOM      1  C   UNL d   1       2.650  -1.931   0.326  0.00  0.00    -0.033 A 
ATOM      2  C1  UNL d   1       2.186  -0.615   0.361  0.00  0.00     0.039 A 
ATOM      3  C2  UNL d   1       1.305  -0.210   1.365  0.00  0.00    -0.080 A 
ATOM      4  C3  UNL d   1       0.896  -1.129   2.327  0.00  0.00     0.150 A 
ATOM      5  C4  UNL d   1       1.358  -2.441   2.301  0.00  0.00    -0.007 A 
ATOM      6  C5  UNL d   1       2.237  -2.844   1.297  0.00  0.00     0.039 A 
ENDROOT
BRANCH   4   7
ATOM      7  O   UNL d   1       0.033  -0.782   3.324  0.00  0.00    -0.526 OA
ATOM      8  H5  UNL d   1      -0.224   0.147   3.199  0.00  0.00     0.418 HD
ENDBRANCH   4   7
TORSDOF 1
ENDMDL
