MODEL 1
REMARK minimizedAffinity -3.22587013
REMARK minimizedRMSD -1
REMARK  0 active torsions:
REMARK  status: ('A' for Active; 'I' for Inactive)
ROOT
ATOM      1  C1  DEN d   1      -1.435   0.640   0.338  0.00  0.00     0.130 A 
ATOM      2  C2  DEN d   1      -1.449   1.027   1.746  0.00  0.00    -0.031 A 
ATOM      3  C3  DEN d   1      -0.168   0.606   2.348  0.00  0.00     0.027 A 
ATOM      4  C4  DEN d   1       1.827  -0.598   1.241  0.00  0.00     0.027 A 
ATOM      5  C5  DEN d   1       2.298  -1.143   0.067  0.00  0.00    -0.003 A 
ATOM      6  C6  DEN d   1       1.551  -1.162  -1.081  0.00  0.00     0.001 A 
ATOM      7  C7  DEN d   1       0.308  -0.585  -1.092  0.00  0.00     0.017 A 
ATOM      8  C8  DEN d   1      -0.177  -0.040   0.090  0.00  0.00    -0.094 A 
ATOM      9  C9  DEN d   1       0.599  -0.020   1.237  0.00  0.00    -0.072 A 
ENDROOT
TORSDOF 0
ENDMDL
