MODEL 1
REMARK minimizedAffinity -2.15740252
REMARK minimizedRMSD -1
REMARK  0 active torsions:
REMARK  status: ('A' for Active; 'I' for Inactive)
ROOT
ATOM      1  C1  DEN d   1      -2.232   0.384   0.945  0.00  0.00     0.130 A 
ATOM      2  C2  DEN d   1      -1.790   1.016   2.185  0.00  0.00    -0.031 A 
ATOM      3  C3  DEN d   1      -0.314   1.056   2.175  0.00  0.00     0.027 A 
ATOM      4  C4  DEN d   1       1.321   0.208   0.369  0.00  0.00     0.027 A 
ATOM      5  C5  DEN d   1       1.415  -0.413  -0.857  0.00  0.00    -0.003 A 
ATOM      6  C6  DEN d   1       0.311  -0.839  -1.546  0.00  0.00     0.001 A 
ATOM      7  C7  DEN d   1      -0.939  -0.609  -1.036  0.00  0.00     0.017 A 
ATOM      8  C8  DEN d   1      -1.042   0.010   0.203  0.00  0.00    -0.094 A 
ATOM      9  C9  DEN d   1       0.085   0.445   0.879  0.00  0.00    -0.072 A 
ENDROOT
TORSDOF 0
ENDMDL
