MODEL 1
REMARK minimizedAffinity -6.30376577
REMARK minimizedRMSD -1
REMARK  0 active torsions:
REMARK  status: ('A' for Active; 'I' for Inactive)
ROOT
ATOM      1  C1  DEN d   1      -0.743   1.009   2.911  0.00  0.00     0.130 A 
ATOM      2  C2  DEN d   1       0.638   1.221   3.337  0.00  0.00    -0.031 A 
ATOM      3  C3  DEN d   1       1.525   0.613   2.326  0.00  0.00     0.027 A 
ATOM      4  C4  DEN d   1       0.900  -0.624   0.151  0.00  0.00     0.027 A 
ATOM      5  C5  DEN d   1      -0.147  -1.062  -0.630  0.00  0.00    -0.003 A 
ATOM      6  C6  DEN d   1      -1.455  -0.872  -0.271  0.00  0.00     0.001 A 
ATOM      7  C7  DEN d   1      -1.751  -0.187   0.877  0.00  0.00     0.017 A 
ATOM      8  C8  DEN d   1      -0.701   0.251   1.674  0.00  0.00    -0.094 A 
ATOM      9  C9  DEN d   1       0.615   0.060   1.287  0.00  0.00    -0.072 A 
ENDROOT
TORSDOF 0
ENDMDL
