MODEL 1
REMARK minimizedAffinity -4.68959999
REMARK minimizedRMSD -1
REMARK  0 active torsions:
REMARK  status: ('A' for Active; 'I' for Inactive)
ROOT
ATOM      1  C1  DEN d   1      -1.840  -0.897  -0.182  0.00  0.00     0.130 A 
ATOM      2  C2  DEN d   1      -0.942  -1.103  -1.314  0.00  0.00    -0.031 A 
ATOM      3  C3  DEN d   1       0.340  -0.436  -1.008  0.00  0.00     0.027 A 
ATOM      4  C4  DEN d   1       1.017   0.887   1.099  0.00  0.00     0.027 A 
ATOM      5  C5  DEN d   1       0.586   1.342   2.326  0.00  0.00    -0.003 A 
ATOM      6  C6  DEN d   1      -0.684   1.114   2.784  0.00  0.00     0.001 A 
ATOM      7  C7  DEN d   1      -1.555   0.372   2.030  0.00  0.00     0.017 A 
ATOM      8  C8  DEN d   1      -1.130  -0.083   0.789  0.00  0.00    -0.094 A 
ATOM      9  C9  DEN d   1       0.162   0.148   0.349  0.00  0.00    -0.072 A 
ENDROOT
TORSDOF 0
ENDMDL
