MODEL 1
REMARK minimizedAffinity -4.13675642
REMARK minimizedRMSD -1
REMARK  0 active torsions:
REMARK  status: ('A' for Active; 'I' for Inactive)
ROOT
ATOM      1  C1  DEN d   1      -1.084  -0.640  -0.761  0.00  0.00     0.130 A 
ATOM      2  C2  DEN d   1       0.245  -0.763  -1.354  0.00  0.00    -0.031 A 
ATOM      3  C3  DEN d   1       1.202  -0.054  -0.482  0.00  0.00     0.027 A 
ATOM      4  C4  DEN d   1       0.758   1.213   1.721  0.00  0.00     0.027 A 
ATOM      5  C5  DEN d   1      -0.213   1.601   2.617  0.00  0.00    -0.003 A 
ATOM      6  C6  DEN d   1      -1.537   1.300   2.434  0.00  0.00     0.001 A 
ATOM      7  C7  DEN d   1      -1.920   0.552   1.352  0.00  0.00     0.017 A 
ATOM      8  C8  DEN d   1      -0.947   0.164   0.440  0.00  0.00    -0.094 A 
ATOM      9  C9  DEN d   1       0.388   0.468   0.649  0.00  0.00    -0.072 A 
ENDROOT
TORSDOF 0
ENDMDL
