MODEL 1
REMARK minimizedAffinity -3.64669728
REMARK minimizedRMSD -1
REMARK  1 active torsions:
REMARK  status: ('A' for Active; 'I' for Inactive)
REMARK    1  A    between atoms: C1_2  and  C2_3 
ROOT
ATOM      1  C2  UNL d   1       2.549  -2.495   3.030  0.00  0.00    -0.073 A 
ATOM      2  C3  UNL d   1       1.411  -3.137   2.528  0.00  0.00    -0.002 A 
ATOM      3  C4  UNL d   1       0.692  -2.573   1.473  0.00  0.00     0.004 A 
ATOM      4  C5  UNL d   1       1.106  -1.368   0.907  0.00  0.00    -0.004 A 
ATOM      5  C6  UNL d   1       2.247  -0.717   1.387  0.00  0.00    -0.075 A 
ATOM      6  C7  UNL d   1       2.703   0.581   0.790  0.00  0.00     0.076 C 
ATOM      7  C8  UNL d   1       2.962  -1.288   2.448  0.00  0.00     0.001 A 
ENDROOT
BRANCH   1   8
ATOM      8  C1  UNL d   1       3.332  -3.103   4.165  0.00  0.00     0.053 C 
ATOM      9  C   UNL d   1       2.779  -4.458   4.578  0.00  0.00     0.018 C 
ENDBRANCH   1   8
TORSDOF 1
ENDMDL
