MODEL 1
REMARK minimizedAffinity 7.50927019
REMARK minimizedRMSD -1
REMARK  1 active torsions:
REMARK  status: ('A' for Active; 'I' for Inactive)
REMARK    1  A    between atoms: C1_2  and  C2_3 
ROOT
ATOM      1  C2  UNL d   1       2.563  -0.556   1.101  0.00  0.00    -0.073 A 
ATOM      2  C3  UNL d   1       3.879  -1.029   1.074  0.00  0.00    -0.002 A 
ATOM      3  C4  UNL d   1       4.185  -2.293   1.582  0.00  0.00     0.004 A 
ATOM      4  C5  UNL d   1       3.178  -3.098   2.115  0.00  0.00    -0.004 A 
ATOM      5  C6  UNL d   1       1.854  -2.647   2.140  0.00  0.00    -0.075 A 
ATOM      6  C7  UNL d   1       0.760  -3.500   2.711  0.00  0.00     0.076 C 
ATOM      7  C8  UNL d   1       1.556  -1.376   1.630  0.00  0.00     0.001 A 
ENDROOT
BRANCH   1   8
ATOM      8  C1  UNL d   1       2.227   0.805   0.548  0.00  0.00     0.053 C 
ATOM      9  C   UNL d   1       1.913   1.806   1.649  0.00  0.00     0.018 C 
ENDBRANCH   1   8
TORSDOF 1
ENDMDL
