MODEL 1
REMARK minimizedAffinity -0.201110005
REMARK minimizedRMSD -1
REMARK  1 active torsions:
REMARK  status: ('A' for Active; 'I' for Inactive)
REMARK    1  A    between atoms: C1_2  and  C2_3 
ROOT
ATOM      1  C2  UNL d   1       2.499  -0.999   1.327  0.00  0.00    -0.073 A 
ATOM      2  C3  UNL d   1       3.003  -1.866   2.303  0.00  0.00    -0.002 A 
ATOM      3  C4  UNL d   1       2.200  -2.879   2.829  0.00  0.00     0.004 A 
ATOM      4  C5  UNL d   1       0.889  -3.039   2.380  0.00  0.00    -0.004 A 
ATOM      5  C6  UNL d   1       0.371  -2.190   1.397  0.00  0.00    -0.075 A 
ATOM      6  C7  UNL d   1      -1.038  -2.349   0.905  0.00  0.00     0.076 C 
ATOM      7  C8  UNL d   1       1.183  -1.174   0.876  0.00  0.00     0.001 A 
ENDROOT
BRANCH   1   8
ATOM      8  C1  UNL d   1       3.364   0.092   0.752  0.00  0.00     0.053 C 
ATOM      9  C   UNL d   1       2.656   1.437   0.744  0.00  0.00     0.018 C 
ENDBRANCH   1   8
TORSDOF 1
ENDMDL
