MODEL 1
REMARK minimizedAffinity 2.80353022
REMARK minimizedRMSD -1
REMARK  1 active torsions:
REMARK  status: ('A' for Active; 'I' for Inactive)
REMARK    1  A    between atoms: C1_2  and  C2_3 
ROOT
ATOM      1  C2  UNL d   1       1.721  -1.477   1.956  0.00  0.00    -0.073 A 
ATOM      2  C3  UNL d   1       1.540  -2.794   2.394  0.00  0.00    -0.002 A 
ATOM      3  C4  UNL d   1       0.260  -3.347   2.455  0.00  0.00     0.004 A 
ATOM      4  C5  UNL d   1      -0.849  -2.593   2.072  0.00  0.00    -0.004 A 
ATOM      5  C6  UNL d   1      -0.688  -1.279   1.620  0.00  0.00    -0.075 A 
ATOM      6  C7  UNL d   1      -1.871  -0.454   1.207  0.00  0.00     0.076 C 
ATOM      7  C8  UNL d   1       0.601  -0.730   1.565  0.00  0.00     0.001 A 
ENDROOT
BRANCH   1   8
ATOM      8  C1  UNL d   1       3.102  -0.878   1.883  0.00  0.00     0.053 C 
ATOM      9  C   UNL d   1       3.061   0.614   1.591  0.00  0.00     0.018 C 
ENDBRANCH   1   8
TORSDOF 1
ENDMDL
