MODEL 1
REMARK minimizedAffinity -0.535789013
REMARK minimizedRMSD -1
REMARK  1 active torsions:
REMARK  status: ('A' for Active; 'I' for Inactive)
REMARK    1  A    between atoms: C1_2  and  C2_3 
ROOT
ATOM      1  C2  UNL d   1       0.808  -2.195   0.423  0.00  0.00    -0.073 A 
ATOM      2  C3  UNL d   1      -0.536  -1.972   0.103  0.00  0.00    -0.002 A 
ATOM      3  C4  UNL d   1      -0.945  -1.927  -1.230  0.00  0.00     0.004 A 
ATOM      4  C5  UNL d   1      -0.018  -2.111  -2.255  0.00  0.00    -0.004 A 
ATOM      5  C6  UNL d   1       1.328  -2.347  -1.956  0.00  0.00    -0.075 A 
ATOM      6  C7  UNL d   1       2.338  -2.544  -3.047  0.00  0.00     0.076 C 
ATOM      7  C8  UNL d   1       1.731  -2.388  -0.614  0.00  0.00     0.001 A 
ENDROOT
BRANCH   1   8
ATOM      8  C1  UNL d   1       1.253  -2.251   1.862  0.00  0.00     0.053 C 
ATOM      9  C   UNL d   1       2.547  -1.485   2.088  0.00  0.00     0.018 C 
ENDBRANCH   1   8
TORSDOF 1
ENDMDL
