MODEL 1
REMARK minimizedAffinity 8.49009132
REMARK minimizedRMSD -1
REMARK  1 active torsions:
REMARK  status: ('A' for Active; 'I' for Inactive)
REMARK    1  A    between atoms: C1_2  and  C2_3 
ROOT
ATOM      1  C2  UNL d   1       1.527   3.267   0.157  0.00  0.00    -0.073 A 
ATOM      2  C3  UNL d   1       0.883   2.791   1.305  0.00  0.00    -0.002 A 
ATOM      3  C4  UNL d   1       1.413   1.713   2.015  0.00  0.00     0.004 A 
ATOM      4  C5  UNL d   1       2.595   1.106   1.591  0.00  0.00    -0.004 A 
ATOM      5  C6  UNL d   1       3.260   1.575   0.453  0.00  0.00    -0.075 A 
ATOM      6  C7  UNL d   1       4.531   0.931  -0.018  0.00  0.00     0.076 C 
ATOM      7  C8  UNL d   1       2.720   2.656  -0.256  0.00  0.00     0.001 A 
ENDROOT
BRANCH   1   8
ATOM      8  C1  UNL d   1       0.962   4.435  -0.609  0.00  0.00     0.053 C 
ATOM      9  C   UNL d   1       2.027   5.469  -0.940  0.00  0.00     0.018 C 
ENDBRANCH   1   8
TORSDOF 1
ENDMDL
