MODEL 1
REMARK minimizedAffinity -0.752709627
REMARK minimizedRMSD -1
REMARK  1 active torsions:
REMARK  status: ('A' for Active; 'I' for Inactive)
REMARK    1  A    between atoms: C1_2  and  C2_3 
ROOT
ATOM      1  C2  UNL d   1       1.474  -2.062  -1.122  0.00  0.00    -0.073 A 
ATOM      2  C3  UNL d   1       0.214  -1.996  -1.726  0.00  0.00    -0.002 A 
ATOM      3  C4  UNL d   1      -0.723  -1.053  -1.302  0.00  0.00     0.004 A 
ATOM      4  C5  UNL d   1      -0.407  -0.163  -0.276  0.00  0.00    -0.004 A 
ATOM      5  C6  UNL d   1       0.851  -0.205   0.333  0.00  0.00    -0.075 A 
ATOM      6  C7  UNL d   1       1.205   0.744   1.439  0.00  0.00     0.076 C 
ATOM      7  C8  UNL d   1       1.785  -1.157  -0.097  0.00  0.00     0.001 A 
ENDROOT
BRANCH   1   8
ATOM      8  C1  UNL d   1       2.491  -3.075  -1.580  0.00  0.00     0.053 C 
ATOM      9  C   UNL d   1       3.115  -2.693  -2.913  0.00  0.00     0.018 C 
ENDBRANCH   1   8
TORSDOF 1
ENDMDL
