MODEL 1
REMARK minimizedAffinity -3.10148168
REMARK minimizedRMSD -1
REMARK  1 active torsions:
REMARK  status: ('A' for Active; 'I' for Inactive)
REMARK    1  A    between atoms: C1_2  and  C2_3 
ROOT
ATOM      1  C2  UNL d   1       0.797  -0.986  -0.564  0.00  0.00    -0.073 A 
ATOM      2  C3  UNL d   1       1.064  -0.017  -1.538  0.00  0.00    -0.002 A 
ATOM      3  C4  UNL d   1       0.619   1.295  -1.368  0.00  0.00     0.004 A 
ATOM      4  C5  UNL d   1      -0.090   1.653  -0.222  0.00  0.00    -0.004 A 
ATOM      5  C6  UNL d   1      -0.357   0.701   0.768  0.00  0.00    -0.075 A 
ATOM      6  C7  UNL d   1      -1.121   1.069   2.006  0.00  0.00     0.076 C 
ATOM      7  C8  UNL d   1       0.091  -0.614   0.589  0.00  0.00     0.001 A 
ENDROOT
BRANCH   1   8
ATOM      8  C1  UNL d   1       1.281  -2.402  -0.741  0.00  0.00     0.053 C 
ATOM      9  C   UNL d   1       0.813  -3.004  -2.056  0.00  0.00     0.018 C 
ENDBRANCH   1   8
TORSDOF 1
ENDMDL
