MODEL 1
REMARK minimizedAffinity -2.58460307
REMARK minimizedRMSD -1
REMARK  1 active torsions:
REMARK  status: ('A' for Active; 'I' for Inactive)
REMARK    1  A    between atoms: C1_2  and  C2_3 
ROOT
ATOM      1  C2  UNL d   1       0.479  -1.310  -0.644  0.00  0.00    -0.073 A 
ATOM      2  C3  UNL d   1      -0.053  -1.484   0.639  0.00  0.00    -0.002 A 
ATOM      3  C4  UNL d   1      -0.690  -0.425   1.286  0.00  0.00     0.004 A 
ATOM      4  C5  UNL d   1      -0.808   0.814   0.657  0.00  0.00    -0.004 A 
ATOM      5  C6  UNL d   1      -0.294   1.004  -0.630  0.00  0.00    -0.075 A 
ATOM      6  C7  UNL d   1      -0.410   2.331  -1.320  0.00  0.00     0.076 C 
ATOM      7  C8  UNL d   1       0.348  -0.064  -1.273  0.00  0.00     0.001 A 
ENDROOT
BRANCH   1   8
ATOM      8  C1  UNL d   1       1.163  -2.453  -1.350  0.00  0.00     0.053 C 
ATOM      9  C   UNL d   1       0.195  -3.256  -2.204  0.00  0.00     0.018 C 
ENDBRANCH   1   8
TORSDOF 1
ENDMDL
