MODEL 1
REMARK minimizedAffinity -2.5951066
REMARK minimizedRMSD -1
REMARK  1 active torsions:
REMARK  status: ('A' for Active; 'I' for Inactive)
REMARK    1  A    between atoms: C1_2  and  C2_3 
ROOT
ATOM      1  C2  UNL d   1       0.852  -0.663  -0.712  0.00  0.00    -0.073 A 
ATOM      2  C3  UNL d   1       1.204   0.374  -1.583  0.00  0.00    -0.002 A 
ATOM      3  C4  UNL d   1       0.686   1.657  -1.396  0.00  0.00     0.004 A 
ATOM      4  C5  UNL d   1      -0.180   1.917  -0.334  0.00  0.00    -0.004 A 
ATOM      5  C6  UNL d   1      -0.534   0.896   0.553  0.00  0.00    -0.075 A 
ATOM      6  C7  UNL d   1      -1.467   1.158   1.699  0.00  0.00     0.076 C 
ATOM      7  C8  UNL d   1      -0.013  -0.390   0.358  0.00  0.00     0.001 A 
ENDROOT
BRANCH   1   8
ATOM      8  C1  UNL d   1       1.413  -2.048  -0.905  0.00  0.00     0.053 C 
ATOM      9  C   UNL d   1       0.615  -2.850  -1.921  0.00  0.00     0.018 C 
ENDBRANCH   1   8
TORSDOF 1
ENDMDL
