MODEL 1
REMARK minimizedAffinity -4.09465456
REMARK minimizedRMSD -1
REMARK  1 active torsions:
REMARK  status: ('A' for Active; 'I' for Inactive)
REMARK    1  A    between atoms: C1_2  and  C2_3 
ROOT
ATOM      1  C2  UNL d   1      -0.243   0.537   0.127  0.00  0.00    -0.073 A 
ATOM      2  C3  UNL d   1      -1.154   1.390  -0.507  0.00  0.00    -0.002 A 
ATOM      3  C4  UNL d   1      -1.876   2.326   0.235  0.00  0.00     0.004 A 
ATOM      4  C5  UNL d   1      -1.690   2.424   1.613  0.00  0.00    -0.004 A 
ATOM      5  C6  UNL d   1      -0.776   1.588   2.263  0.00  0.00    -0.075 A 
ATOM      6  C7  UNL d   1      -0.566   1.679   3.746  0.00  0.00     0.076 C 
ATOM      7  C8  UNL d   1      -0.056   0.649   1.512  0.00  0.00     0.001 A 
ENDROOT
BRANCH   1   8
ATOM      8  C1  UNL d   1       0.544  -0.471  -0.671  0.00  0.00     0.053 C 
ATOM      9  C   UNL d   1       2.036  -0.375  -0.396  0.00  0.00     0.018 C 
ENDBRANCH   1   8
TORSDOF 1
ENDMDL
