MODEL 1
REMARK minimizedAffinity -3.83940053
REMARK minimizedRMSD -1
REMARK  1 active torsions:
REMARK  status: ('A' for Active; 'I' for Inactive)
REMARK    1  A    between atoms: C1_2  and  C2_3 
ROOT
ATOM      1  C2  UNL d   1       0.319   0.030   0.361  0.00  0.00    -0.073 A 
ATOM      2  C3  UNL d   1       0.410  -0.701   1.551  0.00  0.00    -0.002 A 
ATOM      3  C4  UNL d   1      -0.331  -0.319   2.671  0.00  0.00     0.004 A 
ATOM      4  C5  UNL d   1      -1.173   0.790   2.610  0.00  0.00    -0.004 A 
ATOM      5  C6  UNL d   1      -1.287   1.527   1.426  0.00  0.00    -0.075 A 
ATOM      6  C7  UNL d   1      -2.187   2.724   1.345  0.00  0.00     0.076 C 
ATOM      7  C8  UNL d   1      -0.538   1.139   0.307  0.00  0.00     0.001 A 
ENDROOT
BRANCH   1   8
ATOM      8  C1  UNL d   1       1.112  -0.382  -0.852  0.00  0.00     0.053 C 
ATOM      9  C   UNL d   1       1.046  -1.881  -1.094  0.00  0.00     0.018 C 
ENDBRANCH   1   8
TORSDOF 1
ENDMDL
