MODEL 1
REMARK minimizedAffinity -3.1918869
REMARK minimizedRMSD -1
REMARK  1 active torsions:
REMARK  status: ('A' for Active; 'I' for Inactive)
REMARK    1  A    between atoms: C1_2  and  C2_3 
ROOT
ATOM      1  C2  UNL d   1       0.373   0.075  -0.135  0.00  0.00    -0.073 A 
ATOM      2  C3  UNL d   1       0.918   0.727  -1.247  0.00  0.00    -0.002 A 
ATOM      3  C4  UNL d   1       0.356   1.918  -1.710  0.00  0.00     0.004 A 
ATOM      4  C5  UNL d   1      -0.749   2.471  -1.063  0.00  0.00    -0.004 A 
ATOM      5  C6  UNL d   1      -1.299   1.840   0.057  0.00  0.00    -0.075 A 
ATOM      6  C7  UNL d   1      -2.489   2.421   0.763  0.00  0.00     0.076 C 
ATOM      7  C8  UNL d   1      -0.732   0.643   0.514  0.00  0.00     0.001 A 
ENDROOT
BRANCH   1   8
ATOM      8  C1  UNL d   1       0.980  -1.208   0.372  0.00  0.00     0.053 C 
ATOM      9  C   UNL d   1       0.684  -1.435   1.846  0.00  0.00     0.018 C 
ENDBRANCH   1   8
TORSDOF 1
ENDMDL
