MODEL 1
REMARK minimizedAffinity -4.09221554
REMARK minimizedRMSD -1
REMARK  1 active torsions:
REMARK  status: ('A' for Active; 'I' for Inactive)
REMARK    1  A    between atoms: C1_2  and  C2_3 
ROOT
ATOM      1  C2  UNL d   1      -0.124  -0.281  -0.868  0.00  0.00    -0.073 A 
ATOM      2  C3  UNL d   1       0.719  -0.964   0.016  0.00  0.00    -0.002 A 
ATOM      3  C4  UNL d   1       0.562  -0.818   1.395  0.00  0.00     0.004 A 
ATOM      4  C5  UNL d   1      -0.441   0.007   1.904  0.00  0.00    -0.004 A 
ATOM      5  C6  UNL d   1      -1.301   0.688   1.037  0.00  0.00    -0.075 A 
ATOM      6  C7  UNL d   1      -2.385   1.580   1.568  0.00  0.00     0.076 C 
ATOM      7  C8  UNL d   1      -1.136   0.538  -0.347  0.00  0.00     0.001 A 
ENDROOT
BRANCH   1   8
ATOM      8  C1  UNL d   1       0.037  -0.441  -2.357  0.00  0.00     0.053 C 
ATOM      9  C   UNL d   1      -0.266  -1.859  -2.814  0.00  0.00     0.018 C 
ENDBRANCH   1   8
TORSDOF 1
ENDMDL
