MODEL 1
REMARK minimizedAffinity -1.52485442
REMARK minimizedRMSD -1
REMARK  1 active torsions:
REMARK  status: ('A' for Active; 'I' for Inactive)
REMARK    1  A    between atoms: C1_2  and  C2_3 
ROOT
ATOM      1  C2  UNL d   1      -0.574   0.153   0.673  0.00  0.00    -0.073 A 
ATOM      2  C3  UNL d   1      -1.545   0.833  -0.071  0.00  0.00    -0.002 A 
ATOM      3  C4  UNL d   1      -2.142   1.987   0.437  0.00  0.00     0.004 A 
ATOM      4  C5  UNL d   1      -1.772   2.476   1.690  0.00  0.00    -0.004 A 
ATOM      5  C6  UNL d   1      -0.795   1.817   2.444  0.00  0.00    -0.075 A 
ATOM      6  C7  UNL d   1      -0.387   2.328   3.794  0.00  0.00     0.076 C 
ATOM      7  C8  UNL d   1      -0.202   0.657   1.927  0.00  0.00     0.001 A 
ENDROOT
BRANCH   1   8
ATOM      8  C1  UNL d   1       0.078  -1.090   0.126  0.00  0.00     0.053 C 
ATOM      9  C   UNL d   1       1.192  -0.764  -0.856  0.00  0.00     0.018 C 
ENDBRANCH   1   8
TORSDOF 1
ENDMDL
