MODEL 1
REMARK minimizedAffinity -3.12017107
REMARK minimizedRMSD -1
REMARK  1 active torsions:
REMARK  status: ('A' for Active; 'I' for Inactive)
REMARK    1  A    between atoms: C1_2  and  C2_3 
ROOT
ATOM      1  C2  UNL d   1      -0.250   0.261   0.569  0.00  0.00    -0.073 A 
ATOM      2  C3  UNL d   1      -1.066   1.126   1.306  0.00  0.00    -0.002 A 
ATOM      3  C4  UNL d   1      -1.305   2.425   0.855  0.00  0.00     0.004 A 
ATOM      4  C5  UNL d   1      -0.738   2.869  -0.339  0.00  0.00    -0.004 A 
ATOM      5  C6  UNL d   1       0.070   2.015  -1.096  0.00  0.00    -0.075 A 
ATOM      6  C7  UNL d   1       0.690   2.479  -2.382  0.00  0.00     0.076 C 
ATOM      7  C8  UNL d   1       0.309   0.713  -0.635  0.00  0.00     0.001 A 
ENDROOT
BRANCH   1   8
ATOM      8  C1  UNL d   1       0.007  -1.145   1.048  0.00  0.00     0.053 C 
ATOM      9  C   UNL d   1       0.135  -1.216   2.562  0.00  0.00     0.018 C 
ENDBRANCH   1   8
TORSDOF 1
ENDMDL
