MODEL 1
REMARK minimizedAffinity -1.60437834
REMARK minimizedRMSD -1
REMARK  0 active torsions:
REMARK  status: ('A' for Active; 'I' for Inactive)
ROOT
ATOM      1  C   UNL d   1      -0.735  -0.728  -2.175  0.00  0.00     0.077 C 
ATOM      2  C1  UNL d   1      -0.650  -0.274  -0.748  0.00  0.00    -0.074 A 
ATOM      3  C2  UNL d   1      -1.780   0.204  -0.077  0.00  0.00    -0.005 A 
ATOM      4  C3  UNL d   1      -1.687   0.614   1.253  0.00  0.00     0.006 A 
ATOM      5  C4  UNL d   1      -0.466   0.550   1.925  0.00  0.00    -0.005 A 
ATOM      6  C5  UNL d   1       0.675   0.074   1.270  0.00  0.00    -0.074 A 
ATOM      7  C6  UNL d   1       1.993  -0.010   1.981  0.00  0.00     0.077 C 
ATOM      8  C7  UNL d   1       0.572  -0.343  -0.064  0.00  0.00    -0.001 A 
ENDROOT
TORSDOF 0
ENDMDL
