MODEL 1
REMARK minimizedAffinity -0.983790457
REMARK minimizedRMSD -1
REMARK  0 active torsions:
REMARK  status: ('A' for Active; 'I' for Inactive)
ROOT
ATOM      1  C   UNL d   1      -0.027  -0.719  -2.119  0.00  0.00     0.077 C 
ATOM      2  C1  UNL d   1       0.593  -0.549  -0.764  0.00  0.00    -0.074 A 
ATOM      3  C2  UNL d   1       1.702  -1.309  -0.381  0.00  0.00    -0.005 A 
ATOM      4  C3  UNL d   1       2.274  -1.133   0.879  0.00  0.00     0.006 A 
ATOM      5  C4  UNL d   1       1.743  -0.197   1.767  0.00  0.00    -0.005 A 
ATOM      6  C5  UNL d   1       0.634   0.573   1.401  0.00  0.00    -0.074 A 
ATOM      7  C6  UNL d   1       0.056   1.590   2.340  0.00  0.00     0.077 C 
ATOM      8  C7  UNL d   1       0.069   0.395   0.130  0.00  0.00    -0.001 A 
ENDROOT
TORSDOF 0
ENDMDL
