MODEL 1
REMARK minimizedAffinity -4.14500713
REMARK minimizedRMSD -1
REMARK  0 active torsions:
REMARK  status: ('A' for Active; 'I' for Inactive)
ROOT
ATOM      1  C   UNL d   1       0.384  -0.646  -2.493  0.00  0.00     0.077 C 
ATOM      2  C1  UNL d   1       0.724  -0.520  -1.038  0.00  0.00    -0.074 A 
ATOM      3  C2  UNL d   1       1.768  -1.263  -0.476  0.00  0.00    -0.005 A 
ATOM      4  C3  UNL d   1       2.079  -1.128   0.877  0.00  0.00     0.006 A 
ATOM      5  C4  UNL d   1       1.352  -0.249   1.680  0.00  0.00    -0.005 A 
ATOM      6  C5  UNL d   1       0.306   0.503   1.136  0.00  0.00    -0.074 A 
ATOM      7  C6  UNL d   1      -0.480   1.459   1.984  0.00  0.00     0.077 C 
ATOM      8  C7  UNL d   1       0.003   0.367  -0.225  0.00  0.00    -0.001 A 
ENDROOT
TORSDOF 0
ENDMDL
