MODEL 1
REMARK minimizedAffinity -4.95754671
REMARK minimizedRMSD -1
REMARK  0 active torsions:
REMARK  status: ('A' for Active; 'I' for Inactive)
ROOT
ATOM      1  C   UNL d   1      -1.771  -2.345  -4.792  0.00  0.00     0.077 C 
ATOM      2  C1  UNL d   1      -0.898  -1.385  -4.039  0.00  0.00    -0.074 A 
ATOM      3  C2  UNL d   1      -0.383  -0.243  -4.660  0.00  0.00    -0.005 A 
ATOM      4  C3  UNL d   1       0.420   0.645  -3.945  0.00  0.00     0.006 A 
ATOM      5  C4  UNL d   1       0.716   0.401  -2.603  0.00  0.00    -0.005 A 
ATOM      6  C5  UNL d   1       0.209  -0.736  -1.965  0.00  0.00    -0.074 A 
ATOM      7  C6  UNL d   1       0.509  -1.009  -0.521  0.00  0.00     0.077 C 
ATOM      8  C7  UNL d   1      -0.603  -1.620  -2.689  0.00  0.00    -0.001 A 
ENDROOT
TORSDOF 0
ENDMDL
