MODEL 1
REMARK minimizedAffinity 4.51230097
REMARK minimizedRMSD -1
REMARK  1 active torsions:
REMARK  status: ('A' for Active; 'I' for Inactive)
REMARK    1  A    between atoms: C1_2  and  C2_3 
ROOT
ATOM      1  C2  UNL d   1      -1.482   1.013  -2.848  0.00  0.00    -0.076 A 
ATOM      2  C3  UNL d   1      -0.193   0.633  -3.260  0.00  0.00     0.004 A 
ATOM      3  C4  UNL d   1       0.123  -0.706  -3.484  0.00  0.00    -0.003 A 
ATOM      4  C5  UNL d   1      -0.846  -1.686  -3.300  0.00  0.00     0.000 A 
ATOM      5  C6  UNL d   1      -2.134  -1.326  -2.908  0.00  0.00     0.000 A 
ATOM      6  C7  UNL d   1      -2.474   0.021  -2.694  0.00  0.00    -0.073 A 
ATOM      7  C8  UNL d   1      -3.878   0.352  -2.266  0.00  0.00     0.078 C 
ENDROOT
BRANCH   1   8
ATOM      8  C1  UNL d   1      -1.759   2.478  -2.594  0.00  0.00     0.053 C 
ATOM      9  C   UNL d   1      -2.276   3.196  -3.830  0.00  0.00     0.018 C 
ENDBRANCH   1   8
TORSDOF 1
ENDMDL
