MODEL 1
REMARK minimizedAffinity 8.91718578
REMARK minimizedRMSD -1
REMARK  1 active torsions:
REMARK  status: ('A' for Active; 'I' for Inactive)
REMARK    1  A    between atoms: C1_2  and  C2_3 
ROOT
ATOM      1  C2  UNL d   1      -3.842   3.808  -3.725  0.00  0.00    -0.076 A 
ATOM      2  C3  UNL d   1      -3.720   4.951  -4.534  0.00  0.00     0.004 A 
ATOM      3  C4  UNL d   1      -4.717   5.293  -5.447  0.00  0.00    -0.003 A 
ATOM      4  C5  UNL d   1      -5.851   4.498  -5.565  0.00  0.00     0.000 A 
ATOM      5  C6  UNL d   1      -5.997   3.370  -4.758  0.00  0.00     0.000 A 
ATOM      6  C7  UNL d   1      -5.009   3.020  -3.821  0.00  0.00    -0.073 A 
ATOM      7  C8  UNL d   1      -5.215   1.790  -2.981  0.00  0.00     0.078 C 
ENDROOT
BRANCH   1   8
ATOM      8  C1  UNL d   1      -2.717   3.472  -2.773  0.00  0.00     0.053 C 
ATOM      9  C   UNL d   1      -2.514   1.973  -2.617  0.00  0.00     0.018 C 
ENDBRANCH   1   8
TORSDOF 1
ENDMDL
