MODEL 1
REMARK minimizedAffinity 1.07344151
REMARK minimizedRMSD -1
REMARK  1 active torsions:
REMARK  status: ('A' for Active; 'I' for Inactive)
REMARK    1  A    between atoms: C1_2  and  C2_3 
ROOT
ATOM      1  C2  UNL d   1      -0.965  -2.783  -4.283  0.00  0.00    -0.076 A 
ATOM      2  C3  UNL d   1      -2.083  -1.930  -4.285  0.00  0.00     0.004 A 
ATOM      3  C4  UNL d   1      -1.979  -0.611  -4.723  0.00  0.00    -0.003 A 
ATOM      4  C5  UNL d   1      -0.755  -0.123  -5.168  0.00  0.00     0.000 A 
ATOM      5  C6  UNL d   1       0.361  -0.960  -5.189  0.00  0.00     0.000 A 
ATOM      6  C7  UNL d   1       0.269  -2.297  -4.766  0.00  0.00    -0.073 A 
ATOM      7  C8  UNL d   1       1.505  -3.153  -4.805  0.00  0.00     0.078 C 
ENDROOT
BRANCH   1   8
ATOM      8  C1  UNL d   1      -1.132  -4.195  -3.771  0.00  0.00     0.053 C 
ATOM      9  C   UNL d   1      -0.706  -4.343  -2.318  0.00  0.00     0.018 C 
ENDBRANCH   1   8
TORSDOF 1
ENDMDL
