MODEL 1
REMARK minimizedAffinity 8.66089153
REMARK minimizedRMSD -1
REMARK  1 active torsions:
REMARK  status: ('A' for Active; 'I' for Inactive)
REMARK    1  A    between atoms: C1_2  and  C2_3 
ROOT
ATOM      1  C2  UNL d   1       1.397   4.908  -0.709  0.00  0.00    -0.076 A 
ATOM      2  C3  UNL d   1       2.104   3.993   0.090  0.00  0.00     0.004 A 
ATOM      3  C4  UNL d   1       1.439   2.983   0.783  0.00  0.00    -0.003 A 
ATOM      4  C5  UNL d   1       0.056   2.871   0.687  0.00  0.00     0.000 A 
ATOM      5  C6  UNL d   1      -0.659   3.760  -0.114  0.00  0.00     0.000 A 
ATOM      6  C7  UNL d   1      -0.002   4.774  -0.832  0.00  0.00    -0.073 A 
ATOM      7  C8  UNL d   1      -0.824   5.709  -1.677  0.00  0.00     0.078 C 
ENDROOT
BRANCH   1   8
ATOM      8  C1  UNL d   1       2.169   6.000  -1.415  0.00  0.00     0.053 C 
ATOM      9  C   UNL d   1       2.516   5.633  -2.850  0.00  0.00     0.018 C 
ENDBRANCH   1   8
TORSDOF 1
ENDMDL
