MODEL 1
REMARK minimizedAffinity 7.55604649
REMARK minimizedRMSD -1
REMARK  1 active torsions:
REMARK  status: ('A' for Active; 'I' for Inactive)
REMARK    1  A    between atoms: C1_2  and  C2_3 
ROOT
ATOM      1  C2  UNL d   1      -5.135   3.012  -4.334  0.00  0.00    -0.076 A 
ATOM      2  C3  UNL d   1      -6.000   3.740  -5.170  0.00  0.00     0.004 A 
ATOM      3  C4  UNL d   1      -5.608   4.958  -5.722  0.00  0.00    -0.003 A 
ATOM      4  C5  UNL d   1      -4.344   5.469  -5.447  0.00  0.00     0.000 A 
ATOM      5  C6  UNL d   1      -3.466   4.752  -4.634  0.00  0.00     0.000 A 
ATOM      6  C7  UNL d   1      -3.840   3.514  -4.082  0.00  0.00    -0.073 A 
ATOM      7  C8  UNL d   1      -2.856   2.787  -3.208  0.00  0.00     0.078 C 
ENDROOT
BRANCH   1   8
ATOM      8  C1  UNL d   1      -5.625   1.710  -3.742  0.00  0.00     0.053 C 
ATOM      9  C   UNL d   1      -4.544   0.984  -2.956  0.00  0.00     0.018 C 
ENDBRANCH   1   8
TORSDOF 1
ENDMDL
