MODEL 1
REMARK minimizedAffinity 11.6389122
REMARK minimizedRMSD -1
REMARK  1 active torsions:
REMARK  status: ('A' for Active; 'I' for Inactive)
REMARK    1  A    between atoms: C1_2  and  C2_3 
ROOT
ATOM      1  C2  UNL d   1      -1.245   0.329  -2.651  0.00  0.00    -0.076 A 
ATOM      2  C3  UNL d   1      -1.656  -1.015  -2.626  0.00  0.00     0.004 A 
ATOM      3  C4  UNL d   1      -2.998  -1.352  -2.459  0.00  0.00    -0.003 A 
ATOM      4  C5  UNL d   1      -3.952  -0.350  -2.316  0.00  0.00     0.000 A 
ATOM      5  C6  UNL d   1      -3.564   0.989  -2.356  0.00  0.00     0.000 A 
ATOM      6  C7  UNL d   1      -2.217   1.346  -2.539  0.00  0.00    -0.073 A 
ATOM      7  C8  UNL d   1      -1.855   2.805  -2.569  0.00  0.00     0.078 C 
ENDROOT
BRANCH   1   8
ATOM      8  C1  UNL d   1       0.228   0.633  -2.807  0.00  0.00     0.053 C 
ATOM      9  C   UNL d   1       0.989   0.516  -1.496  0.00  0.00     0.018 C 
ENDBRANCH   1   8
TORSDOF 1
ENDMDL
