MODEL 1
REMARK minimizedAffinity 3.42767167
REMARK minimizedRMSD -1
REMARK  1 active torsions:
REMARK  status: ('A' for Active; 'I' for Inactive)
REMARK    1  A    between atoms: C1_2  and  C2_3 
ROOT
ATOM      1  C2  UNL d   1       0.912   0.498  -0.506  0.00  0.00    -0.076 A 
ATOM      2  C3  UNL d   1       0.317   0.731  -1.758  0.00  0.00     0.004 A 
ATOM      3  C4  UNL d   1       0.259  -0.275  -2.722  0.00  0.00    -0.003 A 
ATOM      4  C5  UNL d   1       0.793  -1.529  -2.449  0.00  0.00     0.000 A 
ATOM      5  C6  UNL d   1       1.370  -1.782  -1.205  0.00  0.00     0.000 A 
ATOM      6  C7  UNL d   1       1.423  -0.785  -0.216  0.00  0.00    -0.073 A 
ATOM      7  C8  UNL d   1       2.063  -1.111   1.105  0.00  0.00     0.078 C 
ENDROOT
BRANCH   1   8
ATOM      8  C1  UNL d   1       0.971   1.635   0.490  0.00  0.00     0.053 C 
ATOM      9  C   UNL d   1       0.716   2.988  -0.155  0.00  0.00     0.018 C 
ENDBRANCH   1   8
TORSDOF 1
ENDMDL
