MODEL 1
REMARK minimizedAffinity 1.60297716
REMARK minimizedRMSD -1
REMARK  1 active torsions:
REMARK  status: ('A' for Active; 'I' for Inactive)
REMARK    1  A    between atoms: C1_2  and  C2_3 
ROOT
ATOM      1  C2  UNL d   1       0.160  -0.708   0.428  0.00  0.00    -0.081 A 
ATOM      2  C3  UNL d   1       1.367  -0.006   0.544  0.00  0.00     0.006 A 
ATOM      3  C4  UNL d   1       1.391   1.385   0.423  0.00  0.00     0.002 A 
ATOM      4  C5  UNL d   1       0.210   2.099   0.192  0.00  0.00    -0.080 A 
ATOM      5  C6  UNL d   1       0.219   3.595   0.090  0.00  0.00     0.076 C 
ATOM      6  C7  UNL d   1      -0.992   1.397   0.059  0.00  0.00     0.002 A 
ATOM      7  C8  UNL d   1      -1.018   0.005   0.179  0.00  0.00     0.006 A 
ENDROOT
BRANCH   1   8
ATOM      8  C1  UNL d   1       0.121  -2.202   0.623  0.00  0.00     0.054 C 
ATOM      9  C   UNL d   1      -0.598  -2.891  -0.528  0.00  0.00     0.018 C 
ENDBRANCH   1   8
TORSDOF 1
ENDMDL
