MODEL 1
REMARK minimizedAffinity 2.42148352
REMARK minimizedRMSD -1
REMARK  1 active torsions:
REMARK  status: ('A' for Active; 'I' for Inactive)
REMARK    1  A    between atoms: C1_2  and  C2_3 
ROOT
ATOM      1  C2  UNL d   1      -1.354  -1.844  -2.190  0.00  0.00    -0.081 A 
ATOM      2  C3  UNL d   1      -1.097  -1.462  -0.867  0.00  0.00     0.006 A 
ATOM      3  C4  UNL d   1      -0.249  -2.225  -0.062  0.00  0.00     0.002 A 
ATOM      4  C5  UNL d   1       0.363  -3.377  -0.567  0.00  0.00    -0.080 A 
ATOM      5  C6  UNL d   1       1.299  -4.189   0.278  0.00  0.00     0.076 C 
ATOM      6  C7  UNL d   1       0.092  -3.769  -1.882  0.00  0.00     0.002 A 
ATOM      7  C8  UNL d   1      -0.756  -3.007  -2.688  0.00  0.00     0.006 A 
ENDROOT
BRANCH   1   8
ATOM      8  C1  UNL d   1      -2.217  -0.988  -3.081  0.00  0.00     0.054 C 
ATOM      9  C   UNL d   1      -1.830   0.481  -2.981  0.00  0.00     0.018 C 
ENDBRANCH   1   8
TORSDOF 1
ENDMDL
