MODEL 1
REMARK minimizedAffinity 7.17902708
REMARK minimizedRMSD -1
REMARK  1 active torsions:
REMARK  status: ('A' for Active; 'I' for Inactive)
REMARK    1  A    between atoms: C1_2  and  C2_3 
ROOT
ATOM      1  C2  UNL d   1      -0.951   0.047  -0.099  0.00  0.00    -0.081 A 
ATOM      2  C3  UNL d   1      -0.274  -0.934   0.637  0.00  0.00     0.006 A 
ATOM      3  C4  UNL d   1      -0.360  -2.279   0.270  0.00  0.00     0.002 A 
ATOM      4  C5  UNL d   1      -1.116  -2.665  -0.842  0.00  0.00    -0.080 A 
ATOM      5  C6  UNL d   1      -1.192  -4.102  -1.264  0.00  0.00     0.076 C 
ATOM      6  C7  UNL d   1      -1.807  -1.688  -1.566  0.00  0.00     0.002 A 
ATOM      7  C8  UNL d   1      -1.722  -0.343  -1.200  0.00  0.00     0.006 A 
ENDROOT
BRANCH   1   8
ATOM      8  C1  UNL d   1      -0.809   1.505   0.255  0.00  0.00     0.054 C 
ATOM      9  C   UNL d   1       0.572   2.031  -0.110  0.00  0.00     0.018 C 
ENDBRANCH   1   8
TORSDOF 1
ENDMDL
