MODEL 1
REMARK minimizedAffinity -4.15386438
REMARK minimizedRMSD -1
REMARK  0 active torsions:
REMARK  status: ('A' for Active; 'I' for Inactive)
ROOT
ATOM      1  C4' PXY d   1      -0.217  -0.712   1.467  0.00  0.00     0.077 C 
ATOM      2  C1' PXY d   1       4.457  -0.453  -1.926  0.00  0.00     0.077 C 
ATOM      3  C1  PXY d   1       3.236  -0.511  -1.029  0.00  0.00    -0.082 A 
ATOM      4  C2  PXY d   1       2.564  -1.645  -0.911  0.00  0.00     0.003 A 
ATOM      5  C3  PXY d   1       1.439  -1.706  -0.130  0.00  0.00     0.003 A 
ATOM      6  C4  PXY d   1       1.028  -0.610   0.580  0.00  0.00    -0.082 A 
ATOM      7  C5  PXY d   1       1.714   0.548   0.474  0.00  0.00     0.003 A 
ATOM      8  C6  PXY d   1       2.829   0.601  -0.357  0.00  0.00     0.003 A 
ENDROOT
TORSDOF 0
ENDMDL
