MODEL 1
REMARK minimizedAffinity -2.80157113
REMARK minimizedRMSD -1
REMARK  0 active torsions:
REMARK  status: ('A' for Active; 'I' for Inactive)
ROOT
ATOM      1  C4' PXY d   1       4.558  -0.040  -2.429  0.00  0.00     0.077 C 
ATOM      2  C1' PXY d   1       0.211  -1.042   1.247  0.00  0.00     0.077 C 
ATOM      3  C1  PXY d   1       1.345  -0.769   0.278  0.00  0.00    -0.082 A 
ATOM      4  C2  PXY d   1       2.112  -1.766  -0.129  0.00  0.00     0.003 A 
ATOM      5  C3  PXY d   1       3.162  -1.532  -0.979  0.00  0.00     0.003 A 
ATOM      6  C4  PXY d   1       3.396  -0.271  -1.459  0.00  0.00    -0.082 A 
ATOM      7  C5  PXY d   1       2.611   0.751  -1.057  0.00  0.00     0.003 A 
ATOM      8  C6  PXY d   1       1.576   0.498  -0.161  0.00  0.00     0.003 A 
ENDROOT
TORSDOF 0
ENDMDL
