MODEL 1
REMARK minimizedAffinity -3.98156142
REMARK minimizedRMSD -1
REMARK  0 active torsions:
REMARK  status: ('A' for Active; 'I' for Inactive)
ROOT
ATOM      1  C4' PXY d   1       3.238  -1.699  -0.883  0.00  0.00     0.077 C 
ATOM      2  C1' PXY d   1      -0.063   0.263   3.437  0.00  0.00     0.077 C 
ATOM      3  C1  PXY d   1       0.792  -0.259   2.300  0.00  0.00    -0.082 A 
ATOM      4  C2  PXY d   1       2.107  -0.305   2.439  0.00  0.00     0.003 A 
ATOM      5  C3  PXY d   1       2.899  -0.743   1.408  0.00  0.00     0.003 A 
ATOM      6  C4  PXY d   1       2.334  -1.189   0.243  0.00  0.00    -0.082 A 
ATOM      7  C5  PXY d   1       0.993  -1.155   0.097  0.00  0.00     0.003 A 
ATOM      8  C6  PXY d   1       0.210  -0.667   1.140  0.00  0.00     0.003 A 
ENDROOT
TORSDOF 0
ENDMDL
