MODEL 1
REMARK minimizedAffinity -1.25860417
REMARK minimizedRMSD -1
REMARK  0 active torsions:
REMARK  status: ('A' for Active; 'I' for Inactive)
ROOT
ATOM      1  C4' PXY d   1       5.363  -0.435  -2.469  0.00  0.00     0.077 C 
ATOM      2  C1' PXY d   1       0.598  -0.734   0.790  0.00  0.00     0.077 C 
ATOM      3  C1  PXY d   1       1.843  -0.645  -0.071  0.00  0.00    -0.082 A 
ATOM      4  C2  PXY d   1       2.557  -1.734  -0.302  0.00  0.00     0.003 A 
ATOM      5  C3  PXY d   1       3.703  -1.666  -1.052  0.00  0.00     0.003 A 
ATOM      6  C4  PXY d   1       4.094  -0.480  -1.614  0.00  0.00    -0.082 A 
ATOM      7  C5  PXY d   1       3.365   0.634  -1.391  0.00  0.00     0.003 A 
ATOM      8  C6  PXY d   1       2.227   0.551  -0.593  0.00  0.00     0.003 A 
ENDROOT
TORSDOF 0
ENDMDL
