MODEL 1
REMARK minimizedAffinity -3.70537496
REMARK minimizedRMSD -1
REMARK  0 active torsions:
REMARK  status: ('A' for Active; 'I' for Inactive)
ROOT
ATOM      1  C4' PXY d   1       0.293  -0.574   1.035  0.00  0.00     0.077 C 
ATOM      2  C1' PXY d   1       4.894   0.035  -2.411  0.00  0.00     0.077 C 
ATOM      3  C1  PXY d   1       3.688  -0.112  -1.504  0.00  0.00    -0.082 A 
ATOM      4  C2  PXY d   1       3.347  -1.311  -1.058  0.00  0.00     0.003 A 
ATOM      5  C3  PXY d   1       2.242  -1.466  -0.262  0.00  0.00     0.003 A 
ATOM      6  C4  PXY d   1       1.508  -0.377   0.124  0.00  0.00    -0.082 A 
ATOM      7  C5  PXY d   1       1.855   0.851  -0.317  0.00  0.00     0.003 A 
ATOM      8  C6  PXY d   1       2.957   0.982  -1.158  0.00  0.00     0.003 A 
ENDROOT
TORSDOF 0
ENDMDL
