MODEL 1
REMARK minimizedAffinity -3.94311261
REMARK minimizedRMSD -1
REMARK  0 active torsions:
REMARK  status: ('A' for Active; 'I' for Inactive)
ROOT
ATOM      1  C4' PXY d   1       0.546  -0.530   1.233  0.00  0.00     0.077 C 
ATOM      2  C1' PXY d   1       4.484   0.385  -2.899  0.00  0.00     0.077 C 
ATOM      3  C1  PXY d   1       3.450   0.158  -1.813  0.00  0.00    -0.082 A 
ATOM      4  C2  PXY d   1       3.411  -1.003  -1.181  0.00  0.00     0.003 A 
ATOM      5  C3  PXY d   1       2.462  -1.237  -0.219  0.00  0.00     0.003 A 
ATOM      6  C4  PXY d   1       1.579  -0.253   0.137  0.00  0.00    -0.082 A 
ATOM      7  C5  PXY d   1       1.620   0.939  -0.497  0.00  0.00     0.003 A 
ATOM      8  C6  PXY d   1       2.564   1.141  -1.499  0.00  0.00     0.003 A 
ENDROOT
TORSDOF 0
ENDMDL
