MODEL 1
REMARK minimizedAffinity -4.55169868
REMARK minimizedRMSD -1
REMARK  0 active torsions:
REMARK  status: ('A' for Active; 'I' for Inactive)
ROOT
ATOM      1  C4' PXY d   1       4.762  -0.113  -2.859  0.00  0.00     0.077 C 
ATOM      2  C1' PXY d   1       0.729  -0.671   1.244  0.00  0.00     0.077 C 
ATOM      3  C1  PXY d   1       1.794  -0.533   0.175  0.00  0.00    -0.082 A 
ATOM      4  C2  PXY d   1       1.838   0.561  -0.568  0.00  0.00     0.003 A 
ATOM      5  C3  PXY d   1       2.775   0.689  -1.561  0.00  0.00     0.003 A 
ATOM      6  C4  PXY d   1       3.710  -0.291  -1.761  0.00  0.00    -0.082 A 
ATOM      7  C5  PXY d   1       3.679  -1.406  -1.001  0.00  0.00     0.003 A 
ATOM      8  C6  PXY d   1       2.694  -1.534  -0.025  0.00  0.00     0.003 A 
ENDROOT
TORSDOF 0
ENDMDL
