MODEL 1
REMARK minimizedAffinity -2.55658722
REMARK minimizedRMSD -1
REMARK  0 active torsions:
REMARK  status: ('A' for Active; 'I' for Inactive)
ROOT
ATOM      1  C4' PXY d   1       0.133  -1.651   1.063  0.00  0.00     0.077 C 
ATOM      2  C1' PXY d   1       4.613  -0.381  -2.362  0.00  0.00     0.077 C 
ATOM      3  C1  PXY d   1       3.443  -0.705  -1.455  0.00  0.00    -0.082 A 
ATOM      4  C2  PXY d   1       2.846  -1.883  -1.552  0.00  0.00     0.003 A 
ATOM      5  C3  PXY d   1       1.766  -2.180  -0.762  0.00  0.00     0.003 A 
ATOM      6  C4  PXY d   1       1.325  -1.284   0.174  0.00  0.00    -0.082 A 
ATOM      7  C5  PXY d   1       1.934  -0.085   0.287  0.00  0.00     0.003 A 
ATOM      8  C6  PXY d   1       3.003   0.214  -0.553  0.00  0.00     0.003 A 
ENDROOT
TORSDOF 0
ENDMDL
