MODEL 1
REMARK minimizedAffinity -3.37195086
REMARK minimizedRMSD -1
REMARK  0 active torsions:
REMARK  status: ('A' for Active; 'I' for Inactive)
ROOT
ATOM      1  C4' PXY d   1      -1.361  -1.158   1.773  0.00  0.00     0.077 C 
ATOM      2  C1' PXY d   1       3.840  -1.566  -0.718  0.00  0.00     0.077 C 
ATOM      3  C1  PXY d   1       2.475  -1.472  -0.065  0.00  0.00    -0.082 A 
ATOM      4  C2  PXY d   1       1.779  -0.351  -0.163  0.00  0.00     0.003 A 
ATOM      5  C3  PXY d   1       0.557  -0.238   0.448  0.00  0.00     0.003 A 
ATOM      6  C4  PXY d   1       0.018  -1.301   1.122  0.00  0.00    -0.082 A 
ATOM      7  C5  PXY d   1       0.717  -2.452   1.217  0.00  0.00     0.003 A 
ATOM      8  C6  PXY d   1       1.974  -2.533   0.624  0.00  0.00     0.003 A 
ENDROOT
TORSDOF 0
ENDMDL
