MODEL 1
REMARK minimizedAffinity 3.37841463
REMARK minimizedRMSD -1
REMARK  0 active torsions:
REMARK  status: ('A' for Active; 'I' for Inactive)
ROOT
ATOM      1  C4' PXY d   1       1.783   2.165   0.741  0.00  0.00     0.077 C 
ATOM      2  C1' PXY d   1       2.490  -3.110  -1.514  0.00  0.00     0.077 C 
ATOM      3  C1  PXY d   1       2.292  -1.729  -0.921  0.00  0.00    -0.082 A 
ATOM      4  C2  PXY d   1       3.142  -0.761  -1.220  0.00  0.00     0.003 A 
ATOM      5  C3  PXY d   1       2.996   0.485  -0.668  0.00  0.00     0.003 A 
ATOM      6  C4  PXY d   1       1.939   0.758   0.158  0.00  0.00    -0.082 A 
ATOM      7  C5  PXY d   1       1.060  -0.222   0.459  0.00  0.00     0.003 A 
ATOM      8  C6  PXY d   1       1.250  -1.492  -0.079  0.00  0.00     0.003 A 
ENDROOT
TORSDOF 0
ENDMDL
