MODEL 1
REMARK minimizedAffinity -5.43328953
REMARK minimizedRMSD -1
REMARK  0 active torsions:
REMARK  status: ('A' for Active; 'I' for Inactive)
ROOT
ATOM      1  C4' PXY d   1      -0.046  -0.687   1.867  0.00  0.00     0.077 C 
ATOM      2  C1' PXY d   1       4.151  -0.527  -2.105  0.00  0.00     0.077 C 
ATOM      3  C1  PXY d   1       3.051  -0.556  -1.062  0.00  0.00    -0.082 A 
ATOM      4  C2  PXY d   1       2.808  -1.675  -0.399  0.00  0.00     0.003 A 
ATOM      5  C3  PXY d   1       1.796  -1.728   0.525  0.00  0.00     0.003 A 
ATOM      6  C4  PXY d   1       1.061  -0.609   0.812  0.00  0.00    -0.082 A 
ATOM      7  C5  PXY d   1       1.310   0.539   0.148  0.00  0.00     0.003 A 
ATOM      8  C6  PXY d   1       2.314   0.561  -0.816  0.00  0.00     0.003 A 
ENDROOT
TORSDOF 0
ENDMDL
