MODEL 1
REMARK minimizedAffinity -1.91114652
REMARK minimizedRMSD -1
REMARK  0 active torsions:
REMARK  status: ('A' for Active; 'I' for Inactive)
ROOT
ATOM      1  C4' PXY d   1       3.811  -0.796  -1.493  0.00  0.00     0.077 C 
ATOM      2  C1' PXY d   1      -0.683  -0.719   2.142  0.00  0.00     0.077 C 
ATOM      3  C1  PXY d   1       0.490  -0.731   1.181  0.00  0.00    -0.082 A 
ATOM      4  C2  PXY d   1       1.322  -1.759   1.178  0.00  0.00     0.003 A 
ATOM      5  C3  PXY d   1       2.406  -1.772   0.337  0.00  0.00     0.003 A 
ATOM      6  C4  PXY d   1       2.609  -0.746  -0.546  0.00  0.00    -0.082 A 
ATOM      7  C5  PXY d   1       1.758   0.302  -0.557  0.00  0.00     0.003 A 
ATOM      8  C6  PXY d   1       0.688   0.315   0.333  0.00  0.00     0.003 A 
ENDROOT
TORSDOF 0
ENDMDL
