MODEL 1
REMARK minimizedAffinity -3.45081735
REMARK minimizedRMSD -1
REMARK  0 active torsions:
REMARK  status: ('A' for Active; 'I' for Inactive)
ROOT
ATOM      1  C4' PXY d   1       3.769   1.293  -2.283  0.00  0.00     0.077 C 
ATOM      2  C1' PXY d   1       1.296  -2.711   1.072  0.00  0.00     0.077 C 
ATOM      3  C1  PXY d   1       1.933  -1.655   0.192  0.00  0.00    -0.082 A 
ATOM      4  C2  PXY d   1       3.004  -1.958  -0.523  0.00  0.00     0.003 A 
ATOM      5  C3  PXY d   1       3.612  -1.006  -1.300  0.00  0.00     0.003 A 
ATOM      6  C4  PXY d   1       3.087   0.255  -1.388  0.00  0.00    -0.082 A 
ATOM      7  C5  PXY d   1       1.988   0.570  -0.670  0.00  0.00     0.003 A 
ATOM      8  C6  PXY d   1       1.410  -0.400   0.145  0.00  0.00     0.003 A 
ENDROOT
TORSDOF 0
ENDMDL
