MODEL 1
REMARK minimizedAffinity -3.12098694
REMARK minimizedRMSD -1
REMARK  0 active torsions:
REMARK  status: ('A' for Active; 'I' for Inactive)
ROOT
ATOM      1  C4' PXY d   1       4.862  -0.115  -2.115  0.00  0.00     0.077 C 
ATOM      2  C1' PXY d   1      -0.061  -0.774   0.843  0.00  0.00     0.077 C 
ATOM      3  C1  PXY d   1       1.235  -0.613   0.072  0.00  0.00    -0.082 A 
ATOM      4  C2  PXY d   1       1.625   0.594  -0.306  0.00  0.00     0.003 A 
ATOM      5  C3  PXY d   1       2.777   0.755  -1.031  0.00  0.00     0.003 A 
ATOM      6  C4  PXY d   1       3.566  -0.324  -1.327  0.00  0.00    -0.082 A 
ATOM      7  C5  PXY d   1       3.180  -1.558  -0.936  0.00  0.00     0.003 A 
ATOM      8  C6  PXY d   1       1.986  -1.704  -0.236  0.00  0.00     0.003 A 
ENDROOT
TORSDOF 0
ENDMDL
