MODEL 1
REMARK minimizedAffinity -1.73395979
REMARK minimizedRMSD -1
REMARK  0 active torsions:
REMARK  status: ('A' for Active; 'I' for Inactive)
ROOT
ATOM      1  C4' PXY d   1       3.072   1.304  -0.948  0.00  0.00     0.077 C 
ATOM      2  C1' PXY d   1       1.092  -3.858   0.739  0.00  0.00     0.077 C 
ATOM      3  C1  PXY d   1       1.599  -2.499   0.298  0.00  0.00    -0.082 A 
ATOM      4  C2  PXY d   1       2.670  -2.420  -0.475  0.00  0.00     0.003 A 
ATOM      5  C3  PXY d   1       3.161  -1.198  -0.857  0.00  0.00     0.003 A 
ATOM      6  C4  PXY d   1       2.519  -0.047  -0.487  0.00  0.00    -0.082 A 
ATOM      7  C5  PXY d   1       1.419  -0.120   0.293  0.00  0.00     0.003 A 
ATOM      8  C6  PXY d   1       0.961  -1.368   0.704  0.00  0.00     0.003 A 
ENDROOT
TORSDOF 0
ENDMDL
