MODEL 1
REMARK minimizedAffinity -4.37560034
REMARK minimizedRMSD -1
REMARK  0 active torsions:
REMARK  status: ('A' for Active; 'I' for Inactive)
ROOT
ATOM      1  C4' PXY d   1       4.977  -0.054  -2.537  0.00  0.00     0.077 C 
ATOM      2  C1' PXY d   1       0.306  -0.346   0.856  0.00  0.00     0.077 C 
ATOM      3  C1  PXY d   1       1.536  -0.280  -0.028  0.00  0.00    -0.082 A 
ATOM      4  C2  PXY d   1       1.868   0.865  -0.602  0.00  0.00     0.003 A 
ATOM      5  C3  PXY d   1       2.959   0.935  -1.429  0.00  0.00     0.003 A 
ATOM      6  C4  PXY d   1       3.749  -0.165  -1.629  0.00  0.00    -0.082 A 
ATOM      7  C5  PXY d   1       3.422  -1.334  -1.039  0.00  0.00     0.003 A 
ATOM      8  C6  PXY d   1       2.288  -1.395  -0.235  0.00  0.00     0.003 A 
ENDROOT
TORSDOF 0
ENDMDL
