MODEL 1
REMARK minimizedAffinity -4.77465868
REMARK minimizedRMSD -1
REMARK  0 active torsions:
REMARK  status: ('A' for Active; 'I' for Inactive)
ROOT
ATOM      1  C4' PXY d   1       0.374  -1.296   1.512  0.00  0.00     0.077 C 
ATOM      2  C1' PXY d   1       4.112   0.300  -2.598  0.00  0.00     0.077 C 
ATOM      3  C1  PXY d   1       3.129  -0.106  -1.518  0.00  0.00    -0.082 A 
ATOM      4  C2  PXY d   1       3.235  -1.297  -0.951  0.00  0.00     0.003 A 
ATOM      5  C3  PXY d   1       2.336  -1.693   0.005  0.00  0.00     0.003 A 
ATOM      6  C4  PXY d   1       1.349  -0.840   0.423  0.00  0.00    -0.082 A 
ATOM      7  C5  PXY d   1       1.241   0.380  -0.143  0.00  0.00     0.003 A 
ATOM      8  C6  PXY d   1       2.139   0.747  -1.141  0.00  0.00     0.003 A 
ENDROOT
TORSDOF 0
ENDMDL
