MODEL 1
REMARK minimizedAffinity -6.33962679
REMARK minimizedRMSD -1
REMARK  0 active torsions:
REMARK  status: ('A' for Active; 'I' for Inactive)
ROOT
ATOM      1  C4' PXY d   1       5.275  -0.120  -2.663  0.00  0.00     0.077 C 
ATOM      2  C1' PXY d   1       0.549  -0.222   0.665  0.00  0.00     0.077 C 
ATOM      3  C1  PXY d   1       1.784  -0.185  -0.215  0.00  0.00    -0.082 A 
ATOM      4  C2  PXY d   1       2.508  -1.281  -0.372  0.00  0.00     0.003 A 
ATOM      5  C3  PXY d   1       3.645  -1.257  -1.138  0.00  0.00     0.003 A 
ATOM      6  C4  PXY d   1       4.016  -0.113  -1.792  0.00  0.00    -0.082 A 
ATOM      7  C5  PXY d   1       3.276   1.007  -1.645  0.00  0.00     0.003 A 
ATOM      8  C6  PXY d   1       2.148   0.972  -0.830  0.00  0.00     0.003 A 
ENDROOT
TORSDOF 0
ENDMDL
