MODEL 1
REMARK minimizedAffinity -4.31846142
REMARK minimizedRMSD -1
REMARK  0 active torsions:
REMARK  status: ('A' for Active; 'I' for Inactive)
ROOT
ATOM      1  C4' PXY d   1       1.133  -0.832   0.834  0.00  0.00     0.077 C 
ATOM      2  C1' PXY d   1       5.356   0.171  -2.984  0.00  0.00     0.077 C 
ATOM      3  C1  PXY d   1       4.249  -0.080  -1.979  0.00  0.00    -0.082 A 
ATOM      4  C2  PXY d   1       4.025  -1.310  -1.546  0.00  0.00     0.003 A 
ATOM      5  C3  PXY d   1       3.007  -1.559  -0.661  0.00  0.00     0.003 A 
ATOM      6  C4  PXY d   1       2.246  -0.531  -0.173  0.00  0.00    -0.082 A 
ATOM      7  C5  PXY d   1       2.476   0.729  -0.602  0.00  0.00     0.003 A 
ATOM      8  C6  PXY d   1       3.487   0.955  -1.532  0.00  0.00     0.003 A 
ENDROOT
TORSDOF 0
ENDMDL
