MODEL 1
REMARK minimizedAffinity -5.71091366
REMARK minimizedRMSD -1
REMARK  0 active torsions:
REMARK  status: ('A' for Active; 'I' for Inactive)
ROOT
ATOM      1  C4' PXY d   1       4.590  -0.449  -2.604  0.00  0.00     0.077 C 
ATOM      2  C1' PXY d   1       0.151  -0.197   1.090  0.00  0.00     0.077 C 
ATOM      3  C1  PXY d   1       1.320  -0.273   0.127  0.00  0.00    -0.082 A 
ATOM      4  C2  PXY d   1       1.693   0.809  -0.536  0.00  0.00     0.003 A 
ATOM      5  C3  PXY d   1       2.727   0.750  -1.434  0.00  0.00     0.003 A 
ATOM      6  C4  PXY d   1       3.421  -0.416  -1.616  0.00  0.00    -0.082 A 
ATOM      7  C5  PXY d   1       3.054  -1.522  -0.935  0.00  0.00     0.003 A 
ATOM      8  C6  PXY d   1       1.975  -1.452  -0.058  0.00  0.00     0.003 A 
ENDROOT
TORSDOF 0
ENDMDL
