MODEL 1
REMARK minimizedAffinity -4.50437307
REMARK minimizedRMSD -1
REMARK  0 active torsions:
REMARK  status: ('A' for Active; 'I' for Inactive)
ROOT
ATOM      1  N1  IND d   1       1.882  -1.600  -0.866  0.00  0.00    -0.196 N 
ATOM      2  C2  IND d   1       2.950  -0.793  -1.139  0.00  0.00     0.054 A 
ATOM      3  C3  IND d   1       2.604   0.507  -1.006  0.00  0.00    -0.031 A 
ATOM      4  C4  IND d   1       0.368   1.534  -0.249  0.00  0.00     0.051 A 
ATOM      5  C5  IND d   1      -0.917   1.199   0.075  0.00  0.00    -0.031 A 
ATOM      6  C6  IND d   1      -1.342  -0.113   0.105  0.00  0.00     0.015 A 
ATOM      7  C7  IND d   1      -0.492  -1.144  -0.178  0.00  0.00    -0.016 A 
ATOM      8  C8  IND d   1       0.812  -0.807  -0.514  0.00  0.00    -0.047 A 
ATOM      9  C9  IND d   1       1.238   0.525  -0.588  0.00  0.00    -0.096 A 
ATOM     10  HN1 IND d   1       1.878  -2.459  -0.907  0.00  0.00     0.298 HD
ENDROOT
TORSDOF 0
ENDMDL
