MODEL 1
REMARK minimizedAffinity -4.58699894
REMARK minimizedRMSD -1
REMARK  0 active torsions:
REMARK  status: ('A' for Active; 'I' for Inactive)
ROOT
ATOM      1  N1  IND d   1       1.283  -2.128  -0.765  0.00  0.00    -0.196 N 
ATOM      2  C2  IND d   1      -0.070  -2.129  -0.569  0.00  0.00     0.054 A 
ATOM      3  C3  IND d   1      -0.543  -0.863  -0.547  0.00  0.00    -0.031 A 
ATOM      4  C4  IND d   1       0.707   1.357  -0.913  0.00  0.00     0.051 A 
ATOM      5  C5  IND d   1       1.961   1.870  -1.091  0.00  0.00    -0.031 A 
ATOM      6  C6  IND d   1       3.076   1.060  -1.175  0.00  0.00     0.015 A 
ATOM      7  C7  IND d   1       2.975  -0.300  -1.094  0.00  0.00    -0.016 A 
ATOM      8  C8  IND d   1       1.704  -0.824  -0.905  0.00  0.00    -0.047 A 
ATOM      9  C9  IND d   1       0.575  -0.005  -0.777  0.00  0.00    -0.096 A 
ATOM     10  HN1 IND d   1       1.786  -2.825  -0.796  0.00  0.00     0.298 HD
ENDROOT
TORSDOF 0
ENDMDL
