MODEL 1
REMARK minimizedAffinity -1.33812952
REMARK minimizedRMSD -1
REMARK  0 active torsions:
REMARK  status: ('A' for Active; 'I' for Inactive)
ROOT
ATOM      1  N1  IND d   1       0.517  -1.647  -2.020  0.00  0.00    -0.196 N 
ATOM      2  C2  IND d   1       1.877  -1.511  -2.044  0.00  0.00     0.054 A 
ATOM      3  C3  IND d   1       2.287  -0.708  -1.037  0.00  0.00    -0.031 A 
ATOM      4  C4  IND d   1       0.910   0.410   0.829  0.00  0.00     0.051 A 
ATOM      5  C5  IND d   1      -0.376   0.607   1.247  0.00  0.00    -0.031 A 
ATOM      6  C6  IND d   1      -1.452   0.049   0.586  0.00  0.00     0.015 A 
ATOM      7  C7  IND d   1      -1.280  -0.739  -0.516  0.00  0.00    -0.016 A 
ATOM      8  C8  IND d   1       0.024  -0.935  -0.948  0.00  0.00    -0.047 A 
ATOM      9  C9  IND d   1       1.117  -0.338  -0.307  0.00  0.00    -0.096 A 
ATOM     10  HN1 IND d   1       0.048  -2.100  -2.581  0.00  0.00     0.298 HD
ENDROOT
TORSDOF 0
ENDMDL
