MODEL 1
REMARK minimizedAffinity -3.76149845
REMARK minimizedRMSD -1
REMARK  0 active torsions:
REMARK  status: ('A' for Active; 'I' for Inactive)
ROOT
ATOM      1  N1  IND d   1      -0.506   1.051  -0.685  0.00  0.00    -0.196 N 
ATOM      2  C2  IND d   1      -0.887   0.040   0.154  0.00  0.00     0.054 A 
ATOM      3  C3  IND d   1       0.013  -0.968   0.114  0.00  0.00    -0.031 A 
ATOM      4  C4  IND d   1       2.234  -1.129  -1.177  0.00  0.00     0.051 A 
ATOM      5  C5  IND d   1       2.992  -0.469  -2.104  0.00  0.00    -0.031 A 
ATOM      6  C6  IND d   1       2.616   0.758  -2.612  0.00  0.00     0.015 A 
ATOM      7  C7  IND d   1       1.469   1.378  -2.204  0.00  0.00    -0.016 A 
ATOM      8  C8  IND d   1       0.694   0.707  -1.269  0.00  0.00    -0.047 A 
ATOM      9  C9  IND d   1       1.048  -0.557  -0.780  0.00  0.00    -0.096 A 
ATOM     10  HN1 IND d   1      -0.942   1.778  -0.824  0.00  0.00     0.298 HD
ENDROOT
TORSDOF 0
ENDMDL
