MODEL 1
REMARK minimizedAffinity 2.68750691
REMARK minimizedRMSD -1
REMARK  0 active torsions:
REMARK  status: ('A' for Active; 'I' for Inactive)
ROOT
ATOM      1  N1  IND d   1      -0.456  -1.306  -0.858  0.00  0.00    -0.196 N 
ATOM      2  C2  IND d   1      -1.084  -0.427  -0.020  0.00  0.00     0.054 A 
ATOM      3  C3  IND d   1      -0.193   0.450   0.495  0.00  0.00    -0.031 A 
ATOM      4  C4  IND d   1       2.326   0.691   0.022  0.00  0.00     0.051 A 
ATOM      5  C5  IND d   1       3.358   0.095  -0.646  0.00  0.00    -0.031 A 
ATOM      6  C6  IND d   1       3.168  -1.019  -1.437  0.00  0.00     0.015 A 
ATOM      7  C7  IND d   1       1.930  -1.575  -1.599  0.00  0.00    -0.016 A 
ATOM      8  C8  IND d   1       0.881  -0.976  -0.916  0.00  0.00    -0.047 A 
ATOM      9  C9  IND d   1       1.075   0.129  -0.078  0.00  0.00    -0.096 A 
ATOM     10  HN1 IND d   1      -0.832  -1.955  -1.277  0.00  0.00     0.298 HD
ENDROOT
TORSDOF 0
ENDMDL
