MODEL 1
REMARK minimizedAffinity -1.94100904
REMARK minimizedRMSD -1
REMARK  0 active torsions:
REMARK  status: ('A' for Active; 'I' for Inactive)
ROOT
ATOM      1  N1  IND d   1      -0.785  -1.036  -0.445  0.00  0.00    -0.196 N 
ATOM      2  C2  IND d   1      -0.436  -2.342  -0.242  0.00  0.00     0.054 A 
ATOM      3  C3  IND d   1       0.909  -2.463  -0.169  0.00  0.00    -0.031 A 
ATOM      4  C4  IND d   1       2.722  -0.638  -0.254  0.00  0.00     0.051 A 
ATOM      5  C5  IND d   1       2.893   0.702  -0.463  0.00  0.00    -0.031 A 
ATOM      6  C6  IND d   1       1.825   1.548  -0.678  0.00  0.00     0.015 A 
ATOM      7  C7  IND d   1       0.539   1.086  -0.681  0.00  0.00    -0.016 A 
ATOM      8  C8  IND d   1       0.362  -0.275  -0.477  0.00  0.00    -0.047 A 
ATOM      9  C9  IND d   1       1.445  -1.146  -0.300  0.00  0.00    -0.096 A 
ATOM     10  HN1 IND d   1      -1.587  -0.740  -0.538  0.00  0.00     0.298 HD
ENDROOT
TORSDOF 0
ENDMDL
