MODEL 1
REMARK minimizedAffinity -5.04001665
REMARK minimizedRMSD -1
REMARK  0 active torsions:
REMARK  status: ('A' for Active; 'I' for Inactive)
ROOT
ATOM      1  N1  IND d   1      -0.969   0.599  -0.747  0.00  0.00    -0.196 N 
ATOM      2  C2  IND d   1      -1.030  -0.107   0.423  0.00  0.00     0.054 A 
ATOM      3  C3  IND d   1       0.192  -0.589   0.745  0.00  0.00    -0.031 A 
ATOM      4  C4  IND d   1       2.448  -0.256  -0.449  0.00  0.00     0.051 A 
ATOM      5  C5  IND d   1       3.001   0.282  -1.577  0.00  0.00    -0.031 A 
ATOM      6  C6  IND d   1       2.244   0.971  -2.503  0.00  0.00     0.015 A 
ATOM      7  C7  IND d   1       0.902   1.156  -2.329  0.00  0.00    -0.016 A 
ATOM      8  C8  IND d   1       0.336   0.604  -1.189  0.00  0.00    -0.047 A 
ATOM      9  C9  IND d   1       1.091  -0.132  -0.267  0.00  0.00    -0.096 A 
ATOM     10  HN1 IND d   1      -1.634   0.976  -1.140  0.00  0.00     0.298 HD
ENDROOT
TORSDOF 0
ENDMDL
