MODEL 1
REMARK minimizedAffinity -5.91820812
REMARK minimizedRMSD -1
REMARK  0 active torsions:
REMARK  status: ('A' for Active; 'I' for Inactive)
ROOT
ATOM      1  N1  IND d   1      -0.284   0.792  -0.094  0.00  0.00    -0.196 N 
ATOM      2  C2  IND d   1      -0.388  -0.183   0.859  0.00  0.00     0.054 A 
ATOM      3  C3  IND d   1       0.645  -1.049   0.760  0.00  0.00    -0.031 A 
ATOM      4  C4  IND d   1       2.675  -1.001  -0.823  0.00  0.00     0.051 A 
ATOM      5  C5  IND d   1       3.191  -0.323  -1.892  0.00  0.00    -0.031 A 
ATOM      6  C6  IND d   1       2.564   0.785  -2.425  0.00  0.00     0.015 A 
ATOM      7  C7  IND d   1       1.399   1.265  -1.899  0.00  0.00    -0.016 A 
ATOM      8  C8  IND d   1       0.867   0.576  -0.818  0.00  0.00    -0.047 A 
ATOM      9  C9  IND d   1       1.477  -0.575  -0.300  0.00  0.00    -0.096 A 
ATOM     10  HN1 IND d   1      -0.843   1.433  -0.219  0.00  0.00     0.298 HD
ENDROOT
TORSDOF 0
ENDMDL
