MODEL 1
REMARK minimizedAffinity -3.6348958
REMARK minimizedRMSD -1
REMARK  0 active torsions:
REMARK  status: ('A' for Active; 'I' for Inactive)
ROOT
ATOM      1  N1  IND d   1      -0.676   1.250  -0.529  0.00  0.00    -0.196 N 
ATOM      2  C2  IND d   1      -0.733   0.201   0.344  0.00  0.00     0.054 A 
ATOM      3  C3  IND d   1       0.286  -0.658   0.115  0.00  0.00    -0.031 A 
ATOM      4  C4  IND d   1       2.221  -0.486  -1.574  0.00  0.00     0.051 A 
ATOM      5  C5  IND d   1       2.680   0.275  -2.612  0.00  0.00    -0.031 A 
ATOM      6  C6  IND d   1       2.032   1.425  -3.015  0.00  0.00     0.015 A 
ATOM      7  C7  IND d   1       0.903   1.865  -2.385  0.00  0.00    -0.016 A 
ATOM      8  C8  IND d   1       0.430   1.090  -1.335  0.00  0.00    -0.047 A 
ATOM      9  C9  IND d   1       1.059  -0.100  -0.949  0.00  0.00    -0.096 A 
ATOM     10  HN1 IND d   1      -1.237   1.901  -0.569  0.00  0.00     0.298 HD
ENDROOT
TORSDOF 0
ENDMDL
