MODEL 1
REMARK minimizedAffinity -4.08091259
REMARK minimizedRMSD -1
REMARK  0 active torsions:
REMARK  status: ('A' for Active; 'I' for Inactive)
ROOT
ATOM      1  N1  IND d   1      -0.851   0.692  -0.411  0.00  0.00    -0.196 N 
ATOM      2  C2  IND d   1      -0.751  -0.488   0.270  0.00  0.00     0.054 A 
ATOM      3  C3  IND d   1       0.274  -1.226  -0.214  0.00  0.00    -0.031 A 
ATOM      4  C4  IND d   1       1.980  -0.646  -2.053  0.00  0.00     0.051 A 
ATOM      5  C5  IND d   1       2.272   0.306  -2.990  0.00  0.00    -0.031 A 
ATOM      6  C6  IND d   1       1.525   1.459  -3.115  0.00  0.00     0.015 A 
ATOM      7  C7  IND d   1       0.460   1.710  -2.298  0.00  0.00    -0.016 A 
ATOM      8  C8  IND d   1       0.156   0.743  -1.351  0.00  0.00    -0.047 A 
ATOM      9  C9  IND d   1       0.884  -0.449  -1.246  0.00  0.00    -0.096 A 
ATOM     10  HN1 IND d   1      -1.444   1.301  -0.276  0.00  0.00     0.298 HD
ENDROOT
TORSDOF 0
ENDMDL
