MODEL 1
REMARK minimizedAffinity -4.08928156
REMARK minimizedRMSD -1
REMARK  0 active torsions:
REMARK  status: ('A' for Active; 'I' for Inactive)
ROOT
ATOM      1  N1  IND d   1      -0.303   1.082  -0.085  0.00  0.00    -0.196 N 
ATOM      2  C2  IND d   1      -1.216   0.108   0.211  0.00  0.00     0.054 A 
ATOM      3  C3  IND d   1      -0.708  -1.113  -0.071  0.00  0.00    -0.031 A 
ATOM      4  C4  IND d   1       1.634  -1.753  -0.927  0.00  0.00     0.051 A 
ATOM      5  C5  IND d   1       2.803  -1.206  -1.376  0.00  0.00    -0.031 A 
ATOM      6  C6  IND d   1       3.002   0.159  -1.416  0.00  0.00     0.015 A 
ATOM      7  C7  IND d   1       2.038   1.032  -0.996  0.00  0.00    -0.016 A 
ATOM      8  C8  IND d   1       0.847   0.480  -0.546  0.00  0.00    -0.047 A 
ATOM      9  C9  IND d   1       0.624  -0.903  -0.543  0.00  0.00    -0.096 A 
ATOM     10  HN1 IND d   1      -0.427   1.929   0.002  0.00  0.00     0.298 HD
ENDROOT
TORSDOF 0
ENDMDL
