MODEL 1
REMARK minimizedAffinity -2.66765666
REMARK minimizedRMSD -1
REMARK  0 active torsions:
REMARK  status: ('A' for Active; 'I' for Inactive)
ROOT
ATOM      1  N1  IND d   1      -0.134   0.742   0.241  0.00  0.00    -0.196 N 
ATOM      2  C2  IND d   1      -0.936  -0.358   0.373  0.00  0.00     0.054 A 
ATOM      3  C3  IND d   1      -0.373  -1.427  -0.233  0.00  0.00    -0.031 A 
ATOM      4  C4  IND d   1       1.905  -1.625  -1.414  0.00  0.00     0.051 A 
ATOM      5  C5  IND d   1       2.977  -0.879  -1.819  0.00  0.00    -0.031 A 
ATOM      6  C6  IND d   1       3.070   0.471  -1.550  0.00  0.00     0.015 A 
ATOM      7  C7  IND d   1       2.095   1.127  -0.853  0.00  0.00    -0.016 A 
ATOM      8  C8  IND d   1       1.002   0.375  -0.447  0.00  0.00    -0.047 A 
ATOM      9  C9  IND d   1       0.882  -0.987  -0.754  0.00  0.00    -0.096 A 
ATOM     10  HN1 IND d   1      -0.310   1.529   0.537  0.00  0.00     0.298 HD
ENDROOT
TORSDOF 0
ENDMDL
