MODEL 1
REMARK minimizedAffinity -3.32194948
REMARK minimizedRMSD -1
REMARK  0 active torsions:
REMARK  status: ('A' for Active; 'I' for Inactive)
ROOT
ATOM      1  N1  IND d   1      -0.397   1.189  -0.100  0.00  0.00    -0.196 N 
ATOM      2  C2  IND d   1      -1.309   0.422   0.570  0.00  0.00     0.054 A 
ATOM      3  C3  IND d   1      -0.852  -0.844   0.702  0.00  0.00    -0.031 A 
ATOM      4  C4  IND d   1       1.405  -1.851  -0.016  0.00  0.00     0.051 A 
ATOM      5  C5  IND d   1       2.552  -1.550  -0.696  0.00  0.00    -0.031 A 
ATOM      6  C6  IND d   1       2.780  -0.294  -1.221  0.00  0.00     0.015 A 
ATOM      7  C7  IND d   1       1.870   0.715  -1.074  0.00  0.00    -0.016 A 
ATOM      8  C8  IND d   1       0.702   0.411  -0.390  0.00  0.00    -0.047 A 
ATOM      9  C9  IND d   1       0.446  -0.874   0.107  0.00  0.00    -0.096 A 
ATOM     10  HN1 IND d   1      -0.494   2.018  -0.306  0.00  0.00     0.298 HD
ENDROOT
TORSDOF 0
ENDMDL
