MODEL 1
REMARK minimizedAffinity -4.25786829
REMARK minimizedRMSD -1
REMARK  0 active torsions:
REMARK  status: ('A' for Active; 'I' for Inactive)
ROOT
ATOM      1  N1  IND d   1      -0.193   1.195  -0.109  0.00  0.00    -0.196 N 
ATOM      2  C2  IND d   1      -1.192   0.358   0.303  0.00  0.00     0.054 A 
ATOM      3  C3  IND d   1      -0.775  -0.928   0.262  0.00  0.00    -0.031 A 
ATOM      4  C4  IND d   1       1.538  -1.878  -0.351  0.00  0.00     0.051 A 
ATOM      5  C5  IND d   1       2.764  -1.506  -0.828  0.00  0.00    -0.031 A 
ATOM      6  C6  IND d   1       3.073  -0.187  -1.092  0.00  0.00     0.015 A 
ATOM      7  C7  IND d   1       2.169   0.814  -0.878  0.00  0.00    -0.016 A 
ATOM      8  C8  IND d   1       0.921   0.439  -0.400  0.00  0.00    -0.047 A 
ATOM      9  C9  IND d   1       0.587  -0.902  -0.171  0.00  0.00    -0.096 A 
ATOM     10  HN1 IND d   1      -0.251   2.050  -0.175  0.00  0.00     0.298 HD
ENDROOT
TORSDOF 0
ENDMDL
