MODEL 1
REMARK minimizedAffinity -0.467228234
REMARK minimizedRMSD -1
REMARK  0 active torsions:
REMARK  status: ('A' for Active; 'I' for Inactive)
ROOT
ATOM      1  N1  IND d   1       1.035  -1.797  -0.447  0.00  0.00    -0.196 N 
ATOM      2  C2  IND d   1       2.169  -1.809  -1.211  0.00  0.00     0.054 A 
ATOM      3  C3  IND d   1       2.263  -0.668  -1.930  0.00  0.00    -0.031 A 
ATOM      4  C4  IND d   1       0.725   1.396  -1.932  0.00  0.00     0.051 A 
ATOM      5  C5  IND d   1      -0.456   1.860  -1.424  0.00  0.00    -0.031 A 
ATOM      6  C6  IND d   1      -1.215   1.114  -0.545  0.00  0.00     0.015 A 
ATOM      7  C7  IND d   1      -0.812  -0.124  -0.130  0.00  0.00    -0.016 A 
ATOM      8  C8  IND d   1       0.383  -0.601  -0.649  0.00  0.00    -0.047 A 
ATOM      9  C9  IND d   1       1.136   0.134  -1.574  0.00  0.00    -0.096 A 
ATOM     10  HN1 IND d   1       0.774  -2.431   0.072  0.00  0.00     0.298 HD
ENDROOT
TORSDOF 0
ENDMDL
