MODEL 1
REMARK minimizedAffinity -5.33795834
REMARK minimizedRMSD -1
REMARK  0 active torsions:
REMARK  status: ('A' for Active; 'I' for Inactive)
ROOT
ATOM      1  N1  IND d   1       2.122   0.828  -1.983  0.00  0.00    -0.196 N 
ATOM      2  C2  IND d   1       2.817  -0.344  -2.094  0.00  0.00     0.054 A 
ATOM      3  C3  IND d   1       2.213  -1.319  -1.379  0.00  0.00    -0.031 A 
ATOM      4  C4  IND d   1       0.019  -1.241  -0.035  0.00  0.00     0.051 A 
ATOM      5  C5  IND d   1      -0.954  -0.381   0.390  0.00  0.00    -0.031 A 
ATOM      6  C6  IND d   1      -0.953   0.953   0.035  0.00  0.00     0.015 A 
ATOM      7  C7  IND d   1       0.019   1.476  -0.769  0.00  0.00    -0.016 A 
ATOM      8  C8  IND d   1       1.013   0.606  -1.196  0.00  0.00    -0.047 A 
ATOM      9  C9  IND d   1       1.041  -0.739  -0.805  0.00  0.00    -0.096 A 
ATOM     10  HN1 IND d   1       2.340   1.577  -2.344  0.00  0.00     0.298 HD
ENDROOT
TORSDOF 0
ENDMDL
