MODEL 1
REMARK minimizedAffinity 3.08204293
REMARK minimizedRMSD -1
REMARK  0 active torsions:
REMARK  status: ('A' for Active; 'I' for Inactive)
ROOT
ATOM      1  N1  IND d   1      -0.917   1.930  -0.959  0.00  0.00    -0.196 N 
ATOM      2  C2  IND d   1       0.293   2.247  -1.510  0.00  0.00     0.054 A 
ATOM      3  C3  IND d   1       1.146   1.204  -1.404  0.00  0.00    -0.031 A 
ATOM      4  C4  IND d   1       0.737  -1.154  -0.454  0.00  0.00     0.051 A 
ATOM      5  C5  IND d   1      -0.202  -1.905   0.196  0.00  0.00    -0.031 A 
ATOM      6  C6  IND d   1      -1.453  -1.407   0.498  0.00  0.00     0.015 A 
ATOM      7  C7  IND d   1      -1.817  -0.137   0.150  0.00  0.00    -0.016 A 
ATOM      8  C8  IND d   1      -0.864   0.631  -0.504  0.00  0.00    -0.047 A 
ATOM      9  C9  IND d   1       0.421   0.145  -0.776  0.00  0.00    -0.096 A 
ATOM     10  HN1 IND d   1      -1.596   2.455  -0.904  0.00  0.00     0.298 HD
ENDROOT
TORSDOF 0
ENDMDL
