MODEL 1
REMARK minimizedAffinity -1.94751465
REMARK minimizedRMSD -1
REMARK  0 active torsions:
REMARK  status: ('A' for Active; 'I' for Inactive)
ROOT
ATOM      1  N1  IND d   1      -1.919   0.469   3.152  0.00  0.00    -0.196 N 
ATOM      2  C2  IND d   1      -2.347   1.703   3.556  0.00  0.00     0.054 A 
ATOM      3  C3  IND d   1      -2.203   2.602   2.556  0.00  0.00    -0.031 A 
ATOM      4  C4  IND d   1      -1.382   2.245   0.142  0.00  0.00     0.051 A 
ATOM      5  C5  IND d   1      -0.848   1.297  -0.685  0.00  0.00    -0.031 A 
ATOM      6  C6  IND d   1      -0.642  -0.002  -0.268  0.00  0.00     0.015 A 
ATOM      7  C7  IND d   1      -0.975  -0.406   0.994  0.00  0.00    -0.016 A 
ATOM      8  C8  IND d   1      -1.511   0.555   1.839  0.00  0.00    -0.047 A 
ATOM      9  C9  IND d   1      -1.683   1.885   1.435  0.00  0.00    -0.096 A 
ATOM     10  HN1 IND d   1      -1.907  -0.241   3.636  0.00  0.00     0.298 HD
ENDROOT
TORSDOF 0
ENDMDL
