MODEL 1
REMARK minimizedAffinity -2.96374297
REMARK minimizedRMSD -1
REMARK  2 active torsions:
REMARK  status: ('A' for Active; 'I' for Inactive)
REMARK    1  A    between atoms: C2'_3  and  C1'_4 
REMARK    2  A    between atoms: C1'_4  and  C1_5 
ROOT
ATOM      1  C1  I4B d   1      -0.083  -0.244   0.082  0.00  0.00    -0.075 A 
ATOM      2  C2  I4B d   1       0.867   0.739   0.205  0.00  0.00     0.003 A 
ATOM      3  C3  I4B d   1       1.716   1.050  -0.884  0.00  0.00     0.002 A 
ATOM      4  C4  I4B d   1       1.616   0.323  -2.053  0.00  0.00    -0.004 A 
ATOM      5  C5  I4B d   1       0.637  -0.657  -2.184  0.00  0.00     0.002 A 
ATOM      6  C6  I4B d   1      -0.227  -0.935  -1.114  0.00  0.00     0.003 A 
ENDROOT
BRANCH   1   7
ATOM      7  C1' I4B d   1      -0.941  -0.569   1.264  0.00  0.00     0.060 C 
BRANCH   7   8
ATOM      8  C2' I4B d   1      -1.931   0.564   1.447  0.00  0.00    -0.013 C 
ATOM      9  C4' I4B d   1      -3.350   0.069   1.353  0.00  0.00     0.013 C 
ATOM     10  C3' I4B d   1      -1.667   1.199   2.780  0.00  0.00     0.013 C 
ENDBRANCH   7   8
ENDBRANCH   1   7
TORSDOF 2
ENDMDL
