MODEL 1
REMARK minimizedAffinity -4.77965498
REMARK minimizedRMSD -1
REMARK  2 active torsions:
REMARK  status: ('A' for Active; 'I' for Inactive)
REMARK    1  A    between atoms: C2'_3  and  C1'_4 
REMARK    2  A    between atoms: C1'_4  and  C1_5 
ROOT
ATOM      1  C1  I4B d   1      -0.003   0.055   0.136  0.00  0.00    -0.075 A 
ATOM      2  C2  I4B d   1       0.930  -0.833  -0.338  0.00  0.00     0.003 A 
ATOM      3  C3  I4B d   1       1.876  -0.423  -1.308  0.00  0.00     0.002 A 
ATOM      4  C4  I4B d   1       1.822   0.862  -1.810  0.00  0.00    -0.004 A 
ATOM      5  C5  I4B d   1       0.890   1.767  -1.312  0.00  0.00     0.002 A 
ATOM      6  C6  I4B d   1      -0.021   1.366  -0.324  0.00  0.00     0.003 A 
ENDROOT
BRANCH   1   7
ATOM      7  C1' I4B d   1      -1.009  -0.421   1.135  0.00  0.00     0.060 C 
BRANCH   7   8
ATOM      8  C2' I4B d   1      -2.108   0.619   1.224  0.00  0.00    -0.013 C 
ATOM      9  C4' I4B d   1      -3.386   0.117   0.606  0.00  0.00     0.013 C 
ATOM     10  C3' I4B d   1      -2.304   0.963   2.670  0.00  0.00     0.013 C 
ENDBRANCH   7   8
ENDBRANCH   1   7
TORSDOF 2
ENDMDL
