MODEL 1
REMARK minimizedAffinity -3.39928293
REMARK minimizedRMSD -1
REMARK  2 active torsions:
REMARK  status: ('A' for Active; 'I' for Inactive)
REMARK    1  A    between atoms: C2'_3  and  C1'_4 
REMARK    2  A    between atoms: C1'_4  and  C1_5 
ROOT
ATOM      1  C1  I4B d   1       0.023   0.197  -0.758  0.00  0.00    -0.075 A 
ATOM      2  C2  I4B d   1       0.096  -1.169  -0.870  0.00  0.00     0.003 A 
ATOM      3  C3  I4B d   1       1.101  -1.767  -1.669  0.00  0.00     0.002 A 
ATOM      4  C4  I4B d   1       1.975  -0.965  -2.374  0.00  0.00    -0.004 A 
ATOM      5  C5  I4B d   1       1.915   0.419  -2.240  0.00  0.00     0.002 A 
ATOM      6  C6  I4B d   1       0.941   1.004  -1.418  0.00  0.00     0.003 A 
ENDROOT
BRANCH   1   7
ATOM      7  C1' I4B d   1      -1.071   0.795   0.067  0.00  0.00     0.060 C 
BRANCH   7   8
ATOM      8  C2' I4B d   1      -1.525  -0.248   1.068  0.00  0.00    -0.013 C 
ATOM      9  C4' I4B d   1      -0.630  -0.269   2.279  0.00  0.00     0.013 C 
ATOM     10  C3' I4B d   1      -2.942   0.060   1.448  0.00  0.00     0.013 C 
ENDBRANCH   7   8
ENDBRANCH   1   7
TORSDOF 2
ENDMDL
