MODEL 1
REMARK minimizedAffinity -3.49043941
REMARK minimizedRMSD -1
REMARK  2 active torsions:
REMARK  status: ('A' for Active; 'I' for Inactive)
REMARK    1  A    between atoms: C2'_3  and  C1'_4 
REMARK    2  A    between atoms: C1'_4  and  C1_5 
ROOT
ATOM      1  C1  I4B d   1      -0.202   0.047   0.695  0.00  0.00    -0.075 A 
ATOM      2  C2  I4B d   1       0.232  -0.830  -0.267  0.00  0.00     0.003 A 
ATOM      3  C3  I4B d   1       1.103  -0.389  -1.293  0.00  0.00     0.002 A 
ATOM      4  C4  I4B d   1       1.472   0.939  -1.346  0.00  0.00    -0.004 A 
ATOM      5  C5  I4B d   1       1.050   1.822  -0.356  0.00  0.00     0.002 A 
ATOM      6  C6  I4B d   1       0.217   1.371   0.678  0.00  0.00     0.003 A 
ENDROOT
BRANCH   1   7
ATOM      7  C1' I4B d   1      -1.148  -0.445   1.745  0.00  0.00     0.060 C 
BRANCH   7   8
ATOM      8  C2' I4B d   1      -2.167   0.646   2.003  0.00  0.00    -0.013 C 
ATOM      9  C4' I4B d   1      -3.554   0.199   1.623  0.00  0.00     0.013 C 
ATOM     10  C3' I4B d   1      -2.095   1.012   3.455  0.00  0.00     0.013 C 
ENDBRANCH   7   8
ENDBRANCH   1   7
TORSDOF 2
ENDMDL
