MODEL 1
REMARK minimizedAffinity -4.11280394
REMARK minimizedRMSD -1
REMARK  2 active torsions:
REMARK  status: ('A' for Active; 'I' for Inactive)
REMARK    1  A    between atoms: C2'_3  and  C1'_4 
REMARK    2  A    between atoms: C1'_4  and  C1_5 
ROOT
ATOM      1  C1  I4B d   1      -0.151  -0.211   0.526  0.00  0.00    -0.075 A 
ATOM      2  C2  I4B d   1       0.058  -1.518   0.164  0.00  0.00     0.003 A 
ATOM      3  C3  I4B d   1       0.793  -1.824  -1.007  0.00  0.00     0.002 A 
ATOM      4  C4  I4B d   1       1.255  -0.799  -1.807  0.00  0.00    -0.004 A 
ATOM      5  C5  I4B d   1       1.062   0.526  -1.426  0.00  0.00     0.002 A 
ATOM      6  C6  I4B d   1       0.365   0.822  -0.245  0.00  0.00     0.003 A 
ENDROOT
BRANCH   1   7
ATOM      7  C1' I4B d   1      -0.960   0.077   1.751  0.00  0.00     0.060 C 
BRANCH   7   8
ATOM      8  C2' I4B d   1      -2.327   0.556   1.306  0.00  0.00    -0.013 C 
ATOM      9  C4' I4B d   1      -3.318  -0.577   1.272  0.00  0.00     0.013 C 
ATOM     10  C3' I4B d   1      -2.769   1.635   2.250  0.00  0.00     0.013 C 
ENDBRANCH   7   8
ENDBRANCH   1   7
TORSDOF 2
ENDMDL
