MODEL 1
REMARK minimizedAffinity -4.20311737
REMARK minimizedRMSD -1
REMARK  2 active torsions:
REMARK  status: ('A' for Active; 'I' for Inactive)
REMARK    1  A    between atoms: C2'_3  and  C1'_4 
REMARK    2  A    between atoms: C1'_4  and  C1_5 
ROOT
ATOM      1  C1  I4B d   1      -0.205   0.161   0.885  0.00  0.00    -0.075 A 
ATOM      2  C2  I4B d   1      -0.033  -1.161   0.561  0.00  0.00     0.003 A 
ATOM      3  C3  I4B d   1       0.799  -1.526  -0.526  0.00  0.00     0.002 A 
ATOM      4  C4  I4B d   1       1.394  -0.541  -1.287  0.00  0.00    -0.004 A 
ATOM      5  C5  I4B d   1       1.237   0.799  -0.942  0.00  0.00     0.002 A 
ATOM      6  C6  I4B d   1       0.442   1.152   0.158  0.00  0.00     0.003 A 
ENDROOT
BRANCH   1   7
ATOM      7  C1' I4B d   1      -1.116   0.512   2.019  0.00  0.00     0.060 C 
BRANCH   7   8
ATOM      8  C2' I4B d   1      -2.466   0.878   1.436  0.00  0.00    -0.013 C 
ATOM      9  C4' I4B d   1      -3.414  -0.291   1.484  0.00  0.00     0.013 C 
ATOM     10  C3' I4B d   1      -3.004   2.044   2.211  0.00  0.00     0.013 C 
ENDBRANCH   7   8
ENDBRANCH   1   7
TORSDOF 2
ENDMDL
