MODEL 1
REMARK minimizedAffinity -4.77370071
REMARK minimizedRMSD -1
REMARK  2 active torsions:
REMARK  status: ('A' for Active; 'I' for Inactive)
REMARK    1  A    between atoms: C2'_3  and  C1'_4 
REMARK    2  A    between atoms: C1'_4  and  C1_5 
ROOT
ATOM      1  C1  I4B d   1      -0.017  -0.032   0.688  0.00  0.00    -0.075 A 
ATOM      2  C2  I4B d   1       0.368   1.170   0.149  0.00  0.00     0.003 A 
ATOM      3  C3  I4B d   1       1.284   1.207  -0.930  0.00  0.00     0.002 A 
ATOM      4  C4  I4B d   1       1.826   0.029  -1.402  0.00  0.00    -0.004 A 
ATOM      5  C5  I4B d   1       1.417  -1.190  -0.869  0.00  0.00     0.002 A 
ATOM      6  C6  I4B d   1       0.481  -1.222   0.174  0.00  0.00     0.003 A 
ENDROOT
BRANCH   1   7
ATOM      7  C1' I4B d   1      -0.961  -0.032   1.848  0.00  0.00     0.060 C 
BRANCH   7   8
ATOM      8  C2' I4B d   1      -2.195   0.750   1.446  0.00  0.00    -0.013 C 
ATOM      9  C4' I4B d   1      -3.371  -0.163   1.222  0.00  0.00     0.013 C 
ATOM     10  C3' I4B d   1      -2.482   1.749   2.527  0.00  0.00     0.013 C 
ENDBRANCH   7   8
ENDBRANCH   1   7
TORSDOF 2
ENDMDL
