MODEL 1
REMARK minimizedAffinity -0.701326847
REMARK minimizedRMSD -1
REMARK  2 active torsions:
REMARK  status: ('A' for Active; 'I' for Inactive)
REMARK    1  A    between atoms: C2'_3  and  C1'_4 
REMARK    2  A    between atoms: C1'_4  and  C1_5 
ROOT
ATOM      1  C1  I4B d   1      -0.001   0.320   0.588  0.00  0.00    -0.075 A 
ATOM      2  C2  I4B d   1       0.752  -0.470  -0.245  0.00  0.00     0.003 A 
ATOM      3  C3  I4B d   1       1.661   0.119  -1.156  0.00  0.00     0.002 A 
ATOM      4  C4  I4B d   1       1.748   1.494  -1.237  0.00  0.00    -0.004 A 
ATOM      5  C5  I4B d   1       1.001   2.293  -0.376  0.00  0.00     0.002 A 
ATOM      6  C6  I4B d   1       0.130   1.702   0.551  0.00  0.00     0.003 A 
ENDROOT
BRANCH   1   7
ATOM      7  C1' I4B d   1      -0.975  -0.335   1.516  0.00  0.00     0.060 C 
BRANCH   7   8
ATOM      8  C2' I4B d   1      -2.134   0.619   1.724  0.00  0.00    -0.013 C 
ATOM      9  C4' I4B d   1      -3.438  -0.007   1.306  0.00  0.00     0.013 C 
ATOM     10  C3' I4B d   1      -2.159   1.007   3.173  0.00  0.00     0.013 C 
ENDBRANCH   7   8
ENDBRANCH   1   7
TORSDOF 2
ENDMDL
