MODEL 1
REMARK minimizedAffinity -5.80931425
REMARK minimizedRMSD -1
REMARK  2 active torsions:
REMARK  status: ('A' for Active; 'I' for Inactive)
REMARK    1  A    between atoms: C2'_3  and  C1'_4 
REMARK    2  A    between atoms: C1'_4  and  C1_5 
ROOT
ATOM      1  C1  I4B d   1       0.628  -0.674  -1.406  0.00  0.00    -0.075 A 
ATOM      2  C2  I4B d   1       1.638  -0.516  -2.322  0.00  0.00     0.003 A 
ATOM      3  C3  I4B d   1       2.426  -1.625  -2.714  0.00  0.00     0.002 A 
ATOM      4  C4  I4B d   1       2.204  -2.856  -2.131  0.00  0.00    -0.004 A 
ATOM      5  C5  I4B d   1       1.165  -3.020  -1.220  0.00  0.00     0.002 A 
ATOM      6  C6  I4B d   1       0.364  -1.925  -0.864  0.00  0.00     0.003 A 
ENDROOT
BRANCH   1   7
ATOM      7  C1' I4B d   1      -0.162   0.526  -0.990  0.00  0.00     0.060 C 
BRANCH   7   8
ATOM      8  C2' I4B d   1       0.122   0.787   0.475  0.00  0.00    -0.013 C 
ATOM      9  C4' I4B d   1       0.956   2.029   0.655  0.00  0.00     0.013 C 
ATOM     10  C3' I4B d   1      -1.192   0.909   1.187  0.00  0.00     0.013 C 
ENDBRANCH   7   8
ENDBRANCH   1   7
TORSDOF 2
ENDMDL
