MODEL 1
REMARK minimizedAffinity 8.40488815
REMARK minimizedRMSD -1
REMARK  0 active torsions:
REMARK  status: ('A' for Active; 'I' for Inactive)
ROOT
ATOM      1  O1  BZF d   1       2.211  -1.054   2.338  0.00  0.00    -0.204 OA
ATOM      2  C2  BZF d   1       3.194  -1.641   3.111  0.00  0.00     0.174 A 
ATOM      3  C3  BZF d   1       3.869  -2.569   2.402  0.00  0.00    -0.012 A 
ATOM      4  C3A BZF d   1       3.331  -2.495   1.078  0.00  0.00    -0.107 A 
ATOM      5  C4  BZF d   1       3.605  -3.158  -0.085  0.00  0.00     0.055 A 
ATOM      6  C5  BZF d   1       2.849  -2.901  -1.184  0.00  0.00    -0.016 A 
ATOM      7  C6  BZF d   1       1.810  -1.994  -1.156  0.00  0.00     0.022 A 
ATOM      8  C7  BZF d   1       1.504  -1.309  -0.027  0.00  0.00     0.029 A 
ATOM      9  C7A BZF d   1       2.287  -1.542   1.077  0.00  0.00     0.058 A 
ENDROOT
TORSDOF 0
ENDMDL
