MODEL 1
REMARK minimizedAffinity 4.72260284
REMARK minimizedRMSD -1
REMARK  0 active torsions:
REMARK  status: ('A' for Active; 'I' for Inactive)
ROOT
ATOM      1  O1  BZF d   1      -0.247  -0.857  -0.087  0.00  0.00    -0.204 OA
ATOM      2  C2  BZF d   1       0.425  -0.660  -1.278  0.00  0.00     0.174 A 
ATOM      3  C3  BZF d   1       1.752  -0.838  -1.113  0.00  0.00    -0.012 A 
ATOM      4  C3A BZF d   1       1.910  -1.257   0.246  0.00  0.00    -0.107 A 
ATOM      5  C4  BZF d   1       2.993  -1.602   1.002  0.00  0.00     0.055 A 
ATOM      6  C5  BZF d   1       2.814  -1.892   2.318  0.00  0.00    -0.016 A 
ATOM      7  C6  BZF d   1       1.570  -1.842   2.910  0.00  0.00     0.022 A 
ATOM      8  C7  BZF d   1       0.465  -1.509   2.199  0.00  0.00     0.029 A 
ATOM      9  C7A BZF d   1       0.637  -1.248   0.862  0.00  0.00     0.058 A 
ENDROOT
TORSDOF 0
ENDMDL
