MODEL 1
REMARK minimizedAffinity 4.52095127
REMARK minimizedRMSD -1
REMARK  0 active torsions:
REMARK  status: ('A' for Active; 'I' for Inactive)
ROOT
ATOM      1  O1  BZF d   1       2.677  -4.300  -0.424  0.00  0.00    -0.204 OA
ATOM      2  C2  BZF d   1       1.979  -4.035   0.738  0.00  0.00     0.174 A 
ATOM      3  C3  BZF d   1       2.654  -4.485   1.815  0.00  0.00    -0.012 A 
ATOM      4  C3A BZF d   1       3.891  -4.986   1.301  0.00  0.00    -0.107 A 
ATOM      5  C4  BZF d   1       4.990  -5.551   1.884  0.00  0.00     0.055 A 
ATOM      6  C5  BZF d   1       6.000  -5.999   1.093  0.00  0.00    -0.016 A 
ATOM      7  C6  BZF d   1       5.942  -5.904  -0.282  0.00  0.00     0.022 A 
ATOM      8  C7  BZF d   1       4.875  -5.348  -0.905  0.00  0.00     0.029 A 
ATOM      9  C7A BZF d   1       3.867  -4.864  -0.107  0.00  0.00     0.058 A 
ENDROOT
TORSDOF 0
ENDMDL
