MODEL 1
REMARK minimizedAffinity 7.40997458
REMARK minimizedRMSD -1
REMARK  0 active torsions:
REMARK  status: ('A' for Active; 'I' for Inactive)
ROOT
ATOM      1  O1  BZF d   1       4.128   0.512  -0.518  0.00  0.00    -0.204 OA
ATOM      2  C2  BZF d   1       5.088  -0.477  -0.431  0.00  0.00     0.174 A 
ATOM      3  C3  BZF d   1       6.000  -0.177   0.516  0.00  0.00    -0.012 A 
ATOM      4  C3A BZF d   1       5.532   1.033   1.119  0.00  0.00    -0.107 A 
ATOM      5  C4  BZF d   1       6.000   1.819   2.133  0.00  0.00     0.055 A 
ATOM      6  C5  BZF d   1       5.347   2.974   2.428  0.00  0.00    -0.016 A 
ATOM      7  C6  BZF d   1       4.228   3.375   1.729  0.00  0.00     0.022 A 
ATOM      8  C7  BZF d   1       3.723   2.626   0.719  0.00  0.00     0.029 A 
ATOM      9  C7A BZF d   1       4.361   1.442   0.439  0.00  0.00     0.058 A 
ENDROOT
TORSDOF 0
ENDMDL
