MODEL 1
REMARK minimizedAffinity -0.341415733
REMARK minimizedRMSD -1
REMARK  0 active torsions:
REMARK  status: ('A' for Active; 'I' for Inactive)
ROOT
ATOM      1  O1  BZF d   1       4.514  -2.503   4.949  0.00  0.00    -0.204 OA
ATOM      2  C2  BZF d   1       5.287  -2.960   5.999  0.00  0.00     0.174 A 
ATOM      3  C3  BZF d   1       5.691  -4.228   5.780  0.00  0.00    -0.012 A 
ATOM      4  C3A BZF d   1       5.212  -4.554   4.472  0.00  0.00    -0.107 A 
ATOM      5  C4  BZF d   1       5.309  -5.668   3.687  0.00  0.00     0.055 A 
ATOM      6  C5  BZF d   1       4.668  -5.691   2.490  0.00  0.00    -0.016 A 
ATOM      7  C6  BZF d   1       3.918  -4.620   2.048  0.00  0.00     0.022 A 
ATOM      8  C7  BZF d   1       3.797  -3.492   2.788  0.00  0.00     0.029 A 
ATOM      9  C7A BZF d   1       4.471  -3.454   3.984  0.00  0.00     0.058 A 
ENDROOT
TORSDOF 0
ENDMDL
