MODEL 1
REMARK minimizedAffinity 4.09427691
REMARK minimizedRMSD -1
REMARK  0 active torsions:
REMARK  status: ('A' for Active; 'I' for Inactive)
ROOT
ATOM      1  O1  BZF d   1       4.929  -3.913   4.236  0.00  0.00    -0.204 OA
ATOM      2  C2  BZF d   1       4.311  -3.392   5.355  0.00  0.00     0.174 A 
ATOM      3  C3  BZF d   1       3.035  -3.050   5.081  0.00  0.00    -0.012 A 
ATOM      4  C3A BZF d   1       2.817  -3.464   3.729  0.00  0.00    -0.107 A 
ATOM      5  C4  BZF d   1       1.738  -3.411   2.894  0.00  0.00     0.055 A 
ATOM      6  C5  BZF d   1       1.875  -3.834   1.610  0.00  0.00    -0.016 A 
ATOM      7  C6  BZF d   1       3.076  -4.312   1.128  0.00  0.00     0.022 A 
ATOM      8  C7  BZF d   1       4.173  -4.389   1.920  0.00  0.00     0.029 A 
ATOM      9  C7A BZF d   1       4.028  -3.992   3.227  0.00  0.00     0.058 A 
ENDROOT
TORSDOF 0
ENDMDL
