MODEL 1
REMARK minimizedAffinity 7.82158709
REMARK minimizedRMSD -1
REMARK  0 active torsions:
REMARK  status: ('A' for Active; 'I' for Inactive)
ROOT
ATOM      1  O1  BZF d   1       6.000   0.864   1.747  0.00  0.00    -0.204 OA
ATOM      2  C2  BZF d   1       5.992  -0.405   1.203  0.00  0.00     0.174 A 
ATOM      3  C3  BZF d   1       5.372  -0.409   0.005  0.00  0.00    -0.012 A 
ATOM      4  C3A BZF d   1       5.049   0.961  -0.255  0.00  0.00    -0.107 A 
ATOM      5  C4  BZF d   1       4.438   1.600  -1.296  0.00  0.00     0.055 A 
ATOM      6  C5  BZF d   1       4.210   2.936  -1.208  0.00  0.00    -0.016 A 
ATOM      7  C6  BZF d   1       4.573   3.663  -0.093  0.00  0.00     0.022 A 
ATOM      8  C7  BZF d   1       5.186   3.074   0.963  0.00  0.00     0.029 A 
ATOM      9  C7A BZF d   1       5.448   1.729   0.863  0.00  0.00     0.058 A 
ENDROOT
TORSDOF 0
ENDMDL
