MODEL 1
REMARK minimizedAffinity -2.64948964
REMARK minimizedRMSD -1
REMARK  0 active torsions:
REMARK  status: ('A' for Active; 'I' for Inactive)
ROOT
ATOM      1  O1  BZF d   1       1.420  -1.840  -0.107  0.00  0.00    -0.204 OA
ATOM      2  C2  BZF d   1       2.057  -2.777   0.683  0.00  0.00     0.174 A 
ATOM      3  C3  BZF d   1       1.593  -2.731   1.948  0.00  0.00    -0.012 A 
ATOM      4  C3A BZF d   1       0.539  -1.764   1.927  0.00  0.00    -0.107 A 
ATOM      5  C4  BZF d   1      -0.317  -1.288   2.879  0.00  0.00     0.055 A 
ATOM      6  C5  BZF d   1      -1.181  -0.291   2.551  0.00  0.00    -0.016 A 
ATOM      7  C6  BZF d   1      -1.213   0.254   1.284  0.00  0.00     0.022 A 
ATOM      8  C7  BZF d   1      -0.387  -0.189   0.306  0.00  0.00     0.029 A 
ATOM      9  C7A BZF d   1       0.465  -1.218   0.625  0.00  0.00     0.058 A 
ENDROOT
TORSDOF 0
ENDMDL
