MODEL 1
REMARK minimizedAffinity 8.14310455
REMARK minimizedRMSD -1
REMARK  0 active torsions:
REMARK  status: ('A' for Active; 'I' for Inactive)
ROOT
ATOM      1  O1  BZF d   1       4.123   5.430   0.372  0.00  0.00    -0.204 OA
ATOM      2  C2  BZF d   1       5.212   6.000   1.002  0.00  0.00     0.174 A 
ATOM      3  C3  BZF d   1       6.000   5.051   1.548  0.00  0.00    -0.012 A 
ATOM      4  C3A BZF d   1       5.412   3.805   1.160  0.00  0.00    -0.107 A 
ATOM      5  C4  BZF d   1       5.746   2.500   1.382  0.00  0.00     0.055 A 
ATOM      6  C5  BZF d   1       4.922   1.521   0.927  0.00  0.00    -0.016 A 
ATOM      7  C6  BZF d   1       3.754   1.810   0.251  0.00  0.00     0.022 A 
ATOM      8  C7  BZF d   1       3.383   3.090   0.002  0.00  0.00     0.029 A 
ATOM      9  C7A BZF d   1       4.231   4.081   0.432  0.00  0.00     0.058 A 
ENDROOT
TORSDOF 0
ENDMDL
