MODEL 1
REMARK minimizedAffinity -0.156714112
REMARK minimizedRMSD -1
REMARK  0 active torsions:
REMARK  status: ('A' for Active; 'I' for Inactive)
ROOT
ATOM      1  O1  BZF d   1       1.594  -2.480   1.729  0.00  0.00    -0.204 OA
ATOM      2  C2  BZF d   1       2.033  -2.412   0.421  0.00  0.00     0.174 A 
ATOM      3  C3  BZF d   1       1.308  -1.517  -0.281  0.00  0.00    -0.012 A 
ATOM      4  C3A BZF d   1       0.417  -0.927   0.670  0.00  0.00    -0.107 A 
ATOM      5  C4  BZF d   1      -0.543   0.041   0.582  0.00  0.00     0.055 A 
ATOM      6  C5  BZF d   1      -1.287   0.336   1.681  0.00  0.00    -0.016 A 
ATOM      7  C6  BZF d   1      -1.102  -0.321   2.880  0.00  0.00     0.022 A 
ATOM      8  C7  BZF d   1      -0.159  -1.285   3.017  0.00  0.00     0.029 A 
ATOM      9  C7A BZF d   1       0.617  -1.561   1.918  0.00  0.00     0.058 A 
ENDROOT
TORSDOF 0
ENDMDL
