MODEL 1
REMARK minimizedAffinity 6.25591183
REMARK minimizedRMSD -1
REMARK  0 active torsions:
REMARK  status: ('A' for Active; 'I' for Inactive)
ROOT
ATOM      1  O1  BZF d   1      -4.138   1.296  -3.832  0.00  0.00    -0.204 OA
ATOM      2  C2  BZF d   1      -4.619   1.562  -5.099  0.00  0.00     0.174 A 
ATOM      3  C3  BZF d   1      -4.104   0.698  -5.998  0.00  0.00    -0.012 A 
ATOM      4  C3A BZF d   1      -3.319  -0.220  -5.230  0.00  0.00    -0.107 A 
ATOM      5  C4  BZF d   1      -2.572  -1.316  -5.555  0.00  0.00     0.055 A 
ATOM      6  C5  BZF d   1      -1.869  -1.948  -4.579  0.00  0.00    -0.016 A 
ATOM      7  C6  BZF d   1      -1.887  -1.510  -3.271  0.00  0.00     0.022 A 
ATOM      8  C7  BZF d   1      -2.618  -0.430  -2.900  0.00  0.00     0.029 A 
ATOM      9  C7A BZF d   1      -3.355   0.191  -3.878  0.00  0.00     0.058 A 
ENDROOT
TORSDOF 0
ENDMDL
