MODEL 1
REMARK minimizedAffinity 0.985900521
REMARK minimizedRMSD -1
REMARK  0 active torsions:
REMARK  status: ('A' for Active; 'I' for Inactive)
ROOT
ATOM      1  O1  BZF d   1      -4.882   1.623  -5.693  0.00  0.00    -0.204 OA
ATOM      2  C2  BZF d   1      -5.981   1.445  -4.875  0.00  0.00     0.174 A 
ATOM      3  C3  BZF d   1      -5.842   0.335  -4.122  0.00  0.00    -0.012 A 
ATOM      4  C3A BZF d   1      -4.536  -0.164  -4.425  0.00  0.00    -0.107 A 
ATOM      5  C4  BZF d   1      -3.813  -1.235  -3.982  0.00  0.00     0.055 A 
ATOM      6  C5  BZF d   1      -2.596  -1.485  -4.533  0.00  0.00    -0.016 A 
ATOM      7  C6  BZF d   1      -2.074  -0.688  -5.531  0.00  0.00     0.022 A 
ATOM      8  C7  BZF d   1      -2.751   0.388  -6.000  0.00  0.00     0.029 A 
ATOM      9  C7A BZF d   1      -3.967   0.662  -5.422  0.00  0.00     0.058 A 
ENDROOT
TORSDOF 0
ENDMDL
