MODEL 1
REMARK minimizedAffinity 10.0095358
REMARK minimizedRMSD -1
REMARK  0 active torsions:
REMARK  status: ('A' for Active; 'I' for Inactive)
ROOT
ATOM      1  O1  BZF d   1       1.162  -4.311   1.002  0.00  0.00    -0.204 OA
ATOM      2  C2  BZF d   1       2.380  -3.818   0.577  0.00  0.00     0.174 A 
ATOM      3  C3  BZF d   1       2.530  -2.529   0.945  0.00  0.00    -0.012 A 
ATOM      4  C3A BZF d   1       1.370  -2.224   1.725  0.00  0.00    -0.107 A 
ATOM      5  C4  BZF d   1       0.949  -1.103   2.383  0.00  0.00     0.055 A 
ATOM      6  C5  BZF d   1      -0.267  -1.111   2.988  0.00  0.00    -0.016 A 
ATOM      7  C6  BZF d   1      -1.090  -2.218   2.952  0.00  0.00     0.022 A 
ATOM      8  C7  BZF d   1      -0.714  -3.354   2.316  0.00  0.00     0.029 A 
ATOM      9  C7A BZF d   1       0.529  -3.361   1.731  0.00  0.00     0.058 A 
ENDROOT
TORSDOF 0
ENDMDL
