MODEL 1
REMARK minimizedAffinity -2.23780894
REMARK minimizedRMSD -1
REMARK  0 active torsions:
REMARK  status: ('A' for Active; 'I' for Inactive)
ROOT
ATOM      1  C4' PXY d   1      -2.978  -0.726   1.874  0.00  0.00     0.077 C 
ATOM      2  C1' PXY d   1       2.189  -0.798  -0.717  0.00  0.00     0.077 C 
ATOM      3  C1  PXY d   1       0.839  -0.785  -0.027  0.00  0.00    -0.082 A 
ATOM      4  C2  PXY d   1      -0.266  -0.723  -0.752  0.00  0.00     0.003 A 
ATOM      5  C3  PXY d   1      -1.494  -0.678  -0.144  0.00  0.00     0.003 A 
ATOM      6  C4  PXY d   1      -1.594  -0.751   1.220  0.00  0.00    -0.082 A 
ATOM      7  C5  PXY d   1      -0.472  -0.825   1.966  0.00  0.00     0.003 A 
ATOM      8  C6  PXY d   1       0.766  -0.828   1.331  0.00  0.00     0.003 A 
ENDROOT
TORSDOF 0
ENDMDL
