MODEL 1
REMARK minimizedAffinity 5.04755306
REMARK minimizedRMSD -1
REMARK  0 active torsions:
REMARK  status: ('A' for Active; 'I' for Inactive)
ROOT
ATOM      1  C4' PXY d   1      -0.645  -3.741   3.656  0.00  0.00     0.077 C 
ATOM      2  C1' PXY d   1       1.480   1.009   1.139  0.00  0.00     0.077 C 
ATOM      3  C1  PXY d   1       0.935  -0.239   1.804  0.00  0.00    -0.082 A 
ATOM      4  C2  PXY d   1      -0.174  -0.795   1.342  0.00  0.00     0.003 A 
ATOM      5  C3  PXY d   1      -0.698  -1.906   1.951  0.00  0.00     0.003 A 
ATOM      6  C4  PXY d   1      -0.053  -2.485   3.011  0.00  0.00    -0.082 A 
ATOM      7  C5  PXY d   1       1.085  -1.930   3.481  0.00  0.00     0.003 A 
ATOM      8  C6  PXY d   1       1.578  -0.779   2.875  0.00  0.00     0.003 A 
ENDROOT
TORSDOF 0
ENDMDL
