MODEL 1
REMARK minimizedAffinity -0.209826261
REMARK minimizedRMSD -1
REMARK  0 active torsions:
REMARK  status: ('A' for Active; 'I' for Inactive)
ROOT
ATOM      1  C4' PXY d   1       2.020  -1.623   3.432  0.00  0.00     0.077 C 
ATOM      2  C1' PXY d   1      -1.414   0.114  -0.881  0.00  0.00     0.077 C 
ATOM      3  C1  PXY d   1      -0.520  -0.334   0.259  0.00  0.00    -0.082 A 
ATOM      4  C2  PXY d   1       0.716  -0.732   0.003  0.00  0.00     0.003 A 
ATOM      5  C3  PXY d   1       1.526  -1.172   1.018  0.00  0.00     0.003 A 
ATOM      6  C4  PXY d   1       1.086  -1.153   2.314  0.00  0.00    -0.082 A 
ATOM      7  C5  PXY d   1      -0.170  -0.738   2.584  0.00  0.00     0.003 A 
ATOM      8  C6  PXY d   1      -0.991  -0.335   1.535  0.00  0.00     0.003 A 
ENDROOT
TORSDOF 0
ENDMDL
