MODEL 1
REMARK minimizedAffinity 6.49629593
REMARK minimizedRMSD -1
REMARK  0 active torsions:
REMARK  status: ('A' for Active; 'I' for Inactive)
ROOT
ATOM      1  C4' PXY d   1      -3.940   4.363  -3.926  0.00  0.00     0.077 C 
ATOM      2  C1' PXY d   1       1.384   2.561  -2.578  0.00  0.00     0.077 C 
ATOM      3  C1  PXY d   1      -0.016   3.021  -2.931  0.00  0.00    -0.082 A 
ATOM      4  C2  PXY d   1      -0.189   4.182  -3.542  0.00  0.00     0.003 A 
ATOM      5  C3  PXY d   1      -1.451   4.628  -3.840  0.00  0.00     0.003 A 
ATOM      6  C4  PXY d   1      -2.544   3.854  -3.558  0.00  0.00    -0.082 A 
ATOM      7  C5  PXY d   1      -2.376   2.663  -2.945  0.00  0.00     0.003 A 
ATOM      8  C6  PXY d   1      -1.089   2.247  -2.614  0.00  0.00     0.003 A 
ENDROOT
TORSDOF 0
ENDMDL
