MODEL 1
REMARK minimizedAffinity -4.84354639
REMARK minimizedRMSD -1
REMARK  0 active torsions:
REMARK  status: ('A' for Active; 'I' for Inactive)
ROOT
ATOM      1  C4' PXY d   1      -0.313  -0.768   2.579  0.00  0.00     0.077 C 
ATOM      2  C1' PXY d   1      -1.551   1.529  -2.579  0.00  0.00     0.077 C 
ATOM      3  C1  PXY d   1      -1.236   0.933  -1.221  0.00  0.00    -0.082 A 
ATOM      4  C2  PXY d   1      -0.023   0.461  -0.979  0.00  0.00     0.003 A 
ATOM      5  C3  PXY d   1       0.269  -0.110   0.233  0.00  0.00     0.003 A 
ATOM      6  C4  PXY d   1      -0.673  -0.150   1.226  0.00  0.00    -0.082 A 
ATOM      7  C5  PXY d   1      -1.909   0.339   0.990  0.00  0.00     0.003 A 
ATOM      8  C6  PXY d   1      -2.198   0.877  -0.261  0.00  0.00     0.003 A 
ENDROOT
TORSDOF 0
ENDMDL
