MODEL 1
REMARK minimizedAffinity -3.89922166
REMARK minimizedRMSD -1
REMARK  0 active torsions:
REMARK  status: ('A' for Active; 'I' for Inactive)
ROOT
ATOM      1  C4' PXY d   1      -1.258   1.876  -2.576  0.00  0.00     0.077 C 
ATOM      2  C1' PXY d   1       0.077  -0.676   2.436  0.00  0.00     0.077 C 
ATOM      3  C1  PXY d   1      -0.267  -0.016   1.115  0.00  0.00    -0.082 A 
ATOM      4  C2  PXY d   1      -0.579   1.269   1.088  0.00  0.00     0.003 A 
ATOM      5  C3  PXY d   1      -0.923   1.875  -0.093  0.00  0.00     0.003 A 
ATOM      6  C4  PXY d   1      -0.896   1.170  -1.267  0.00  0.00    -0.082 A 
ATOM      7  C5  PXY d   1      -0.568  -0.140  -1.249  0.00  0.00     0.003 A 
ATOM      8  C6  PXY d   1      -0.262  -0.746  -0.033  0.00  0.00     0.003 A 
ENDROOT
TORSDOF 0
ENDMDL
