MODEL 1
REMARK minimizedAffinity -3.39294767
REMARK minimizedRMSD -1
REMARK  0 active torsions:
REMARK  status: ('A' for Active; 'I' for Inactive)
ROOT
ATOM      1  C4' PXY d   1      -0.736   0.707  -1.796  0.00  0.00     0.077 C 
ATOM      2  C1' PXY d   1       1.680  -2.440   2.408  0.00  0.00     0.077 C 
ATOM      3  C1  PXY d   1       1.035  -1.616   1.311  0.00  0.00    -0.082 A 
ATOM      4  C2  PXY d   1       1.613  -1.541   0.123  0.00  0.00     0.003 A 
ATOM      5  C3  PXY d   1       1.060  -0.775  -0.870  0.00  0.00     0.003 A 
ATOM      6  C4  PXY d   1      -0.125  -0.121  -0.662  0.00  0.00    -0.082 A 
ATOM      7  C5  PXY d   1      -0.726  -0.201   0.544  0.00  0.00     0.003 A 
ATOM      8  C6  PXY d   1      -0.127  -0.950   1.552  0.00  0.00     0.003 A 
ENDROOT
TORSDOF 0
ENDMDL
