MODEL 1
REMARK minimizedAffinity -3.86056161
REMARK minimizedRMSD -1
REMARK  0 active torsions:
REMARK  status: ('A' for Active; 'I' for Inactive)
ROOT
ATOM      1  C4' PXY d   1       0.102  -0.944   1.915  0.00  0.00     0.077 C 
ATOM      2  C1' PXY d   1      -1.370   1.630  -3.046  0.00  0.00     0.077 C 
ATOM      3  C1  PXY d   1      -0.975   0.965  -1.743  0.00  0.00    -0.082 A 
ATOM      4  C2  PXY d   1      -1.198  -0.329  -1.576  0.00  0.00     0.003 A 
ATOM      5  C3  PXY d   1      -0.876  -0.941  -0.391  0.00  0.00     0.003 A 
ATOM      6  C4  PXY d   1      -0.272  -0.232   0.612  0.00  0.00    -0.082 A 
ATOM      7  C5  PXY d   1      -0.032   1.086   0.445  0.00  0.00     0.003 A 
ATOM      8  C6  PXY d   1      -0.403   1.697  -0.749  0.00  0.00     0.003 A 
ENDROOT
TORSDOF 0
ENDMDL
