MODEL 1
REMARK minimizedAffinity -2.20160127
REMARK minimizedRMSD -1
REMARK  0 active torsions:
REMARK  status: ('A' for Active; 'I' for Inactive)
ROOT
ATOM      1  C4' PXY d   1      -0.840   1.639  -1.632  0.00  0.00     0.077 C 
ATOM      2  C1' PXY d   1       0.549  -1.987   2.649  0.00  0.00     0.077 C 
ATOM      3  C1  PXY d   1       0.196  -1.039   1.520  0.00  0.00    -0.082 A 
ATOM      4  C2  PXY d   1      -0.678  -0.069   1.731  0.00  0.00     0.003 A 
ATOM      5  C3  PXY d   1      -1.033   0.778   0.712  0.00  0.00     0.003 A 
ATOM      6  C4  PXY d   1      -0.446   0.664  -0.520  0.00  0.00    -0.082 A 
ATOM      7  C5  PXY d   1       0.455  -0.317  -0.739  0.00  0.00     0.003 A 
ATOM      8  C6  PXY d   1       0.770  -1.192   0.296  0.00  0.00     0.003 A 
ENDROOT
TORSDOF 0
ENDMDL
