MODEL 1
REMARK minimizedAffinity 0.0540934913
REMARK minimizedRMSD -1
REMARK  0 active torsions:
REMARK  status: ('A' for Active; 'I' for Inactive)
ROOT
ATOM      1  C4' PXY d   1       2.461  -1.931  -0.081  0.00  0.00     0.077 C 
ATOM      2  C1' PXY d   1      -2.044   0.832   2.262  0.00  0.00     0.077 C 
ATOM      3  C1  PXY d   1      -0.858   0.106   1.659  0.00  0.00    -0.082 A 
ATOM      4  C2  PXY d   1      -0.510   0.348   0.406  0.00  0.00     0.003 A 
ATOM      5  C3  PXY d   1       0.540  -0.324  -0.165  0.00  0.00     0.003 A 
ATOM      6  C4  PXY d   1       1.276  -1.214   0.572  0.00  0.00    -0.082 A 
ATOM      7  C5  PXY d   1       0.934  -1.458   1.855  0.00  0.00     0.003 A 
ATOM      8  C6  PXY d   1      -0.161  -0.796   2.403  0.00  0.00     0.003 A 
ENDROOT
TORSDOF 0
ENDMDL
