MODEL 1
REMARK minimizedAffinity 8.52221203
REMARK minimizedRMSD -1
REMARK  0 active torsions:
REMARK  status: ('A' for Active; 'I' for Inactive)
ROOT
ATOM      1  C   UNL d   1       2.386  -4.632   1.740  0.00  0.00    -0.002 A 
ATOM      2  C1  UNL d   1       2.192  -3.334   2.191  0.00  0.00     0.010 A 
ATOM      3  C2  UNL d   1       2.619  -2.953   3.464  0.00  0.00     0.041 A 
ATOM      4  C3  UNL d   1       3.254  -3.907   4.284  0.00  0.00    -0.075 A 
ATOM      5  S   UNL d   1       3.861  -3.667   5.880  0.00  0.00     0.015 SA
ATOM      6  C4  UNL d   1       4.394  -5.281   6.000  0.00  0.00     0.022 A 
ATOM      7  C5  UNL d   1       4.123  -6.000   4.860  0.00  0.00     0.026 A 
ATOM      8  C6  UNL d   1       3.462  -5.220   3.852  0.00  0.00    -0.082 A 
ATOM      9  C7  UNL d   1       3.016  -5.575   2.556  0.00  0.00     0.045 A 
ENDROOT
TORSDOF 0
ENDMDL
