MODEL 1
REMARK minimizedAffinity -2.00362277
REMARK minimizedRMSD -1
REMARK  0 active torsions:
REMARK  status: ('A' for Active; 'I' for Inactive)
ROOT
ATOM      1  C   UNL d   1       1.051   1.192  -4.320  0.00  0.00    -0.002 A 
ATOM      2  C1  UNL d   1      -0.309   0.917  -4.334  0.00  0.00     0.010 A 
ATOM      3  C2  UNL d   1      -0.876   0.089  -3.364  0.00  0.00     0.041 A 
ATOM      4  C3  UNL d   1      -0.045  -0.462  -2.368  0.00  0.00    -0.075 A 
ATOM      5  S   UNL d   1      -0.519  -1.503  -1.078  0.00  0.00     0.015 SA
ATOM      6  C4  UNL d   1       1.072  -1.606  -0.477  0.00  0.00     0.022 A 
ATOM      7  C5  UNL d   1       1.956  -0.871  -1.231  0.00  0.00     0.026 A 
ATOM      8  C6  UNL d   1       1.327  -0.199  -2.333  0.00  0.00    -0.082 A 
ATOM      9  C7  UNL d   1       1.872   0.644  -3.331  0.00  0.00     0.045 A 
ENDROOT
TORSDOF 0
ENDMDL
