MODEL 1
REMARK minimizedAffinity 5.39538193
REMARK minimizedRMSD -1
REMARK  0 active torsions:
REMARK  status: ('A' for Active; 'I' for Inactive)
ROOT
ATOM      1  C   UNL d   1      -1.142  -0.689  -5.997  0.00  0.00    -0.002 A 
ATOM      2  C1  UNL d   1      -1.738  -1.053  -4.798  0.00  0.00     0.010 A 
ATOM      3  C2  UNL d   1      -1.167  -0.682  -3.579  0.00  0.00     0.041 A 
ATOM      4  C3  UNL d   1       0.024   0.070  -3.586  0.00  0.00    -0.075 A 
ATOM      5  S   UNL d   1       0.902   0.638  -2.215  0.00  0.00     0.015 SA
ATOM      6  C4  UNL d   1       2.089   1.378  -3.189  0.00  0.00     0.022 A 
ATOM      7  C5  UNL d   1       1.837   1.206  -4.529  0.00  0.00     0.026 A 
ATOM      8  C6  UNL d   1       0.643   0.450  -4.780  0.00  0.00    -0.082 A 
ATOM      9  C7  UNL d   1       0.040   0.057  -6.000  0.00  0.00     0.045 A 
ENDROOT
TORSDOF 0
ENDMDL
