MODEL 1
REMARK minimizedAffinity -1.35793722
REMARK minimizedRMSD -1
REMARK  0 active torsions:
REMARK  status: ('A' for Active; 'I' for Inactive)
ROOT
ATOM      1  C   UNL d   1       0.217   0.652   1.260  0.00  0.00    -0.002 A 
ATOM      2  C1  UNL d   1       1.148  -0.374   1.186  0.00  0.00     0.010 A 
ATOM      3  C2  UNL d   1       1.642  -0.797  -0.049  0.00  0.00     0.041 A 
ATOM      4  C3  UNL d   1       1.182  -0.165  -1.220  0.00  0.00    -0.075 A 
ATOM      5  S   UNL d   1       1.647  -0.515  -2.843  0.00  0.00     0.015 SA
ATOM      6  C4  UNL d   1       0.621   0.690  -3.476  0.00  0.00     0.022 A 
ATOM      7  C5  UNL d   1      -0.067   1.353  -2.488  0.00  0.00     0.026 A 
ATOM      8  C6  UNL d   1       0.245   0.872  -1.172  0.00  0.00    -0.082 A 
ATOM      9  C7  UNL d   1      -0.238   1.278   0.096  0.00  0.00     0.045 A 
ENDROOT
TORSDOF 0
ENDMDL
