MODEL 1
REMARK minimizedAffinity 0.0350851379
REMARK minimizedRMSD -1
REMARK  0 active torsions:
REMARK  status: ('A' for Active; 'I' for Inactive)
ROOT
ATOM      1  C   UNL d   1      -1.105   1.373   3.280  0.00  0.00    -0.002 A 
ATOM      2  C1  UNL d   1      -2.067   0.560   2.698  0.00  0.00     0.010 A 
ATOM      3  C2  UNL d   1      -1.801  -0.109   1.501  0.00  0.00     0.041 A 
ATOM      4  C3  UNL d   1      -0.539   0.053   0.896  0.00  0.00    -0.075 A 
ATOM      5  S   UNL d   1       0.011  -0.669  -0.570  0.00  0.00     0.015 SA
ATOM      6  C4  UNL d   1       1.535   0.085  -0.457  0.00  0.00     0.022 A 
ATOM      7  C5  UNL d   1       1.639   0.872   0.666  0.00  0.00     0.026 A 
ATOM      8  C6  UNL d   1       0.446   0.866   1.464  0.00  0.00    -0.082 A 
ATOM      9  C7  UNL d   1       0.145   1.532   2.677  0.00  0.00     0.045 A 
ENDROOT
TORSDOF 0
ENDMDL
