MODEL 1
REMARK minimizedAffinity 1.44604361
REMARK minimizedRMSD -1
REMARK  0 active torsions:
REMARK  status: ('A' for Active; 'I' for Inactive)
ROOT
ATOM      1  C   UNL d   1       0.015   0.134   1.240  0.00  0.00    -0.002 A 
ATOM      2  C1  UNL d   1       1.299  -0.387   1.164  0.00  0.00     0.010 A 
ATOM      3  C2  UNL d   1       1.999  -0.376  -0.044  0.00  0.00     0.041 A 
ATOM      4  C3  UNL d   1       1.383   0.176  -1.184  0.00  0.00    -0.075 A 
ATOM      5  S   UNL d   1       2.049   0.299  -2.769  0.00  0.00     0.015 SA
ATOM      6  C4  UNL d   1       0.646   1.047  -3.382  0.00  0.00     0.022 A 
ATOM      7  C5  UNL d   1      -0.317   1.207  -2.415  0.00  0.00     0.026 A 
ATOM      8  C6  UNL d   1       0.091   0.708  -1.132  0.00  0.00    -0.082 A 
ATOM      9  C7  UNL d   1      -0.593   0.680   0.107  0.00  0.00     0.045 A 
ENDROOT
TORSDOF 0
ENDMDL
