MODEL 1
REMARK minimizedAffinity -5.13384295
REMARK minimizedRMSD -1
REMARK  1 active torsions:
REMARK  status: ('A' for Active; 'I' for Inactive)
REMARK    1  A    between atoms: C1_2  and  C2_3 
ROOT
ATOM      1  C2  UNL d   1      -0.828   0.731  -1.661  0.00  0.00    -0.081 A 
ATOM      2  C3  UNL d   1      -0.911   0.749  -0.263  0.00  0.00     0.006 A 
ATOM      3  C4  UNL d   1       0.042   0.083   0.512  0.00  0.00     0.002 A 
ATOM      4  C5  UNL d   1       1.098  -0.604  -0.097  0.00  0.00    -0.080 A 
ATOM      5  C6  UNL d   1       2.145  -1.297   0.723  0.00  0.00     0.076 C 
ATOM      6  C7  UNL d   1       1.171  -0.637  -1.494  0.00  0.00     0.002 A 
ATOM      7  C8  UNL d   1       0.218   0.028  -2.269  0.00  0.00     0.006 A 
ENDROOT
BRANCH   1   8
ATOM      8  C1  UNL d   1      -1.817   1.501  -2.497  0.00  0.00     0.054 C 
ATOM      9  C   UNL d   1      -3.146   0.767  -2.598  0.00  0.00     0.018 C 
ENDBRANCH   1   8
TORSDOF 1
ENDMDL
