MODEL 1
REMARK minimizedAffinity -5.75958443
REMARK minimizedRMSD -1
REMARK  1 active torsions:
REMARK  status: ('A' for Active; 'I' for Inactive)
REMARK    1  A    between atoms: C1_2  and  C2_3 
ROOT
ATOM      1  C2  UNL d   1       0.680  -0.263  -0.866  0.00  0.00    -0.081 A 
ATOM      2  C3  UNL d   1      -0.022   0.605  -0.021  0.00  0.00     0.006 A 
ATOM      3  C4  UNL d   1      -1.246   1.147  -0.420  0.00  0.00     0.002 A 
ATOM      4  C5  UNL d   1      -1.792   0.825  -1.667  0.00  0.00    -0.080 A 
ATOM      5  C6  UNL d   1      -3.119   1.376  -2.096  0.00  0.00     0.076 C 
ATOM      6  C7  UNL d   1      -1.083  -0.029  -2.519  0.00  0.00     0.002 A 
ATOM      7  C8  UNL d   1       0.141  -0.571  -2.120  0.00  0.00     0.006 A 
ENDROOT
BRANCH   1   8
ATOM      8  C1  UNL d   1       1.968  -0.900  -0.411  0.00  0.00     0.054 C 
ATOM      9  C   UNL d   1       1.841  -1.461   0.998  0.00  0.00     0.018 C 
ENDBRANCH   1   8
TORSDOF 1
ENDMDL
