MODEL 1
REMARK minimizedAffinity 3.72341895
REMARK minimizedRMSD -1
REMARK  1 active torsions:
REMARK  status: ('A' for Active; 'I' for Inactive)
REMARK    1  A    between atoms: C1_2  and  C2_3 
ROOT
ATOM      1  C2  UNL d   1      -1.106   3.549  -2.198  0.00  0.00    -0.081 A 
ATOM      2  C3  UNL d   1      -1.836   2.968  -3.242  0.00  0.00     0.006 A 
ATOM      3  C4  UNL d   1      -2.244   1.634  -3.164  0.00  0.00     0.002 A 
ATOM      4  C5  UNL d   1      -1.936   0.862  -2.039  0.00  0.00    -0.080 A 
ATOM      5  C6  UNL d   1      -2.394  -0.562  -1.929  0.00  0.00     0.076 C 
ATOM      6  C7  UNL d   1      -1.191   1.437  -1.003  0.00  0.00     0.002 A 
ATOM      7  C8  UNL d   1      -0.783   2.770  -1.081  0.00  0.00     0.006 A 
ENDROOT
BRANCH   1   8
ATOM      8  C1  UNL d   1      -0.720   5.005  -2.250  0.00  0.00     0.054 C 
ATOM      9  C   UNL d   1      -1.452   5.810  -1.185  0.00  0.00     0.018 C 
ENDBRANCH   1   8
TORSDOF 1
ENDMDL
