MODEL 1
REMARK minimizedAffinity 7.3740201
REMARK minimizedRMSD -1
REMARK  1 active torsions:
REMARK  status: ('A' for Active; 'I' for Inactive)
REMARK    1  A    between atoms: C1_2  and  C2_3 
ROOT
ATOM      1  C2  UNL d   1      -1.887   5.019  -2.645  0.00  0.00    -0.081 A 
ATOM      2  C3  UNL d   1      -1.797   3.667  -2.996  0.00  0.00     0.006 A 
ATOM      3  C4  UNL d   1      -2.805   2.771  -2.631  0.00  0.00     0.002 A 
ATOM      4  C5  UNL d   1      -3.923   3.215  -1.917  0.00  0.00    -0.080 A 
ATOM      5  C6  UNL d   1      -5.028   2.270  -1.546  0.00  0.00     0.076 C 
ATOM      6  C7  UNL d   1      -4.005   4.562  -1.551  0.00  0.00     0.002 A 
ATOM      7  C8  UNL d   1      -2.997   5.458  -1.914  0.00  0.00     0.006 A 
ENDROOT
BRANCH   1   8
ATOM      8  C1  UNL d   1      -0.832   5.999  -3.092  0.00  0.00     0.054 C 
ATOM      9  C   UNL d   1       0.360   6.000  -2.146  0.00  0.00     0.018 C 
ENDBRANCH   1   8
TORSDOF 1
ENDMDL
