MODEL 1
REMARK minimizedAffinity -4.18830109
REMARK minimizedRMSD -1
REMARK  1 active torsions:
REMARK  status: ('A' for Active; 'I' for Inactive)
REMARK    1  A    between atoms: C1_2  and  C2_3 
ROOT
ATOM      1  C2  UNL d   1      -1.266   0.760  -1.619  0.00  0.00    -0.081 A 
ATOM      2  C3  UNL d   1      -0.679  -0.407  -2.121  0.00  0.00     0.006 A 
ATOM      3  C4  UNL d   1       0.233  -1.131  -1.348  0.00  0.00     0.002 A 
ATOM      4  C5  UNL d   1       0.565  -0.704  -0.058  0.00  0.00    -0.080 A 
ATOM      5  C6  UNL d   1       1.519  -1.488   0.794  0.00  0.00     0.076 C 
ATOM      6  C7  UNL d   1      -0.008   0.472   0.437  0.00  0.00     0.002 A 
ATOM      7  C8  UNL d   1      -0.919   1.196  -0.335  0.00  0.00     0.006 A 
ENDROOT
BRANCH   1   8
ATOM      8  C1  UNL d   1      -2.298   1.507  -2.425  0.00  0.00     0.054 C 
ATOM      9  C   UNL d   1      -1.930   1.539  -3.901  0.00  0.00     0.018 C 
ENDBRANCH   1   8
TORSDOF 1
ENDMDL
