MODEL 1
REMARK minimizedAffinity -3.16837597
REMARK minimizedRMSD -1
REMARK  1 active torsions:
REMARK  status: ('A' for Active; 'I' for Inactive)
REMARK    1  A    between atoms: C1_2  and  C2_3 
ROOT
ATOM      1  C2  UNL d   1      -4.353  -5.939   0.154  0.00  0.00    -0.081 A 
ATOM      2  C3  UNL d   1      -5.197  -5.993  -0.962  0.00  0.00     0.006 A 
ATOM      3  C4  UNL d   1      -4.664  -5.999  -2.253  0.00  0.00     0.002 A 
ATOM      4  C5  UNL d   1      -3.280  -5.959  -2.450  0.00  0.00    -0.080 A 
ATOM      5  C6  UNL d   1      -2.694  -5.995  -3.830  0.00  0.00     0.076 C 
ATOM      6  C7  UNL d   1      -2.437  -5.887  -1.335  0.00  0.00     0.002 A 
ATOM      7  C8  UNL d   1      -2.970  -5.880  -0.044  0.00  0.00     0.006 A 
ENDROOT
BRANCH   1   8
ATOM      8  C1  UNL d   1      -4.922  -5.997   1.549  0.00  0.00     0.054 C 
ATOM      9  C   UNL d   1      -3.887  -5.587   2.586  0.00  0.00     0.018 C 
ENDBRANCH   1   8
TORSDOF 1
ENDMDL
