MODEL 1
REMARK minimizedAffinity -4.0211277
REMARK minimizedRMSD -1
REMARK  1 active torsions:
REMARK  status: ('A' for Active; 'I' for Inactive)
REMARK    1  A    between atoms: C1_2  and  C2_3 
ROOT
ATOM      1  C2  UNL d   1      -0.835   1.052  -1.485  0.00  0.00    -0.081 A 
ATOM      2  C3  UNL d   1      -0.213   1.421  -0.286  0.00  0.00     0.006 A 
ATOM      3  C4  UNL d   1       0.889   0.706   0.188  0.00  0.00     0.002 A 
ATOM      4  C5  UNL d   1       1.392  -0.384  -0.531  0.00  0.00    -0.080 A 
ATOM      5  C6  UNL d   1       2.593  -1.141  -0.047  0.00  0.00     0.076 C 
ATOM      6  C7  UNL d   1       0.759  -0.763  -1.719  0.00  0.00     0.002 A 
ATOM      7  C8  UNL d   1      -0.343  -0.050  -2.194  0.00  0.00     0.006 A 
ENDROOT
BRANCH   1   8
ATOM      8  C1  UNL d   1      -1.984   1.860  -2.033  0.00  0.00     0.054 C 
ATOM      9  C   UNL d   1      -2.296   1.474  -3.472  0.00  0.00     0.018 C 
ENDBRANCH   1   8
TORSDOF 1
ENDMDL
