MODEL 1
REMARK minimizedAffinity -5.45997763
REMARK minimizedRMSD -1
REMARK  1 active torsions:
REMARK  status: ('A' for Active; 'I' for Inactive)
REMARK    1  A    between atoms: C1_2  and  C2_3 
ROOT
ATOM      1  C2  UNL d   1       1.072  -0.145  -0.764  0.00  0.00    -0.081 A 
ATOM      2  C3  UNL d   1       0.782  -0.807  -1.964  0.00  0.00     0.006 A 
ATOM      3  C4  UNL d   1      -0.367  -0.485  -2.690  0.00  0.00     0.002 A 
ATOM      4  C5  UNL d   1      -1.240   0.508  -2.234  0.00  0.00    -0.080 A 
ATOM      5  C6  UNL d   1      -2.461   0.884  -3.020  0.00  0.00     0.076 C 
ATOM      6  C7  UNL d   1      -0.960   1.157  -1.027  0.00  0.00     0.002 A 
ATOM      7  C8  UNL d   1       0.188   0.835  -0.300  0.00  0.00     0.006 A 
ENDROOT
BRANCH   1   8
ATOM      8  C1  UNL d   1       2.343  -0.444  -0.012  0.00  0.00     0.054 C 
ATOM      9  C   UNL d   1       2.153  -1.603   0.958  0.00  0.00     0.018 C 
ENDBRANCH   1   8
TORSDOF 1
ENDMDL
