MODEL 1
REMARK minimizedAffinity -2.43563461
REMARK minimizedRMSD -1
REMARK  1 active torsions:
REMARK  status: ('A' for Active; 'I' for Inactive)
REMARK    1  A    between atoms: C1_2  and  C2_3 
ROOT
ATOM      1  C2  UNL d   1      -0.470   0.543  -1.795  0.00  0.00    -0.081 A 
ATOM      2  C3  UNL d   1      -0.436   0.863  -0.432  0.00  0.00     0.006 A 
ATOM      3  C4  UNL d   1       0.551   0.325   0.397  0.00  0.00     0.002 A 
ATOM      4  C5  UNL d   1       1.524  -0.535  -0.124  0.00  0.00    -0.080 A 
ATOM      5  C6  UNL d   1       2.607  -1.096   0.749  0.00  0.00     0.076 C 
ATOM      6  C7  UNL d   1       1.479  -0.869  -1.482  0.00  0.00     0.002 A 
ATOM      7  C8  UNL d   1       0.492  -0.332  -2.311  0.00  0.00     0.006 A 
ENDROOT
BRANCH   1   8
ATOM      8  C1  UNL d   1      -1.495   1.173  -2.704  0.00  0.00     0.054 C 
ATOM      9  C   UNL d   1      -1.546   2.682  -2.518  0.00  0.00     0.018 C 
ENDBRANCH   1   8
TORSDOF 1
ENDMDL
