MODEL 1
REMARK minimizedAffinity -1.78182411
REMARK minimizedRMSD -1
REMARK  1 active torsions:
REMARK  status: ('A' for Active; 'I' for Inactive)
REMARK    1  A    between atoms: C1_2  and  C2_3 
ROOT
ATOM      1  C2  UNL d   1      -1.286   1.330  -1.466  0.00  0.00    -0.081 A 
ATOM      2  C3  UNL d   1      -1.189   1.030  -0.101  0.00  0.00     0.006 A 
ATOM      3  C4  UNL d   1      -0.151   0.226   0.375  0.00  0.00     0.002 A 
ATOM      4  C5  UNL d   1       0.811  -0.285  -0.502  0.00  0.00    -0.080 A 
ATOM      5  C6  UNL d   1       1.947  -1.125   0.000  0.00  0.00     0.076 C 
ATOM      6  C7  UNL d   1       0.704  -0.000  -1.868  0.00  0.00     0.002 A 
ATOM      7  C8  UNL d   1      -0.334   0.804  -2.345  0.00  0.00     0.006 A 
ENDROOT
BRANCH   1   8
ATOM      8  C1  UNL d   1      -2.367   2.250  -1.973  0.00  0.00     0.054 C 
ATOM      9  C   UNL d   1      -3.372   1.500  -2.836  0.00  0.00     0.018 C 
ENDBRANCH   1   8
TORSDOF 1
ENDMDL
