MODEL 1
REMARK minimizedAffinity 8.02497196
REMARK minimizedRMSD -1
REMARK  1 active torsions:
REMARK  status: ('A' for Active; 'I' for Inactive)
REMARK    1  A    between atoms: C1_2  and  C2_3 
ROOT
ATOM      1  C2  UNL d   1      -1.735   2.151  -1.475  0.00  0.00    -0.081 A 
ATOM      2  C3  UNL d   1      -0.836   2.376  -0.426  0.00  0.00     0.006 A 
ATOM      3  C4  UNL d   1      -1.013   1.742   0.806  0.00  0.00     0.002 A 
ATOM      4  C5  UNL d   1      -2.085   0.866   1.006  0.00  0.00    -0.080 A 
ATOM      5  C6  UNL d   1      -2.269   0.155   2.314  0.00  0.00     0.076 C 
ATOM      6  C7  UNL d   1      -2.993   0.655  -0.037  0.00  0.00     0.002 A 
ATOM      7  C8  UNL d   1      -2.818   1.290  -1.268  0.00  0.00     0.006 A 
ENDROOT
BRANCH   1   8
ATOM      8  C1  UNL d   1      -1.511   2.784  -2.825  0.00  0.00     0.054 C 
ATOM      9  C   UNL d   1      -0.033   3.047  -3.074  0.00  0.00     0.018 C 
ENDBRANCH   1   8
TORSDOF 1
ENDMDL
