MODEL 1
REMARK minimizedAffinity 2.35024095
REMARK minimizedRMSD -1
REMARK  1 active torsions:
REMARK  status: ('A' for Active; 'I' for Inactive)
REMARK    1  A    between atoms: C1_2  and  C2_3 
ROOT
ATOM      1  C2  UNL d   1       1.254  -3.902   4.519  0.00  0.00    -0.073 A 
ATOM      2  C3  UNL d   1       2.444  -4.488   4.073  0.00  0.00    -0.002 A 
ATOM      3  C4  UNL d   1       3.303  -3.783   3.229  0.00  0.00     0.004 A 
ATOM      4  C5  UNL d   1       2.986  -2.485   2.829  0.00  0.00    -0.004 A 
ATOM      5  C6  UNL d   1       1.807  -1.878   3.273  0.00  0.00    -0.075 A 
ATOM      6  C7  UNL d   1       1.451  -0.484   2.850  0.00  0.00     0.076 C 
ATOM      7  C8  UNL d   1       0.948  -2.593   4.118  0.00  0.00     0.001 A 
ENDROOT
BRANCH   1   8
ATOM      8  C1  UNL d   1       0.325  -4.657   5.435  0.00  0.00     0.053 C 
ATOM      9  C   UNL d   1       0.976  -5.910   5.998  0.00  0.00     0.018 C 
ENDBRANCH   1   8
TORSDOF 1
ENDMDL
