MODEL 1
REMARK minimizedAffinity 0.99066335
REMARK minimizedRMSD -1
REMARK  1 active torsions:
REMARK  status: ('A' for Active; 'I' for Inactive)
REMARK    1  A    between atoms: C1_2  and  C2_3 
ROOT
ATOM      1  C2  UNL d   1       1.344  -3.482   4.338  0.00  0.00    -0.073 A 
ATOM      2  C3  UNL d   1       2.320  -4.230   3.669  0.00  0.00    -0.002 A 
ATOM      3  C4  UNL d   1       3.053  -3.661   2.626  0.00  0.00     0.004 A 
ATOM      4  C5  UNL d   1       2.823  -2.339   2.247  0.00  0.00    -0.004 A 
ATOM      5  C6  UNL d   1       1.860  -1.571   2.911  0.00  0.00    -0.075 A 
ATOM      6  C7  UNL d   1       1.599  -0.148   2.513  0.00  0.00     0.076 C 
ATOM      7  C8  UNL d   1       1.127  -2.151   3.955  0.00  0.00     0.001 A 
ENDROOT
BRANCH   1   8
ATOM      8  C1  UNL d   1       0.555  -4.090   5.468  0.00  0.00     0.053 C 
ATOM      9  C   UNL d   1       1.132  -5.425   5.913  0.00  0.00     0.018 C 
ENDBRANCH   1   8
TORSDOF 1
ENDMDL
