MODEL 1
REMARK minimizedAffinity 2.93996334
REMARK minimizedRMSD -1
REMARK  1 active torsions:
REMARK  status: ('A' for Active; 'I' for Inactive)
REMARK    1  A    between atoms: C1_2  and  C2_3 
ROOT
ATOM      1  C2  UNL d   1       2.357  -0.937   2.759  0.00  0.00    -0.073 A 
ATOM      2  C3  UNL d   1       2.062  -0.770   4.117  0.00  0.00    -0.002 A 
ATOM      3  C4  UNL d   1       1.832  -1.880   4.931  0.00  0.00     0.004 A 
ATOM      4  C5  UNL d   1       1.900  -3.167   4.397  0.00  0.00    -0.004 A 
ATOM      5  C6  UNL d   1       2.205  -3.355   3.045  0.00  0.00    -0.075 A 
ATOM      6  C7  UNL d   1       2.280  -4.733   2.456  0.00  0.00     0.076 C 
ATOM      7  C8  UNL d   1       2.432  -2.235   2.234  0.00  0.00     0.001 A 
ENDROOT
BRANCH   1   8
ATOM      8  C1  UNL d   1       2.613   0.258   1.878  0.00  0.00     0.053 C 
ATOM      9  C   UNL d   1       3.752   0.013   0.901  0.00  0.00     0.018 C 
ENDBRANCH   1   8
TORSDOF 1
ENDMDL
