MODEL 1
REMARK minimizedAffinity 14.1285791
REMARK minimizedRMSD -1
REMARK  1 active torsions:
REMARK  status: ('A' for Active; 'I' for Inactive)
REMARK    1  A    between atoms: C1_2  and  C2_3 
ROOT
ATOM      1  C2  UNL d   1       2.434  -1.909   3.069  0.00  0.00    -0.073 A 
ATOM      2  C3  UNL d   1       1.765  -3.127   3.237  0.00  0.00    -0.002 A 
ATOM      3  C4  UNL d   1       2.436  -4.233   3.760  0.00  0.00     0.004 A 
ATOM      4  C5  UNL d   1       3.778  -4.131   4.126  0.00  0.00    -0.004 A 
ATOM      5  C6  UNL d   1       4.460  -2.919   3.977  0.00  0.00    -0.075 A 
ATOM      6  C7  UNL d   1       5.905  -2.794   4.365  0.00  0.00     0.076 C 
ATOM      7  C8  UNL d   1       3.780  -1.814   3.449  0.00  0.00     0.001 A 
ENDROOT
BRANCH   1   8
ATOM      8  C1  UNL d   1       1.712  -0.710   2.511  0.00  0.00     0.053 C 
ATOM      9  C   UNL d   1       2.512  -0.020   1.418  0.00  0.00     0.018 C 
ENDBRANCH   1   8
TORSDOF 1
ENDMDL
