MODEL 1
REMARK minimizedAffinity 6.29729939
REMARK minimizedRMSD -1
REMARK  1 active torsions:
REMARK  status: ('A' for Active; 'I' for Inactive)
REMARK    1  A    between atoms: C1_2  and  C2_3 
ROOT
ATOM      1  C2  UNL d   1       1.890  -3.219   3.724  0.00  0.00    -0.073 A 
ATOM      2  C3  UNL d   1       3.148  -3.019   4.304  0.00  0.00    -0.002 A 
ATOM      3  C4  UNL d   1       3.527  -3.748   5.432  0.00  0.00     0.004 A 
ATOM      4  C5  UNL d   1       2.657  -4.687   5.986  0.00  0.00    -0.004 A 
ATOM      5  C6  UNL d   1       1.401  -4.909   5.414  0.00  0.00    -0.075 A 
ATOM      6  C7  UNL d   1       0.453  -5.914   5.999  0.00  0.00     0.076 C 
ATOM      7  C8  UNL d   1       1.026  -4.172   4.283  0.00  0.00     0.001 A 
ENDROOT
BRANCH   1   8
ATOM      8  C1  UNL d   1       1.478  -2.439   2.502  0.00  0.00     0.053 C 
ATOM      9  C   UNL d   1       2.190  -1.098   2.415  0.00  0.00     0.018 C 
ENDBRANCH   1   8
TORSDOF 1
ENDMDL
