MODEL 1
REMARK minimizedAffinity -1.28502107
REMARK minimizedRMSD -1
REMARK  1 active torsions:
REMARK  status: ('A' for Active; 'I' for Inactive)
REMARK    1  A    between atoms: C1_2  and  C2_3 
ROOT
ATOM      1  C2  UNL d   1       1.694  -3.723   4.660  0.00  0.00    -0.073 A 
ATOM      2  C3  UNL d   1       2.552  -4.524   3.897  0.00  0.00    -0.002 A 
ATOM      3  C4  UNL d   1       3.096  -4.040   2.707  0.00  0.00     0.004 A 
ATOM      4  C5  UNL d   1       2.794  -2.750   2.270  0.00  0.00    -0.004 A 
ATOM      5  C6  UNL d   1       1.948  -1.930   3.024  0.00  0.00    -0.075 A 
ATOM      6  C7  UNL d   1       1.611  -0.541   2.567  0.00  0.00     0.076 C 
ATOM      7  C8  UNL d   1       1.403  -2.424   4.217  0.00  0.00     0.001 A 
ENDROOT
BRANCH   1   8
ATOM      8  C1  UNL d   1       1.109  -4.239   5.949  0.00  0.00     0.053 C 
ATOM      9  C   UNL d   1       1.093  -5.758   6.000  0.00  0.00     0.018 C 
ENDBRANCH   1   8
TORSDOF 1
ENDMDL
