MODEL 1
REMARK minimizedAffinity -4.54018641
REMARK minimizedRMSD -1
REMARK  1 active torsions:
REMARK  status: ('A' for Active; 'I' for Inactive)
REMARK    1  A    between atoms: C1_2  and  C2_3 
ROOT
ATOM      1  C2  UNL d   1       0.409  -0.451  -0.700  0.00  0.00    -0.073 A 
ATOM      2  C3  UNL d   1       1.007   0.626  -1.363  0.00  0.00    -0.002 A 
ATOM      3  C4  UNL d   1       0.576   1.931  -1.121  0.00  0.00     0.004 A 
ATOM      4  C5  UNL d   1      -0.452   2.173  -0.209  0.00  0.00    -0.004 A 
ATOM      5  C6  UNL d   1      -1.054   1.111   0.473  0.00  0.00    -0.075 A 
ATOM      6  C7  UNL d   1      -2.162   1.354   1.455  0.00  0.00     0.076 C 
ATOM      7  C8  UNL d   1      -0.617  -0.197   0.222  0.00  0.00     0.001 A 
ENDROOT
BRANCH   1   8
ATOM      8  C1  UNL d   1       0.875  -1.861  -0.953  0.00  0.00     0.053 C 
ATOM      9  C   UNL d   1       0.295  -2.431  -2.238  0.00  0.00     0.018 C 
ENDBRANCH   1   8
TORSDOF 1
ENDMDL
