MODEL 1
REMARK minimizedAffinity -2.26208639
REMARK minimizedRMSD -1
REMARK  1 active torsions:
REMARK  status: ('A' for Active; 'I' for Inactive)
REMARK    1  A    between atoms: C1_2  and  C2_3 
ROOT
ATOM      1  C2  UNL d   1      -0.221  -1.139  -1.150  0.00  0.00    -0.073 A 
ATOM      2  C3  UNL d   1       0.465  -1.494   0.018  0.00  0.00    -0.002 A 
ATOM      3  C4  UNL d   1       0.530  -0.607   1.093  0.00  0.00     0.004 A 
ATOM      4  C5  UNL d   1      -0.094   0.638   1.015  0.00  0.00    -0.004 A 
ATOM      5  C6  UNL d   1      -0.794   1.006  -0.139  0.00  0.00    -0.075 A 
ATOM      6  C7  UNL d   1      -1.468   2.342  -0.239  0.00  0.00     0.076 C 
ATOM      7  C8  UNL d   1      -0.852   0.111  -1.215  0.00  0.00     0.001 A 
ENDROOT
BRANCH   1   8
ATOM      8  C1  UNL d   1      -0.299  -2.096  -2.311  0.00  0.00     0.053 C 
ATOM      9  C   UNL d   1      -0.316  -3.547  -1.855  0.00  0.00     0.018 C 
ENDBRANCH   1   8
TORSDOF 1
ENDMDL
