MODEL 1
REMARK minimizedAffinity -1.0594914
REMARK minimizedRMSD -1
REMARK  1 active torsions:
REMARK  status: ('A' for Active; 'I' for Inactive)
REMARK    1  A    between atoms: C1_2  and  C2_3 
ROOT
ATOM      1  C2  UNL d   1       0.909  -0.836  -0.872  0.00  0.00    -0.073 A 
ATOM      2  C3  UNL d   1       0.793  -1.372   0.416  0.00  0.00    -0.002 A 
ATOM      3  C4  UNL d   1       0.026  -0.722   1.384  0.00  0.00     0.004 A 
ATOM      4  C5  UNL d   1      -0.638   0.465   1.073  0.00  0.00    -0.004 A 
ATOM      5  C6  UNL d   1      -0.544   1.010  -0.212  0.00  0.00    -0.075 A 
ATOM      6  C7  UNL d   1      -1.250   2.287  -0.562  0.00  0.00     0.076 C 
ATOM      7  C8  UNL d   1       0.230   0.352  -1.178  0.00  0.00     0.001 A 
ENDROOT
BRANCH   1   8
ATOM      8  C1  UNL d   1       1.730  -1.538  -1.922  0.00  0.00     0.053 C 
ATOM      9  C   UNL d   1       1.555  -3.047  -1.868  0.00  0.00     0.018 C 
ENDBRANCH   1   8
TORSDOF 1
ENDMDL
