MODEL 1
REMARK minimizedAffinity -4.4208436
REMARK minimizedRMSD -1
REMARK  1 active torsions:
REMARK  status: ('A' for Active; 'I' for Inactive)
REMARK    1  A    between atoms: C1_2  and  C2_3 
ROOT
ATOM      1  C2  UNL d   1      -1.016   1.048   0.603  0.00  0.00    -0.073 A 
ATOM      2  C3  UNL d   1      -0.752   2.038  -0.352  0.00  0.00    -0.002 A 
ATOM      3  C4  UNL d   1       0.097   1.771  -1.427  0.00  0.00     0.004 A 
ATOM      4  C5  UNL d   1       0.684   0.513  -1.562  0.00  0.00    -0.004 A 
ATOM      5  C6  UNL d   1       0.423  -0.492  -0.626  0.00  0.00    -0.075 A 
ATOM      6  C7  UNL d   1       1.048  -1.850  -0.756  0.00  0.00     0.076 C 
ATOM      7  C8  UNL d   1      -0.429  -0.216   0.452  0.00  0.00     0.001 A 
ENDROOT
BRANCH   1   8
ATOM      8  C1  UNL d   1      -1.937   1.329   1.762  0.00  0.00     0.053 C 
ATOM      9  C   UNL d   1      -2.355   2.790   1.817  0.00  0.00     0.018 C 
ENDBRANCH   1   8
TORSDOF 1
ENDMDL
