MODEL 1
REMARK minimizedAffinity -1.28285229
REMARK minimizedRMSD -1
REMARK  1 active torsions:
REMARK  status: ('A' for Active; 'I' for Inactive)
REMARK    1  A    between atoms: C1_2  and  C2_3 
ROOT
ATOM      1  C2  UNL d   1      -0.214  -0.760  -0.381  0.00  0.00    -0.073 A 
ATOM      2  C3  UNL d   1       0.682  -0.995   0.668  0.00  0.00    -0.002 A 
ATOM      3  C4  UNL d   1       0.569  -0.285   1.865  0.00  0.00     0.004 A 
ATOM      4  C5  UNL d   1      -0.444   0.660   2.027  0.00  0.00    -0.004 A 
ATOM      5  C6  UNL d   1      -1.356   0.901   0.995  0.00  0.00    -0.075 A 
ATOM      6  C7  UNL d   1      -2.450   1.916   1.153  0.00  0.00     0.076 C 
ATOM      7  C8  UNL d   1      -1.234   0.186  -0.205  0.00  0.00     0.001 A 
ENDROOT
BRANCH   1   8
ATOM      8  C1  UNL d   1      -0.100  -1.528  -1.672  0.00  0.00     0.053 C 
ATOM      9  C   UNL d   1      -0.229  -3.027  -1.456  0.00  0.00     0.018 C 
ENDBRANCH   1   8
TORSDOF 1
ENDMDL
