MODEL 1
REMARK minimizedAffinity -4.71828651
REMARK minimizedRMSD -1
REMARK  1 active torsions:
REMARK  status: ('A' for Active; 'I' for Inactive)
REMARK    1  A    between atoms: C1_2  and  C2_3 
ROOT
ATOM      1  C2  UNL d   1       0.066  -0.045   0.216  0.00  0.00    -0.073 A 
ATOM      2  C3  UNL d   1       0.775   0.405  -0.904  0.00  0.00    -0.002 A 
ATOM      3  C4  UNL d   1       0.517   1.667  -1.440  0.00  0.00     0.004 A 
ATOM      4  C5  UNL d   1      -0.445   2.493  -0.860  0.00  0.00    -0.004 A 
ATOM      5  C6  UNL d   1      -1.155   2.066   0.266  0.00  0.00    -0.075 A 
ATOM      6  C7  UNL d   1      -2.195   2.942   0.901  0.00  0.00     0.076 C 
ATOM      7  C8  UNL d   1      -0.893   0.796   0.798  0.00  0.00     0.001 A 
ENDROOT
BRANCH   1   8
ATOM      8  C1  UNL d   1       0.346  -1.405   0.803  0.00  0.00     0.053 C 
ATOM      9  C   UNL d   1       0.201  -1.413   2.316  0.00  0.00     0.018 C 
ENDBRANCH   1   8
TORSDOF 1
ENDMDL
