MODEL 1
REMARK minimizedAffinity 7.4641757
REMARK minimizedRMSD -1
REMARK  1 active torsions:
REMARK  status: ('A' for Active; 'I' for Inactive)
REMARK    1  A    between atoms: C1_2  and  C2_3 
ROOT
ATOM      1  C2  UNL d   1      -4.293   2.023  -4.401  0.00  0.00    -0.081 A 
ATOM      2  C3  UNL d   1      -3.607   3.118  -3.861  0.00  0.00     0.006 A 
ATOM      3  C4  UNL d   1      -3.795   4.399  -4.383  0.00  0.00     0.002 A 
ATOM      4  C5  UNL d   1      -4.677   4.609  -5.448  0.00  0.00    -0.080 A 
ATOM      5  C6  UNL d   1      -4.910   5.985  -5.998  0.00  0.00     0.076 C 
ATOM      6  C7  UNL d   1      -5.349   3.514  -6.000  0.00  0.00     0.002 A 
ATOM      7  C8  UNL d   1      -5.161   2.232  -5.478  0.00  0.00     0.006 A 
ENDROOT
BRANCH   1   8
ATOM      8  C1  UNL d   1      -4.141   0.650  -3.798  0.00  0.00     0.054 C 
ATOM      9  C   UNL d   1      -2.951  -0.088  -4.394  0.00  0.00     0.018 C 
ENDBRANCH   1   8
TORSDOF 1
ENDMDL
