MODEL 1
REMARK minimizedAffinity 4.45226955
REMARK minimizedRMSD -1
REMARK  1 active torsions:
REMARK  status: ('A' for Active; 'I' for Inactive)
REMARK    1  A    between atoms: C1_2  and  C2_3 
ROOT
ATOM      1  C2  UNL d   1      -3.875   3.081  -4.343  0.00  0.00    -0.081 A 
ATOM      2  C3  UNL d   1      -2.804   3.331  -3.475  0.00  0.00     0.006 A 
ATOM      3  C4  UNL d   1      -1.761   4.175  -3.862  0.00  0.00     0.002 A 
ATOM      4  C5  UNL d   1      -1.774   4.790  -5.119  0.00  0.00    -0.080 A 
ATOM      5  C6  UNL d   1      -0.675   5.722  -5.535  0.00  0.00     0.076 C 
ATOM      6  C7  UNL d   1      -2.835   4.527  -5.992  0.00  0.00     0.002 A 
ATOM      7  C8  UNL d   1      -3.878   3.682  -5.606  0.00  0.00     0.006 A 
ENDROOT
BRANCH   1   8
ATOM      8  C1  UNL d   1      -5.033   2.223  -3.903  0.00  0.00     0.054 C 
ATOM      9  C   UNL d   1      -5.992   3.001  -3.014  0.00  0.00     0.018 C 
ENDBRANCH   1   8
TORSDOF 1
ENDMDL
