MODEL 1
REMARK minimizedAffinity 0.62368387
REMARK minimizedRMSD -1
REMARK  1 active torsions:
REMARK  status: ('A' for Active; 'I' for Inactive)
REMARK    1  A    between atoms: C1_2  and  C2_3 
ROOT
ATOM      1  C2  UNL d   1       0.396  -0.083   2.752  0.00  0.00    -0.081 A 
ATOM      2  C3  UNL d   1       0.002   1.244   2.968  0.00  0.00     0.006 A 
ATOM      3  C4  UNL d   1      -0.031   2.154   1.909  0.00  0.00     0.002 A 
ATOM      4  C5  UNL d   1       0.321   1.751   0.616  0.00  0.00    -0.080 A 
ATOM      5  C6  UNL d   1       0.261   2.710  -0.536  0.00  0.00     0.076 C 
ATOM      6  C7  UNL d   1       0.731   0.431   0.404  0.00  0.00     0.002 A 
ATOM      7  C8  UNL d   1       0.765  -0.479   1.462  0.00  0.00     0.006 A 
ENDROOT
BRANCH   1   8
ATOM      8  C1  UNL d   1       0.371  -1.082   3.880  0.00  0.00     0.054 C 
ATOM      9  C   UNL d   1       1.753  -1.668   4.131  0.00  0.00     0.018 C 
ENDBRANCH   1   8
TORSDOF 1
ENDMDL
