MODEL 1
REMARK minimizedAffinity 10.2185402
REMARK minimizedRMSD -1
REMARK  1 active torsions:
REMARK  status: ('A' for Active; 'I' for Inactive)
REMARK    1  A    between atoms: C1_2  and  C2_3 
ROOT
ATOM      1  C2  UNL d   1       0.880   4.108   1.106  0.00  0.00    -0.081 A 
ATOM      2  C3  UNL d   1       0.972   3.324   2.262  0.00  0.00     0.006 A 
ATOM      3  C4  UNL d   1       0.721   1.950   2.208  0.00  0.00     0.002 A 
ATOM      4  C5  UNL d   1       0.383   1.338   0.997  0.00  0.00    -0.080 A 
ATOM      5  C6  UNL d   1       0.141  -0.141   0.920  0.00  0.00     0.076 C 
ATOM      6  C7  UNL d   1       0.274   2.124  -0.155  0.00  0.00     0.002 A 
ATOM      7  C8  UNL d   1       0.524   3.497  -0.101  0.00  0.00     0.006 A 
ENDROOT
BRANCH   1   8
ATOM      8  C1  UNL d   1       1.213   5.577   1.148  0.00  0.00     0.054 C 
ATOM      9  C   UNL d   1       2.012   5.999  -0.076  0.00  0.00     0.018 C 
ENDBRANCH   1   8
TORSDOF 1
ENDMDL
