MODEL 1
REMARK minimizedAffinity 0.548544526
REMARK minimizedRMSD -1
REMARK  1 active torsions:
REMARK  status: ('A' for Active; 'I' for Inactive)
REMARK    1  A    between atoms: C1_2  and  C2_3 
ROOT
ATOM      1  C2  UNL d   1      -4.851   2.779  -4.757  0.00  0.00    -0.081 A 
ATOM      2  C3  UNL d   1      -4.982   3.807  -5.700  0.00  0.00     0.006 A 
ATOM      3  C4  UNL d   1      -3.898   4.635  -6.000  0.00  0.00     0.002 A 
ATOM      4  C5  UNL d   1      -2.664   4.445  -5.369  0.00  0.00    -0.080 A 
ATOM      5  C6  UNL d   1      -1.483   5.307  -5.705  0.00  0.00     0.076 C 
ATOM      6  C7  UNL d   1      -2.538   3.430  -4.415  0.00  0.00     0.002 A 
ATOM      7  C8  UNL d   1      -3.622   2.602  -4.114  0.00  0.00     0.006 A 
ENDROOT
BRANCH   1   8
ATOM      8  C1  UNL d   1      -6.000   1.844  -4.479  0.00  0.00     0.054 C 
ATOM      9  C   UNL d   1      -5.991   0.658  -5.433  0.00  0.00     0.018 C 
ENDBRANCH   1   8
TORSDOF 1
ENDMDL
