MODEL 1
REMARK minimizedAffinity 1.71291399
REMARK minimizedRMSD -1
REMARK  1 active torsions:
REMARK  status: ('A' for Active; 'I' for Inactive)
REMARK    1  A    between atoms: C1_2  and  C2_3 
ROOT
ATOM      1  C2  UNL d   1      -4.599   3.969  -5.347  0.00  0.00    -0.081 A 
ATOM      2  C3  UNL d   1      -4.623   3.058  -4.284  0.00  0.00     0.006 A 
ATOM      3  C4  UNL d   1      -3.439   2.687  -3.642  0.00  0.00     0.002 A 
ATOM      4  C5  UNL d   1      -2.213   3.226  -4.047  0.00  0.00    -0.080 A 
ATOM      5  C6  UNL d   1      -0.938   2.860  -3.347  0.00  0.00     0.076 C 
ATOM      6  C7  UNL d   1      -2.187   4.123  -5.121  0.00  0.00     0.002 A 
ATOM      7  C8  UNL d   1      -3.370   4.494  -5.763  0.00  0.00     0.006 A 
ENDROOT
BRANCH   1   8
ATOM      8  C1  UNL d   1      -5.881   4.420  -5.999  0.00  0.00     0.054 C 
ATOM      9  C   UNL d   1      -5.999   5.938  -5.996  0.00  0.00     0.018 C 
ENDBRANCH   1   8
TORSDOF 1
ENDMDL
