MODEL 1
REMARK minimizedAffinity -1.2079041
REMARK minimizedRMSD -1
REMARK  1 active torsions:
REMARK  status: ('A' for Active; 'I' for Inactive)
REMARK    1  A    between atoms: C1_2  and  C2_3 
ROOT
ATOM      1  C2  UNL d   1       0.736   0.375   1.314  0.00  0.00    -0.081 A 
ATOM      2  C3  UNL d   1      -0.067   0.175   2.443  0.00  0.00     0.006 A 
ATOM      3  C4  UNL d   1       0.318  -0.731   3.434  0.00  0.00     0.002 A 
ATOM      4  C5  UNL d   1       1.515  -1.445   3.317  0.00  0.00    -0.080 A 
ATOM      5  C6  UNL d   1       1.955  -2.398   4.388  0.00  0.00     0.076 C 
ATOM      6  C7  UNL d   1       2.309  -1.258   2.180  0.00  0.00     0.002 A 
ATOM      7  C8  UNL d   1       1.924  -0.353   1.188  0.00  0.00     0.006 A 
ENDROOT
BRANCH   1   8
ATOM      8  C1  UNL d   1       0.356   1.399   0.274  0.00  0.00     0.054 C 
ATOM      9  C   UNL d   1      -1.110   1.272  -0.116  0.00  0.00     0.018 C 
ENDBRANCH   1   8
TORSDOF 1
ENDMDL
