MODEL 1
REMARK minimizedAffinity -0.296219498
REMARK minimizedRMSD -1
REMARK  1 active torsions:
REMARK  status: ('A' for Active; 'I' for Inactive)
REMARK    1  A    between atoms: C1_2  and  C2_3 
ROOT
ATOM      1  C2  UNL d   1      -2.585   4.875  -5.019  0.00  0.00    -0.081 A 
ATOM      2  C3  UNL d   1      -3.615   4.897  -5.967  0.00  0.00     0.006 A 
ATOM      3  C4  UNL d   1      -4.715   4.047  -5.838  0.00  0.00     0.002 A 
ATOM      4  C5  UNL d   1      -4.809   3.167  -4.754  0.00  0.00    -0.080 A 
ATOM      5  C6  UNL d   1      -6.000   2.270  -4.587  0.00  0.00     0.076 C 
ATOM      6  C7  UNL d   1      -3.772   3.132  -3.816  0.00  0.00     0.002 A 
ATOM      7  C8  UNL d   1      -2.670   3.981  -3.946  0.00  0.00     0.006 A 
ENDROOT
BRANCH   1   8
ATOM      8  C1  UNL d   1      -1.428   5.836  -5.121  0.00  0.00     0.054 C 
ATOM      9  C   UNL d   1      -0.318   5.274  -5.997  0.00  0.00     0.018 C 
ENDBRANCH   1   8
TORSDOF 1
ENDMDL
