MODEL 1
REMARK minimizedAffinity 3.06335902
REMARK minimizedRMSD -1
REMARK  1 active torsions:
REMARK  status: ('A' for Active; 'I' for Inactive)
REMARK    1  A    between atoms: C1_2  and  C2_3 
ROOT
ATOM      1  C2  UNL d   1       0.881   1.791   1.161  0.00  0.00    -0.081 A 
ATOM      2  C3  UNL d   1       0.986   3.186   1.088  0.00  0.00     0.006 A 
ATOM      3  C4  UNL d   1       1.349   3.928   2.214  0.00  0.00     0.002 A 
ATOM      4  C5  UNL d   1       1.620   3.289   3.429  0.00  0.00    -0.080 A 
ATOM      5  C6  UNL d   1       2.040   4.072   4.638  0.00  0.00     0.076 C 
ATOM      6  C7  UNL d   1       1.498   1.898   3.507  0.00  0.00     0.002 A 
ATOM      7  C8  UNL d   1       1.134   1.155   2.381  0.00  0.00     0.006 A 
ENDROOT
BRANCH   1   8
ATOM      8  C1  UNL d   1       0.553   0.982  -0.068  0.00  0.00     0.054 C 
ATOM      9  C   UNL d   1       0.213  -0.457   0.292  0.00  0.00     0.018 C 
ENDBRANCH   1   8
TORSDOF 1
ENDMDL
