MODEL 1
REMARK minimizedAffinity -0.659958005
REMARK minimizedRMSD -1
REMARK  1 active torsions:
REMARK  status: ('A' for Active; 'I' for Inactive)
REMARK    1  A    between atoms: C1_2  and  C2_3 
ROOT
ATOM      1  C2  UNL d   1      -4.127   3.187  -4.874  0.00  0.00    -0.081 A 
ATOM      2  C3  UNL d   1      -4.228   4.255  -5.774  0.00  0.00     0.006 A 
ATOM      3  C4  UNL d   1      -3.136   5.097  -5.999  0.00  0.00     0.002 A 
ATOM      4  C5  UNL d   1      -1.924   4.880  -5.335  0.00  0.00    -0.080 A 
ATOM      5  C6  UNL d   1      -0.734   5.757  -5.591  0.00  0.00     0.076 C 
ATOM      6  C7  UNL d   1      -1.828   3.823  -4.423  0.00  0.00     0.002 A 
ATOM      7  C8  UNL d   1      -2.920   2.982  -4.197  0.00  0.00     0.006 A 
ENDROOT
BRANCH   1   8
ATOM      8  C1  UNL d   1      -5.283   2.239  -4.677  0.00  0.00     0.054 C 
ATOM      9  C   UNL d   1      -5.960   1.911  -6.000  0.00  0.00     0.018 C 
ENDBRANCH   1   8
TORSDOF 1
ENDMDL
