MODEL 1
REMARK minimizedAffinity 7.02680588
REMARK minimizedRMSD -1
REMARK  1 active torsions:
REMARK  status: ('A' for Active; 'I' for Inactive)
REMARK    1  A    between atoms: C1_2  and  C2_3 
ROOT
ATOM      1  C2  UNL d   1       0.928   4.437   0.982  0.00  0.00    -0.081 A 
ATOM      2  C3  UNL d   1       1.100   4.002   2.302  0.00  0.00     0.006 A 
ATOM      3  C4  UNL d   1       0.942   2.654   2.630  0.00  0.00     0.002 A 
ATOM      4  C5  UNL d   1       0.617   1.717   1.644  0.00  0.00    -0.080 A 
ATOM      5  C6  UNL d   1       0.474   0.261   1.977  0.00  0.00     0.076 C 
ATOM      6  C7  UNL d   1       0.427   2.153   0.328  0.00  0.00     0.002 A 
ATOM      7  C8  UNL d   1       0.585   3.502  -0.000  0.00  0.00     0.006 A 
ENDROOT
BRANCH   1   8
ATOM      8  C1  UNL d   1       1.161   5.880   0.614  0.00  0.00     0.054 C 
ATOM      9  C   UNL d   1       1.963   5.999  -0.674  0.00  0.00     0.018 C 
ENDBRANCH   1   8
TORSDOF 1
ENDMDL
