MODEL 1
REMARK minimizedAffinity -3.28559661
REMARK minimizedRMSD -1
REMARK  1 active torsions:
REMARK  status: ('A' for Active; 'I' for Inactive)
REMARK    1  A    between atoms: C1_2  and  C2_3 
ROOT
ATOM      1  C2  UNL d   1      -3.787   3.480  -4.218  0.00  0.00    -0.081 A 
ATOM      2  C3  UNL d   1      -4.040   4.141  -5.427  0.00  0.00     0.006 A 
ATOM      3  C4  UNL d   1      -3.069   4.967  -5.999  0.00  0.00     0.002 A 
ATOM      4  C5  UNL d   1      -1.828   5.139  -5.377  0.00  0.00    -0.080 A 
ATOM      5  C6  UNL d   1      -0.766   5.999  -5.996  0.00  0.00     0.076 C 
ATOM      6  C7  UNL d   1      -1.581   4.493  -4.161  0.00  0.00     0.002 A 
ATOM      7  C8  UNL d   1      -2.552   3.668  -3.588  0.00  0.00     0.006 A 
ENDROOT
BRANCH   1   8
ATOM      8  C1  UNL d   1      -4.807   2.538  -3.632  0.00  0.00     0.054 C 
ATOM      9  C   UNL d   1      -5.239   1.489  -4.646  0.00  0.00     0.018 C 
ENDBRANCH   1   8
TORSDOF 1
ENDMDL
