MODEL 1
REMARK minimizedAffinity -3.81465316
REMARK minimizedRMSD -1
REMARK  3 active torsions:
REMARK  status: ('A' for Active; 'I' for Inactive)
REMARK    1  A    between atoms: C3'_2  and  C2'_3 
REMARK    2  A    between atoms: C2'_3  and  C1'_4 
REMARK    3  A    between atoms: C1'_4  and  C1_5 
ROOT
ATOM      1  C1  N4B d   1      -0.461  -0.249   0.008  0.00  0.00    -0.075 A 
ATOM      2  C2  N4B d   1      -0.433  -1.515  -0.616  0.00  0.00     0.002 A 
ATOM      3  C3  N4B d   1      -0.750  -2.642   0.103  0.00  0.00     0.002 A 
ATOM      4  C4  N4B d   1      -1.078  -2.529   1.445  0.00  0.00    -0.004 A 
ATOM      5  C5  N4B d   1      -1.128  -1.299   2.034  0.00  0.00     0.002 A 
ATOM      6  C6  N4B d   1      -0.816  -0.158   1.323  0.00  0.00     0.002 A 
ENDROOT
BRANCH   1   7
ATOM      7  C1' N4B d   1      -0.040   1.002  -0.714  0.00  0.00     0.057 C 
BRANCH   7   8
ATOM      8  C2' N4B d   1       1.326   1.443  -0.195  0.00  0.00     0.009 C 
BRANCH   8   9
ATOM      9  C3' N4B d   1       1.317   2.890   0.268  0.00  0.00     0.004 C 
ATOM     10  C4' N4B d   1       2.390   3.184   1.273  0.00  0.00     0.003 C 
ENDBRANCH   8   9
ENDBRANCH   7   8
ENDBRANCH   1   7
TORSDOF 3
ENDMDL
