MODEL 1
REMARK minimizedAffinity -6.03470182
REMARK minimizedRMSD -1
REMARK  3 active torsions:
REMARK  status: ('A' for Active; 'I' for Inactive)
REMARK    1  A    between atoms: C3'_2  and  C2'_3 
REMARK    2  A    between atoms: C2'_3  and  C1'_4 
REMARK    3  A    between atoms: C1'_4  and  C1_5 
ROOT
ATOM      1  C1  N4B d   1      -0.132  -0.305   0.023  0.00  0.00    -0.075 A 
ATOM      2  C2  N4B d   1      -0.868  -0.557   1.201  0.00  0.00     0.002 A 
ATOM      3  C3  N4B d   1      -0.926  -1.828   1.716  0.00  0.00     0.002 A 
ATOM      4  C4  N4B d   1      -0.273  -2.863   1.063  0.00  0.00    -0.004 A 
ATOM      5  C5  N4B d   1       0.457  -2.607  -0.061  0.00  0.00     0.002 A 
ATOM      6  C6  N4B d   1       0.527  -1.333  -0.587  0.00  0.00     0.002 A 
ENDROOT
BRANCH   1   7
ATOM      7  C1' N4B d   1      -0.110   1.053  -0.626  0.00  0.00     0.057 C 
BRANCH   7   8
ATOM      8  C2' N4B d   1       0.267   2.100   0.418  0.00  0.00     0.009 C 
BRANCH   8   9
ATOM      9  C3' N4B d   1       1.734   2.487   0.329  0.00  0.00     0.004 C 
ATOM     10  C4' N4B d   1       2.027   3.805   0.982  0.00  0.00     0.003 C 
ENDBRANCH   8   9
ENDBRANCH   7   8
ENDBRANCH   1   7
TORSDOF 3
ENDMDL
