MODEL 1
REMARK minimizedAffinity -2.74251652
REMARK minimizedRMSD -1
REMARK  3 active torsions:
REMARK  status: ('A' for Active; 'I' for Inactive)
REMARK    1  A    between atoms: C3'_2  and  C2'_3 
REMARK    2  A    between atoms: C2'_3  and  C1'_4 
REMARK    3  A    between atoms: C1'_4  and  C1_5 
ROOT
ATOM      1  C1  N4B d   1       0.428   0.371  -0.357  0.00  0.00    -0.075 A 
ATOM      2  C2  N4B d   1       0.197   0.269  -1.746  0.00  0.00     0.002 A 
ATOM      3  C3  N4B d   1       0.406  -0.925  -2.391  0.00  0.00     0.002 A 
ATOM      4  C4  N4B d   1       0.861  -2.022  -1.674  0.00  0.00    -0.004 A 
ATOM      5  C5  N4B d   1       1.056  -1.922  -0.327  0.00  0.00     0.002 A 
ATOM      6  C6  N4B d   1       0.847  -0.729   0.334  0.00  0.00     0.002 A 
ENDROOT
BRANCH   1   7
ATOM      7  C1' N4B d   1       0.296   1.677   0.377  0.00  0.00     0.057 C 
BRANCH   7   8
ATOM      8  C2' N4B d   1       1.650   2.379   0.397  0.00  0.00     0.009 C 
BRANCH   8   9
ATOM      9  C3' N4B d   1       1.729   3.432   1.490  0.00  0.00     0.004 C 
ATOM     10  C4' N4B d   1       3.028   4.181   1.482  0.00  0.00     0.003 C 
ENDBRANCH   8   9
ENDBRANCH   7   8
ENDBRANCH   1   7
TORSDOF 3
ENDMDL
