MODEL 1
REMARK minimizedAffinity -4.07163239
REMARK minimizedRMSD -1
REMARK  3 active torsions:
REMARK  status: ('A' for Active; 'I' for Inactive)
REMARK    1  A    between atoms: C3'_2  and  C2'_3 
REMARK    2  A    between atoms: C2'_3  and  C1'_4 
REMARK    3  A    between atoms: C1'_4  and  C1_5 
ROOT
ATOM      1  C1  N4B d   1       0.446  -0.247   0.270  0.00  0.00    -0.075 A 
ATOM      2  C2  N4B d   1       0.682  -1.517  -0.301  0.00  0.00     0.002 A 
ATOM      3  C3  N4B d   1       0.088  -2.632   0.236  0.00  0.00     0.002 A 
ATOM      4  C4  N4B d   1      -0.728  -2.505   1.350  0.00  0.00    -0.004 A 
ATOM      5  C5  N4B d   1      -0.972  -1.272   1.880  0.00  0.00     0.002 A 
ATOM      6  C6  N4B d   1      -0.385  -0.142   1.348  0.00  0.00     0.002 A 
ENDROOT
BRANCH   1   7
ATOM      7  C1' N4B d   1       1.141   0.990  -0.229  0.00  0.00     0.057 C 
BRANCH   7   8
ATOM      8  C2' N4B d   1       0.231   2.197  -0.016  0.00  0.00     0.009 C 
BRANCH   8   9
ATOM      9  C3' N4B d   1       0.952   3.335   0.686  0.00  0.00     0.004 C 
ATOM     10  C4' N4B d   1       2.444   3.189   0.647  0.00  0.00     0.003 C 
ENDBRANCH   8   9
ENDBRANCH   7   8
ENDBRANCH   1   7
TORSDOF 3
ENDMDL
