MODEL 1
REMARK minimizedAffinity -3.11116743
REMARK minimizedRMSD -1
REMARK  3 active torsions:
REMARK  status: ('A' for Active; 'I' for Inactive)
REMARK    1  A    between atoms: C3'_2  and  C2'_3 
REMARK    2  A    between atoms: C2'_3  and  C1'_4 
REMARK    3  A    between atoms: C1'_4  and  C1_5 
ROOT
ATOM      1  C1  N4B d   1      -0.080  -0.227   0.065  0.00  0.00    -0.075 A 
ATOM      2  C2  N4B d   1      -0.974  -0.820   0.983  0.00  0.00     0.002 A 
ATOM      3  C3  N4B d   1      -0.940  -2.176   1.196  0.00  0.00     0.002 A 
ATOM      4  C4  N4B d   1      -0.037  -2.959   0.492  0.00  0.00    -0.004 A 
ATOM      5  C5  N4B d   1       0.840  -2.375  -0.375  0.00  0.00     0.002 A 
ATOM      6  C6  N4B d   1       0.820  -1.013  -0.596  0.00  0.00     0.002 A 
ENDROOT
BRANCH   1   7
ATOM      7  C1' N4B d   1      -0.137   1.240  -0.265  0.00  0.00     0.057 C 
BRANCH   7   8
ATOM      8  C2' N4B d   1       1.209   1.880   0.063  0.00  0.00     0.009 C 
BRANCH   8   9
ATOM      9  C3' N4B d   1       1.089   2.922   1.162  0.00  0.00     0.004 C 
ATOM     10  C4' N4B d   1       2.280   3.831   1.233  0.00  0.00     0.003 C 
ENDBRANCH   8   9
ENDBRANCH   7   8
ENDBRANCH   1   7
TORSDOF 3
ENDMDL
