MODEL 1
REMARK minimizedAffinity -2.66128945
REMARK minimizedRMSD -1
REMARK  3 active torsions:
REMARK  status: ('A' for Active; 'I' for Inactive)
REMARK    1  A    between atoms: C3'_2  and  C2'_3 
REMARK    2  A    between atoms: C2'_3  and  C1'_4 
REMARK    3  A    between atoms: C1'_4  and  C1_5 
ROOT
ATOM      1  C1  N4B d   1      -0.021  -0.069   0.678  0.00  0.00    -0.075 A 
ATOM      2  C2  N4B d   1      -0.949  -0.907   1.334  0.00  0.00     0.002 A 
ATOM      3  C3  N4B d   1      -0.928  -2.262   1.112  0.00  0.00     0.002 A 
ATOM      4  C4  N4B d   1      -0.003  -2.797   0.228  0.00  0.00    -0.004 A 
ATOM      5  C5  N4B d   1       0.907  -1.984  -0.382  0.00  0.00     0.002 A 
ATOM      6  C6  N4B d   1       0.900  -0.621  -0.165  0.00  0.00     0.002 A 
ENDROOT
BRANCH   1   7
ATOM      7  C1' N4B d   1      -0.060   1.428   0.824  0.00  0.00     0.057 C 
BRANCH   7   8
ATOM      8  C2' N4B d   1       1.347   1.987   0.639  0.00  0.00     0.009 C 
BRANCH   8   9
ATOM      9  C3' N4B d   1       1.537   3.302   1.374  0.00  0.00     0.004 C 
ATOM     10  C4' N4B d   1       0.241   3.999   1.663  0.00  0.00     0.003 C 
ENDBRANCH   8   9
ENDBRANCH   7   8
ENDBRANCH   1   7
TORSDOF 3
ENDMDL
