MODEL 1
REMARK minimizedAffinity -5.98621893
REMARK minimizedRMSD -1
REMARK  3 active torsions:
REMARK  status: ('A' for Active; 'I' for Inactive)
REMARK    1  A    between atoms: C3'_2  and  C2'_3 
REMARK    2  A    between atoms: C2'_3  and  C1'_4 
REMARK    3  A    between atoms: C1'_4  and  C1_5 
ROOT
ATOM      1  C1  N4B d   1      -0.052  -0.015   0.157  0.00  0.00    -0.075 A 
ATOM      2  C2  N4B d   1      -0.570  -0.719   1.266  0.00  0.00     0.002 A 
ATOM      3  C3  N4B d   1      -0.658  -2.089   1.231  0.00  0.00     0.002 A 
ATOM      4  C4  N4B d   1      -0.255  -2.772   0.094  0.00  0.00    -0.004 A 
ATOM      5  C5  N4B d   1       0.268  -2.088  -0.964  0.00  0.00     0.002 A 
ATOM      6  C6  N4B d   1       0.366  -0.711  -0.941  0.00  0.00     0.002 A 
ENDROOT
BRANCH   1   7
ATOM      7  C1' N4B d   1      -0.016   1.488   0.116  0.00  0.00     0.057 C 
BRANCH   7   8
ATOM      8  C2' N4B d   1       1.156   1.937  -0.752  0.00  0.00     0.009 C 
BRANCH   8   9
ATOM      9  C3' N4B d   1       2.024   2.965  -0.047  0.00  0.00     0.004 C 
ATOM     10  C4' N4B d   1       1.341   3.591   1.132  0.00  0.00     0.003 C 
ENDBRANCH   8   9
ENDBRANCH   7   8
ENDBRANCH   1   7
TORSDOF 3
ENDMDL
