MODEL 1
REMARK minimizedAffinity -4.24229336
REMARK minimizedRMSD -1
REMARK  3 active torsions:
REMARK  status: ('A' for Active; 'I' for Inactive)
REMARK    1  A    between atoms: C3'_2  and  C2'_3 
REMARK    2  A    between atoms: C2'_3  and  C1'_4 
REMARK    3  A    between atoms: C1'_4  and  C1_5 
ROOT
ATOM      1  C1  N4B d   1      -0.106  -0.903  -0.203  0.00  0.00    -0.075 A 
ATOM      2  C2  N4B d   1      -0.624  -2.079   0.384  0.00  0.00     0.002 A 
ATOM      3  C3  N4B d   1      -0.667  -3.245  -0.339  0.00  0.00     0.002 A 
ATOM      4  C4  N4B d   1      -0.217  -3.256  -1.651  0.00  0.00    -0.004 A 
ATOM      5  C5  N4B d   1       0.305  -2.123  -2.202  0.00  0.00     0.002 A 
ATOM      6  C6  N4B d   1       0.358  -0.944  -1.486  0.00  0.00     0.002 A 
ENDROOT
BRANCH   1   7
ATOM      7  C1' N4B d   1      -0.118   0.416   0.519  0.00  0.00     0.057 C 
BRANCH   7   8
ATOM      8  C2' N4B d   1       0.205   1.532  -0.471  0.00  0.00     0.009 C 
BRANCH   8   9
ATOM      9  C3' N4B d   1       0.390   2.871   0.223  0.00  0.00     0.004 C 
ATOM     10  C4' N4B d   1       1.830   3.272   0.336  0.00  0.00     0.003 C 
ENDBRANCH   8   9
ENDBRANCH   7   8
ENDBRANCH   1   7
TORSDOF 3
ENDMDL
