MODEL 1
REMARK minimizedAffinity 0.907654643
REMARK minimizedRMSD -1
REMARK  3 active torsions:
REMARK  status: ('A' for Active; 'I' for Inactive)
REMARK    1  A    between atoms: C3'_2  and  C2'_3 
REMARK    2  A    between atoms: C2'_3  and  C1'_4 
REMARK    3  A    between atoms: C1'_4  and  C1_5 
ROOT
ATOM      1  C1  N4B d   1      -0.356  -0.621   0.371  0.00  0.00    -0.075 A 
ATOM      2  C2  N4B d   1      -1.402  -1.502   0.723  0.00  0.00     0.002 A 
ATOM      3  C3  N4B d   1      -1.208  -2.860   0.657  0.00  0.00     0.002 A 
ATOM      4  C4  N4B d   1       0.013  -3.357   0.225  0.00  0.00    -0.004 A 
ATOM      5  C5  N4B d   1       1.026  -2.500  -0.088  0.00  0.00     0.002 A 
ATOM      6  C6  N4B d   1       0.846  -1.133  -0.023  0.00  0.00     0.002 A 
ENDROOT
BRANCH   1   7
ATOM      7  C1' N4B d   1      -0.549   0.871   0.346  0.00  0.00     0.057 C 
BRANCH   7   8
ATOM      8  C2' N4B d   1       0.813   1.554   0.433  0.00  0.00     0.009 C 
BRANCH   8   9
ATOM      9  C3' N4B d   1       0.695   3.003   0.873  0.00  0.00     0.004 C 
ATOM     10  C4' N4B d   1       2.021   3.617   1.211  0.00  0.00     0.003 C 
ENDBRANCH   8   9
ENDBRANCH   7   8
ENDBRANCH   1   7
TORSDOF 3
ENDMDL
