MODEL 1
REMARK minimizedAffinity -5.12052965
REMARK minimizedRMSD -1
REMARK  3 active torsions:
REMARK  status: ('A' for Active; 'I' for Inactive)
REMARK    1  A    between atoms: C3'_2  and  C2'_3 
REMARK    2  A    between atoms: C2'_3  and  C1'_4 
REMARK    3  A    between atoms: C1'_4  and  C1_5 
ROOT
ATOM      1  C1  N4B d   1      -0.072   0.213   0.148  0.00  0.00    -0.075 A 
ATOM      2  C2  N4B d   1       0.497  -0.929  -0.457  0.00  0.00     0.002 A 
ATOM      3  C3  N4B d   1       0.227  -2.179   0.044  0.00  0.00     0.002 A 
ATOM      4  C4  N4B d   1      -0.590  -2.309   1.157  0.00  0.00    -0.004 A 
ATOM      5  C5  N4B d   1      -1.157  -1.204   1.720  0.00  0.00     0.002 A 
ATOM      6  C6  N4B d   1      -0.897   0.058   1.224  0.00  0.00     0.002 A 
ENDROOT
BRANCH   1   7
ATOM      7  C1' N4B d   1       0.262   1.605  -0.312  0.00  0.00     0.057 C 
BRANCH   7   8
ATOM      8  C2' N4B d   1      -0.148   2.601   0.769  0.00  0.00     0.009 C 
BRANCH   8   9
ATOM      9  C3' N4B d   1       1.056   3.239   1.441  0.00  0.00     0.004 C 
ATOM     10  C4' N4B d   1       2.333   3.003   0.690  0.00  0.00     0.003 C 
ENDBRANCH   8   9
ENDBRANCH   7   8
ENDBRANCH   1   7
TORSDOF 3
ENDMDL
