MODEL 1
REMARK minimizedAffinity -3.77532697
REMARK minimizedRMSD -1
REMARK  3 active torsions:
REMARK  status: ('A' for Active; 'I' for Inactive)
REMARK    1  A    between atoms: C3'_2  and  C2'_3 
REMARK    2  A    between atoms: C2'_3  and  C1'_4 
REMARK    3  A    between atoms: C1'_4  and  C1_5 
ROOT
ATOM      1  C1  N4B d   1       0.053  -0.409  -0.155  0.00  0.00    -0.075 A 
ATOM      2  C2  N4B d   1       0.880  -1.205  -0.977  0.00  0.00     0.002 A 
ATOM      3  C3  N4B d   1       0.917  -2.566  -0.801  0.00  0.00     0.002 A 
ATOM      4  C4  N4B d   1       0.153  -3.150   0.199  0.00  0.00    -0.004 A 
ATOM      5  C5  N4B d   1      -0.663  -2.376   0.972  0.00  0.00     0.002 A 
ATOM      6  C6  N4B d   1      -0.713  -1.007   0.803  0.00  0.00     0.002 A 
ENDROOT
BRANCH   1   7
ATOM      7  C1' N4B d   1       0.044   1.092  -0.253  0.00  0.00     0.057 C 
BRANCH   7   8
ATOM      8  C2' N4B d   1       1.444   1.621   0.043  0.00  0.00     0.009 C 
BRANCH   8   9
ATOM      9  C3' N4B d   1       1.406   2.941   0.795  0.00  0.00     0.004 C 
ATOM     10  C4' N4B d   1       2.773   3.453   1.139  0.00  0.00     0.003 C 
ENDBRANCH   8   9
ENDBRANCH   7   8
ENDBRANCH   1   7
TORSDOF 3
ENDMDL
