MODEL 1
REMARK minimizedAffinity -4.28871918
REMARK minimizedRMSD -1
REMARK  3 active torsions:
REMARK  status: ('A' for Active; 'I' for Inactive)
REMARK    1  A    between atoms: C3'_2  and  C2'_3 
REMARK    2  A    between atoms: C2'_3  and  C1'_4 
REMARK    3  A    between atoms: C1'_4  and  C1_5 
ROOT
ATOM      1  C1  N4B d   1       0.073  -0.326   0.173  0.00  0.00    -0.075 A 
ATOM      2  C2  N4B d   1       1.081  -1.149  -0.376  0.00  0.00     0.002 A 
ATOM      3  C3  N4B d   1       1.020  -2.511  -0.214  0.00  0.00     0.002 A 
ATOM      4  C4  N4B d   1      -0.026  -3.069   0.507  0.00  0.00    -0.004 A 
ATOM      5  C5  N4B d   1      -1.009  -2.269   1.012  0.00  0.00     0.002 A 
ATOM      6  C6  N4B d   1      -0.962  -0.899   0.853  0.00  0.00     0.002 A 
ENDROOT
BRANCH   1   7
ATOM      7  C1' N4B d   1       0.143   1.175   0.095  0.00  0.00     0.057 C 
BRANCH   7   8
ATOM      8  C2' N4B d   1       1.605   1.604   0.003  0.00  0.00     0.009 C 
BRANCH   8   9
ATOM      9  C3' N4B d   1       1.827   2.991   0.581  0.00  0.00     0.004 C 
ATOM     10  C4' N4B d   1       1.915   2.989   2.078  0.00  0.00     0.003 C 
ENDBRANCH   8   9
ENDBRANCH   7   8
ENDBRANCH   1   7
TORSDOF 3
ENDMDL
