MODEL 1
REMARK minimizedAffinity -5.46011209
REMARK minimizedRMSD -1
REMARK  3 active torsions:
REMARK  status: ('A' for Active; 'I' for Inactive)
REMARK    1  A    between atoms: C3'_2  and  C2'_3 
REMARK    2  A    between atoms: C2'_3  and  C1'_4 
REMARK    3  A    between atoms: C1'_4  and  C1_5 
ROOT
ATOM      1  C1  N4B d   1       0.125   0.110  -0.384  0.00  0.00    -0.075 A 
ATOM      2  C2  N4B d   1       0.979  -0.934  -0.804  0.00  0.00     0.002 A 
ATOM      3  C3  N4B d   1       0.767  -2.216  -0.358  0.00  0.00     0.002 A 
ATOM      4  C4  N4B d   1      -0.277  -2.473   0.518  0.00  0.00    -0.004 A 
ATOM      5  C5  N4B d   1      -1.112  -1.464   0.899  0.00  0.00     0.002 A 
ATOM      6  C6  N4B d   1      -0.913  -0.172   0.456  0.00  0.00     0.002 A 
ENDROOT
BRANCH   1   7
ATOM      7  C1' N4B d   1       0.369   1.541  -0.776  0.00  0.00     0.057 C 
BRANCH   7   8
ATOM      8  C2' N4B d   1       0.353   2.413   0.476  0.00  0.00     0.009 C 
BRANCH   8   9
ATOM      9  C3' N4B d   1       1.429   3.485   0.436  0.00  0.00     0.004 C 
ATOM     10  C4' N4B d   1       2.769   2.948   0.029  0.00  0.00     0.003 C 
ENDBRANCH   8   9
ENDBRANCH   7   8
ENDBRANCH   1   7
TORSDOF 3
ENDMDL
