MODEL 1
REMARK minimizedAffinity 8.03992081
REMARK minimizedRMSD -1
REMARK  2 active torsions:
REMARK  status: ('A' for Active; 'I' for Inactive)
REMARK    1  A    between atoms: C1_2  and  C2_3 
REMARK    2  A    between atoms: C2_3  and  C3_4 
ROOT
ATOM      1  C3  UNL d   1      -0.044   5.953  -2.812  0.00  0.00    -0.075 A 
ATOM      2  C4  UNL d   1      -1.444   5.981  -2.892  0.00  0.00     0.002 A 
ATOM      3  C5  UNL d   1      -2.083   5.996  -4.132  0.00  0.00     0.002 A 
ATOM      4  C6  UNL d   1      -1.332   5.995  -5.306  0.00  0.00    -0.004 A 
ATOM      5  C7  UNL d   1       0.060   5.983  -5.238  0.00  0.00     0.002 A 
ATOM      6  C8  UNL d   1       0.701   5.963  -3.999  0.00  0.00     0.002 A 
ENDROOT
BRANCH   1   7
ATOM      7  C2  UNL d   1       0.653   5.906  -1.473  0.00  0.00     0.056 C 
BRANCH   7   8
ATOM      8  C1  UNL d   1       1.412   4.601  -1.211  0.00  0.00     0.007 C 
ATOM      9  C   UNL d   1       2.038   4.539   0.176  0.00  0.00     0.009 C 
ENDBRANCH   7   8
ENDBRANCH   1   7
TORSDOF 2
ENDMDL
