MODEL 1
REMARK minimizedAffinity 8.62147331
REMARK minimizedRMSD -1
REMARK  2 active torsions:
REMARK  status: ('A' for Active; 'I' for Inactive)
REMARK    1  A    between atoms: C1_2  and  C2_3 
REMARK    2  A    between atoms: C2_3  and  C3_4 
ROOT
ATOM      1  C3  UNL d   1      -4.195  -3.580   0.932  0.00  0.00    -0.075 A 
ATOM      2  C4  UNL d   1      -3.110  -4.148   0.250  0.00  0.00     0.002 A 
ATOM      3  C5  UNL d   1      -1.995  -3.376  -0.077  0.00  0.00     0.002 A 
ATOM      4  C6  UNL d   1      -1.955  -2.025   0.264  0.00  0.00    -0.004 A 
ATOM      5  C7  UNL d   1      -3.035  -1.446   0.927  0.00  0.00     0.002 A 
ATOM      6  C8  UNL d   1      -4.150  -2.218   1.259  0.00  0.00     0.002 A 
ENDROOT
BRANCH   1   7
ATOM      7  C2  UNL d   1      -5.392  -4.417   1.315  0.00  0.00     0.056 C 
BRANCH   7   8
ATOM      8  C1  UNL d   1      -5.586  -4.573   2.827  0.00  0.00     0.007 C 
ATOM      9  C   UNL d   1      -5.374  -6.000   3.315  0.00  0.00     0.009 C 
ENDBRANCH   7   8
ENDBRANCH   1   7
TORSDOF 2
ENDMDL
