MODEL 1
REMARK minimizedAffinity 7.28774929
REMARK minimizedRMSD -1
REMARK  2 active torsions:
REMARK  status: ('A' for Active; 'I' for Inactive)
REMARK    1  A    between atoms: C1_2  and  C2_3 
REMARK    2  A    between atoms: C2_3  and  C3_4 
ROOT
ATOM      1  C3  UNL d   1       0.672   4.776  -4.809  0.00  0.00    -0.075 A 
ATOM      2  C4  UNL d   1       0.014   5.000  -3.591  0.00  0.00     0.002 A 
ATOM      3  C5  UNL d   1      -1.246   5.598  -3.567  0.00  0.00     0.002 A 
ATOM      4  C6  UNL d   1      -1.858   5.989  -4.756  0.00  0.00    -0.004 A 
ATOM      5  C7  UNL d   1      -1.206   5.787  -5.970  0.00  0.00     0.002 A 
ATOM      6  C8  UNL d   1       0.053   5.184  -5.998  0.00  0.00     0.002 A 
ENDROOT
BRANCH   1   7
ATOM      7  C2  UNL d   1       2.023   4.101  -4.845  0.00  0.00     0.056 C 
BRANCH   7   8
ATOM      8  C1  UNL d   1       2.584   3.755  -3.462  0.00  0.00     0.007 C 
ATOM      9  C   UNL d   1       4.006   3.213  -3.509  0.00  0.00     0.009 C 
ENDBRANCH   7   8
ENDBRANCH   1   7
TORSDOF 2
ENDMDL
