MODEL 1
REMARK minimizedAffinity 5.52007103
REMARK minimizedRMSD -1
REMARK  2 active torsions:
REMARK  status: ('A' for Active; 'I' for Inactive)
REMARK    1  A    between atoms: C1_2  and  C2_3 
REMARK    2  A    between atoms: C2_3  and  C3_4 
ROOT
ATOM      1  C3  UNL d   1       0.010  -1.296   1.721  0.00  0.00    -0.075 A 
ATOM      2  C4  UNL d   1       1.016  -0.372   1.402  0.00  0.00     0.002 A 
ATOM      3  C5  UNL d   1       2.303  -0.519   1.920  0.00  0.00     0.002 A 
ATOM      4  C6  UNL d   1       2.598  -1.584   2.769  0.00  0.00    -0.004 A 
ATOM      5  C7  UNL d   1       1.603  -2.499   3.105  0.00  0.00     0.002 A 
ATOM      6  C8  UNL d   1       0.315  -2.356   2.585  0.00  0.00     0.002 A 
ENDROOT
BRANCH   1   7
ATOM      7  C2  UNL d   1      -1.377  -1.159   1.140  0.00  0.00     0.056 C 
BRANCH   7   8
ATOM      8  C1  UNL d   1      -2.224  -0.065   1.800  0.00  0.00     0.007 C 
ATOM      9  C   UNL d   1      -3.329   0.466   0.896  0.00  0.00     0.009 C 
ENDBRANCH   7   8
ENDBRANCH   1   7
TORSDOF 2
ENDMDL
