MODEL 1
REMARK minimizedAffinity 11.2958422
REMARK minimizedRMSD -1
REMARK  2 active torsions:
REMARK  status: ('A' for Active; 'I' for Inactive)
REMARK    1  A    between atoms: C1_2  and  C2_3 
REMARK    2  A    between atoms: C2_3  and  C3_4 
ROOT
ATOM      1  C3  UNL d   1       3.063  -0.744   2.263  0.00  0.00    -0.075 A 
ATOM      2  C4  UNL d   1       1.819  -0.273   1.818  0.00  0.00     0.002 A 
ATOM      3  C5  UNL d   1       0.647  -0.962   2.132  0.00  0.00     0.002 A 
ATOM      4  C6  UNL d   1       0.704  -2.133   2.884  0.00  0.00    -0.004 A 
ATOM      5  C7  UNL d   1       1.936  -2.619   3.317  0.00  0.00     0.002 A 
ATOM      6  C8  UNL d   1       3.110  -1.930   3.008  0.00  0.00     0.002 A 
ENDROOT
BRANCH   1   7
ATOM      7  C2  UNL d   1       4.332   0.013   1.952  0.00  0.00     0.056 C 
BRANCH   7   8
ATOM      8  C1  UNL d   1       4.541   1.261   2.816  0.00  0.00     0.007 C 
ATOM      9  C   UNL d   1       6.000   1.499   3.185  0.00  0.00     0.009 C 
ENDBRANCH   7   8
ENDBRANCH   1   7
TORSDOF 2
ENDMDL
