MODEL 1
REMARK minimizedAffinity 9.72655201
REMARK minimizedRMSD -1
REMARK  2 active torsions:
REMARK  status: ('A' for Active; 'I' for Inactive)
REMARK    1  A    between atoms: C1_2  and  C2_3 
REMARK    2  A    between atoms: C2_3  and  C3_4 
ROOT
ATOM      1  C3  UNL d   1       1.082   4.645  -3.678  0.00  0.00    -0.075 A 
ATOM      2  C4  UNL d   1      -0.148   5.318  -3.703  0.00  0.00     0.002 A 
ATOM      3  C5  UNL d   1      -0.567   5.987  -4.854  0.00  0.00     0.002 A 
ATOM      4  C6  UNL d   1       0.242   6.000  -5.989  0.00  0.00    -0.004 A 
ATOM      5  C7  UNL d   1       1.473   5.349  -5.970  0.00  0.00     0.002 A 
ATOM      6  C8  UNL d   1       1.893   4.675  -4.821  0.00  0.00     0.002 A 
ENDROOT
BRANCH   1   7
ATOM      7  C2  UNL d   1       1.527   3.895  -2.446  0.00  0.00     0.056 C 
BRANCH   7   8
ATOM      8  C1  UNL d   1       1.958   4.800  -1.287  0.00  0.00     0.007 C 
ATOM      9  C   UNL d   1       1.953   4.092   0.061  0.00  0.00     0.009 C 
ENDBRANCH   7   8
ENDBRANCH   1   7
TORSDOF 2
ENDMDL
