MODEL 1
REMARK minimizedAffinity 14.0488615
REMARK minimizedRMSD -1
REMARK  2 active torsions:
REMARK  status: ('A' for Active; 'I' for Inactive)
REMARK    1  A    between atoms: C1_2  and  C2_3 
REMARK    2  A    between atoms: C2_3  and  C3_4 
ROOT
ATOM      1  C3  UNL d   1      -0.272  -1.720   3.123  0.00  0.00    -0.075 A 
ATOM      2  C4  UNL d   1       0.317  -2.991   3.054  0.00  0.00     0.002 A 
ATOM      3  C5  UNL d   1       0.065  -3.831   1.969  0.00  0.00     0.002 A 
ATOM      4  C6  UNL d   1      -0.785  -3.417   0.947  0.00  0.00    -0.004 A 
ATOM      5  C7  UNL d   1      -1.389  -2.163   1.013  0.00  0.00     0.002 A 
ATOM      6  C8  UNL d   1      -1.136  -1.319   2.095  0.00  0.00     0.002 A 
ENDROOT
BRANCH   1   7
ATOM      7  C2  UNL d   1       0.020  -0.795   4.280  0.00  0.00     0.056 C 
BRANCH   7   8
ATOM      8  C1  UNL d   1      -1.008  -0.870   5.414  0.00  0.00     0.007 C 
ATOM      9  C   UNL d   1      -2.189   0.070   5.217  0.00  0.00     0.009 C 
ENDBRANCH   7   8
ENDBRANCH   1   7
TORSDOF 2
ENDMDL
