MODEL 1
REMARK minimizedAffinity 3.28171825
REMARK minimizedRMSD -1
REMARK  2 active torsions:
REMARK  status: ('A' for Active; 'I' for Inactive)
REMARK    1  A    between atoms: C1_2  and  C2_3 
REMARK    2  A    between atoms: C2_3  and  C3_4 
ROOT
ATOM      1  C3  UNL d   1      -3.721   0.196   0.001  0.00  0.00    -0.075 A 
ATOM      2  C4  UNL d   1      -3.714   1.219   0.960  0.00  0.00     0.002 A 
ATOM      3  C5  UNL d   1      -2.914   1.117   2.098  0.00  0.00     0.002 A 
ATOM      4  C6  UNL d   1      -2.120  -0.011   2.296  0.00  0.00    -0.004 A 
ATOM      5  C7  UNL d   1      -2.131  -1.040   1.358  0.00  0.00     0.002 A 
ATOM      6  C8  UNL d   1      -2.928  -0.939   0.216  0.00  0.00     0.002 A 
ENDROOT
BRANCH   1   7
ATOM      7  C2  UNL d   1      -4.563   0.313  -1.248  0.00  0.00     0.056 C 
BRANCH   7   8
ATOM      8  C1  UNL d   1      -3.944  -0.351  -2.482  0.00  0.00     0.007 C 
ATOM      9  C   UNL d   1      -4.937  -1.191  -3.274  0.00  0.00     0.009 C 
ENDBRANCH   7   8
ENDBRANCH   1   7
TORSDOF 2
ENDMDL
