MODEL 1
REMARK minimizedAffinity 3.57423115
REMARK minimizedRMSD -1
REMARK  2 active torsions:
REMARK  status: ('A' for Active; 'I' for Inactive)
REMARK    1  A    between atoms: C1_2  and  C2_3 
REMARK    2  A    between atoms: C2_3  and  C3_4 
ROOT
ATOM      1  C3  UNL d   1      -3.114   5.159  -3.714  0.00  0.00    -0.075 A 
ATOM      2  C4  UNL d   1      -1.716   5.052  -3.734  0.00  0.00     0.002 A 
ATOM      3  C5  UNL d   1      -0.994   5.421  -4.869  0.00  0.00     0.002 A 
ATOM      4  C6  UNL d   1      -1.659   5.889  -6.000  0.00  0.00    -0.004 A 
ATOM      5  C7  UNL d   1      -3.049   5.983  -5.997  0.00  0.00     0.002 A 
ATOM      6  C8  UNL d   1      -3.774   5.620  -4.861  0.00  0.00     0.002 A 
ENDROOT
BRANCH   1   7
ATOM      7  C2  UNL d   1      -3.900   4.790  -2.478  0.00  0.00     0.056 C 
BRANCH   7   8
ATOM      8  C1  UNL d   1      -4.357   5.993  -1.647  0.00  0.00     0.007 C 
ATOM      9  C   UNL d   1      -5.509   5.669  -0.705  0.00  0.00     0.009 C 
ENDBRANCH   7   8
ENDBRANCH   1   7
TORSDOF 2
ENDMDL
