MODEL 1
REMARK minimizedAffinity -3.50814724
REMARK minimizedRMSD -1
REMARK  0 active torsions:
REMARK  status: ('A' for Active; 'I' for Inactive)
ROOT
ATOM      1  C4' PXY d   1       1.912  -0.547   3.106  0.00  0.00     0.077 C 
ATOM      2  C1' PXY d   1      -2.667   0.074  -0.368  0.00  0.00     0.077 C 
ATOM      3  C1  PXY d   1      -1.471  -0.080   0.551  0.00  0.00    -0.082 A 
ATOM      4  C2  PXY d   1      -0.327  -0.535   0.066  0.00  0.00     0.003 A 
ATOM      5  C3  PXY d   1       0.755  -0.710   0.889  0.00  0.00     0.003 A 
ATOM      6  C4  PXY d   1       0.681  -0.367   2.213  0.00  0.00    -0.082 A 
ATOM      7  C5  PXY d   1      -0.479   0.108   2.713  0.00  0.00     0.003 A 
ATOM      8  C6  PXY d   1      -1.578   0.240   1.869  0.00  0.00     0.003 A 
ENDROOT
TORSDOF 0
ENDMDL
