MODEL 1
REMARK minimizedAffinity -4.25587273
REMARK minimizedRMSD -1
REMARK  0 active torsions:
REMARK  status: ('A' for Active; 'I' for Inactive)
ROOT
ATOM      1  C4' PXY d   1       0.877   0.162  -3.356  0.00  0.00     0.077 C 
ATOM      2  C1' PXY d   1      -1.735   0.619   1.780  0.00  0.00     0.077 C 
ATOM      3  C1  PXY d   1      -1.040   0.493   0.439  0.00  0.00    -0.082 A 
ATOM      4  C2  PXY d   1      -1.349   1.329  -0.539  0.00  0.00     0.003 A 
ATOM      5  C3  PXY d   1      -0.753   1.209  -1.768  0.00  0.00     0.003 A 
ATOM      6  C4  PXY d   1       0.207   0.258  -1.983  0.00  0.00    -0.082 A 
ATOM      7  C5  PXY d   1       0.536  -0.592  -0.987  0.00  0.00     0.003 A 
ATOM      8  C6  PXY d   1      -0.110  -0.480   0.241  0.00  0.00     0.003 A 
ENDROOT
TORSDOF 0
ENDMDL
