MODEL 1
REMARK minimizedAffinity -4.01392889
REMARK minimizedRMSD -1
REMARK  0 active torsions:
REMARK  status: ('A' for Active; 'I' for Inactive)
ROOT
ATOM      1  C4' PXY d   1       1.106   0.372  -3.390  0.00  0.00     0.077 C 
ATOM      2  C1' PXY d   1      -1.833   0.359   1.587  0.00  0.00     0.077 C 
ATOM      3  C1  PXY d   1      -1.054   0.353   0.287  0.00  0.00    -0.082 A 
ATOM      4  C2  PXY d   1      -1.090   1.415  -0.502  0.00  0.00     0.003 A 
ATOM      5  C3  PXY d   1      -0.417   1.415  -1.697  0.00  0.00     0.003 A 
ATOM      6  C4  PXY d   1       0.343   0.336  -2.063  0.00  0.00    -0.082 A 
ATOM      7  C5  PXY d   1       0.393  -0.747  -1.260  0.00  0.00     0.003 A 
ATOM      8  C6  PXY d   1      -0.331  -0.743  -0.070  0.00  0.00     0.003 A 
ENDROOT
TORSDOF 0
ENDMDL
