MODEL 1
REMARK minimizedAffinity -4.94726038
REMARK minimizedRMSD -1
REMARK  0 active torsions:
REMARK  status: ('A' for Active; 'I' for Inactive)
ROOT
ATOM      1  C4' PXY d   1      -1.468   0.205   1.800  0.00  0.00     0.077 C 
ATOM      2  C1' PXY d   1       1.771   0.573  -2.973  0.00  0.00     0.077 C 
ATOM      3  C1  PXY d   1       0.924   0.463  -1.721  0.00  0.00    -0.082 A 
ATOM      4  C2  PXY d   1       0.024   1.397  -1.457  0.00  0.00     0.003 A 
ATOM      5  C3  PXY d   1      -0.728   1.331  -0.312  0.00  0.00     0.003 A 
ATOM      6  C4  PXY d   1      -0.596   0.270   0.543  0.00  0.00    -0.082 A 
ATOM      7  C5  PXY d   1       0.312  -0.692   0.275  0.00  0.00     0.003 A 
ATOM      8  C6  PXY d   1       1.095  -0.585  -0.871  0.00  0.00     0.003 A 
ENDROOT
TORSDOF 0
ENDMDL
