MODEL 1
REMARK minimizedAffinity -1.86165035
REMARK minimizedRMSD -1
REMARK  0 active torsions:
REMARK  status: ('A' for Active; 'I' for Inactive)
ROOT
ATOM      1  C4' PXY d   1       0.489  -0.358  -3.033  0.00  0.00     0.077 C 
ATOM      2  C1' PXY d   1      -1.628   0.479   2.281  0.00  0.00     0.077 C 
ATOM      3  C1  PXY d   1      -1.062   0.254   0.892  0.00  0.00    -0.082 A 
ATOM      4  C2  PXY d   1      -1.462   1.021  -0.109  0.00  0.00     0.003 A 
ATOM      5  C3  PXY d   1      -0.984   0.811  -1.377  0.00  0.00     0.003 A 
ATOM      6  C4  PXY d   1      -0.049  -0.161  -1.613  0.00  0.00    -0.082 A 
ATOM      7  C5  PXY d   1       0.372  -0.941  -0.594  0.00  0.00     0.003 A 
ATOM      8  C6  PXY d   1      -0.156  -0.738   0.678  0.00  0.00     0.003 A 
ENDROOT
TORSDOF 0
ENDMDL
