MODEL 1
REMARK minimizedAffinity -4.50895548
REMARK minimizedRMSD -1
REMARK  0 active torsions:
REMARK  status: ('A' for Active; 'I' for Inactive)
ROOT
ATOM      1  C4' PXY d   1       1.846  -0.560   3.792  0.00  0.00     0.077 C 
ATOM      2  C1' PXY d   1      -2.237   0.700  -0.101  0.00  0.00     0.077 C 
ATOM      3  C1  PXY d   1      -1.171   0.379   0.928  0.00  0.00    -0.082 A 
ATOM      4  C2  PXY d   1      -0.049  -0.207   0.545  0.00  0.00     0.003 A 
ATOM      5  C3  PXY d   1       0.913  -0.534   1.467  0.00  0.00     0.003 A 
ATOM      6  C4  PXY d   1       0.746  -0.209   2.787  0.00  0.00    -0.082 A 
ATOM      7  C5  PXY d   1      -0.392   0.399   3.183  0.00  0.00     0.003 A 
ATOM      8  C6  PXY d   1      -1.373   0.685   2.238  0.00  0.00     0.003 A 
ENDROOT
TORSDOF 0
ENDMDL
