MODEL 1
REMARK minimizedAffinity -4.36800146
REMARK minimizedRMSD -1
REMARK  0 active torsions:
REMARK  status: ('A' for Active; 'I' for Inactive)
ROOT
ATOM      1  C4' PXY d   1       1.226   0.101  -3.035  0.00  0.00     0.077 C 
ATOM      2  C1' PXY d   1      -1.716   0.331   1.936  0.00  0.00     0.077 C 
ATOM      3  C1  PXY d   1      -0.937   0.260   0.637  0.00  0.00    -0.082 A 
ATOM      4  C2  PXY d   1      -0.846   1.335  -0.130  0.00  0.00     0.003 A 
ATOM      5  C3  PXY d   1      -0.173   1.280  -1.324  0.00  0.00     0.003 A 
ATOM      6  C4  PXY d   1       0.459   0.128  -1.711  0.00  0.00    -0.082 A 
ATOM      7  C5  PXY d   1       0.379  -0.969  -0.928  0.00  0.00     0.003 A 
ATOM      8  C6  PXY d   1      -0.343  -0.904   0.259  0.00  0.00     0.003 A 
ENDROOT
TORSDOF 0
ENDMDL
