MODEL 1
REMARK minimizedAffinity 6.58691788
REMARK minimizedRMSD -1
REMARK  1 active torsions:
REMARK  status: ('A' for Active; 'I' for Inactive)
REMARK    1  A    between atoms: C1_2  and  C2_3 
ROOT
ATOM      1  C2  UNL d   1       1.737   4.097   2.762  0.00  0.00    -0.073 A 
ATOM      2  C3  UNL d   1       0.438   4.611   2.684  0.00  0.00    -0.002 A 
ATOM      3  C4  UNL d   1      -0.003   5.555   3.613  0.00  0.00     0.004 A 
ATOM      4  C5  UNL d   1       0.851   5.998   4.624  0.00  0.00    -0.004 A 
ATOM      5  C6  UNL d   1       2.157   5.504   4.711  0.00  0.00    -0.075 A 
ATOM      6  C7  UNL d   1       3.087   5.968   5.793  0.00  0.00     0.076 C 
ATOM      7  C8  UNL d   1       2.591   4.555   3.776  0.00  0.00     0.001 A 
ENDROOT
BRANCH   1   8
ATOM      8  C1  UNL d   1       2.220   3.083   1.757  0.00  0.00     0.053 C 
ATOM      9  C   UNL d   1       3.730   3.127   1.583  0.00  0.00     0.018 C 
ENDBRANCH   1   8
TORSDOF 1
ENDMDL
