MODEL 1
REMARK minimizedAffinity -1.94259489
REMARK minimizedRMSD -1
REMARK  1 active torsions:
REMARK  status: ('A' for Active; 'I' for Inactive)
REMARK    1  A    between atoms: C1_2  and  C2_3 
ROOT
ATOM      1  C2  UNL d   1       4.073  -4.059   2.510  0.00  0.00    -0.073 A 
ATOM      2  C3  UNL d   1       4.754  -4.554   1.391  0.00  0.00    -0.002 A 
ATOM      3  C4  UNL d   1       4.324  -4.229   0.104  0.00  0.00     0.004 A 
ATOM      4  C5  UNL d   1       3.216  -3.401  -0.078  0.00  0.00    -0.004 A 
ATOM      5  C6  UNL d   1       2.530  -2.887   1.027  0.00  0.00    -0.075 A 
ATOM      6  C7  UNL d   1       1.335  -1.998   0.847  0.00  0.00     0.076 C 
ATOM      7  C8  UNL d   1       2.966  -3.220   2.316  0.00  0.00     0.001 A 
ENDROOT
BRANCH   1   8
ATOM      8  C1  UNL d   1       4.537  -4.402   3.902  0.00  0.00     0.053 C 
ATOM      9  C   UNL d   1       4.667  -3.167   4.780  0.00  0.00     0.018 C 
ENDBRANCH   1   8
TORSDOF 1
ENDMDL
