MODEL 1
REMARK minimizedAffinity 4.64506006
REMARK minimizedRMSD -1
REMARK  1 active torsions:
REMARK  status: ('A' for Active; 'I' for Inactive)
REMARK    1  A    between atoms: C1_2  and  C2_3 
ROOT
ATOM      1  C2  UNL d   1       2.177   3.899  -5.991  0.00  0.00    -0.073 A 
ATOM      2  C3  UNL d   1       2.699   5.197  -5.999  0.00  0.00    -0.002 A 
ATOM      3  C4  UNL d   1       4.080   5.402  -5.997  0.00  0.00     0.004 A 
ATOM      4  C5  UNL d   1       4.951   4.312  -5.994  0.00  0.00    -0.004 A 
ATOM      5  C6  UNL d   1       4.448   3.007  -5.997  0.00  0.00    -0.075 A 
ATOM      6  C7  UNL d   1       5.371   1.825  -5.991  0.00  0.00     0.076 C 
ATOM      7  C8  UNL d   1       3.060   2.810  -5.996  0.00  0.00     0.001 A 
ENDROOT
BRANCH   1   8
ATOM      8  C1  UNL d   1       0.687   3.673  -5.999  0.00  0.00     0.053 C 
ATOM      9  C   UNL d   1       0.334   2.197  -5.920  0.00  0.00     0.018 C 
ENDBRANCH   1   8
TORSDOF 1
ENDMDL
