MODEL 1
REMARK minimizedAffinity 15.9912949
REMARK minimizedRMSD -1
REMARK  0 active torsions:
REMARK  status: ('A' for Active; 'I' for Inactive)
ROOT
ATOM      1  C1  DEN d   1       4.182   0.157   0.396  0.00  0.00     0.130 A 
ATOM      2  C2  DEN d   1       4.419   1.499  -0.129  0.00  0.00    -0.031 A 
ATOM      3  C3  DEN d   1       3.617   1.656  -1.359  0.00  0.00     0.027 A 
ATOM      4  C4  DEN d   1       2.037  -0.037  -2.493  0.00  0.00     0.027 A 
ATOM      5  C5  DEN d   1       1.522  -1.313  -2.423  0.00  0.00    -0.003 A 
ATOM      6  C6  DEN d   1       1.880  -2.192  -1.436  0.00  0.00     0.001 A 
ATOM      7  C7  DEN d   1       2.745  -1.792  -0.452  0.00  0.00     0.017 A 
ATOM      8  C8  DEN d   1       3.275  -0.510  -0.520  0.00  0.00    -0.094 A 
ATOM      9  C9  DEN d   1       2.890   0.368  -1.519  0.00  0.00    -0.072 A 
ENDROOT
TORSDOF 0
ENDMDL
