MODEL 1
REMARK minimizedAffinity 9.80418587
REMARK minimizedRMSD -1
REMARK  0 active torsions:
REMARK  status: ('A' for Active; 'I' for Inactive)
ROOT
ATOM      1  C1  DEN d   1       4.445  -2.141   0.841  0.00  0.00     0.130 A 
ATOM      2  C2  DEN d   1       3.542  -3.216   0.440  0.00  0.00    -0.031 A 
ATOM      3  C3  DEN d   1       2.354  -2.604  -0.189  0.00  0.00     0.027 A 
ATOM      4  C4  DEN d   1       1.831  -0.110  -0.582  0.00  0.00     0.027 A 
ATOM      5  C5  DEN d   1       2.291   1.176  -0.402  0.00  0.00    -0.003 A 
ATOM      6  C6  DEN d   1       3.476   1.445   0.230  0.00  0.00     0.001 A 
ATOM      7  C7  DEN d   1       4.263   0.412   0.666  0.00  0.00     0.017 A 
ATOM      8  C8  DEN d   1       3.802  -0.886   0.494  0.00  0.00    -0.094 A 
ATOM      9  C9  DEN d   1       2.607  -1.139  -0.159  0.00  0.00    -0.072 A 
ENDROOT
TORSDOF 0
ENDMDL
