MODEL 1
REMARK minimizedAffinity 17.6582336
REMARK minimizedRMSD -1
REMARK  0 active torsions:
REMARK  status: ('A' for Active; 'I' for Inactive)
ROOT
ATOM      1  C1  DEN d   1       2.722  -1.998  -2.573  0.00  0.00     0.130 A 
ATOM      2  C2  DEN d   1       1.944  -1.615  -1.397  0.00  0.00    -0.031 A 
ATOM      3  C3  DEN d   1       2.691  -2.042  -0.197  0.00  0.00     0.027 A 
ATOM      4  C4  DEN d   1       4.966  -3.248  -0.044  0.00  0.00     0.027 A 
ATOM      5  C5  DEN d   1       6.000  -3.790  -0.775  0.00  0.00    -0.003 A 
ATOM      6  C6  DEN d   1       5.998  -3.804  -2.144  0.00  0.00     0.001 A 
ATOM      7  C7  DEN d   1       4.962  -3.224  -2.827  0.00  0.00     0.017 A 
ATOM      8  C8  DEN d   1       3.912  -2.681  -2.098  0.00  0.00    -0.094 A 
ATOM      9  C9  DEN d   1       3.938  -2.666  -0.714  0.00  0.00    -0.072 A 
ENDROOT
TORSDOF 0
ENDMDL
