MODEL 1
REMARK minimizedAffinity 11.6194859
REMARK minimizedRMSD -1
REMARK  0 active torsions:
REMARK  status: ('A' for Active; 'I' for Inactive)
ROOT
ATOM      1  C1  DEN d   1      -0.447   2.177   3.503  0.00  0.00     0.130 A 
ATOM      2  C2  DEN d   1       0.374   1.450   2.538  0.00  0.00    -0.031 A 
ATOM      3  C3  DEN d   1      -0.515   0.567   1.757  0.00  0.00     0.027 A 
ATOM      4  C4  DEN d   1      -3.070   0.261   1.943  0.00  0.00     0.027 A 
ATOM      5  C5  DEN d   1      -4.201   0.654   2.623  0.00  0.00    -0.003 A 
ATOM      6  C6  DEN d   1      -4.156   1.550   3.658  0.00  0.00     0.001 A 
ATOM      7  C7  DEN d   1      -2.960   2.117   4.014  0.00  0.00     0.017 A 
ATOM      8  C8  DEN d   1      -1.814   1.719   3.337  0.00  0.00    -0.094 A 
ATOM      9  C9  DEN d   1      -1.882   0.822   2.286  0.00  0.00    -0.072 A 
ENDROOT
TORSDOF 0
ENDMDL
