MODEL 1
REMARK minimizedAffinity 8.7789135
REMARK minimizedRMSD -1
REMARK  0 active torsions:
REMARK  status: ('A' for Active; 'I' for Inactive)
ROOT
ATOM      1  C1  DEN d   1      -1.333   0.976   1.347  0.00  0.00     0.130 A 
ATOM      2  C2  DEN d   1      -1.479   1.682   2.617  0.00  0.00    -0.031 A 
ATOM      3  C3  DEN d   1      -0.131   2.056   3.089  0.00  0.00     0.027 A 
ATOM      4  C4  DEN d   1       2.156   1.617   1.981  0.00  0.00     0.027 A 
ATOM      5  C5  DEN d   1       2.788   1.043   0.900  0.00  0.00    -0.003 A 
ATOM      6  C6  DEN d   1       2.099   0.383  -0.082  0.00  0.00     0.001 A 
ATOM      7  C7  DEN d   1       0.732   0.319  -0.027  0.00  0.00     0.017 A 
ATOM      8  C8  DEN d   1       0.088   0.888   1.064  0.00  0.00    -0.094 A 
ATOM      9  C9  DEN d   1       0.802   1.562   2.041  0.00  0.00    -0.072 A 
ENDROOT
TORSDOF 0
ENDMDL
