MODEL 1
REMARK minimizedAffinity 13.7928629
REMARK minimizedRMSD -1
REMARK  0 active torsions:
REMARK  status: ('A' for Active; 'I' for Inactive)
ROOT
ATOM      1  C1  DEN d   1       2.321   0.529  -0.711  0.00  0.00     0.130 A 
ATOM      2  C2  DEN d   1       3.277   1.497  -0.181  0.00  0.00    -0.031 A 
ATOM      3  C3  DEN d   1       4.331   0.752   0.536  0.00  0.00     0.027 A 
ATOM      4  C4  DEN d   1       4.577  -1.794   0.871  0.00  0.00     0.027 A 
ATOM      5  C5  DEN d   1       4.004  -3.020   0.615  0.00  0.00    -0.003 A 
ATOM      6  C6  DEN d   1       2.823  -3.146  -0.067  0.00  0.00     0.001 A 
ATOM      7  C7  DEN d   1       2.198  -2.029  -0.555  0.00  0.00     0.017 A 
ATOM      8  C8  DEN d   1       2.765  -0.789  -0.294  0.00  0.00    -0.094 A 
ATOM      9  C9  DEN d   1       3.967  -0.683   0.386  0.00  0.00    -0.072 A 
ENDROOT
TORSDOF 0
ENDMDL
