MODEL 1
REMARK minimizedAffinity 8.78361702
REMARK minimizedRMSD -1
REMARK  0 active torsions:
REMARK  status: ('A' for Active; 'I' for Inactive)
ROOT
ATOM      1  C1  DEN d   1       4.694  -0.418   0.034  0.00  0.00     0.130 A 
ATOM      2  C2  DEN d   1       4.241  -1.730   0.488  0.00  0.00    -0.031 A 
ATOM      3  C3  DEN d   1       2.899  -1.971  -0.079  0.00  0.00     0.027 A 
ATOM      4  C4  DEN d   1       1.488  -0.451  -1.613  0.00  0.00     0.027 A 
ATOM      5  C5  DEN d   1       1.448   0.765  -2.258  0.00  0.00    -0.003 A 
ATOM      6  C6  DEN d   1       2.463   1.679  -2.158  0.00  0.00     0.001 A 
ATOM      7  C7  DEN d   1       3.583   1.372  -1.432  0.00  0.00     0.017 A 
ATOM      8  C8  DEN d   1       3.628   0.151  -0.772  0.00  0.00    -0.094 A 
ATOM      9  C9  DEN d   1       2.597  -0.765  -0.895  0.00  0.00    -0.072 A 
ENDROOT
TORSDOF 0
ENDMDL
