MODEL 1
REMARK minimizedAffinity 14.5639839
REMARK minimizedRMSD -1
REMARK  0 active torsions:
REMARK  status: ('A' for Active; 'I' for Inactive)
ROOT
ATOM      1  C1  DEN d   1       1.119   0.754   2.327  0.00  0.00     0.130 A 
ATOM      2  C2  DEN d   1      -0.014   1.171   1.505  0.00  0.00    -0.031 A 
ATOM      3  C3  DEN d   1      -0.948   1.926   2.364  0.00  0.00     0.027 A 
ATOM      4  C4  DEN d   1      -0.749   2.491   4.873  0.00  0.00     0.027 A 
ATOM      5  C5  DEN d   1       0.030   2.341   5.999  0.00  0.00    -0.003 A 
ATOM      6  C6  DEN d   1       1.200   1.629   5.988  0.00  0.00     0.001 A 
ATOM      7  C7  DEN d   1       1.648   1.077   4.817  0.00  0.00     0.017 A 
ATOM      8  C8  DEN d   1       0.864   1.218   3.679  0.00  0.00    -0.094 A 
ATOM      9  C9  DEN d   1      -0.309   1.952   3.708  0.00  0.00    -0.072 A 
ENDROOT
TORSDOF 0
ENDMDL
