MODEL 1
REMARK minimizedAffinity 10.0671959
REMARK minimizedRMSD -1
REMARK  0 active torsions:
REMARK  status: ('A' for Active; 'I' for Inactive)
ROOT
ATOM      1  C1  DEN d   1      -3.058  -2.216  -5.883  0.00  0.00     0.130 A 
ATOM      2  C2  DEN d   1      -4.418  -2.735  -5.999  0.00  0.00    -0.031 A 
ATOM      3  C3  DEN d   1      -4.661  -3.638  -4.856  0.00  0.00     0.027 A 
ATOM      4  C4  DEN d   1      -3.074  -4.275  -2.926  0.00  0.00     0.027 A 
ATOM      5  C5  DEN d   1      -1.812  -4.095  -2.404  0.00  0.00    -0.003 A 
ATOM      6  C6  DEN d   1      -0.873  -3.310  -3.019  0.00  0.00     0.001 A 
ATOM      7  C7  DEN d   1      -1.197  -2.638  -4.168  0.00  0.00     0.017 A 
ATOM      8  C8  DEN d   1      -2.465  -2.821  -4.704  0.00  0.00    -0.094 A 
ATOM      9  C9  DEN d   1      -3.404  -3.609  -4.061  0.00  0.00    -0.072 A 
ENDROOT
TORSDOF 0
ENDMDL
