MODEL 1
REMARK minimizedAffinity 21.0725536
REMARK minimizedRMSD -1
REMARK  0 active torsions:
REMARK  status: ('A' for Active; 'I' for Inactive)
ROOT
ATOM      1  C1  DEN d   1      -2.286   1.391   2.100  0.00  0.00     0.130 A 
ATOM      2  C2  DEN d   1      -3.227   1.503   3.211  0.00  0.00    -0.031 A 
ATOM      3  C3  DEN d   1      -2.447   1.637   4.458  0.00  0.00     0.027 A 
ATOM      4  C4  DEN d   1       0.112   1.684   4.774  0.00  0.00     0.027 A 
ATOM      5  C5  DEN d   1       1.325   1.610   4.125  0.00  0.00    -0.003 A 
ATOM      6  C6  DEN d   1       1.419   1.425   2.772  0.00  0.00     0.001 A 
ATOM      7  C7  DEN d   1       0.278   1.353   2.016  0.00  0.00     0.017 A 
ATOM      8  C8  DEN d   1      -0.948   1.419   2.664  0.00  0.00    -0.094 A 
ATOM      9  C9  DEN d   1      -1.022   1.619   4.032  0.00  0.00    -0.072 A 
ENDROOT
TORSDOF 0
ENDMDL
