MODEL 1
REMARK minimizedAffinity 11.3681383
REMARK minimizedRMSD -1
REMARK  0 active torsions:
REMARK  status: ('A' for Active; 'I' for Inactive)
ROOT
ATOM      1  C1  DEN d   1       3.380   0.513  -0.942  0.00  0.00     0.130 A 
ATOM      2  C2  DEN d   1       2.054   0.567  -1.550  0.00  0.00    -0.031 A 
ATOM      3  C3  DEN d   1       1.409  -0.748  -1.356  0.00  0.00     0.027 A 
ATOM      4  C4  DEN d   1       2.329  -2.848  -0.175  0.00  0.00     0.027 A 
ATOM      5  C5  DEN d   1       3.413  -3.379   0.488  0.00  0.00    -0.003 A 
ATOM      6  C6  DEN d   1       4.566  -2.667   0.689  0.00  0.00     0.001 A 
ATOM      7  C7  DEN d   1       4.644  -1.367   0.262  0.00  0.00     0.017 A 
ATOM      8  C8  DEN d   1       3.558  -0.828  -0.413  0.00  0.00    -0.094 A 
ATOM      9  C9  DEN d   1       2.397  -1.560  -0.596  0.00  0.00    -0.072 A 
ENDROOT
TORSDOF 0
ENDMDL
