MODEL 1
REMARK minimizedAffinity 19.1916122
REMARK minimizedRMSD -1
REMARK  0 active torsions:
REMARK  status: ('A' for Active; 'I' for Inactive)
ROOT
ATOM      1  C1  DEN d   1      -0.527   2.572   3.266  0.00  0.00     0.130 A 
ATOM      2  C2  DEN d   1       0.308   1.723   2.420  0.00  0.00    -0.031 A 
ATOM      3  C3  DEN d   1      -0.553   0.680   1.828  0.00  0.00     0.027 A 
ATOM      4  C4  DEN d   1      -3.086   0.302   2.133  0.00  0.00     0.027 A 
ATOM      5  C5  DEN d   1      -4.222   0.759   2.765  0.00  0.00    -0.003 A 
ATOM      6  C6  DEN d   1      -4.199   1.823   3.628  0.00  0.00     0.001 A 
ATOM      7  C7  DEN d   1      -3.025   2.494   3.847  0.00  0.00     0.017 A 
ATOM      8  C8  DEN d   1      -1.875   2.034   3.219  0.00  0.00    -0.094 A 
ATOM      9  C9  DEN d   1      -1.921   0.964   2.341  0.00  0.00    -0.072 A 
ENDROOT
TORSDOF 0
ENDMDL
