MODEL 1
REMARK minimizedAffinity 2.3738203
REMARK minimizedRMSD -1
REMARK  0 active torsions:
REMARK  status: ('A' for Active; 'I' for Inactive)
ROOT
ATOM      1  C   UNL d   1       3.916   4.998  -1.701  0.00  0.00     0.023 A 
ATOM      2  C1  UNL d   1       5.123   5.694  -1.754  0.00  0.00     0.003 A 
ATOM      3  C2  UNL d   1       5.716   5.973  -2.986  0.00  0.00     0.048 A 
ATOM      4  C3  UNL d   1       5.096   5.554  -4.163  0.00  0.00     0.023 A 
ATOM      5  C4  UNL d   1       3.888   4.857  -4.115  0.00  0.00     0.048 A 
ATOM      6  C5  UNL d   1       3.299   4.580  -2.880  0.00  0.00     0.003 A 
ATOM      7  I   UNL d   1       5.977   5.968  -5.999  0.00  0.00    -0.146 I 
ENDROOT
TORSDOF 0
ENDMDL
