MODEL 1
REMARK minimizedAffinity 3.39860511
REMARK minimizedRMSD -1
REMARK  0 active torsions:
REMARK  status: ('A' for Active; 'I' for Inactive)
ROOT
ATOM      1  C   UNL d   1       4.010   5.278  -1.336  0.00  0.00     0.023 A 
ATOM      2  C1  UNL d   1       3.288   4.965  -2.488  0.00  0.00     0.003 A 
ATOM      3  C2  UNL d   1       3.857   5.169  -3.747  0.00  0.00     0.048 A 
ATOM      4  C3  UNL d   1       5.149   5.686  -3.846  0.00  0.00     0.023 A 
ATOM      5  C4  UNL d   1       5.875   5.999  -2.696  0.00  0.00     0.048 A 
ATOM      6  C5  UNL d   1       5.302   5.794  -1.440  0.00  0.00     0.003 A 
ATOM      7  I   UNL d   1       5.998   5.990  -5.719  0.00  0.00    -0.146 I 
ENDROOT
TORSDOF 0
ENDMDL
