MODEL 1
REMARK minimizedAffinity 6.54117918
REMARK minimizedRMSD -1
REMARK  0 active torsions:
REMARK  status: ('A' for Active; 'I' for Inactive)
ROOT
ATOM      1  C   UNL d   1       1.623  -0.794   1.318  0.00  0.00     0.023 A 
ATOM      2  C1  UNL d   1       2.161  -2.034   1.662  0.00  0.00     0.003 A 
ATOM      3  C2  UNL d   1       1.819  -2.632   2.876  0.00  0.00     0.048 A 
ATOM      4  C3  UNL d   1       0.937  -1.986   3.741  0.00  0.00     0.023 A 
ATOM      5  C4  UNL d   1       0.395  -0.746   3.401  0.00  0.00     0.048 A 
ATOM      6  C5  UNL d   1       0.740  -0.151   2.186  0.00  0.00     0.003 A 
ATOM      7  I   UNL d   1       0.426  -2.876   5.549  0.00  0.00    -0.146 I 
ENDROOT
TORSDOF 0
ENDMDL
