MODEL 1
REMARK minimizedAffinity 1.14723086
REMARK minimizedRMSD -1
REMARK  0 active torsions:
REMARK  status: ('A' for Active; 'I' for Inactive)
ROOT
ATOM      1  C   UNL d   1      -3.307   1.091  -1.958  0.00  0.00     0.023 A 
ATOM      2  C1  UNL d   1      -2.595  -0.094  -2.144  0.00  0.00     0.003 A 
ATOM      3  C2  UNL d   1      -1.507  -0.392  -1.321  0.00  0.00     0.048 A 
ATOM      4  C3  UNL d   1      -1.136   0.499  -0.315  0.00  0.00     0.023 A 
ATOM      5  C4  UNL d   1      -1.846   1.686  -0.125  0.00  0.00     0.048 A 
ATOM      6  C5  UNL d   1      -2.933   1.980  -0.950  0.00  0.00     0.003 A 
ATOM      7  I   UNL d   1       0.483   0.058   0.911  0.00  0.00    -0.146 I 
ENDROOT
TORSDOF 0
ENDMDL
