MODEL 1
REMARK minimizedAffinity 14.8430796
REMARK minimizedRMSD -1
REMARK  0 active torsions:
REMARK  status: ('A' for Active; 'I' for Inactive)
ROOT
ATOM      1  C   UNL d   1      -0.632   2.947   1.681  0.00  0.00     0.023 A 
ATOM      2  C1  UNL d   1      -1.399   1.800   1.887  0.00  0.00     0.003 A 
ATOM      3  C2  UNL d   1      -2.099   1.228   0.823  0.00  0.00     0.048 A 
ATOM      4  C3  UNL d   1      -2.026   1.806  -0.444  0.00  0.00     0.023 A 
ATOM      5  C4  UNL d   1      -1.259   2.952  -0.654  0.00  0.00     0.048 A 
ATOM      6  C5  UNL d   1      -0.561   3.522   0.413  0.00  0.00     0.003 A 
ATOM      7  I   UNL d   1      -3.067   0.955  -2.029  0.00  0.00    -0.146 I 
ENDROOT
TORSDOF 0
ENDMDL
