MODEL 1
REMARK minimizedAffinity 0.609703839
REMARK minimizedRMSD -1
REMARK  0 active torsions:
REMARK  status: ('A' for Active; 'I' for Inactive)
ROOT
ATOM      1  C   UNL d   1       1.913  -0.032   2.215  0.00  0.00     0.023 A 
ATOM      2  C1  UNL d   1       1.499   0.496   3.438  0.00  0.00     0.003 A 
ATOM      3  C2  UNL d   1       1.276  -0.351   4.526  0.00  0.00     0.048 A 
ATOM      4  C3  UNL d   1       1.468  -1.725   4.383  0.00  0.00     0.023 A 
ATOM      5  C4  UNL d   1       1.882  -2.257   3.161  0.00  0.00     0.048 A 
ATOM      6  C5  UNL d   1       2.104  -1.407   2.076  0.00  0.00     0.003 A 
ATOM      7  I   UNL d   1       1.135  -2.988   6.000  0.00  0.00    -0.146 I 
ENDROOT
TORSDOF 0
ENDMDL
