MODEL 1
REMARK minimizedAffinity -2.10690331
REMARK minimizedRMSD -1
REMARK  0 active torsions:
REMARK  status: ('A' for Active; 'I' for Inactive)
ROOT
ATOM      1  C1  DEN d   1       6.000   3.252   2.415  0.00  0.00     0.130 A 
ATOM      2  C2  DEN d   1       5.965   4.559   3.064  0.00  0.00    -0.031 A 
ATOM      3  C3  DEN d   1       5.949   4.344   4.525  0.00  0.00     0.027 A 
ATOM      4  C4  DEN d   1       5.980   2.124   5.837  0.00  0.00     0.027 A 
ATOM      5  C5  DEN d   1       5.999   0.751   5.722  0.00  0.00    -0.003 A 
ATOM      6  C6  DEN d   1       5.984   0.121   4.506  0.00  0.00     0.001 A 
ATOM      7  C7  DEN d   1       5.997   0.865   3.355  0.00  0.00     0.017 A 
ATOM      8  C8  DEN d   1       5.971   2.249   3.464  0.00  0.00    -0.094 A 
ATOM      9  C9  DEN d   1       5.998   2.867   4.702  0.00  0.00    -0.072 A 
ENDROOT
TORSDOF 0
ENDMDL
