MODEL 1
REMARK minimizedAffinity -2.233886
REMARK minimizedRMSD -1
REMARK  0 active torsions:
REMARK  status: ('A' for Active; 'I' for Inactive)
ROOT
ATOM      1  C1  DEN d   1       5.939   0.396   6.000  0.00  0.00     0.130 A 
ATOM      2  C2  DEN d   1       6.000   1.384   4.926  0.00  0.00    -0.031 A 
ATOM      3  C3  DEN d   1       5.999   0.659   3.639  0.00  0.00     0.027 A 
ATOM      4  C4  DEN d   1       5.906  -1.882   3.207  0.00  0.00     0.027 A 
ATOM      5  C5  DEN d   1       5.856  -3.121   3.806  0.00  0.00    -0.003 A 
ATOM      6  C6  DEN d   1       5.865  -3.275   5.167  0.00  0.00     0.001 A 
ATOM      7  C7  DEN d   1       5.879  -2.169   5.976  0.00  0.00     0.017 A 
ATOM      8  C8  DEN d   1       5.937  -0.916   5.379  0.00  0.00    -0.094 A 
ATOM      9  C9  DEN d   1       5.915  -0.781   4.001  0.00  0.00    -0.072 A 
ENDROOT
TORSDOF 0
ENDMDL
