MODEL 1
REMARK minimizedAffinity -2.57896543
REMARK minimizedRMSD -1
REMARK  0 active torsions:
REMARK  status: ('A' for Active; 'I' for Inactive)
ROOT
ATOM      1  C1  DEN d   1       5.995   3.734   5.642  0.00  0.00     0.130 A 
ATOM      2  C2  DEN d   1       5.633   4.561   4.494  0.00  0.00    -0.031 A 
ATOM      3  C3  DEN d   1       5.183   3.665   3.410  0.00  0.00     0.027 A 
ATOM      4  C4  DEN d   1       5.007   1.092   3.399  0.00  0.00     0.027 A 
ATOM      5  C5  DEN d   1       5.213  -0.050   4.141  0.00  0.00    -0.003 A 
ATOM      6  C6  DEN d   1       5.722  -0.014   5.412  0.00  0.00     0.001 A 
ATOM      7  C7  DEN d   1       6.000   1.193   5.997  0.00  0.00     0.017 A 
ATOM      8  C8  DEN d   1       5.802   2.349   5.253  0.00  0.00    -0.094 A 
ATOM      9  C9  DEN d   1       5.275   2.292   3.974  0.00  0.00    -0.072 A 
ENDROOT
TORSDOF 0
ENDMDL
