MODEL 1
REMARK minimizedAffinity -3.45464921
REMARK minimizedRMSD -1
REMARK  0 active torsions:
REMARK  status: ('A' for Active; 'I' for Inactive)
ROOT
ATOM      1  C1  DEN d   1       5.263   3.375   4.500  0.00  0.00     0.130 A 
ATOM      2  C2  DEN d   1       5.637   3.726   3.133  0.00  0.00    -0.031 A 
ATOM      3  C3  DEN d   1       5.994   2.481   2.424  0.00  0.00     0.027 A 
ATOM      4  C4  DEN d   1       5.998   0.056   3.303  0.00  0.00     0.027 A 
ATOM      5  C5  DEN d   1       5.767  -0.739   4.404  0.00  0.00    -0.003 A 
ATOM      6  C6  DEN d   1       5.387  -0.220   5.613  0.00  0.00     0.001 A 
ATOM      7  C7  DEN d   1       5.184   1.129   5.739  0.00  0.00     0.017 A 
ATOM      8  C8  DEN d   1       5.422   1.938   4.636  0.00  0.00    -0.094 A 
ATOM      9  C9  DEN d   1       5.794   1.393   3.419  0.00  0.00    -0.072 A 
ENDROOT
TORSDOF 0
ENDMDL
