MODEL 1
REMARK minimizedAffinity 4.58820677
REMARK minimizedRMSD -1
REMARK  0 active torsions:
REMARK  status: ('A' for Active; 'I' for Inactive)
ROOT
ATOM      1  C1  DEN d   1       5.493  -1.966   3.662  0.00  0.00     0.130 A 
ATOM      2  C2  DEN d   1       5.753  -2.736   4.876  0.00  0.00    -0.031 A 
ATOM      3  C3  DEN d   1       6.000  -1.782   5.977  0.00  0.00     0.027 A 
ATOM      4  C4  DEN d   1       6.000   0.796   5.920  0.00  0.00     0.027 A 
ATOM      5  C5  DEN d   1       5.842   1.901   5.113  0.00  0.00    -0.003 A 
ATOM      6  C6  DEN d   1       5.593   1.796   3.770  0.00  0.00     0.001 A 
ATOM      7  C7  DEN d   1       5.450   0.557   3.202  0.00  0.00     0.017 A 
ATOM      8  C8  DEN d   1       5.614  -0.562   4.008  0.00  0.00    -0.094 A 
ATOM      9  C9  DEN d   1       5.853  -0.434   5.366  0.00  0.00    -0.072 A 
ENDROOT
TORSDOF 0
ENDMDL
