MODEL 1
REMARK minimizedAffinity -1.39341938
REMARK minimizedRMSD -1
REMARK  0 active torsions:
REMARK  status: ('A' for Active; 'I' for Inactive)
ROOT
ATOM      1  C1  DEN d   1       5.178   3.233   2.764  0.00  0.00     0.130 A 
ATOM      2  C2  DEN d   1       5.590   4.473   3.416  0.00  0.00    -0.031 A 
ATOM      3  C3  DEN d   1       5.984   4.151   4.802  0.00  0.00     0.027 A 
ATOM      4  C4  DEN d   1       5.999   1.865   5.996  0.00  0.00     0.027 A 
ATOM      5  C5  DEN d   1       5.723   0.523   5.854  0.00  0.00    -0.003 A 
ATOM      6  C6  DEN d   1       5.218  -0.000   4.693  0.00  0.00     0.001 A 
ATOM      7  C7  DEN d   1       5.016   0.817   3.612  0.00  0.00     0.017 A 
ATOM      8  C8  DEN d   1       5.285   2.172   3.750  0.00  0.00    -0.094 A 
ATOM      9  C9  DEN d   1       5.807   2.680   4.928  0.00  0.00    -0.072 A 
ENDROOT
TORSDOF 0
ENDMDL
