MODEL 1
REMARK minimizedAffinity -0.80368042
REMARK minimizedRMSD -1
REMARK  0 active torsions:
REMARK  status: ('A' for Active; 'I' for Inactive)
ROOT
ATOM      1  C1  DEN d   1       5.968   0.322   6.000  0.00  0.00     0.130 A 
ATOM      2  C2  DEN d   1       5.977  -1.089   5.622  0.00  0.00    -0.031 A 
ATOM      3  C3  DEN d   1       5.984  -1.166   4.147  0.00  0.00     0.027 A 
ATOM      4  C4  DEN d   1       5.986   0.751   2.422  0.00  0.00     0.027 A 
ATOM      5  C5  DEN d   1       5.969   2.119   2.264  0.00  0.00    -0.003 A 
ATOM      6  C6  DEN d   1       5.916   2.977   3.331  0.00  0.00     0.001 A 
ATOM      7  C7  DEN d   1       5.924   2.475   4.606  0.00  0.00     0.017 A 
ATOM      8  C8  DEN d   1       5.934   1.097   4.773  0.00  0.00    -0.094 A 
ATOM      9  C9  DEN d   1       6.000   0.247   3.682  0.00  0.00    -0.072 A 
ENDROOT
TORSDOF 0
ENDMDL
