MODEL 1
REMARK minimizedAffinity 2.76228237
REMARK minimizedRMSD -1
REMARK  0 active torsions:
REMARK  status: ('A' for Active; 'I' for Inactive)
ROOT
ATOM      1  C1  DEN d   1       5.999   3.916   4.593  0.00  0.00     0.130 A 
ATOM      2  C2  DEN d   1       5.576   4.494   3.320  0.00  0.00    -0.031 A 
ATOM      3  C3  DEN d   1       5.052   3.402   2.475  0.00  0.00     0.027 A 
ATOM      4  C4  DEN d   1       4.849   0.888   3.014  0.00  0.00     0.027 A 
ATOM      5  C5  DEN d   1       5.088  -0.079   3.965  0.00  0.00    -0.003 A 
ATOM      6  C6  DEN d   1       5.674   0.210   5.169  0.00  0.00     0.001 A 
ATOM      7  C7  DEN d   1       6.000   1.506   5.472  0.00  0.00     0.017 A 
ATOM      8  C8  DEN d   1       5.768   2.485   4.515  0.00  0.00    -0.094 A 
ATOM      9  C9  DEN d   1       5.164   2.175   3.308  0.00  0.00    -0.072 A 
ENDROOT
TORSDOF 0
ENDMDL
