MODEL 1
REMARK minimizedAffinity -1.02492893
REMARK minimizedRMSD -1
REMARK  0 active torsions:
REMARK  status: ('A' for Active; 'I' for Inactive)
ROOT
ATOM      1  C1  DEN d   1       5.978  -0.272   5.983  0.00  0.00     0.130 A 
ATOM      2  C2  DEN d   1       5.952  -1.423   5.085  0.00  0.00    -0.031 A 
ATOM      3  C3  DEN d   1       5.947  -0.919   3.697  0.00  0.00     0.027 A 
ATOM      4  C4  DEN d   1       5.982   1.519   2.855  0.00  0.00     0.027 A 
ATOM      5  C5  DEN d   1       5.995   2.840   3.244  0.00  0.00    -0.003 A 
ATOM      6  C6  DEN d   1       5.969   3.214   4.561  0.00  0.00     0.001 A 
ATOM      7  C7  DEN d   1       5.975   2.256   5.539  0.00  0.00     0.017 A 
ATOM      8  C8  DEN d   1       5.954   0.921   5.156  0.00  0.00    -0.094 A 
ATOM      9  C9  DEN d   1       5.993   0.563   3.819  0.00  0.00    -0.072 A 
ENDROOT
TORSDOF 0
ENDMDL
