MODEL 1
REMARK minimizedAffinity -0.0270923618
REMARK minimizedRMSD -1
REMARK  0 active torsions:
REMARK  status: ('A' for Active; 'I' for Inactive)
ROOT
ATOM      1  C1  DEN d   1       5.979   3.168   4.644  0.00  0.00     0.130 A 
ATOM      2  C2  DEN d   1       5.986   3.914   3.389  0.00  0.00    -0.031 A 
ATOM      3  C3  DEN d   1       5.971   2.940   2.279  0.00  0.00     0.027 A 
ATOM      4  C4  DEN d   1       5.934   0.363   2.382  0.00  0.00     0.027 A 
ATOM      5  C5  DEN d   1       5.933  -0.727   3.225  0.00  0.00    -0.003 A 
ATOM      6  C6  DEN d   1       5.981  -0.596   4.588  0.00  0.00     0.001 A 
ATOM      7  C7  DEN d   1       5.987   0.653   5.150  0.00  0.00     0.017 A 
ATOM      8  C8  DEN d   1       5.996   1.756   4.307  0.00  0.00    -0.094 A 
ATOM      9  C9  DEN d   1       5.934   1.604   2.932  0.00  0.00    -0.072 A 
ENDROOT
TORSDOF 0
ENDMDL
