MODEL 1
REMARK minimizedAffinity 5.28028774
REMARK minimizedRMSD -1
REMARK  0 active torsions:
REMARK  status: ('A' for Active; 'I' for Inactive)
ROOT
ATOM      1  C1  DEN d   1       5.948   2.118   2.256  0.00  0.00     0.130 A 
ATOM      2  C2  DEN d   1       5.974   1.355   3.501  0.00  0.00    -0.031 A 
ATOM      3  C3  DEN d   1       5.996   2.314   4.623  0.00  0.00     0.027 A 
ATOM      4  C4  DEN d   1       5.989   4.893   4.555  0.00  0.00     0.027 A 
ATOM      5  C5  DEN d   1       5.982   5.994   3.727  0.00  0.00    -0.003 A 
ATOM      6  C6  DEN d   1       5.998   5.881   2.362  0.00  0.00     0.001 A 
ATOM      7  C7  DEN d   1       5.975   4.640   1.783  0.00  0.00     0.017 A 
ATOM      8  C8  DEN d   1       5.989   3.525   2.611  0.00  0.00    -0.094 A 
ATOM      9  C9  DEN d   1       5.961   3.660   3.989  0.00  0.00    -0.072 A 
ENDROOT
TORSDOF 0
ENDMDL
