MODEL 1
REMARK minimizedAffinity -0.245368972
REMARK minimizedRMSD -1
REMARK  0 active torsions:
REMARK  status: ('A' for Active; 'I' for Inactive)
ROOT
ATOM      1  C1  DEN d   1       5.983  -1.439   6.000  0.00  0.00     0.130 A 
ATOM      2  C2  DEN d   1       5.950  -2.502   4.998  0.00  0.00    -0.031 A 
ATOM      3  C3  DEN d   1       5.942  -1.870   3.663  0.00  0.00     0.027 A 
ATOM      4  C4  DEN d   1       5.981   0.636   3.054  0.00  0.00     0.027 A 
ATOM      5  C5  DEN d   1       5.999   1.915   3.564  0.00  0.00    -0.003 A 
ATOM      6  C6  DEN d   1       5.979   2.164   4.910  0.00  0.00     0.001 A 
ATOM      7  C7  DEN d   1       5.985   1.118   5.795  0.00  0.00     0.017 A 
ATOM      8  C8  DEN d   1       5.959  -0.175   5.288  0.00  0.00    -0.094 A 
ATOM      9  C9  DEN d   1       5.992  -0.406   3.923  0.00  0.00    -0.072 A 
ENDROOT
TORSDOF 0
ENDMDL
