MODEL 1
REMARK minimizedAffinity 3.91713595
REMARK minimizedRMSD -1
REMARK  0 active torsions:
REMARK  status: ('A' for Active; 'I' for Inactive)
ROOT
ATOM      1  C1  DEN d   1       5.984   4.437   1.121  0.00  0.00     0.130 A 
ATOM      2  C2  DEN d   1       5.938   5.861   1.441  0.00  0.00    -0.031 A 
ATOM      3  C3  DEN d   1       5.923   5.998   2.912  0.00  0.00     0.027 A 
ATOM      4  C4  DEN d   1       5.970   4.153   4.713  0.00  0.00     0.027 A 
ATOM      5  C5  DEN d   1       5.998   2.792   4.926  0.00  0.00    -0.003 A 
ATOM      6  C6  DEN d   1       5.989   1.891   3.895  0.00  0.00     0.001 A 
ATOM      7  C7  DEN d   1       5.997   2.341   2.601  0.00  0.00     0.017 A 
ATOM      8  C8  DEN d   1       5.961   3.711   2.378  0.00  0.00    -0.094 A 
ATOM      9  C9  DEN d   1       5.982   4.606   3.434  0.00  0.00    -0.072 A 
ENDROOT
TORSDOF 0
ENDMDL
