MODEL 1
REMARK minimizedAffinity -3.9466424
REMARK minimizedRMSD -1
REMARK  1 active torsions:
REMARK  status: ('A' for Active; 'I' for Inactive)
REMARK    1  A    between atoms: N_2  and  C1_3 
ROOT
ATOM      1  C1  UNL d   1       0.461  -0.447   0.241  0.00  0.00     0.143 A 
ATOM      2  C2  UNL d   1      -0.647  -0.340   1.089  0.00  0.00    -0.057 A 
ATOM      3  C3  UNL d   1      -0.537  -0.591   2.462  0.00  0.00     0.033 A 
ATOM      4  C4  UNL d   1       0.680  -0.983   3.008  0.00  0.00    -0.042 A 
ATOM      5  C5  UNL d   1       1.789  -1.120   2.180  0.00  0.00     0.033 A 
ATOM      6  C6  UNL d   1       1.674  -0.861   0.811  0.00  0.00    -0.057 A 
ENDROOT
BRANCH   1   7
ATOM      7  N   UNL d   1       0.394  -0.306  -1.148  0.00  0.00    -0.732 N 
ATOM      8  C   UNL d   1      -0.758   0.310  -1.772  0.00  0.00     0.284 C 
ATOM      9  H3  UNL d   1       1.285  -0.029  -1.553  0.00  0.00     0.395 HD
ENDBRANCH   1   7
TORSDOF 1
ENDMDL
