MODEL 1
REMARK minimizedAffinity -2.47973156
REMARK minimizedRMSD -1
REMARK  1 active torsions:
REMARK  status: ('A' for Active; 'I' for Inactive)
REMARK    1  A    between atoms: N_2  and  C1_3 
ROOT
ATOM      1  C1  UNL d   1      -0.126  -0.208   0.740  0.00  0.00     0.143 A 
ATOM      2  C2  UNL d   1      -0.749   0.772  -0.040  0.00  0.00    -0.057 A 
ATOM      3  C3  UNL d   1      -0.470   0.899  -1.406  0.00  0.00     0.033 A 
ATOM      4  C4  UNL d   1       0.462   0.063  -2.012  0.00  0.00    -0.042 A 
ATOM      5  C5  UNL d   1       1.112  -0.902  -1.251  0.00  0.00     0.033 A 
ATOM      6  C6  UNL d   1       0.824  -1.028   0.111  0.00  0.00    -0.057 A 
ENDROOT
BRANCH   1   7
ATOM      7  N   UNL d   1      -0.288  -0.320   2.123  0.00  0.00    -0.732 N 
ATOM      8  C   UNL d   1       0.475  -1.292   2.878  0.00  0.00     0.284 C 
ATOM      9  H3  UNL d   1      -0.374   0.585   2.579  0.00  0.00     0.395 HD
ENDBRANCH   1   7
TORSDOF 1
ENDMDL
