MODEL 1
REMARK minimizedAffinity -4.03887892
REMARK minimizedRMSD -1
REMARK  1 active torsions:
REMARK  status: ('A' for Active; 'I' for Inactive)
REMARK    1  A    between atoms: N_2  and  C1_3 
ROOT
ATOM      1  C1  UNL d   1      -1.172  -0.296   1.038  0.00  0.00     0.143 A 
ATOM      2  C2  UNL d   1      -0.477  -0.392  -0.172  0.00  0.00    -0.057 A 
ATOM      3  C3  UNL d   1       0.822  -0.913  -0.224  0.00  0.00     0.033 A 
ATOM      4  C4  UNL d   1       1.461  -1.322   0.942  0.00  0.00    -0.042 A 
ATOM      5  C5  UNL d   1       0.798  -1.212   2.159  0.00  0.00     0.033 A 
ATOM      6  C6  UNL d   1      -0.501  -0.697   2.204  0.00  0.00    -0.057 A 
ENDROOT
BRANCH   1   7
ATOM      7  N   UNL d   1      -2.427   0.304   1.169  0.00  0.00    -0.732 N 
ATOM      8  C   UNL d   1      -3.621  -0.378   0.718  0.00  0.00     0.284 C 
ATOM      9  H3  UNL d   1      -2.536   0.789   2.057  0.00  0.00     0.395 HD
ENDBRANCH   1   7
TORSDOF 1
ENDMDL
