MODEL 1
REMARK minimizedAffinity -2.50249147
REMARK minimizedRMSD -1
REMARK  1 active torsions:
REMARK  status: ('A' for Active; 'I' for Inactive)
REMARK    1  A    between atoms: N_2  and  C1_3 
ROOT
ATOM      1  C1  UNL d   1       0.488  -0.293   0.316  0.00  0.00     0.143 A 
ATOM      2  C2  UNL d   1       0.428   1.044   0.726  0.00  0.00    -0.057 A 
ATOM      3  C3  UNL d   1       0.722   1.413   2.044  0.00  0.00     0.033 A 
ATOM      4  C4  UNL d   1       1.054   0.445   2.986  0.00  0.00    -0.042 A 
ATOM      5  C5  UNL d   1       1.095  -0.892   2.607  0.00  0.00     0.033 A 
ATOM      6  C6  UNL d   1       0.807  -1.254   1.288  0.00  0.00    -0.057 A 
ENDROOT
BRANCH   1   7
ATOM      7  N   UNL d   1       0.112  -0.734  -0.955  0.00  0.00    -0.732 N 
ATOM      8  C   UNL d   1      -1.285  -0.811  -1.325  0.00  0.00     0.284 C 
ATOM      9  H3  UNL d   1       0.716  -0.370  -1.688  0.00  0.00     0.395 HD
ENDBRANCH   1   7
TORSDOF 1
ENDMDL
