MODEL 1
REMARK minimizedAffinity -1.30993807
REMARK minimizedRMSD -1
REMARK  1 active torsions:
REMARK  status: ('A' for Active; 'I' for Inactive)
REMARK    1  A    between atoms: N_2  and  C1_3 
ROOT
ATOM      1  C1  UNL d   1      -0.116   0.235   0.156  0.00  0.00     0.143 A 
ATOM      2  C2  UNL d   1      -0.754  -0.194  -1.013  0.00  0.00    -0.057 A 
ATOM      3  C3  UNL d   1      -1.137   0.715  -2.006  0.00  0.00     0.033 A 
ATOM      4  C4  UNL d   1      -0.913   2.077  -1.835  0.00  0.00    -0.042 A 
ATOM      5  C5  UNL d   1      -0.303   2.528  -0.670  0.00  0.00     0.033 A 
ATOM      6  C6  UNL d   1       0.083   1.615   0.315  0.00  0.00    -0.057 A 
ENDROOT
BRANCH   1   7
ATOM      7  N   UNL d   1       0.200  -0.608   1.224  0.00  0.00    -0.732 N 
ATOM      8  C   UNL d   1      -0.431  -0.432   2.514  0.00  0.00     0.284 C 
ATOM      9  H3  UNL d   1       0.296  -1.580   0.937  0.00  0.00     0.395 HD
ENDBRANCH   1   7
TORSDOF 1
ENDMDL
