MODEL 1
REMARK minimizedAffinity 0.523278952
REMARK minimizedRMSD -1
REMARK  0 active torsions:
REMARK  status: ('A' for Active; 'I' for Inactive)
ROOT
ATOM      1  C   UNL d   1      -0.090   1.623   1.456  0.00  0.00     0.020 A 
ATOM      2  C1  UNL d   1      -0.086   0.251   1.206  0.00  0.00     0.020 A 
ATOM      3  C2  UNL d   1      -1.093  -0.558   1.737  0.00  0.00     0.034 A 
ATOM      4  C3  UNL d   1      -2.107   0.003   2.521  0.00  0.00     0.017 A 
ATOM      5  C4  UNL d   1      -2.110   1.381   2.772  0.00  0.00     0.017 A 
ATOM      6  C5  UNL d   1      -1.099   2.186   2.237  0.00  0.00     0.034 A 
ATOM      7 Cl   UNL d   1      -3.328   2.146   3.729  0.00  0.00    -0.070 Cl
ATOM      8 Cl1  UNL d   1      -3.320  -1.057   3.146  0.00  0.00    -0.070 Cl
ENDROOT
TORSDOF 0
ENDMDL
