MODEL 1
REMARK minimizedAffinity 3.35371304
REMARK minimizedRMSD -1
REMARK  0 active torsions:
REMARK  status: ('A' for Active; 'I' for Inactive)
ROOT
ATOM      1  C   UNL d   1      -0.102   2.172   1.523  0.00  0.00     0.020 A 
ATOM      2  C1  UNL d   1       0.220   0.818   1.430  0.00  0.00     0.020 A 
ATOM      3  C2  UNL d   1      -0.593  -0.137   2.045  0.00  0.00     0.034 A 
ATOM      4  C3  UNL d   1      -1.731   0.260   2.755  0.00  0.00     0.017 A 
ATOM      5  C4  UNL d   1      -2.054   1.619   2.849  0.00  0.00     0.017 A 
ATOM      6  C5  UNL d   1      -1.237   2.571   2.231  0.00  0.00     0.034 A 
ATOM      7 Cl   UNL d   1      -3.442   2.185   3.708  0.00  0.00    -0.070 Cl
ATOM      8 Cl1  UNL d   1      -2.691  -0.975   3.490  0.00  0.00    -0.070 Cl
ENDROOT
TORSDOF 0
ENDMDL
