MODEL 1
REMARK minimizedAffinity 7.92269373
REMARK minimizedRMSD -1
REMARK  0 active torsions:
REMARK  status: ('A' for Active; 'I' for Inactive)
ROOT
ATOM      1  C   UNL d   1       0.759   1.919   1.087  0.00  0.00     0.020 A 
ATOM      2  C1  UNL d   1      -0.181   1.259   0.297  0.00  0.00     0.020 A 
ATOM      3  C2  UNL d   1      -0.639  -0.007   0.668  0.00  0.00     0.034 A 
ATOM      4  C3  UNL d   1      -0.155  -0.617   1.831  0.00  0.00     0.017 A 
ATOM      5  C4  UNL d   1       0.789   0.046   2.623  0.00  0.00     0.017 A 
ATOM      6  C5  UNL d   1       1.244   1.314   2.247  0.00  0.00     0.034 A 
ATOM      7 Cl   UNL d   1       1.432  -0.643   4.072  0.00  0.00    -0.070 Cl
ATOM      8 Cl1  UNL d   1      -0.765  -2.184   2.230  0.00  0.00    -0.070 Cl
ENDROOT
TORSDOF 0
ENDMDL
