MODEL 1
REMARK minimizedAffinity 7.45768499
REMARK minimizedRMSD -1
REMARK  0 active torsions:
REMARK  status: ('A' for Active; 'I' for Inactive)
ROOT
ATOM      1  C   UNL d   1      -5.833   2.160   6.000  0.00  0.00     0.020 A 
ATOM      2  C1  UNL d   1      -5.270   3.432   5.916  0.00  0.00     0.020 A 
ATOM      3  C2  UNL d   1      -4.168   3.654   5.088  0.00  0.00     0.034 A 
ATOM      4  C3  UNL d   1      -3.625   2.602   4.340  0.00  0.00     0.017 A 
ATOM      5  C4  UNL d   1      -4.192   1.325   4.425  0.00  0.00     0.017 A 
ATOM      6  C5  UNL d   1      -5.295   1.109   5.256  0.00  0.00     0.034 A 
ATOM      7 Cl   UNL d   1      -3.578  -0.022   3.534  0.00  0.00    -0.070 Cl
ATOM      8 Cl1  UNL d   1      -2.262   2.949   3.337  0.00  0.00    -0.070 Cl
ENDROOT
TORSDOF 0
ENDMDL
