MODEL 1
REMARK minimizedAffinity 2.36703253
REMARK minimizedRMSD -1
REMARK  0 active torsions:
REMARK  status: ('A' for Active; 'I' for Inactive)
ROOT
ATOM      1  C   UNL d   1      -1.295   2.679   2.394  0.00  0.00     0.020 A 
ATOM      2  C1  UNL d   1      -1.027   1.422   1.855  0.00  0.00     0.020 A 
ATOM      3  C2  UNL d   1      -1.834   0.332   2.188  0.00  0.00     0.034 A 
ATOM      4  C3  UNL d   1      -2.913   0.497   3.064  0.00  0.00     0.017 A 
ATOM      5  C4  UNL d   1      -3.182   1.760   3.605  0.00  0.00     0.017 A 
ATOM      6  C5  UNL d   1      -2.371   2.847   3.267  0.00  0.00     0.034 A 
ATOM      7 Cl   UNL d   1      -4.496   2.041   4.691  0.00  0.00    -0.070 Cl
ATOM      8 Cl1  UNL d   1      -3.869  -0.894   3.432  0.00  0.00    -0.070 Cl
ENDROOT
TORSDOF 0
ENDMDL
