MODEL 1
REMARK minimizedAffinity 0.828520656
REMARK minimizedRMSD -1
REMARK  0 active torsions:
REMARK  status: ('A' for Active; 'I' for Inactive)
ROOT
ATOM      1  C   UNL d   1      -3.003   1.526   2.902  0.00  0.00     0.020 A 
ATOM      2  C1  UNL d   1      -2.212   2.622   2.560  0.00  0.00     0.020 A 
ATOM      3  C2  UNL d   1      -0.943   2.424   2.013  0.00  0.00     0.034 A 
ATOM      4  C3  UNL d   1      -0.461   1.127   1.806  0.00  0.00     0.017 A 
ATOM      5  C4  UNL d   1      -1.255   0.027   2.149  0.00  0.00     0.017 A 
ATOM      6  C5  UNL d   1      -2.525   0.231   2.697  0.00  0.00     0.034 A 
ATOM      7 Cl   UNL d   1      -0.728  -1.604   1.923  0.00  0.00    -0.070 Cl
ATOM      8 Cl1  UNL d   1       1.118   0.956   1.125  0.00  0.00    -0.070 Cl
ENDROOT
TORSDOF 0
ENDMDL
