MODEL 1
REMARK minimizedAffinity -1.7421236
REMARK minimizedRMSD -1
REMARK  0 active torsions:
REMARK  status: ('A' for Active; 'I' for Inactive)
ROOT
ATOM      1  C   UNL d   1       0.356   2.085   1.037  0.00  0.00     0.020 A 
ATOM      2  C1  UNL d   1       0.804   0.770   0.920  0.00  0.00     0.020 A 
ATOM      3  C2  UNL d   1       0.095  -0.267   1.530  0.00  0.00     0.034 A 
ATOM      4  C3  UNL d   1      -1.066   0.010   2.261  0.00  0.00     0.017 A 
ATOM      5  C4  UNL d   1      -1.516   1.330   2.378  0.00  0.00     0.017 A 
ATOM      6  C5  UNL d   1      -0.802   2.364   1.764  0.00  0.00     0.034 A 
ATOM      7 Cl   UNL d   1      -2.940   1.750   3.262  0.00  0.00    -0.070 Cl
ATOM      8 Cl1  UNL d   1      -1.894  -1.321   2.990  0.00  0.00    -0.070 Cl
ENDROOT
TORSDOF 0
ENDMDL
