MODEL 1
REMARK minimizedAffinity -3.39146447
REMARK minimizedRMSD -1
REMARK  0 active torsions:
REMARK  status: ('A' for Active; 'I' for Inactive)
ROOT
ATOM      1  C   UNL d   1       1.259   0.748   1.041  0.00  0.00     0.020 A 
ATOM      2  C1  UNL d   1       0.945   2.099   1.180  0.00  0.00     0.020 A 
ATOM      3  C2  UNL d   1      -0.255   2.479   1.786  0.00  0.00     0.034 A 
ATOM      4  C3  UNL d   1      -1.145   1.506   2.255  0.00  0.00     0.017 A 
ATOM      5  C4  UNL d   1      -0.828   0.150   2.116  0.00  0.00     0.017 A 
ATOM      6  C5  UNL d   1       0.374  -0.225   1.508  0.00  0.00     0.034 A 
ATOM      7 Cl   UNL d   1      -1.876  -1.108   2.670  0.00  0.00    -0.070 Cl
ATOM      8 Cl1  UNL d   1      -2.610   2.047   2.994  0.00  0.00    -0.070 Cl
ENDROOT
TORSDOF 0
ENDMDL
