MODEL 1
REMARK minimizedAffinity 4.74103403
REMARK minimizedRMSD -1
REMARK  0 active torsions:
REMARK  status: ('A' for Active; 'I' for Inactive)
ROOT
ATOM      1  C   UNL d   1       2.022   1.047  -0.043  0.00  0.00     0.020 A 
ATOM      2  C1  UNL d   1       2.009  -0.281   0.384  0.00  0.00     0.020 A 
ATOM      3  C2  UNL d   1       0.987  -0.735   1.220  0.00  0.00     0.034 A 
ATOM      4  C3  UNL d   1      -0.026   0.138   1.632  0.00  0.00     0.017 A 
ATOM      5  C4  UNL d   1      -0.012   1.470   1.203  0.00  0.00     0.017 A 
ATOM      6  C5  UNL d   1       1.014   1.920   0.366  0.00  0.00     0.034 A 
ATOM      7 Cl   UNL d   1      -1.227   2.607   1.670  0.00  0.00    -0.070 Cl
ATOM      8 Cl1  UNL d   1      -1.259  -0.492   2.666  0.00  0.00    -0.070 Cl
ENDROOT
TORSDOF 0
ENDMDL
