MODEL 1
REMARK minimizedAffinity 0.905798376
REMARK minimizedRMSD -1
REMARK  0 active torsions:
REMARK  status: ('A' for Active; 'I' for Inactive)
ROOT
ATOM      1  C   UNL d   1       1.038   1.549   0.298  0.00  0.00     0.020 A 
ATOM      2  C1  UNL d   1       1.228   0.169   0.355  0.00  0.00     0.020 A 
ATOM      3  C2  UNL d   1       0.334  -0.629   1.073  0.00  0.00     0.034 A 
ATOM      4  C3  UNL d   1      -0.752  -0.048   1.737  0.00  0.00     0.017 A 
ATOM      5  C4  UNL d   1      -0.941   1.338   1.678  0.00  0.00     0.017 A 
ATOM      6  C5  UNL d   1      -0.044   2.132   0.958  0.00  0.00     0.034 A 
ATOM      7 Cl   UNL d   1      -2.259   2.128   2.471  0.00  0.00    -0.070 Cl
ATOM      8 Cl1  UNL d   1      -1.818  -1.095   2.605  0.00  0.00    -0.070 Cl
ENDROOT
TORSDOF 0
ENDMDL
