MODEL 1
REMARK minimizedAffinity 2.65037823
REMARK minimizedRMSD -1
REMARK  0 active torsions:
REMARK  status: ('A' for Active; 'I' for Inactive)
ROOT
ATOM      1  C   UNL d   1      -0.729   2.662   1.615  0.00  0.00     0.020 A 
ATOM      2  C1  UNL d   1      -0.432   1.354   1.234  0.00  0.00     0.020 A 
ATOM      3  C2  UNL d   1      -1.258   0.304   1.641  0.00  0.00     0.034 A 
ATOM      4  C3  UNL d   1      -2.384   0.560   2.432  0.00  0.00     0.017 A 
ATOM      5  C4  UNL d   1      -2.681   1.874   2.814  0.00  0.00     0.017 A 
ATOM      6  C5  UNL d   1      -1.851   2.921   2.404  0.00  0.00     0.034 A 
ATOM      7 Cl   UNL d   1      -4.052   2.268   3.789  0.00  0.00    -0.070 Cl
ATOM      8 Cl1  UNL d   1      -3.361  -0.786   2.899  0.00  0.00    -0.070 Cl
ENDROOT
TORSDOF 0
ENDMDL
