MODEL 1
REMARK minimizedAffinity -2.05558801
REMARK minimizedRMSD -1
REMARK  0 active torsions:
REMARK  status: ('A' for Active; 'I' for Inactive)
ROOT
ATOM      1  C   UNL d   1      -0.942  -0.757   1.445  0.00  0.00     0.020 A 
ATOM      2  C1  UNL d   1      -0.126   0.162   0.787  0.00  0.00     0.020 A 
ATOM      3  C2  UNL d   1      -0.338   1.532   0.959  0.00  0.00     0.034 A 
ATOM      4  C3  UNL d   1      -1.368   1.986   1.791  0.00  0.00     0.017 A 
ATOM      5  C4  UNL d   1      -2.186   1.062   2.451  0.00  0.00     0.017 A 
ATOM      6  C5  UNL d   1      -1.970  -0.308   2.275  0.00  0.00     0.034 A 
ATOM      7 Cl   UNL d   1      -3.477   1.547   3.493  0.00  0.00    -0.070 Cl
ATOM      8 Cl1  UNL d   1      -1.572   3.694   1.957  0.00  0.00    -0.070 Cl
ENDROOT
TORSDOF 0
ENDMDL
