MODEL 1
REMARK minimizedAffinity -1.70693374
REMARK minimizedRMSD -1
REMARK  0 active torsions:
REMARK  status: ('A' for Active; 'I' for Inactive)
ROOT
ATOM      1  C   UNL d   1      -0.870  -5.624   1.389  0.00  0.00     0.020 A 
ATOM      2  C1  UNL d   1      -1.510  -5.948   0.194  0.00  0.00     0.020 A 
ATOM      3  C2  UNL d   1      -2.416  -5.052  -0.378  0.00  0.00     0.034 A 
ATOM      4  C3  UNL d   1      -2.685  -3.829   0.245  0.00  0.00     0.017 A 
ATOM      5  C4  UNL d   1      -2.042  -3.504   1.445  0.00  0.00     0.017 A 
ATOM      6  C5  UNL d   1      -1.135  -4.404   2.014  0.00  0.00     0.034 A 
ATOM      7 Cl   UNL d   1      -2.322  -2.013   2.273  0.00  0.00    -0.070 Cl
ATOM      8 Cl1  UNL d   1      -3.816  -2.769  -0.518  0.00  0.00    -0.070 Cl
ENDROOT
TORSDOF 0
ENDMDL
