MODEL 1
REMARK minimizedAffinity 1.74524832
REMARK minimizedRMSD -1
REMARK  0 active torsions:
REMARK  status: ('A' for Active; 'I' for Inactive)
ROOT
ATOM      1  C   UNL d   1       0.206  -0.260   0.889  0.00  0.00     0.020 A 
ATOM      2  C1  UNL d   1       0.499   1.099   0.992  0.00  0.00     0.020 A 
ATOM      3  C2  UNL d   1      -0.386   1.956   1.650  0.00  0.00     0.034 A 
ATOM      4  C3  UNL d   1      -1.568   1.455   2.206  0.00  0.00     0.017 A 
ATOM      5  C4  UNL d   1      -1.862   0.091   2.102  0.00  0.00     0.017 A 
ATOM      6  C5  UNL d   1      -0.972  -0.763   1.442  0.00  0.00     0.034 A 
ATOM      7 Cl   UNL d   1      -3.301  -0.601   2.763  0.00  0.00    -0.070 Cl
ATOM      8 Cl1  UNL d   1      -2.617   2.572   3.006  0.00  0.00    -0.070 Cl
ENDROOT
TORSDOF 0
ENDMDL
