MODEL 1
REMARK minimizedAffinity -0.78173548
REMARK minimizedRMSD -1
REMARK  0 active torsions:
REMARK  status: ('A' for Active; 'I' for Inactive)
ROOT
ATOM      1  C   UNL d   1       0.004   0.049   1.191  0.00  0.00     0.020 A 
ATOM      2  C1  UNL d   1       0.060   1.436   1.332  0.00  0.00     0.020 A 
ATOM      3  C2  UNL d   1      -0.946   2.107   2.030  0.00  0.00     0.034 A 
ATOM      4  C3  UNL d   1      -2.012   1.393   2.590  0.00  0.00     0.017 A 
ATOM      5  C4  UNL d   1      -2.067   0.001   2.448  0.00  0.00     0.017 A 
ATOM      6  C5  UNL d   1      -1.057  -0.666   1.748  0.00  0.00     0.034 A 
ATOM      7 Cl   UNL d   1      -3.350  -0.948   3.110  0.00  0.00    -0.070 Cl
ATOM      8 Cl1  UNL d   1      -3.221   2.288   3.440  0.00  0.00    -0.070 Cl
ENDROOT
TORSDOF 0
ENDMDL
