MODEL 1
REMARK minimizedAffinity 9.40312195
REMARK minimizedRMSD -1
REMARK  0 active torsions:
REMARK  status: ('A' for Active; 'I' for Inactive)
ROOT
ATOM      1  C   UNL d   1       1.407   0.061   0.505  0.00  0.00     0.020 A 
ATOM      2  C1  UNL d   1       1.170   1.432   0.403  0.00  0.00     0.020 A 
ATOM      3  C2  UNL d   1       0.174   2.028   1.179  0.00  0.00     0.034 A 
ATOM      4  C3  UNL d   1      -0.589   1.254   2.061  0.00  0.00     0.017 A 
ATOM      5  C4  UNL d   1      -0.351  -0.121   2.163  0.00  0.00     0.017 A 
ATOM      6  C5  UNL d   1       0.648  -0.713   1.383  0.00  0.00     0.034 A 
ATOM      7 Cl   UNL d   1      -1.251  -1.142   3.229  0.00  0.00    -0.070 Cl
ATOM      8 Cl1  UNL d   1      -1.804   2.058   2.991  0.00  0.00    -0.070 Cl
ENDROOT
TORSDOF 0
ENDMDL
