MODEL 1
REMARK minimizedAffinity -0.692743599
REMARK minimizedRMSD -1
REMARK  0 active torsions:
REMARK  status: ('A' for Active; 'I' for Inactive)
ROOT
ATOM      1  C   UNL d   1       0.316   0.473   1.131  0.00  0.00     0.020 A 
ATOM      2  C1  UNL d   1       0.191   1.846   1.344  0.00  0.00     0.020 A 
ATOM      3  C2  UNL d   1      -0.924   2.349   2.018  0.00  0.00     0.034 A 
ATOM      4  C3  UNL d   1      -1.918   1.480   2.481  0.00  0.00     0.017 A 
ATOM      5  C4  UNL d   1      -1.792   0.102   2.266  0.00  0.00     0.017 A 
ATOM      6  C5  UNL d   1      -0.674  -0.396   1.591  0.00  0.00     0.034 A 
ATOM      7 Cl   UNL d   1      -2.978  -1.033   2.808  0.00  0.00    -0.070 Cl
ATOM      8 Cl1  UNL d   1      -3.269   2.171   3.306  0.00  0.00    -0.070 Cl
ENDROOT
TORSDOF 0
ENDMDL
