MODEL 1
REMARK minimizedAffinity 0.144610062
REMARK minimizedRMSD -1
REMARK  0 active torsions:
REMARK  status: ('A' for Active; 'I' for Inactive)
ROOT
ATOM      1  C   UNL d   1      -0.041   0.335   1.059  0.00  0.00     0.020 A 
ATOM      2  C1  UNL d   1       0.021   1.725   1.146  0.00  0.00     0.020 A 
ATOM      3  C2  UNL d   1      -0.943   2.423   1.877  0.00  0.00     0.034 A 
ATOM      4  C3  UNL d   1      -1.974   1.731   2.522  0.00  0.00     0.017 A 
ATOM      5  C4  UNL d   1      -2.036   0.335   2.434  0.00  0.00     0.017 A 
ATOM      6  C5  UNL d   1      -1.068  -0.358   1.701  0.00  0.00     0.034 A 
ATOM      7 Cl   UNL d   1      -3.278  -0.588   3.204  0.00  0.00    -0.070 Cl
ATOM      8 Cl1  UNL d   1      -3.132   2.658   3.408  0.00  0.00    -0.070 Cl
ENDROOT
TORSDOF 0
ENDMDL
