MODEL 1
REMARK minimizedAffinity 0.517982841
REMARK minimizedRMSD -1
REMARK  0 active torsions:
REMARK  status: ('A' for Active; 'I' for Inactive)
ROOT
ATOM      1  C   UNL d   1       1.501   0.219   0.529  0.00  0.00     0.020 A 
ATOM      2  C1  UNL d   1       1.542   1.594   0.756  0.00  0.00     0.020 A 
ATOM      3  C2  UNL d   1       0.400   2.261   1.204  0.00  0.00     0.034 A 
ATOM      4  C3  UNL d   1      -0.787   1.554   1.427  0.00  0.00     0.017 A 
ATOM      5  C4  UNL d   1      -0.826   0.174   1.199  0.00  0.00     0.017 A 
ATOM      6  C5  UNL d   1       0.320  -0.490   0.751  0.00  0.00     0.034 A 
ATOM      7 Cl   UNL d   1      -2.254  -0.767   1.452  0.00  0.00    -0.070 Cl
ATOM      8 Cl1  UNL d   1      -2.161   2.444   1.981  0.00  0.00    -0.070 Cl
ENDROOT
TORSDOF 0
ENDMDL
