MODEL 1
REMARK minimizedAffinity -3.4328599
REMARK minimizedRMSD -1
REMARK  0 active torsions:
REMARK  status: ('A' for Active; 'I' for Inactive)
ROOT
ATOM      1  C   UNL d   1      -2.162   2.719   2.503  0.00  0.00     0.020 A 
ATOM      2  C1  UNL d   1      -2.954   1.728   3.081  0.00  0.00     0.020 A 
ATOM      3  C2  UNL d   1      -2.630   0.382   2.901  0.00  0.00     0.034 A 
ATOM      4  C3  UNL d   1      -1.512   0.023   2.140  0.00  0.00     0.017 A 
ATOM      5  C4  UNL d   1      -0.717   1.018   1.560  0.00  0.00     0.017 A 
ATOM      6  C5  UNL d   1      -1.046   2.365   1.744  0.00  0.00     0.034 A 
ATOM      7 Cl   UNL d   1       0.678   0.653   0.608  0.00  0.00    -0.070 Cl
ATOM      8 Cl1  UNL d   1      -1.170  -1.661   1.959  0.00  0.00    -0.070 Cl
ENDROOT
TORSDOF 0
ENDMDL
