MODEL 1
REMARK minimizedAffinity 4.25297213
REMARK minimizedRMSD -1
REMARK  1 active torsions:
REMARK  status: ('A' for Active; 'I' for Inactive)
REMARK    1  A    between atoms: C1_2  and  C2_3 
ROOT
ATOM      1  C2  UNL d   1      -2.705   1.311   0.621  0.00  0.00    -0.076 A 
ATOM      2  C3  UNL d   1      -2.552   2.160  -0.489  0.00  0.00     0.004 A 
ATOM      3  C4  UNL d   1      -1.317   2.731  -0.791  0.00  0.00    -0.003 A 
ATOM      4  C5  UNL d   1      -0.214   2.462   0.013  0.00  0.00     0.000 A 
ATOM      5  C6  UNL d   1      -0.343   1.609   1.108  0.00  0.00     0.000 A 
ATOM      6  C7  UNL d   1      -1.578   1.012   1.416  0.00  0.00    -0.073 A 
ATOM      7  C8  UNL d   1      -1.662   0.104   2.613  0.00  0.00     0.078 C 
ENDROOT
BRANCH   1   8
ATOM      8  C1  UNL d   1      -4.075   0.743   0.915  0.00  0.00     0.053 C 
ATOM      9  C   UNL d   1      -5.195   1.702   0.545  0.00  0.00     0.018 C 
ENDBRANCH   1   8
TORSDOF 1
ENDMDL
