MODEL 1
REMARK minimizedAffinity 1.62948489
REMARK minimizedRMSD -1
REMARK  1 active torsions:
REMARK  status: ('A' for Active; 'I' for Inactive)
REMARK    1  A    between atoms: C1_2  and  C2_3 
ROOT
ATOM      1  C2  UNL d   1      -2.397   1.635  -0.046  0.00  0.00    -0.076 A 
ATOM      2  C3  UNL d   1      -1.199   2.309  -0.338  0.00  0.00     0.004 A 
ATOM      3  C4  UNL d   1       0.021   1.851   0.157  0.00  0.00    -0.003 A 
ATOM      4  C5  UNL d   1       0.062   0.711   0.953  0.00  0.00     0.000 A 
ATOM      5  C6  UNL d   1      -1.115   0.020   1.239  0.00  0.00     0.000 A 
ATOM      6  C7  UNL d   1      -2.351   0.459   0.734  0.00  0.00    -0.073 A 
ATOM      7  C8  UNL d   1      -3.590  -0.321   1.078  0.00  0.00     0.078 C 
ENDROOT
BRANCH   1   8
ATOM      8  C1  UNL d   1      -3.693   2.193  -0.589  0.00  0.00     0.053 C 
ATOM      9  C   UNL d   1      -3.595   2.571  -2.059  0.00  0.00     0.018 C 
ENDBRANCH   1   8
TORSDOF 1
ENDMDL
