MODEL 1
REMARK minimizedAffinity 11.5166893
REMARK minimizedRMSD -1
REMARK  1 active torsions:
REMARK  status: ('A' for Active; 'I' for Inactive)
REMARK    1  A    between atoms: C1_2  and  C2_3 
ROOT
ATOM      1  C2  UNL d   1      -3.310   2.038  -0.384  0.00  0.00    -0.076 A 
ATOM      2  C3  UNL d   1      -2.592   3.123  -0.916  0.00  0.00     0.004 A 
ATOM      3  C4  UNL d   1      -1.235   3.288  -0.645  0.00  0.00    -0.003 A 
ATOM      4  C5  UNL d   1      -0.573   2.370   0.163  0.00  0.00     0.000 A 
ATOM      5  C6  UNL d   1      -1.265   1.277   0.685  0.00  0.00     0.000 A 
ATOM      6  C7  UNL d   1      -2.630   1.088   0.408  0.00  0.00    -0.073 A 
ATOM      7  C8  UNL d   1      -3.328  -0.105   1.002  0.00  0.00     0.078 C 
ENDROOT
BRANCH   1   8
ATOM      8  C1  UNL d   1      -4.786   1.926  -0.690  0.00  0.00     0.053 C 
ATOM      9  C   UNL d   1      -5.657   2.457   0.438  0.00  0.00     0.018 C 
ENDBRANCH   1   8
TORSDOF 1
ENDMDL
