MODEL 1
REMARK minimizedAffinity 1.02756858
REMARK minimizedRMSD -1
REMARK  1 active torsions:
REMARK  status: ('A' for Active; 'I' for Inactive)
REMARK    1  A    between atoms: C1_2  and  C2_3 
ROOT
ATOM      1  C2  UNL d   1      -0.932   1.429   0.560  0.00  0.00    -0.076 A 
ATOM      2  C3  UNL d   1      -1.214   0.206   1.194  0.00  0.00     0.004 A 
ATOM      3  C4  UNL d   1      -2.467  -0.392   1.075  0.00  0.00    -0.003 A 
ATOM      4  C5  UNL d   1      -3.459   0.223   0.319  0.00  0.00     0.000 A 
ATOM      5  C6  UNL d   1      -3.192   1.428  -0.331  0.00  0.00     0.000 A 
ATOM      6  C7  UNL d   1      -1.929   2.035  -0.235  0.00  0.00    -0.073 A 
ATOM      7  C8  UNL d   1      -1.697   3.337  -0.952  0.00  0.00     0.078 C 
ENDROOT
BRANCH   1   8
ATOM      8  C1  UNL d   1       0.437   2.043   0.747  0.00  0.00     0.053 C 
ATOM      9  C   UNL d   1       1.553   1.012   0.676  0.00  0.00     0.018 C 
ENDBRANCH   1   8
TORSDOF 1
ENDMDL
