MODEL 1
REMARK minimizedAffinity 4.79101562
REMARK minimizedRMSD -1
REMARK  1 active torsions:
REMARK  status: ('A' for Active; 'I' for Inactive)
REMARK    1  A    between atoms: C1_2  and  C2_3 
ROOT
ATOM      1  C2  UNL d   1      -1.348  -4.485  -2.142  0.00  0.00    -0.076 A 
ATOM      2  C3  UNL d   1      -1.585  -3.395  -2.998  0.00  0.00     0.004 A 
ATOM      3  C4  UNL d   1      -2.356  -2.311  -2.582  0.00  0.00    -0.003 A 
ATOM      4  C5  UNL d   1      -2.902  -2.299  -1.303  0.00  0.00     0.000 A 
ATOM      5  C6  UNL d   1      -2.662  -3.363  -0.435  0.00  0.00     0.000 A 
ATOM      6  C7  UNL d   1      -1.873  -4.456  -0.833  0.00  0.00    -0.073 A 
ATOM      7  C8  UNL d   1      -1.652  -5.580   0.142  0.00  0.00     0.078 C 
ENDROOT
BRANCH   1   8
ATOM      8  C1  UNL d   1      -0.526  -5.645  -2.658  0.00  0.00     0.053 C 
ATOM      9  C   UNL d   1       0.722  -5.191  -3.400  0.00  0.00     0.018 C 
ENDBRANCH   1   8
TORSDOF 1
ENDMDL
