MODEL 1
REMARK minimizedAffinity -0.400922328
REMARK minimizedRMSD -1
REMARK  1 active torsions:
REMARK  status: ('A' for Active; 'I' for Inactive)
REMARK    1  A    between atoms: C1_2  and  C2_3 
ROOT
ATOM      1  C2  UNL d   1      -1.527   1.458   0.296  0.00  0.00    -0.076 A 
ATOM      2  C3  UNL d   1      -2.393   0.498   0.847  0.00  0.00     0.004 A 
ATOM      3  C4  UNL d   1      -1.900  -0.562   1.607  0.00  0.00    -0.003 A 
ATOM      4  C5  UNL d   1      -0.532  -0.678   1.828  0.00  0.00     0.000 A 
ATOM      5  C6  UNL d   1       0.340   0.275   1.304  0.00  0.00     0.000 A 
ATOM      6  C7  UNL d   1      -0.142   1.359   0.550  0.00  0.00    -0.073 A 
ATOM      7  C8  UNL d   1       0.844   2.354   0.003  0.00  0.00     0.078 C 
ENDROOT
BRANCH   1   8
ATOM      8  C1  UNL d   1      -2.117   2.569  -0.542  0.00  0.00     0.053 C 
ATOM      9  C   UNL d   1      -3.625   2.684  -0.379  0.00  0.00     0.018 C 
ENDBRANCH   1   8
TORSDOF 1
ENDMDL
