MODEL 1
REMARK minimizedAffinity 9.56973648
REMARK minimizedRMSD -1
REMARK  1 active torsions:
REMARK  status: ('A' for Active; 'I' for Inactive)
REMARK    1  A    between atoms: C1_2  and  C2_3 
ROOT
ATOM      1  C2  UNL d   1      -1.848   1.583   0.020  0.00  0.00    -0.076 A 
ATOM      2  C3  UNL d   1      -0.762   2.463  -0.127  0.00  0.00     0.004 A 
ATOM      3  C4  UNL d   1       0.405   2.293   0.617  0.00  0.00    -0.003 A 
ATOM      4  C5  UNL d   1       0.503   1.241   1.521  0.00  0.00     0.000 A 
ATOM      5  C6  UNL d   1      -0.558   0.349   1.667  0.00  0.00     0.000 A 
ATOM      6  C7  UNL d   1      -1.735   0.496   0.913  0.00  0.00    -0.073 A 
ATOM      7  C8  UNL d   1      -2.850  -0.493   1.115  0.00  0.00     0.078 C 
ENDROOT
BRANCH   1   8
ATOM      8  C1  UNL d   1      -3.098   1.833  -0.794  0.00  0.00     0.053 C 
ATOM      9  C   UNL d   1      -4.356   1.847   0.060  0.00  0.00     0.018 C 
ENDBRANCH   1   8
TORSDOF 1
ENDMDL
