MODEL 1
REMARK minimizedAffinity 2.32680631
REMARK minimizedRMSD -1
REMARK  1 active torsions:
REMARK  status: ('A' for Active; 'I' for Inactive)
REMARK    1  A    between atoms: C1_2  and  C2_3 
ROOT
ATOM      1  C2  UNL d   1      -2.516   1.216   0.459  0.00  0.00    -0.076 A 
ATOM      2  C3  UNL d   1      -1.977   0.054   1.038  0.00  0.00     0.004 A 
ATOM      3  C4  UNL d   1      -0.606  -0.067   1.261  0.00  0.00    -0.003 A 
ATOM      4  C5  UNL d   1       0.248   0.973   0.910  0.00  0.00     0.000 A 
ATOM      5  C6  UNL d   1      -0.272   2.141   0.351  0.00  0.00     0.000 A 
ATOM      6  C7  UNL d   1      -1.653   2.285   0.135  0.00  0.00    -0.073 A 
ATOM      7  C8  UNL d   1      -2.158   3.563  -0.477  0.00  0.00     0.078 C 
ENDROOT
BRANCH   1   8
ATOM      8  C1  UNL d   1      -4.007   1.280   0.216  0.00  0.00     0.053 C 
ATOM      9  C   UNL d   1      -4.794   0.419   1.193  0.00  0.00     0.018 C 
ENDBRANCH   1   8
TORSDOF 1
ENDMDL
