MODEL 1
REMARK minimizedAffinity 1.87363255
REMARK minimizedRMSD -1
REMARK  1 active torsions:
REMARK  status: ('A' for Active; 'I' for Inactive)
REMARK    1  A    between atoms: C1_2  and  C2_3 
ROOT
ATOM      1  C2  UNL d   1       1.771   1.212   0.300  0.00  0.00    -0.076 A 
ATOM      2  C3  UNL d   1       0.369   1.296   0.361  0.00  0.00     0.004 A 
ATOM      3  C4  UNL d   1      -0.266   1.950   1.415  0.00  0.00    -0.003 A 
ATOM      4  C5  UNL d   1       0.492   2.531   2.427  0.00  0.00     0.000 A 
ATOM      5  C6  UNL d   1       1.884   2.472   2.374  0.00  0.00     0.000 A 
ATOM      6  C7  UNL d   1       2.540   1.830   1.309  0.00  0.00    -0.073 A 
ATOM      7  C8  UNL d   1       4.043   1.791   1.305  0.00  0.00     0.078 C 
ENDROOT
BRANCH   1   8
ATOM      8  C1  UNL d   1       2.402   0.466  -0.854  0.00  0.00     0.053 C 
ATOM      9  C   UNL d   1       1.955   0.999  -2.206  0.00  0.00     0.018 C 
ENDBRANCH   1   8
TORSDOF 1
ENDMDL
