MODEL 1
REMARK minimizedAffinity 6.78959131
REMARK minimizedRMSD -1
REMARK  1 active torsions:
REMARK  status: ('A' for Active; 'I' for Inactive)
REMARK    1  A    between atoms: C1_2  and  C2_3 
ROOT
ATOM      1  C2  UNL d   1      -3.341   0.657   1.149  0.00  0.00    -0.076 A 
ATOM      2  C3  UNL d   1      -1.964   0.837   0.935  0.00  0.00     0.004 A 
ATOM      3  C4  UNL d   1      -1.497   1.756  -0.004  0.00  0.00    -0.003 A 
ATOM      4  C5  UNL d   1      -2.402   2.511  -0.743  0.00  0.00     0.000 A 
ATOM      5  C6  UNL d   1      -3.771   2.358  -0.531  0.00  0.00     0.000 A 
ATOM      6  C7  UNL d   1      -4.257   1.447   0.423  0.00  0.00    -0.073 A 
ATOM      7  C8  UNL d   1      -5.745   1.319   0.606  0.00  0.00     0.078 C 
ENDROOT
BRANCH   1   8
ATOM      8  C1  UNL d   1      -3.788  -0.374   2.161  0.00  0.00     0.053 C 
ATOM      9  C   UNL d   1      -2.744  -0.625   3.237  0.00  0.00     0.018 C 
ENDBRANCH   1   8
TORSDOF 1
ENDMDL
