MODEL 1
REMARK minimizedAffinity 0.0254904367
REMARK minimizedRMSD -1
REMARK  0 active torsions:
REMARK  status: ('A' for Active; 'I' for Inactive)
ROOT
ATOM      1  C   UNL d   1       4.021   1.661   5.969  0.00  0.00    -0.002 A 
ATOM      2  C1  UNL d   1       5.045   2.597   5.966  0.00  0.00     0.010 A 
ATOM      3  C2  UNL d   1       4.759   3.964   5.971  0.00  0.00     0.041 A 
ATOM      4  C3  UNL d   1       3.413   4.378   5.981  0.00  0.00    -0.075 A 
ATOM      5  S   UNL d   1       2.824   5.999   5.990  0.00  0.00     0.015 SA
ATOM      6  C4  UNL d   1       1.199   5.487   5.998  0.00  0.00     0.022 A 
ATOM      7  C5  UNL d   1       1.089   4.117   5.995  0.00  0.00     0.026 A 
ATOM      8  C6  UNL d   1       2.364   3.455   5.985  0.00  0.00    -0.082 A 
ATOM      9  C7  UNL d   1       2.686   2.076   5.979  0.00  0.00     0.045 A 
ENDROOT
TORSDOF 0
ENDMDL
