MODEL 1
REMARK minimizedAffinity 12.5988235
REMARK minimizedRMSD -1
REMARK  0 active torsions:
REMARK  status: ('A' for Active; 'I' for Inactive)
ROOT
ATOM      1  C   UNL d   1       4.874   2.867   5.995  0.00  0.00    -0.002 A 
ATOM      2  C1  UNL d   1       3.949   1.832   5.997  0.00  0.00     0.010 A 
ATOM      3  C2  UNL d   1       2.579   2.104   5.999  0.00  0.00     0.041 A 
ATOM      4  C3  UNL d   1       2.150   3.446   5.997  0.00  0.00    -0.075 A 
ATOM      5  S   UNL d   1       0.524   4.017   5.999  0.00  0.00     0.015 SA
ATOM      6  C4  UNL d   1       1.018   5.648   5.996  0.00  0.00     0.022 A 
ATOM      7  C5  UNL d   1       2.388   5.772   5.994  0.00  0.00     0.026 A 
ATOM      8  C6  UNL d   1       3.063   4.505   5.995  0.00  0.00    -0.082 A 
ATOM      9  C7  UNL d   1       4.444   4.196   5.993  0.00  0.00     0.045 A 
ENDROOT
TORSDOF 0
ENDMDL
