MODEL 1
REMARK minimizedAffinity 13.3203373
REMARK minimizedRMSD -1
REMARK  0 active torsions:
REMARK  status: ('A' for Active; 'I' for Inactive)
ROOT
ATOM      1  C   UNL d   1       6.000   2.248  -0.009  0.00  0.00    -0.002 A 
ATOM      2  C1  UNL d   1       4.981   3.116   0.357  0.00  0.00     0.010 A 
ATOM      3  C2  UNL d   1       3.650   2.694   0.347  0.00  0.00     0.041 A 
ATOM      4  C3  UNL d   1       3.358   1.371  -0.039  0.00  0.00    -0.075 A 
ATOM      5  S   UNL d   1       1.802   0.633  -0.125  0.00  0.00     0.015 SA
ATOM      6  C4  UNL d   1       2.453  -0.852  -0.649  0.00  0.00     0.022 A 
ATOM      7  C5  UNL d   1       3.822  -0.804  -0.761  0.00  0.00     0.026 A 
ATOM      8  C6  UNL d   1       4.366   0.478  -0.411  0.00  0.00    -0.082 A 
ATOM      9  C7  UNL d   1       5.706   0.936  -0.391  0.00  0.00     0.045 A 
ENDROOT
TORSDOF 0
ENDMDL
