MODEL 1
REMARK minimizedAffinity -2.49853921
REMARK minimizedRMSD -1
REMARK  0 active torsions:
REMARK  status: ('A' for Active; 'I' for Inactive)
ROOT
ATOM      1  C   UNL d   1      -0.689  -2.264  -2.057  0.00  0.00     0.172 C 
ATOM      2  N   UNL d   1      -0.149  -1.427  -1.012  0.00  0.00    -0.070 N 
ATOM      3  C1  UNL d   1       1.122  -1.499  -0.507  0.00  0.00    -0.004 A 
ATOM      4  C2  UNL d   1       1.243  -0.536   0.470  0.00  0.00    -0.047 A 
ATOM      5  C3  UNL d   1       0.002   0.139   0.557  0.00  0.00    -0.047 A 
ATOM      6  C4  UNL d   1      -0.842  -0.433  -0.372  0.00  0.00    -0.004 A 
ENDROOT
TORSDOF 0
ENDMDL
