MODEL 1
REMARK minimizedAffinity -2.10271716
REMARK minimizedRMSD -1
REMARK  0 active torsions:
REMARK  status: ('A' for Active; 'I' for Inactive)
ROOT
ATOM      1  C   UNL d   1      -0.674   1.803   2.857  0.00  0.00     0.172 C 
ATOM      2  N   UNL d   1      -0.105   0.913   1.872  0.00  0.00    -0.070 N 
ATOM      3  C1  UNL d   1       1.089   0.252   1.989  0.00  0.00    -0.004 A 
ATOM      4  C2  UNL d   1       1.272  -0.493   0.844  0.00  0.00    -0.047 A 
ATOM      5  C3  UNL d   1       0.150  -0.272   0.011  0.00  0.00    -0.047 A 
ATOM      6  C4  UNL d   1      -0.687   0.602   0.672  0.00  0.00    -0.004 A 
ENDROOT
TORSDOF 0
ENDMDL
