MODEL 1
REMARK minimizedAffinity -3.77561712
REMARK minimizedRMSD -1
REMARK  0 active torsions:
REMARK  status: ('A' for Active; 'I' for Inactive)
ROOT
ATOM      1  C   UNL d   1       0.133  -0.107  -0.108  0.00  0.00     0.172 C 
ATOM      2  N   UNL d   1      -0.481   0.346   1.118  0.00  0.00    -0.070 N 
ATOM      3  C1  UNL d   1      -1.604  -0.187   1.693  0.00  0.00    -0.004 A 
ATOM      4  C2  UNL d   1      -1.865   0.521   2.846  0.00  0.00    -0.047 A 
ATOM      5  C3  UNL d   1      -0.864   1.515   2.968  0.00  0.00    -0.047 A 
ATOM      6  C4  UNL d   1      -0.021   1.384   1.885  0.00  0.00    -0.004 A 
ENDROOT
TORSDOF 0
ENDMDL
