MODEL 1
REMARK minimizedAffinity -0.906422436
REMARK minimizedRMSD -1
REMARK  0 active torsions:
REMARK  status: ('A' for Active; 'I' for Inactive)
ROOT
ATOM      1  C   UNL d   1       0.099  -0.617  -2.095  0.00  0.00     0.172 C 
ATOM      2  N   UNL d   1       0.634  -0.579  -0.754  0.00  0.00    -0.070 N 
ATOM      3  C1  UNL d   1       1.774  -1.210  -0.332  0.00  0.00    -0.004 A 
ATOM      4  C2  UNL d   1       1.941  -0.927   1.007  0.00  0.00    -0.047 A 
ATOM      5  C3  UNL d   1       0.864  -0.099   1.403  0.00  0.00    -0.047 A 
ATOM      6  C4  UNL d   1       0.070   0.101   0.293  0.00  0.00    -0.004 A 
ENDROOT
TORSDOF 0
ENDMDL
