MODEL 1
REMARK minimizedAffinity -0.515566409
REMARK minimizedRMSD -1
REMARK  0 active torsions:
REMARK  status: ('A' for Active; 'I' for Inactive)
ROOT
ATOM      1  C   UNL d   1      -0.067   2.427   1.996  0.00  0.00     0.172 C 
ATOM      2  N   UNL d   1       0.459   1.227   1.390  0.00  0.00    -0.070 N 
ATOM      3  C1  UNL d   1       1.636   0.613   1.726  0.00  0.00    -0.004 A 
ATOM      4  C2  UNL d   1       1.778  -0.496   0.921  0.00  0.00    -0.047 A 
ATOM      5  C3  UNL d   1       0.648  -0.550   0.071  0.00  0.00    -0.047 A 
ATOM      6  C4  UNL d   1      -0.152   0.528   0.382  0.00  0.00    -0.004 A 
ENDROOT
TORSDOF 0
ENDMDL
