MODEL 1
REMARK minimizedAffinity -3.7645607
REMARK minimizedRMSD -1
REMARK  0 active torsions:
REMARK  status: ('A' for Active; 'I' for Inactive)
ROOT
ATOM      1  C   UNL d   1      -1.431  -0.272  -0.044  0.00  0.00     0.172 C 
ATOM      2  N   UNL d   1      -0.956   0.454   1.110  0.00  0.00    -0.070 N 
ATOM      3  C1  UNL d   1      -1.547   0.464   2.346  0.00  0.00    -0.004 A 
ATOM      4  C2  UNL d   1      -0.792   1.271   3.168  0.00  0.00    -0.047 A 
ATOM      5  C3  UNL d   1       0.290   1.765   2.401  0.00  0.00    -0.047 A 
ATOM      6  C4  UNL d   1       0.164   1.243   1.131  0.00  0.00    -0.004 A 
ENDROOT
TORSDOF 0
ENDMDL
