MODEL 1
REMARK minimizedAffinity -2.60220671
REMARK minimizedRMSD -1
REMARK  0 active torsions:
REMARK  status: ('A' for Active; 'I' for Inactive)
ROOT
ATOM      1  C   UNL d   1      -0.768  -3.234  -2.035  0.00  0.00     0.172 C 
ATOM      2  N   UNL d   1       0.048  -2.131  -2.484  0.00  0.00    -0.070 N 
ATOM      3  C1  UNL d   1       0.100  -1.645  -3.763  0.00  0.00    -0.004 A 
ATOM      4  C2  UNL d   1       0.992  -0.595  -3.779  0.00  0.00    -0.047 A 
ATOM      5  C3  UNL d   1       1.494  -0.444  -2.465  0.00  0.00    -0.047 A 
ATOM      6  C4  UNL d   1       0.892  -1.408  -1.683  0.00  0.00    -0.004 A 
ENDROOT
TORSDOF 0
ENDMDL
