MODEL 1
REMARK minimizedAffinity -2.41016912
REMARK minimizedRMSD -1
REMARK  0 active torsions:
REMARK  status: ('A' for Active; 'I' for Inactive)
ROOT
ATOM      1  C   UNL d   1      -0.742   0.426  -5.366  0.00  0.00     0.172 C 
ATOM      2  N   UNL d   1       0.491   0.633  -4.643  0.00  0.00    -0.070 N 
ATOM      3  C1  UNL d   1       0.834   0.031  -3.462  0.00  0.00    -0.004 A 
ATOM      4  C2  UNL d   1       2.083   0.491  -3.102  0.00  0.00    -0.047 A 
ATOM      5  C3  UNL d   1       2.504   1.400  -4.101  0.00  0.00    -0.047 A 
ATOM      6  C4  UNL d   1       1.499   1.469  -5.043  0.00  0.00    -0.004 A 
ENDROOT
TORSDOF 0
ENDMDL
