MODEL 1
REMARK minimizedAffinity -4.23410034
REMARK minimizedRMSD -1
REMARK  0 active torsions:
REMARK  status: ('A' for Active; 'I' for Inactive)
ROOT
ATOM      1  C4' PXY d   1       0.599   2.974   1.749  0.00  0.00     0.077 C 
ATOM      2  C1' PXY d   1      -0.704  -1.771  -1.283  0.00  0.00     0.077 C 
ATOM      3  C1  PXY d   1      -0.375  -0.525  -0.485  0.00  0.00    -0.082 A 
ATOM      4  C2  PXY d   1       0.725   0.156  -0.760  0.00  0.00     0.003 A 
ATOM      5  C3  PXY d   1       1.054   1.267  -0.027  0.00  0.00     0.003 A 
ATOM      6  C4  PXY d   1       0.222   1.716   0.963  0.00  0.00    -0.082 A 
ATOM      7  C5  PXY d   1      -0.908   1.032   1.243  0.00  0.00     0.003 A 
ATOM      8  C6  PXY d   1      -1.204  -0.116   0.514  0.00  0.00     0.003 A 
ENDROOT
TORSDOF 0
ENDMDL
