MODEL 1
REMARK minimizedAffinity -5.50706148
REMARK minimizedRMSD -1
REMARK  0 active torsions:
REMARK  status: ('A' for Active; 'I' for Inactive)
ROOT
ATOM      1  C4' PXY d   1      -0.804  -1.667  -1.165  0.00  0.00     0.077 C 
ATOM      2  C1' PXY d   1       1.240   2.931   1.679  0.00  0.00     0.077 C 
ATOM      3  C1  PXY d   1       0.698   1.722   0.944  0.00  0.00    -0.082 A 
ATOM      4  C2  PXY d   1       1.329   1.271  -0.128  0.00  0.00     0.003 A 
ATOM      5  C3  PXY d   1       0.834   0.197  -0.823  0.00  0.00     0.003 A 
ATOM      6  C4  PXY d   1      -0.288  -0.454  -0.386  0.00  0.00    -0.082 A 
ATOM      7  C5  PXY d   1      -0.931  -0.007   0.713  0.00  0.00     0.003 A 
ATOM      8  C6  PXY d   1      -0.436   1.110   1.381  0.00  0.00     0.003 A 
ENDROOT
TORSDOF 0
ENDMDL
