MODEL 1
REMARK minimizedAffinity -4.15376949
REMARK minimizedRMSD -1
REMARK  0 active torsions:
REMARK  status: ('A' for Active; 'I' for Inactive)
ROOT
ATOM      1  C4' PXY d   1       3.873   1.497  -0.769  0.00  0.00     0.077 C 
ATOM      2  C1' PXY d   1      -1.330   1.092   1.717  0.00  0.00     0.077 C 
ATOM      3  C1  PXY d   1       0.036   1.211   1.069  0.00  0.00    -0.082 A 
ATOM      4  C2  PXY d   1       0.357   0.406   0.069  0.00  0.00     0.003 A 
ATOM      5  C3  PXY d   1       1.600   0.478  -0.507  0.00  0.00     0.003 A 
ATOM      6  C4  PXY d   1       2.503   1.420  -0.091  0.00  0.00    -0.082 A 
ATOM      7  C5  PXY d   1       2.178   2.251   0.922  0.00  0.00     0.003 A 
ATOM      8  C6  PXY d   1       0.927   2.134   1.521  0.00  0.00     0.003 A 
ENDROOT
TORSDOF 0
ENDMDL
