MODEL 1
REMARK minimizedAffinity -2.47409105
REMARK minimizedRMSD -1
REMARK  0 active torsions:
REMARK  status: ('A' for Active; 'I' for Inactive)
ROOT
ATOM      1  C4' PXY d   1      -0.558  -0.958  -2.397  0.00  0.00     0.077 C 
ATOM      2  C1' PXY d   1       0.467   1.779   2.591  0.00  0.00     0.077 C 
ATOM      3  C1  PXY d   1       0.194   1.050   1.289  0.00  0.00    -0.082 A 
ATOM      4  C2  PXY d   1       0.803   1.441   0.181  0.00  0.00     0.003 A 
ATOM      5  C3  PXY d   1       0.544   0.814  -1.010  0.00  0.00     0.003 A 
ATOM      6  C4  PXY d   1      -0.306  -0.258  -1.059  0.00  0.00    -0.082 A 
ATOM      7  C5  PXY d   1      -0.922  -0.670   0.069  0.00  0.00     0.003 A 
ATOM      8  C6  PXY d   1      -0.678   0.006   1.261  0.00  0.00     0.003 A 
ENDROOT
TORSDOF 0
ENDMDL
