MODEL 1
REMARK minimizedAffinity -2.10443592
REMARK minimizedRMSD -1
REMARK  0 active torsions:
REMARK  status: ('A' for Active; 'I' for Inactive)
ROOT
ATOM      1  C4' PXY d   1      -1.302  -1.773  -2.115  0.00  0.00     0.077 C 
ATOM      2  C1' PXY d   1       0.705   1.777   1.983  0.00  0.00     0.077 C 
ATOM      3  C1  PXY d   1       0.189   0.838   0.910  0.00  0.00    -0.082 A 
ATOM      4  C2  PXY d   1      -0.624   1.299  -0.027  0.00  0.00     0.003 A 
ATOM      5  C3  PXY d   1      -1.126   0.457  -0.986  0.00  0.00     0.003 A 
ATOM      6  C4  PXY d   1      -0.749  -0.859  -1.018  0.00  0.00    -0.082 A 
ATOM      7  C5  PXY d   1       0.089  -1.335  -0.072  0.00  0.00     0.003 A 
ATOM      8  C6  PXY d   1       0.554  -0.473   0.917  0.00  0.00     0.003 A 
ENDROOT
TORSDOF 0
ENDMDL
