MODEL 1
REMARK minimizedAffinity -5.15403748
REMARK minimizedRMSD -1
REMARK  0 active torsions:
REMARK  status: ('A' for Active; 'I' for Inactive)
ROOT
ATOM      1  C4' PXY d   1       1.156   3.303   1.098  0.00  0.00     0.077 C 
ATOM      2  C1' PXY d   1      -0.898  -1.851  -0.523  0.00  0.00     0.077 C 
ATOM      3  C1  PXY d   1      -0.371  -0.497  -0.092  0.00  0.00    -0.082 A 
ATOM      4  C2  PXY d   1       0.595   0.081  -0.788  0.00  0.00     0.003 A 
ATOM      5  C3  PXY d   1       1.106   1.291  -0.393  0.00  0.00     0.003 A 
ATOM      6  C4  PXY d   1       0.587   1.941   0.694  0.00  0.00    -0.082 A 
ATOM      7  C5  PXY d   1      -0.406   1.363   1.403  0.00  0.00     0.003 A 
ATOM      8  C6  PXY d   1      -0.883   0.115   1.010  0.00  0.00     0.003 A 
ENDROOT
TORSDOF 0
ENDMDL
