MODEL 1
REMARK minimizedAffinity -2.71363831
REMARK minimizedRMSD -1
REMARK  0 active torsions:
REMARK  status: ('A' for Active; 'I' for Inactive)
ROOT
ATOM      1  C4' PXY d   1       1.257   2.310   1.676  0.00  0.00     0.077 C 
ATOM      2  C1' PXY d   1      -1.006  -2.127  -1.257  0.00  0.00     0.077 C 
ATOM      3  C1  PXY d   1      -0.424  -0.962  -0.482  0.00  0.00    -0.082 A 
ATOM      4  C2  PXY d   1       0.620  -0.310  -0.967  0.00  0.00     0.003 A 
ATOM      5  C3  PXY d   1       1.179   0.726  -0.264  0.00  0.00     0.003 A 
ATOM      6  C4  PXY d   1       0.631   1.133   0.923  0.00  0.00    -0.082 A 
ATOM      7  C5  PXY d   1      -0.442   0.480   1.419  0.00  0.00     0.003 A 
ATOM      8  C6  PXY d   1      -0.969  -0.595   0.710  0.00  0.00     0.003 A 
ENDROOT
TORSDOF 0
ENDMDL
