MODEL 1
REMARK minimizedAffinity -3.46084738
REMARK minimizedRMSD -1
REMARK  0 active torsions:
REMARK  status: ('A' for Active; 'I' for Inactive)
ROOT
ATOM      1  C4' PXY d   1       1.231   2.376   1.828  0.00  0.00     0.077 C 
ATOM      2  C1' PXY d   1      -0.757  -1.797  -1.643  0.00  0.00     0.077 C 
ATOM      3  C1  PXY d   1      -0.223  -0.707  -0.735  0.00  0.00    -0.082 A 
ATOM      4  C2  PXY d   1      -1.009  -0.187   0.193  0.00  0.00     0.003 A 
ATOM      5  C3  PXY d   1      -0.553   0.822   1.002  0.00  0.00     0.003 A 
ATOM      6  C4  PXY d   1       0.738   1.266   0.895  0.00  0.00    -0.082 A 
ATOM      7  C5  PXY d   1       1.549   0.733  -0.043  0.00  0.00     0.003 A 
ATOM      8  C6  PXY d   1       1.054  -0.262  -0.881  0.00  0.00     0.003 A 
ENDROOT
TORSDOF 0
ENDMDL
