MODEL 1
REMARK minimizedAffinity -1.77151334
REMARK minimizedRMSD -1
REMARK  0 active torsions:
REMARK  status: ('A' for Active; 'I' for Inactive)
ROOT
ATOM      1  C4' PXY d   1      -1.167  -1.633  -3.840  0.00  0.00     0.077 C 
ATOM      2  C1' PXY d   1      -0.133   0.011   1.605  0.00  0.00     0.077 C 
ATOM      3  C1  PXY d   1      -0.409  -0.431   0.181  0.00  0.00    -0.082 A 
ATOM      4  C2  PXY d   1       0.302   0.078  -0.812  0.00  0.00     0.003 A 
ATOM      5  C3  PXY d   1       0.044  -0.287  -2.108  0.00  0.00     0.003 A 
ATOM      6  C4  PXY d   1      -0.916  -1.223  -2.386  0.00  0.00    -0.082 A 
ATOM      7  C5  PXY d   1      -1.638  -1.756  -1.377  0.00  0.00     0.003 A 
ATOM      8  C6  PXY d   1      -1.388  -1.341  -0.072  0.00  0.00     0.003 A 
ENDROOT
TORSDOF 0
ENDMDL
