MODEL 1
REMARK minimizedAffinity -4.41582537
REMARK minimizedRMSD -1
REMARK  0 active torsions:
REMARK  status: ('A' for Active; 'I' for Inactive)
ROOT
ATOM      1  C4' PXY d   1      -1.527  -1.820  -1.224  0.00  0.00     0.077 C 
ATOM      2  C1' PXY d   1       1.046   2.554   1.544  0.00  0.00     0.077 C 
ATOM      3  C1  PXY d   1       0.379   1.409   0.808  0.00  0.00    -0.082 A 
ATOM      4  C2  PXY d   1      -0.845   1.038   1.147  0.00  0.00     0.003 A 
ATOM      5  C3  PXY d   1      -1.451  -0.017   0.514  0.00  0.00     0.003 A 
ATOM      6  C4  PXY d   1      -0.818  -0.663  -0.514  0.00  0.00    -0.082 A 
ATOM      7  C5  PXY d   1       0.426  -0.283  -0.874  0.00  0.00     0.003 A 
ATOM      8  C6  PXY d   1       1.040   0.762  -0.190  0.00  0.00     0.003 A 
ENDROOT
TORSDOF 0
ENDMDL
