MODEL 1
REMARK minimizedAffinity -6.12610865
REMARK minimizedRMSD -1
REMARK  0 active torsions:
REMARK  status: ('A' for Active; 'I' for Inactive)
ROOT
ATOM      1  C4' PXY d   1      -1.467  -1.154  -1.864  0.00  0.00     0.077 C 
ATOM      2  C1' PXY d   1       0.905   2.003   2.357  0.00  0.00     0.077 C 
ATOM      3  C1  PXY d   1       0.295   1.173   1.245  0.00  0.00    -0.082 A 
ATOM      4  C2  PXY d   1      -0.970   1.361   0.908  0.00  0.00     0.003 A 
ATOM      5  C3  PXY d   1      -1.547   0.597  -0.074  0.00  0.00     0.003 A 
ATOM      6  C4  PXY d   1      -0.807  -0.332  -0.753  0.00  0.00    -0.082 A 
ATOM      7  C5  PXY d   1       0.488  -0.523  -0.422  0.00  0.00     0.003 A 
ATOM      8  C6  PXY d   1       1.044   0.234   0.605  0.00  0.00     0.003 A 
ENDROOT
TORSDOF 0
ENDMDL
