MODEL 1
REMARK minimizedAffinity -4.56930447
REMARK minimizedRMSD -1
REMARK  0 active torsions:
REMARK  status: ('A' for Active; 'I' for Inactive)
ROOT
ATOM      1  C4' PXY d   1       2.060   1.780   0.111  0.00  0.00     0.077 C 
ATOM      2  C1' PXY d   1      -1.697  -2.303  -1.510  0.00  0.00     0.077 C 
ATOM      3  C1  PXY d   1      -0.704  -1.241  -1.079  0.00  0.00    -0.082 A 
ATOM      4  C2  PXY d   1      -1.102   0.015  -0.955  0.00  0.00     0.003 A 
ATOM      5  C3  PXY d   1      -0.210   0.993  -0.598  0.00  0.00     0.003 A 
ATOM      6  C4  PXY d   1       1.090   0.674  -0.312  0.00  0.00    -0.082 A 
ATOM      7  C5  PXY d   1       1.502  -0.607  -0.426  0.00  0.00     0.003 A 
ATOM      8  C6  PXY d   1       0.590  -1.578  -0.830  0.00  0.00     0.003 A 
ENDROOT
TORSDOF 0
ENDMDL
