MODEL 1
REMARK minimizedAffinity -4.45428419
REMARK minimizedRMSD -1
REMARK  0 active torsions:
REMARK  status: ('A' for Active; 'I' for Inactive)
ROOT
ATOM      1  C4' PXY d   1       1.636   3.019   1.174  0.00  0.00     0.077 C 
ATOM      2  C1' PXY d   1       0.100  -2.111  -1.002  0.00  0.00     0.077 C 
ATOM      3  C1  PXY d   1       0.490  -0.763  -0.429  0.00  0.00    -0.082 A 
ATOM      4  C2  PXY d   1       1.638  -0.209  -0.784  0.00  0.00     0.003 A 
ATOM      5  C3  PXY d   1       2.021   0.995  -0.252  0.00  0.00     0.003 A 
ATOM      6  C4  PXY d   1       1.197   1.664   0.613  0.00  0.00    -0.082 A 
ATOM      7  C5  PXY d   1       0.019   1.110   0.973  0.00  0.00     0.003 A 
ATOM      8  C6  PXY d   1      -0.332  -0.132   0.452  0.00  0.00     0.003 A 
ENDROOT
TORSDOF 0
ENDMDL
