MODEL 1
REMARK minimizedAffinity -2.59162545
REMARK minimizedRMSD -1
REMARK  0 active torsions:
REMARK  status: ('A' for Active; 'I' for Inactive)
ROOT
ATOM      1  C4' PXY d   1      -0.955  -1.980  -1.102  0.00  0.00     0.077 C 
ATOM      2  C1' PXY d   1       0.883   2.565   1.961  0.00  0.00     0.077 C 
ATOM      3  C1  PXY d   1       0.406   1.378   1.147  0.00  0.00    -0.082 A 
ATOM      4  C2  PXY d   1      -0.610   0.652   1.584  0.00  0.00     0.003 A 
ATOM      5  C3  PXY d   1      -1.034  -0.444   0.876  0.00  0.00     0.003 A 
ATOM      6  C4  PXY d   1      -0.446  -0.768  -0.317  0.00  0.00    -0.082 A 
ATOM      7  C5  PXY d   1       0.585  -0.025  -0.775  0.00  0.00     0.003 A 
ATOM      8  C6  PXY d   1       1.026   1.059  -0.021  0.00  0.00     0.003 A 
ENDROOT
TORSDOF 0
ENDMDL
