MODEL 1
REMARK minimizedAffinity -3.69154453
REMARK minimizedRMSD -1
REMARK  0 active torsions:
REMARK  status: ('A' for Active; 'I' for Inactive)
ROOT
ATOM      1  C4' PXY d   1      -0.884  -1.985  -1.076  0.00  0.00     0.077 C 
ATOM      2  C1' PXY d   1       0.890   2.779   1.676  0.00  0.00     0.077 C 
ATOM      3  C1  PXY d   1       0.432   1.533   0.944  0.00  0.00    -0.082 A 
ATOM      4  C2  PXY d   1      -0.709   0.956   1.285  0.00  0.00     0.003 A 
ATOM      5  C3  PXY d   1      -1.123  -0.189   0.654  0.00  0.00     0.003 A 
ATOM      6  C4  PXY d   1      -0.387  -0.720  -0.371  0.00  0.00    -0.082 A 
ATOM      7  C5  PXY d   1       0.773  -0.131  -0.732  0.00  0.00     0.003 A 
ATOM      8  C6  PXY d   1       1.196   1.007  -0.052  0.00  0.00     0.003 A 
ENDROOT
TORSDOF 0
ENDMDL
