MODEL 1
REMARK minimizedAffinity -1.54155302
REMARK minimizedRMSD -1
REMARK  0 active torsions:
REMARK  status: ('A' for Active; 'I' for Inactive)
ROOT
ATOM      1  C4' PXY d   1      -0.065  -1.990  -0.898  0.00  0.00     0.077 C 
ATOM      2  C1' PXY d   1       1.328   3.206   1.217  0.00  0.00     0.077 C 
ATOM      3  C1  PXY d   1       0.957   1.841   0.674  0.00  0.00    -0.082 A 
ATOM      4  C2  PXY d   1       1.651   1.325  -0.328  0.00  0.00     0.003 A 
ATOM      5  C3  PXY d   1       1.309   0.105  -0.853  0.00  0.00     0.003 A 
ATOM      6  C4  PXY d   1       0.280  -0.618  -0.311  0.00  0.00    -0.082 A 
ATOM      7  C5  PXY d   1      -0.426  -0.103   0.718  0.00  0.00     0.003 A 
ATOM      8  C6  PXY d   1      -0.089   1.155   1.209  0.00  0.00     0.003 A 
ENDROOT
TORSDOF 0
ENDMDL
