MODEL 1
REMARK minimizedAffinity -1.21956611
REMARK minimizedRMSD -1
REMARK  0 active torsions:
REMARK  status: ('A' for Active; 'I' for Inactive)
ROOT
ATOM      1  C4' PXY d   1       2.832   1.300  -1.664  0.00  0.00     0.077 C 
ATOM      2  C1' PXY d   1      -1.286   1.101   2.387  0.00  0.00     0.077 C 
ATOM      3  C1  PXY d   1      -0.208   1.166   1.323  0.00  0.00    -0.082 A 
ATOM      4  C2  PXY d   1       0.123   0.070   0.660  0.00  0.00     0.003 A 
ATOM      5  C3  PXY d   1       1.118   0.104  -0.283  0.00  0.00     0.003 A 
ATOM      6  C4  PXY d   1       1.743   1.284  -0.588  0.00  0.00    -0.082 A 
ATOM      7  C5  PXY d   1       1.403   2.408   0.077  0.00  0.00     0.003 A 
ATOM      8  C6  PXY d   1       0.420   2.344   1.060  0.00  0.00     0.003 A 
ENDROOT
TORSDOF 0
ENDMDL
