MODEL 1
REMARK minimizedAffinity -4.86450386
REMARK minimizedRMSD -1
REMARK  0 active torsions:
REMARK  status: ('A' for Active; 'I' for Inactive)
ROOT
ATOM      1  C1  BNZ d   1      -1.091   0.766  -0.647  0.00  0.00     0.000 A 
ATOM      2  C2  BNZ d   1      -2.106   1.402   0.016  0.00  0.00     0.000 A 
ATOM      3  C3  BNZ d   1      -2.115   1.471   1.381  0.00  0.00     0.000 A 
ATOM      4  C4  BNZ d   1      -1.130   0.871   2.082  0.00  0.00     0.000 A 
ATOM      5  C5  BNZ d   1      -0.104   0.219   1.427  0.00  0.00     0.000 A 
ATOM      6  C6  BNZ d   1      -0.079   0.185   0.052  0.00  0.00     0.000 A 
ENDROOT
TORSDOF 0
ENDMDL
