MODEL 1
REMARK minimizedAffinity -4.87828207
REMARK minimizedRMSD -1
REMARK  0 active torsions:
REMARK  status: ('A' for Active; 'I' for Inactive)
ROOT
ATOM      1  C1  BNZ d   1      -1.492   1.918   1.302  0.00  0.00     0.000 A 
ATOM      2  C2  BNZ d   1      -1.418   1.682  -0.045  0.00  0.00     0.000 A 
ATOM      3  C3  BNZ d   1      -0.730   0.605  -0.530  0.00  0.00     0.000 A 
ATOM      4  C4  BNZ d   1      -0.085  -0.211   0.329  0.00  0.00     0.000 A 
ATOM      5  C5  BNZ d   1      -0.143   0.019   1.689  0.00  0.00     0.000 A 
ATOM      6  C6  BNZ d   1      -0.868   1.082   2.176  0.00  0.00     0.000 A 
ENDROOT
TORSDOF 0
ENDMDL
