MODEL 1
REMARK minimizedAffinity -4.09316254
REMARK minimizedRMSD -1
REMARK  0 active torsions:
REMARK  status: ('A' for Active; 'I' for Inactive)
ROOT
ATOM      1  C1  BNZ d   1      -0.612   1.973  -0.376  0.00  0.00     0.000 A 
ATOM      2  C2  BNZ d   1      -0.013   0.804  -0.762  0.00  0.00     0.000 A 
ATOM      3  C3  BNZ d   1       0.094  -0.248   0.104  0.00  0.00     0.000 A 
ATOM      4  C4  BNZ d   1      -0.362  -0.116   1.367  0.00  0.00     0.000 A 
ATOM      5  C5  BNZ d   1      -0.961   1.060   1.774  0.00  0.00     0.000 A 
ATOM      6  C6  BNZ d   1      -1.102   2.102   0.887  0.00  0.00     0.000 A 
ENDROOT
TORSDOF 0
ENDMDL
