MODEL 1
REMARK minimizedAffinity -4.83740044
REMARK minimizedRMSD -1
REMARK  0 active torsions:
REMARK  status: ('A' for Active; 'I' for Inactive)
ROOT
ATOM      1  C1  BNZ d   1      -0.031   0.669  -0.467  0.00  0.00     0.000 A 
ATOM      2  C2  BNZ d   1      -0.916   1.658  -0.130  0.00  0.00     0.000 A 
ATOM      3  C3  BNZ d   1      -1.444   1.725   1.129  0.00  0.00     0.000 A 
ATOM      4  C4  BNZ d   1      -1.118   0.782   2.036  0.00  0.00     0.000 A 
ATOM      5  C5  BNZ d   1      -0.234  -0.227   1.709  0.00  0.00     0.000 A 
ATOM      6  C6  BNZ d   1       0.325  -0.269   0.453  0.00  0.00     0.000 A 
ENDROOT
TORSDOF 0
ENDMDL
