MODEL 1
REMARK minimizedAffinity -2.4031415
REMARK minimizedRMSD -1
REMARK  0 active torsions:
REMARK  status: ('A' for Active; 'I' for Inactive)
ROOT
ATOM      1  C1  BNZ d   1       0.050  -0.390   0.045  0.00  0.00     0.000 A 
ATOM      2  C2  BNZ d   1       0.724   0.318  -0.914  0.00  0.00     0.000 A 
ATOM      3  C3  BNZ d   1       0.189   1.458  -1.446  0.00  0.00     0.000 A 
ATOM      4  C4  BNZ d   1      -1.033   1.866  -1.048  0.00  0.00     0.000 A 
ATOM      5  C5  BNZ d   1      -1.728   1.158  -0.089  0.00  0.00     0.000 A 
ATOM      6  C6  BNZ d   1      -1.170   0.032   0.473  0.00  0.00     0.000 A 
ENDROOT
TORSDOF 0
ENDMDL
