MODEL 1
REMARK minimizedAffinity -4.75042677
REMARK minimizedRMSD -1
REMARK  0 active torsions:
REMARK  status: ('A' for Active; 'I' for Inactive)
ROOT
ATOM      1  C1  BNZ d   1      -0.344  -0.094   1.766  0.00  0.00     0.000 A 
ATOM      2  C2  BNZ d   1      -1.092   0.968   2.198  0.00  0.00     0.000 A 
ATOM      3  C3  BNZ d   1      -1.610   1.867   1.308  0.00  0.00     0.000 A 
ATOM      4  C4  BNZ d   1      -1.346   1.725  -0.007  0.00  0.00     0.000 A 
ATOM      5  C5  BNZ d   1      -0.586   0.664  -0.457  0.00  0.00     0.000 A 
ATOM      6  C6  BNZ d   1      -0.098  -0.260   0.438  0.00  0.00     0.000 A 
ENDROOT
TORSDOF 0
ENDMDL
