MODEL 1
REMARK minimizedAffinity -3.49558878
REMARK minimizedRMSD -1
REMARK  0 active torsions:
REMARK  status: ('A' for Active; 'I' for Inactive)
ROOT
ATOM      1  C1  BNZ d   1      -0.601   2.123  -1.097  0.00  0.00     0.000 A 
ATOM      2  C2  BNZ d   1       0.497   1.512  -1.641  0.00  0.00     0.000 A 
ATOM      3  C3  BNZ d   1       0.877   0.264  -1.235  0.00  0.00     0.000 A 
ATOM      4  C4  BNZ d   1       0.184  -0.355  -0.258  0.00  0.00     0.000 A 
ATOM      5  C5  BNZ d   1      -0.920   0.251   0.308  0.00  0.00     0.000 A 
ATOM      6  C6  BNZ d   1      -1.323   1.492  -0.131  0.00  0.00     0.000 A 
ENDROOT
TORSDOF 0
ENDMDL
