MODEL 1
REMARK minimizedAffinity -4.06864643
REMARK minimizedRMSD -1
REMARK  0 active torsions:
REMARK  status: ('A' for Active; 'I' for Inactive)
ROOT
ATOM      1  C1  BNZ d   1      -0.455   0.449   2.446  0.00  0.00     0.000 A 
ATOM      2  C2  BNZ d   1      -1.200   1.259   1.632  0.00  0.00     0.000 A 
ATOM      3  C3  BNZ d   1      -1.188   1.090   0.275  0.00  0.00     0.000 A 
ATOM      4  C4  BNZ d   1      -0.402   0.138  -0.267  0.00  0.00     0.000 A 
ATOM      5  C5  BNZ d   1       0.362  -0.681   0.540  0.00  0.00     0.000 A 
ATOM      6  C6  BNZ d   1       0.318  -0.534   1.907  0.00  0.00     0.000 A 
ENDROOT
TORSDOF 0
ENDMDL
