MODEL 1
REMARK minimizedAffinity -3.94442677
REMARK minimizedRMSD -1
REMARK  0 active torsions:
REMARK  status: ('A' for Active; 'I' for Inactive)
ROOT
ATOM      1  C1  BNZ d   1      -1.608   1.129   1.196  0.00  0.00     0.000 A 
ATOM      2  C2  BNZ d   1      -1.151   1.312  -0.082  0.00  0.00     0.000 A 
ATOM      3  C3  BNZ d   1      -0.094   0.587  -0.558  0.00  0.00     0.000 A 
ATOM      4  C4  BNZ d   1       0.529  -0.288   0.256  0.00  0.00     0.000 A 
ATOM      5  C5  BNZ d   1       0.087  -0.477   1.550  0.00  0.00     0.000 A 
ATOM      6  C6  BNZ d   1      -1.002   0.225   2.013  0.00  0.00     0.000 A 
ENDROOT
TORSDOF 0
ENDMDL
