MODEL 1
REMARK minimizedAffinity -4.57560778
REMARK minimizedRMSD -1
REMARK  0 active torsions:
REMARK  status: ('A' for Active; 'I' for Inactive)
ROOT
ATOM      1  C1  BNZ d   1      -0.710   1.519   2.070  0.00  0.00     0.000 A 
ATOM      2  C2  BNZ d   1      -0.014   0.492   1.490  0.00  0.00     0.000 A 
ATOM      3  C3  BNZ d   1      -0.314   0.070   0.225  0.00  0.00     0.000 A 
ATOM      4  C4  BNZ d   1      -1.334   0.647  -0.442  0.00  0.00     0.000 A 
ATOM      5  C5  BNZ d   1      -2.052   1.677   0.133  0.00  0.00     0.000 A 
ATOM      6  C6  BNZ d   1      -1.721   2.125   1.391  0.00  0.00     0.000 A 
ENDROOT
TORSDOF 0
ENDMDL
