MODEL 1
REMARK minimizedAffinity -3.10397005
REMARK minimizedRMSD -1
REMARK  0 active torsions:
REMARK  status: ('A' for Active; 'I' for Inactive)
ROOT
ATOM      1  C1  BNZ d   1      -0.718   1.332   2.307  0.00  0.00     0.000 A 
ATOM      2  C2  BNZ d   1      -0.045   0.455   1.499  0.00  0.00     0.000 A 
ATOM      3  C3  BNZ d   1      -0.464   0.220   0.219  0.00  0.00     0.000 A 
ATOM      4  C4  BNZ d   1      -1.577   0.830  -0.237  0.00  0.00     0.000 A 
ATOM      5  C5  BNZ d   1      -2.272   1.709   0.569  0.00  0.00     0.000 A 
ATOM      6  C6  BNZ d   1      -1.825   1.973   1.843  0.00  0.00     0.000 A 
ENDROOT
TORSDOF 0
ENDMDL
