MODEL 1
REMARK minimizedAffinity -4.55476999
REMARK minimizedRMSD -1
REMARK  0 active torsions:
REMARK  status: ('A' for Active; 'I' for Inactive)
ROOT
ATOM      1  C1  BNZ d   1      -1.140   0.676   0.014  0.00  0.00     0.000 A 
ATOM      2  C2  BNZ d   1      -1.827   1.731   0.552  0.00  0.00     0.000 A 
ATOM      3  C3  BNZ d   1      -1.593   2.137   1.836  0.00  0.00     0.000 A 
ATOM      4  C4  BNZ d   1      -0.703   1.463   2.592  0.00  0.00     0.000 A 
ATOM      5  C5  BNZ d   1      -0.009   0.391   2.067  0.00  0.00     0.000 A 
ATOM      6  C6  BNZ d   1      -0.219   0.010   0.762  0.00  0.00     0.000 A 
ENDROOT
TORSDOF 0
ENDMDL
