MODEL 1
REMARK minimizedAffinity -4.94239998
REMARK minimizedRMSD -1
REMARK  0 active torsions:
REMARK  status: ('A' for Active; 'I' for Inactive)
ROOT
ATOM      1  C1  BNZ d   1      -1.230   0.658   2.419  0.00  0.00     0.000 A 
ATOM      2  C2  BNZ d   1      -0.221  -0.086   1.868  0.00  0.00     0.000 A 
ATOM      3  C3  BNZ d   1       0.017  -0.054   0.522  0.00  0.00     0.000 A 
ATOM      4  C4  BNZ d   1      -0.778   0.689  -0.274  0.00  0.00     0.000 A 
ATOM      5  C5  BNZ d   1      -1.805   1.437   0.265  0.00  0.00     0.000 A 
ATOM      6  C6  BNZ d   1      -2.017   1.434   1.624  0.00  0.00     0.000 A 
ENDROOT
TORSDOF 0
ENDMDL
