MODEL 1
REMARK minimizedAffinity -4.15064096
REMARK minimizedRMSD -1
REMARK  0 active torsions:
REMARK  status: ('A' for Active; 'I' for Inactive)
ROOT
ATOM      1  C1  BNZ d   1      -0.755   0.143   1.475  0.00  0.00     0.000 A 
ATOM      2  C2  BNZ d   1      -1.392   1.077   2.247  0.00  0.00     0.000 A 
ATOM      3  C3  BNZ d   1      -1.348   2.404   1.920  0.00  0.00     0.000 A 
ATOM      4  C4  BNZ d   1      -0.634   2.799   0.846  0.00  0.00     0.000 A 
ATOM      5  C5  BNZ d   1       0.022   1.870   0.063  0.00  0.00     0.000 A 
ATOM      6  C6  BNZ d   1      -0.057   0.531   0.373  0.00  0.00     0.000 A 
ENDROOT
TORSDOF 0
ENDMDL
