MODEL 1
REMARK minimizedAffinity -3.59925699
REMARK minimizedRMSD -1
REMARK  0 active torsions:
REMARK  status: ('A' for Active; 'I' for Inactive)
ROOT
ATOM      1  C1  BNZ d   1      -1.031   1.155  -0.300  0.00  0.00     0.000 A 
ATOM      2  C2  BNZ d   1      -0.213   0.099  -0.600  0.00  0.00     0.000 A 
ATOM      3  C3  BNZ d   1       0.321  -0.677   0.391  0.00  0.00     0.000 A 
ATOM      4  C4  BNZ d   1       0.069  -0.372   1.680  0.00  0.00     0.000 A 
ATOM      5  C5  BNZ d   1      -0.747   0.696   1.999  0.00  0.00     0.000 A 
ATOM      6  C6  BNZ d   1      -1.313   1.451   0.998  0.00  0.00     0.000 A 
ENDROOT
TORSDOF 0
ENDMDL
