MODEL 1
REMARK minimizedAffinity -3.24317718
REMARK minimizedRMSD -1
REMARK  0 active torsions:
REMARK  status: ('A' for Active; 'I' for Inactive)
ROOT
ATOM      1  C1  BNZ d   1       0.002  -2.517  -3.666  0.00  0.00     0.000 A 
ATOM      2  C2  BNZ d   1       0.224  -1.732  -2.565  0.00  0.00     0.000 A 
ATOM      3  C3  BNZ d   1       0.909  -2.217  -1.486  0.00  0.00     0.000 A 
ATOM      4  C4  BNZ d   1       1.335  -3.497  -1.492  0.00  0.00     0.000 A 
ATOM      5  C5  BNZ d   1       1.111  -4.303  -2.590  0.00  0.00     0.000 A 
ATOM      6  C6  BNZ d   1       0.456  -3.800  -3.690  0.00  0.00     0.000 A 
ENDROOT
TORSDOF 0
ENDMDL
