MODEL 1
REMARK minimizedAffinity -4.49513674
REMARK minimizedRMSD -1
REMARK  0 active torsions:
REMARK  status: ('A' for Active; 'I' for Inactive)
ROOT
ATOM      1  C1  BNZ d   1      -0.222   0.583   0.354  0.00  0.00     0.000 A 
ATOM      2  C2  BNZ d   1      -0.765   1.839   0.405  0.00  0.00     0.000 A 
ATOM      3  C3  BNZ d   1      -1.983   2.052   0.989  0.00  0.00     0.000 A 
ATOM      4  C4  BNZ d   1      -2.672   1.005   1.485  0.00  0.00     0.000 A 
ATOM      5  C5  BNZ d   1      -2.142  -0.269   1.433  0.00  0.00     0.000 A 
ATOM      6  C6  BNZ d   1      -0.899  -0.474   0.879  0.00  0.00     0.000 A 
ENDROOT
TORSDOF 0
ENDMDL
