MODEL 1
REMARK minimizedAffinity -2.3578608
REMARK minimizedRMSD -1
REMARK  0 active torsions:
REMARK  status: ('A' for Active; 'I' for Inactive)
ROOT
ATOM      1  C   UNL d   1      -3.480   0.845  -5.999  0.00  0.00     0.023 A 
ATOM      2  C1  UNL d   1      -4.875   0.818  -5.988  0.00  0.00     0.003 A 
ATOM      3  C2  UNL d   1      -5.598   2.013  -5.973  0.00  0.00     0.048 A 
ATOM      4  C3  UNL d   1      -4.919   3.231  -5.970  0.00  0.00     0.023 A 
ATOM      5  C4  UNL d   1      -3.524   3.263  -5.983  0.00  0.00     0.048 A 
ATOM      6  C5  UNL d   1      -2.806   2.066  -5.997  0.00  0.00     0.003 A 
ATOM      7  I   UNL d   1      -5.993   5.011  -5.948  0.00  0.00    -0.146 I 
ENDROOT
TORSDOF 0
ENDMDL
