MODEL 1
REMARK minimizedAffinity -1.26417112
REMARK minimizedRMSD -1
REMARK  0 active torsions:
REMARK  status: ('A' for Active; 'I' for Inactive)
ROOT
ATOM      1  C   UNL d   1      -2.736   4.504  -5.966  0.00  0.00     0.023 A 
ATOM      2  C1  UNL d   1      -1.723   3.545  -5.979  0.00  0.00     0.003 A 
ATOM      3  C2  UNL d   1      -2.046   2.186  -5.988  0.00  0.00     0.048 A 
ATOM      4  C3  UNL d   1      -3.384   1.794  -5.985  0.00  0.00     0.023 A 
ATOM      5  C4  UNL d   1      -4.401   2.750  -5.974  0.00  0.00     0.048 A 
ATOM      6  C5  UNL d   1      -4.073   4.107  -5.963  0.00  0.00     0.003 A 
ATOM      7  I   UNL d   1      -3.868  -0.227  -5.999  0.00  0.00    -0.146 I 
ENDROOT
TORSDOF 0
ENDMDL
