MODEL 1
REMARK minimizedAffinity 0.214664847
REMARK minimizedRMSD -1
REMARK  0 active torsions:
REMARK  status: ('A' for Active; 'I' for Inactive)
ROOT
ATOM      1  C   UNL d   1      -4.067   4.630  -5.991  0.00  0.00     0.023 A 
ATOM      2  C1  UNL d   1      -5.345   4.071  -5.993  0.00  0.00     0.003 A 
ATOM      3  C2  UNL d   1      -5.501   2.683  -5.995  0.00  0.00     0.048 A 
ATOM      4  C3  UNL d   1      -4.375   1.861  -5.996  0.00  0.00     0.023 A 
ATOM      5  C4  UNL d   1      -3.094   2.416  -5.994  0.00  0.00     0.048 A 
ATOM      6  C5  UNL d   1      -2.943   3.804  -5.992  0.00  0.00     0.003 A 
ATOM      7  I   UNL d   1      -4.605  -0.205  -6.000  0.00  0.00    -0.146 I 
ENDROOT
TORSDOF 0
ENDMDL
