MODEL 1
REMARK minimizedAffinity -0.0985723585
REMARK minimizedRMSD -1
REMARK  0 active torsions:
REMARK  status: ('A' for Active; 'I' for Inactive)
ROOT
ATOM      1  C   UNL d   1      -4.091   5.397  -5.983  0.00  0.00     0.023 A 
ATOM      2  C1  UNL d   1      -3.000   4.526  -5.987  0.00  0.00     0.003 A 
ATOM      3  C2  UNL d   1      -3.207   3.146  -5.991  0.00  0.00     0.048 A 
ATOM      4  C3  UNL d   1      -4.507   2.641  -5.992  0.00  0.00     0.023 A 
ATOM      5  C4  UNL d   1      -5.601   3.508  -5.989  0.00  0.00     0.048 A 
ATOM      6  C5  UNL d   1      -5.390   4.888  -5.984  0.00  0.00     0.003 A 
ATOM      7  I   UNL d   1      -4.818   0.586  -5.999  0.00  0.00    -0.146 I 
ENDROOT
TORSDOF 0
ENDMDL
