MODEL 1
REMARK minimizedAffinity -1.55465055
REMARK minimizedRMSD -1
REMARK  0 active torsions:
REMARK  status: ('A' for Active; 'I' for Inactive)
ROOT
ATOM      1  C   UNL d   1      -4.809   5.181  -5.946  0.00  0.00     0.023 A 
ATOM      2  C1  UNL d   1      -3.574   4.534  -5.963  0.00  0.00     0.003 A 
ATOM      3  C2  UNL d   1      -3.515   3.139  -5.978  0.00  0.00     0.048 A 
ATOM      4  C3  UNL d   1      -4.696   2.397  -5.977  0.00  0.00     0.023 A 
ATOM      5  C4  UNL d   1      -5.935   3.041  -5.961  0.00  0.00     0.048 A 
ATOM      6  C5  UNL d   1      -5.988   4.436  -5.946  0.00  0.00     0.003 A 
ATOM      7  I   UNL d   1      -4.612   0.321  -6.000  0.00  0.00    -0.146 I 
ENDROOT
TORSDOF 0
ENDMDL
