MODEL 1
REMARK minimizedAffinity 0.866590261
REMARK minimizedRMSD -1
REMARK  0 active torsions:
REMARK  status: ('A' for Active; 'I' for Inactive)
ROOT
ATOM      1  C   UNL d   1      -4.200   4.273  -5.981  0.00  0.00     0.023 A 
ATOM      2  C1  UNL d   1      -3.266   3.236  -5.992  0.00  0.00     0.003 A 
ATOM      3  C2  UNL d   1      -3.697   1.908  -5.997  0.00  0.00     0.048 A 
ATOM      4  C3  UNL d   1      -5.062   1.623  -5.992  0.00  0.00     0.023 A 
ATOM      5  C4  UNL d   1      -5.999   2.657  -5.982  0.00  0.00     0.048 A 
ATOM      6  C5  UNL d   1      -5.564   3.984  -5.976  0.00  0.00     0.003 A 
ATOM      7  I   UNL d   1      -5.705  -0.353  -6.000  0.00  0.00    -0.146 I 
ENDROOT
TORSDOF 0
ENDMDL
