MODEL 1
REMARK minimizedAffinity 4.31208849
REMARK minimizedRMSD -1
REMARK  0 active torsions:
REMARK  status: ('A' for Active; 'I' for Inactive)
ROOT
ATOM      1  C   UNL d   1      -3.493   3.664  -5.961  0.00  0.00     0.023 A 
ATOM      2  C1  UNL d   1      -2.567   2.621  -5.989  0.00  0.00     0.003 A 
ATOM      3  C2  UNL d   1      -3.007   1.296  -5.999  0.00  0.00     0.048 A 
ATOM      4  C3  UNL d   1      -4.373   1.020  -5.984  0.00  0.00     0.023 A 
ATOM      5  C4  UNL d   1      -5.304   2.061  -5.957  0.00  0.00     0.048 A 
ATOM      6  C5  UNL d   1      -4.860   3.384  -5.946  0.00  0.00     0.003 A 
ATOM      7  I   UNL d   1      -5.030  -0.952  -6.000  0.00  0.00    -0.146 I 
ENDROOT
TORSDOF 0
ENDMDL
