MODEL 1
REMARK minimizedAffinity -0.505685389
REMARK minimizedRMSD -1
REMARK  0 active torsions:
REMARK  status: ('A' for Active; 'I' for Inactive)
ROOT
ATOM      1  C   UNL d   1      -2.670   1.229  -5.996  0.00  0.00     0.023 A 
ATOM      2  C1  UNL d   1      -4.009   1.621  -5.996  0.00  0.00     0.003 A 
ATOM      3  C2  UNL d   1      -4.341   2.977  -5.997  0.00  0.00     0.048 A 
ATOM      4  C3  UNL d   1      -3.329   3.937  -5.999  0.00  0.00     0.023 A 
ATOM      5  C4  UNL d   1      -1.988   3.549  -6.000  0.00  0.00     0.048 A 
ATOM      6  C5  UNL d   1      -1.661   2.192  -5.998  0.00  0.00     0.003 A 
ATOM      7  I   UNL d   1      -3.821   5.956  -6.000  0.00  0.00    -0.146 I 
ENDROOT
TORSDOF 0
ENDMDL
