MODEL 1
REMARK minimizedAffinity -0.376676351
REMARK minimizedRMSD -1
REMARK  0 active torsions:
REMARK  status: ('A' for Active; 'I' for Inactive)
ROOT
ATOM      1  C   UNL d   1      -4.081   2.870  -5.998  0.00  0.00     0.023 A 
ATOM      2  C1  UNL d   1      -2.990   2.000  -6.000  0.00  0.00     0.003 A 
ATOM      3  C2  UNL d   1      -3.197   0.619  -5.999  0.00  0.00     0.048 A 
ATOM      4  C3  UNL d   1      -4.497   0.114  -5.998  0.00  0.00     0.023 A 
ATOM      5  C4  UNL d   1      -5.591   0.981  -5.998  0.00  0.00     0.048 A 
ATOM      6  C5  UNL d   1      -5.380   2.361  -5.997  0.00  0.00     0.003 A 
ATOM      7  I   UNL d   1      -4.807  -1.941  -5.998  0.00  0.00    -0.146 I 
ENDROOT
TORSDOF 0
ENDMDL
