MODEL 1
REMARK minimizedAffinity -2.80683184
REMARK minimizedRMSD -1
REMARK  0 active torsions:
REMARK  status: ('A' for Active; 'I' for Inactive)
ROOT
ATOM      1  C   UNL d   1      -4.030  -4.077  -5.997  0.00  0.00     0.023 A 
ATOM      2  C1  UNL d   1      -2.893  -3.270  -5.997  0.00  0.00     0.003 A 
ATOM      3  C2  UNL d   1      -3.022  -1.879  -5.998  0.00  0.00     0.048 A 
ATOM      4  C3  UNL d   1      -4.292  -1.303  -5.997  0.00  0.00     0.023 A 
ATOM      5  C4  UNL d   1      -5.433  -2.107  -5.996  0.00  0.00     0.048 A 
ATOM      6  C5  UNL d   1      -5.298  -3.497  -5.997  0.00  0.00     0.003 A 
ATOM      7  I   UNL d   1      -4.487   0.766  -5.997  0.00  0.00    -0.146 I 
ENDROOT
TORSDOF 0
ENDMDL
