MODEL 1
REMARK minimizedAffinity -2.78907347
REMARK minimizedRMSD -1
REMARK  0 active torsions:
REMARK  status: ('A' for Active; 'I' for Inactive)
ROOT
ATOM      1  C   UNL d   1      -3.204  -0.230  -6.000  0.00  0.00     0.023 A 
ATOM      2  C1  UNL d   1      -2.208   0.747  -5.994  0.00  0.00     0.003 A 
ATOM      3  C2  UNL d   1      -2.554   2.099  -5.988  0.00  0.00     0.048 A 
ATOM      4  C3  UNL d   1      -3.899   2.469  -5.988  0.00  0.00     0.023 A 
ATOM      5  C4  UNL d   1      -4.899   1.495  -5.994  0.00  0.00     0.048 A 
ATOM      6  C5  UNL d   1      -4.548   0.144  -6.000  0.00  0.00     0.003 A 
ATOM      7  I   UNL d   1      -4.417   4.481  -5.980  0.00  0.00    -0.146 I 
ENDROOT
TORSDOF 0
ENDMDL
