MODEL 1
REMARK minimizedAffinity -3.22233486
REMARK minimizedRMSD -1
REMARK  0 active torsions:
REMARK  status: ('A' for Active; 'I' for Inactive)
ROOT
ATOM      1  C   UNL d   1      -3.169   0.292  -5.983  0.00  0.00     0.023 A 
ATOM      2  C1  UNL d   1      -4.564   0.293  -5.982  0.00  0.00     0.003 A 
ATOM      3  C2  UNL d   1      -5.263   1.501  -5.986  0.00  0.00     0.048 A 
ATOM      4  C3  UNL d   1      -4.561   2.706  -5.993  0.00  0.00     0.023 A 
ATOM      5  C4  UNL d   1      -3.165   2.711  -5.995  0.00  0.00     0.048 A 
ATOM      6  C5  UNL d   1      -2.471   1.500  -5.990  0.00  0.00     0.003 A 
ATOM      7  I   UNL d   1      -5.600   4.506  -6.000  0.00  0.00    -0.146 I 
ENDROOT
TORSDOF 0
ENDMDL
