MODEL 1
REMARK minimizedAffinity -1.6414057
REMARK minimizedRMSD -1
REMARK  0 active torsions:
REMARK  status: ('A' for Active; 'I' for Inactive)
ROOT
ATOM      1  C   UNL d   1      -1.205   3.530  -5.612  0.00  0.00     0.023 A 
ATOM      2  C1  UNL d   1      -2.277   2.693  -5.923  0.00  0.00     0.003 A 
ATOM      3  C2  UNL d   1      -3.571   3.213  -5.999  0.00  0.00     0.048 A 
ATOM      4  C3  UNL d   1      -3.786   4.570  -5.764  0.00  0.00     0.023 A 
ATOM      5  C4  UNL d   1      -2.716   5.412  -5.453  0.00  0.00     0.048 A 
ATOM      6  C5  UNL d   1      -1.424   4.888  -5.378  0.00  0.00     0.003 A 
ATOM      7  I   UNL d   1      -5.711   5.346  -5.876  0.00  0.00    -0.146 I 
ENDROOT
TORSDOF 0
ENDMDL
