MODEL 1
REMARK minimizedAffinity 2.61008906
REMARK minimizedRMSD -1
REMARK  0 active torsions:
REMARK  status: ('A' for Active; 'I' for Inactive)
ROOT
ATOM      1  C   UNL d   1      -2.938   3.681  -5.987  0.00  0.00     0.023 A 
ATOM      2  C1  UNL d   1      -2.027   2.624  -5.995  0.00  0.00     0.003 A 
ATOM      3  C2  UNL d   1      -2.486   1.305  -5.998  0.00  0.00     0.048 A 
ATOM      4  C3  UNL d   1      -3.856   1.050  -5.995  0.00  0.00     0.023 A 
ATOM      5  C4  UNL d   1      -4.772   2.104  -5.988  0.00  0.00     0.048 A 
ATOM      6  C5  UNL d   1      -4.309   3.421  -5.984  0.00  0.00     0.003 A 
ATOM      7  I   UNL d   1      -4.541  -0.912  -6.000  0.00  0.00    -0.146 I 
ENDROOT
TORSDOF 0
ENDMDL
