MODEL 1
REMARK minimizedAffinity 1.27578139
REMARK minimizedRMSD -1
REMARK  0 active torsions:
REMARK  status: ('A' for Active; 'I' for Inactive)
ROOT
ATOM      1  C   UNL d   1       0.761  -0.753  -2.354  0.00  0.00     0.023 A 
ATOM      2  C1  UNL d   1       1.995  -0.121  -2.196  0.00  0.00     0.003 A 
ATOM      3  C2  UNL d   1       2.200   0.757  -1.130  0.00  0.00     0.048 A 
ATOM      4  C3  UNL d   1       1.168   0.998  -0.225  0.00  0.00     0.023 A 
ATOM      5  C4  UNL d   1      -0.068   0.368  -0.378  0.00  0.00     0.048 A 
ATOM      6  C5  UNL d   1      -0.269  -0.509  -1.446  0.00  0.00     0.003 A 
ATOM      7  I   UNL d   1       1.471   2.305   1.363  0.00  0.00    -0.146 I 
ENDROOT
TORSDOF 0
ENDMDL
