MODEL 1
REMARK minimizedAffinity 0.177497923
REMARK minimizedRMSD -1
REMARK  0 active torsions:
REMARK  status: ('A' for Active; 'I' for Inactive)
ROOT
ATOM      1  C   UNL d   1      -2.718   4.832  -5.946  0.00  0.00     0.023 A 
ATOM      2  C1  UNL d   1      -4.070   4.491  -5.927  0.00  0.00     0.003 A 
ATOM      3  C2  UNL d   1      -4.453   3.148  -5.943  0.00  0.00     0.048 A 
ATOM      4  C3  UNL d   1      -3.478   2.152  -5.976  0.00  0.00     0.023 A 
ATOM      5  C4  UNL d   1      -2.124   2.488  -5.995  0.00  0.00     0.048 A 
ATOM      6  C5  UNL d   1      -1.746   3.832  -5.980  0.00  0.00     0.003 A 
ATOM      7  I   UNL d   1      -4.045   0.152  -6.000  0.00  0.00    -0.146 I 
ENDROOT
TORSDOF 0
ENDMDL
