MODEL 1
REMARK minimizedAffinity 2.91802835
REMARK minimizedRMSD -1
REMARK  0 active torsions:
REMARK  status: ('A' for Active; 'I' for Inactive)
ROOT
ATOM      1  C   UNL d   1      -2.315   3.357  -5.366  0.00  0.00     0.023 A 
ATOM      2  C1  UNL d   1      -3.616   3.662  -5.767  0.00  0.00     0.003 A 
ATOM      3  C2  UNL d   1      -4.558   2.642  -5.919  0.00  0.00     0.048 A 
ATOM      4  C3  UNL d   1      -4.193   1.320  -5.667  0.00  0.00     0.023 A 
ATOM      5  C4  UNL d   1      -2.892   1.011  -5.265  0.00  0.00     0.048 A 
ATOM      6  C5  UNL d   1      -1.954   2.034  -5.115  0.00  0.00     0.003 A 
ATOM      7  I   UNL d   1      -5.593  -0.199  -5.893  0.00  0.00    -0.146 I 
ENDROOT
TORSDOF 0
ENDMDL
