MODEL 1
REMARK minimizedAffinity 5.18611908
REMARK minimizedRMSD -1
REMARK  0 active torsions:
REMARK  status: ('A' for Active; 'I' for Inactive)
ROOT
ATOM      1  C   UNL d   1      -0.332  -0.667  -1.198  0.00  0.00     0.023 A 
ATOM      2  C1  UNL d   1       0.519  -0.878  -2.284  0.00  0.00     0.003 A 
ATOM      3  C2  UNL d   1       1.843  -0.440  -2.230  0.00  0.00     0.048 A 
ATOM      4  C3  UNL d   1       2.312   0.206  -1.087  0.00  0.00     0.023 A 
ATOM      5  C4  UNL d   1       1.465   0.418   0.002  0.00  0.00     0.048 A 
ATOM      6  C5  UNL d   1       0.141  -0.020  -0.057  0.00  0.00     0.003 A 
ATOM      7  I   UNL d   1       4.284   0.858  -1.004  0.00  0.00    -0.146 I 
ENDROOT
TORSDOF 0
ENDMDL
