MODEL 1
REMARK minimizedAffinity -4.05493498
REMARK minimizedRMSD -1
REMARK  0 active torsions:
REMARK  status: ('A' for Active; 'I' for Inactive)
ROOT
ATOM      1  C   UNL d   1      -0.467   1.120   2.510  0.00  0.00     0.078 C 
ATOM      2  C1  UNL d   1       0.155   0.564   1.264  0.00  0.00    -0.077 A 
ATOM      3  C2  UNL d   1       1.269  -0.283   1.330  0.00  0.00    -0.001 A 
ATOM      4  C3  UNL d   1       1.843  -0.785   0.161  0.00  0.00     0.003 A 
ATOM      5  C4  UNL d   1       1.312  -0.446  -1.082  0.00  0.00    -0.005 A 
ATOM      6  C5  UNL d   1       0.205   0.397  -1.157  0.00  0.00     0.003 A 
ATOM      7  C6  UNL d   1      -0.371   0.900   0.010  0.00  0.00    -0.001 A 
ENDROOT
TORSDOF 0
ENDMDL
