MODEL 1
REMARK minimizedAffinity -4.4753294
REMARK minimizedRMSD -1
REMARK  0 active torsions:
REMARK  status: ('A' for Active; 'I' for Inactive)
ROOT
ATOM      1  C   UNL d   1      -0.531   1.491   3.079  0.00  0.00     0.078 C 
ATOM      2  C1  UNL d   1      -0.525   0.635   1.848  0.00  0.00    -0.077 A 
ATOM      3  C2  UNL d   1       0.671   0.329   1.188  0.00  0.00    -0.001 A 
ATOM      4  C3  UNL d   1       0.661  -0.461   0.037  0.00  0.00     0.003 A 
ATOM      5  C4  UNL d   1      -0.543  -0.949  -0.465  0.00  0.00    -0.005 A 
ATOM      6  C5  UNL d   1      -1.739  -0.648   0.183  0.00  0.00     0.003 A 
ATOM      7  C6  UNL d   1      -1.731   0.142   1.334  0.00  0.00    -0.001 A 
ENDROOT
TORSDOF 0
ENDMDL
