MODEL 1
REMARK minimizedAffinity -5.05036354
REMARK minimizedRMSD -1
REMARK  0 active torsions:
REMARK  status: ('A' for Active; 'I' for Inactive)
ROOT
ATOM      1  C   UNL d   1      -0.750   1.528   2.163  0.00  0.00     0.078 C 
ATOM      2  C1  UNL d   1      -0.226   0.795   0.965  0.00  0.00    -0.077 A 
ATOM      3  C2  UNL d   1       0.323  -0.488   1.087  0.00  0.00    -0.001 A 
ATOM      4  C3  UNL d   1       0.816  -1.155  -0.035  0.00  0.00     0.003 A 
ATOM      5  C4  UNL d   1       0.767  -0.547  -1.288  0.00  0.00    -0.005 A 
ATOM      6  C5  UNL d   1       0.225   0.729  -1.420  0.00  0.00     0.003 A 
ATOM      7  C6  UNL d   1      -0.269   1.398  -0.298  0.00  0.00    -0.001 A 
ENDROOT
TORSDOF 0
ENDMDL
