MODEL 1
REMARK minimizedAffinity -1.66072297
REMARK minimizedRMSD -1
REMARK  0 active torsions:
REMARK  status: ('A' for Active; 'I' for Inactive)
ROOT
ATOM      1  C   UNL d   1      -1.537   1.114   3.013  0.00  0.00     0.078 C 
ATOM      2  C1  UNL d   1      -0.979   0.669   1.695  0.00  0.00    -0.077 A 
ATOM      3  C2  UNL d   1      -1.785   0.612   0.551  0.00  0.00    -0.001 A 
ATOM      4  C3  UNL d   1      -1.254   0.186  -0.667  0.00  0.00     0.003 A 
ATOM      5  C4  UNL d   1       0.086  -0.188  -0.754  0.00  0.00    -0.005 A 
ATOM      6  C5  UNL d   1       0.896  -0.137   0.379  0.00  0.00     0.003 A 
ATOM      7  C6  UNL d   1       0.366   0.288   1.598  0.00  0.00    -0.001 A 
ENDROOT
TORSDOF 0
ENDMDL
