MODEL 1
REMARK minimizedAffinity -4.45496798
REMARK minimizedRMSD -1
REMARK  0 active torsions:
REMARK  status: ('A' for Active; 'I' for Inactive)
ROOT
ATOM      1  C   UNL d   1       1.755  -0.664   2.973  0.00  0.00     0.078 C 
ATOM      2  C1  UNL d   1       0.528  -0.253   2.215  0.00  0.00    -0.077 A 
ATOM      3  C2  UNL d   1       0.395  -0.537   0.850  0.00  0.00    -0.001 A 
ATOM      4  C3  UNL d   1      -0.749  -0.140   0.155  0.00  0.00     0.003 A 
ATOM      5  C4  UNL d   1      -1.767   0.545   0.815  0.00  0.00    -0.005 A 
ATOM      6  C5  UNL d   1      -1.642   0.835   2.172  0.00  0.00     0.003 A 
ATOM      7  C6  UNL d   1      -0.499   0.438   2.869  0.00  0.00    -0.001 A 
ENDROOT
TORSDOF 0
ENDMDL
