MODEL 1
REMARK minimizedAffinity -4.98350334
REMARK minimizedRMSD -1
REMARK  0 active torsions:
REMARK  status: ('A' for Active; 'I' for Inactive)
ROOT
ATOM      1  C   UNL d   1      -0.808   0.225  -0.380  0.00  0.00     0.078 C 
ATOM      2  C1  UNL d   1      -0.274   0.252   1.021  0.00  0.00    -0.077 A 
ATOM      3  C2  UNL d   1      -1.070   0.686   2.088  0.00  0.00    -0.001 A 
ATOM      4  C3  UNL d   1      -0.556   0.716   3.385  0.00  0.00     0.003 A 
ATOM      5  C4  UNL d   1       0.756   0.315   3.628  0.00  0.00    -0.005 A 
ATOM      6  C5  UNL d   1       1.557  -0.117   2.572  0.00  0.00     0.003 A 
ATOM      7  C6  UNL d   1       1.045  -0.147   1.274  0.00  0.00    -0.001 A 
ENDROOT
TORSDOF 0
ENDMDL
