MODEL 1
REMARK minimizedAffinity -1.87731588
REMARK minimizedRMSD -1
REMARK  0 active torsions:
REMARK  status: ('A' for Active; 'I' for Inactive)
ROOT
ATOM      1  C   UNL d   1      -0.846   0.629   2.421  0.00  0.00     0.078 C 
ATOM      2  C1  UNL d   1      -0.315   0.353   1.046  0.00  0.00    -0.077 A 
ATOM      3  C2  UNL d   1       0.852  -0.398   0.860  0.00  0.00    -0.001 A 
ATOM      4  C3  UNL d   1       1.340  -0.639  -0.425  0.00  0.00     0.003 A 
ATOM      5  C4  UNL d   1       0.668  -0.132  -1.535  0.00  0.00    -0.005 A 
ATOM      6  C5  UNL d   1      -0.493   0.619  -1.360  0.00  0.00     0.003 A 
ATOM      7  C6  UNL d   1      -0.982   0.861  -0.076  0.00  0.00    -0.001 A 
ENDROOT
TORSDOF 0
ENDMDL
