MODEL 1
REMARK minimizedAffinity 6.06271029
REMARK minimizedRMSD -1
REMARK  0 active torsions:
REMARK  status: ('A' for Active; 'I' for Inactive)
ROOT
ATOM      1  C1  BNZ d   1       1.278  -0.965  -0.310  0.00  0.00     0.000 A 
ATOM      2  C2  BNZ d   1       1.432   0.347   0.053  0.00  0.00     0.000 A 
ATOM      3  C3  BNZ d   1       0.415   1.244  -0.117  0.00  0.00     0.000 A 
ATOM      4  C4  BNZ d   1      -0.738   0.839  -0.686  0.00  0.00     0.000 A 
ATOM      5  C5  BNZ d   1      -0.906  -0.478  -1.066  0.00  0.00     0.000 A 
ATOM      6  C6  BNZ d   1       0.106  -1.387  -0.857  0.00  0.00     0.000 A 
ENDROOT
TORSDOF 0
ENDMDL
