MODEL 1
REMARK minimizedAffinity 3.65972614
REMARK minimizedRMSD -1
REMARK  0 active torsions:
REMARK  status: ('A' for Active; 'I' for Inactive)
ROOT
ATOM      1  C1  BNZ d   1       0.572  -1.289  -1.243  0.00  0.00     0.000 A 
ATOM      2  C2  BNZ d   1       0.192   0.027  -1.257  0.00  0.00     0.000 A 
ATOM      3  C3  BNZ d   1      -0.222   0.648  -0.112  0.00  0.00     0.000 A 
ATOM      4  C4  BNZ d   1      -0.294  -0.056   1.036  0.00  0.00     0.000 A 
ATOM      5  C5  BNZ d   1       0.076  -1.386   1.064  0.00  0.00     0.000 A 
ATOM      6  C6  BNZ d   1       0.530  -1.998  -0.082  0.00  0.00     0.000 A 
ENDROOT
TORSDOF 0
ENDMDL
