MODEL 1
REMARK minimizedAffinity -0.751085758
REMARK minimizedRMSD -1
REMARK  0 active torsions:
REMARK  status: ('A' for Active; 'I' for Inactive)
ROOT
ATOM      1  C1  BNZ d   1       2.633  -2.502  -0.706  0.00  0.00     0.000 A 
ATOM      2  C2  BNZ d   1       1.278  -2.404  -0.534  0.00  0.00     0.000 A 
ATOM      3  C3  BNZ d   1       0.686  -1.191  -0.318  0.00  0.00     0.000 A 
ATOM      4  C4  BNZ d   1       1.453  -0.084  -0.234  0.00  0.00     0.000 A 
ATOM      5  C5  BNZ d   1       2.822  -0.169  -0.396  0.00  0.00     0.000 A 
ATOM      6  C6  BNZ d   1       3.410  -1.386  -0.652  0.00  0.00     0.000 A 
ENDROOT
TORSDOF 0
ENDMDL
