MODEL 1
REMARK minimizedAffinity 4.21886349
REMARK minimizedRMSD -1
REMARK  0 active torsions:
REMARK  status: ('A' for Active; 'I' for Inactive)
ROOT
ATOM      1  C1  BNZ d   1      -1.246  -1.610   0.425  0.00  0.00     0.000 A 
ATOM      2  C2  BNZ d   1      -0.215  -1.454   1.312  0.00  0.00     0.000 A 
ATOM      3  C3  BNZ d   1       0.901  -0.743   0.971  0.00  0.00     0.000 A 
ATOM      4  C4  BNZ d   1       1.003  -0.223  -0.269  0.00  0.00     0.000 A 
ATOM      5  C5  BNZ d   1      -0.024  -0.379  -1.179  0.00  0.00     0.000 A 
ATOM      6  C6  BNZ d   1      -1.163  -1.063  -0.819  0.00  0.00     0.000 A 
ENDROOT
TORSDOF 0
ENDMDL
