MODEL 1
REMARK minimizedAffinity 5.95710802
REMARK minimizedRMSD -1
REMARK  0 active torsions:
REMARK  status: ('A' for Active; 'I' for Inactive)
ROOT
ATOM      1  C1  BNZ d   1       0.099  -2.098  -0.816  0.00  0.00     0.000 A 
ATOM      2  C2  BNZ d   1      -1.117  -1.825  -1.383  0.00  0.00     0.000 A 
ATOM      3  C3  BNZ d   1      -1.676  -0.583  -1.276  0.00  0.00     0.000 A 
ATOM      4  C4  BNZ d   1      -1.039   0.373  -0.570  0.00  0.00     0.000 A 
ATOM      5  C5  BNZ d   1       0.184   0.111   0.015  0.00  0.00     0.000 A 
ATOM      6  C6  BNZ d   1       0.762  -1.130  -0.127  0.00  0.00     0.000 A 
ENDROOT
TORSDOF 0
ENDMDL
