MODEL 1
REMARK minimizedAffinity 0.752352178
REMARK minimizedRMSD -1
REMARK  0 active torsions:
REMARK  status: ('A' for Active; 'I' for Inactive)
ROOT
ATOM      1  C1  BNZ d   1       1.669   0.274   0.168  0.00  0.00     0.000 A 
ATOM      2  C2  BNZ d   1       1.302  -1.037   0.018  0.00  0.00     0.000 A 
ATOM      3  C3  BNZ d   1       2.157  -1.943  -0.544  0.00  0.00     0.000 A 
ATOM      4  C4  BNZ d   1       3.360  -1.530  -0.991  0.00  0.00     0.000 A 
ATOM      5  C5  BNZ d   1       3.741  -0.210  -0.856  0.00  0.00     0.000 A 
ATOM      6  C6  BNZ d   1       2.893   0.691  -0.254  0.00  0.00     0.000 A 
ENDROOT
TORSDOF 0
ENDMDL
