MODEL 1
REMARK minimizedAffinity -1.76915467
REMARK minimizedRMSD -1
REMARK  0 active torsions:
REMARK  status: ('A' for Active; 'I' for Inactive)
ROOT
ATOM      1  C1  BNZ d   1      -0.805   0.145  -0.845  0.00  0.00     0.000 A 
ATOM      2  C2  BNZ d   1      -0.248  -1.097  -0.700  0.00  0.00     0.000 A 
ATOM      3  C3  BNZ d   1       0.977  -1.250  -0.113  0.00  0.00     0.000 A 
ATOM      4  C4  BNZ d   1       1.660  -0.159   0.291  0.00  0.00     0.000 A 
ATOM      5  C5  BNZ d   1       1.116   1.101   0.142  0.00  0.00     0.000 A 
ATOM      6  C6  BNZ d   1      -0.135   1.248  -0.414  0.00  0.00     0.000 A 
ENDROOT
TORSDOF 0
ENDMDL
