MODEL 1
REMARK minimizedAffinity 5.5634079
REMARK minimizedRMSD -1
REMARK  0 active torsions:
REMARK  status: ('A' for Active; 'I' for Inactive)
ROOT
ATOM      1  C1  BNZ d   1       1.515   0.794   5.182  0.00  0.00     0.000 A 
ATOM      2  C2  BNZ d   1       1.765  -0.538   5.372  0.00  0.00     0.000 A 
ATOM      3  C3  BNZ d   1       1.167  -1.482   4.585  0.00  0.00     0.000 A 
ATOM      4  C4  BNZ d   1       0.289  -1.095   3.637  0.00  0.00     0.000 A 
ATOM      5  C5  BNZ d   1       0.019   0.244   3.439  0.00  0.00     0.000 A 
ATOM      6  C6  BNZ d   1       0.653   1.193   4.207  0.00  0.00     0.000 A 
ENDROOT
TORSDOF 0
ENDMDL
