MODEL 1
REMARK minimizedAffinity -3.23647642
REMARK minimizedRMSD -1
REMARK  0 active torsions:
REMARK  status: ('A' for Active; 'I' for Inactive)
ROOT
ATOM      1  C   UNL d   1       2.872   2.628   4.378  0.00  0.00     0.172 C 
ATOM      2  N   UNL d   1       2.502   1.420   3.681  0.00  0.00    -0.070 N 
ATOM      3  C1  UNL d   1       3.138   0.211   3.785  0.00  0.00    -0.004 A 
ATOM      4  C2  UNL d   1       2.483  -0.682   2.965  0.00  0.00    -0.047 A 
ATOM      5  C3  UNL d   1       1.417   0.013   2.346  0.00  0.00    -0.047 A 
ATOM      6  C4  UNL d   1       1.452   1.312   2.807  0.00  0.00    -0.004 A 
ENDROOT
TORSDOF 0
ENDMDL
