MODEL 1
REMARK minimizedAffinity 1.84606719
REMARK minimizedRMSD -1
REMARK  0 active torsions:
REMARK  status: ('A' for Active; 'I' for Inactive)
ROOT
ATOM      1  C   UNL d   1       4.828  -4.496  -3.262  0.00  0.00     0.172 C 
ATOM      2  N   UNL d   1       4.525  -4.952  -1.926  0.00  0.00    -0.070 N 
ATOM      3  C1  UNL d   1       5.287  -5.817  -1.186  0.00  0.00    -0.004 A 
ATOM      4  C2  UNL d   1       4.659  -5.999   0.028  0.00  0.00    -0.047 A 
ATOM      5  C3  UNL d   1       3.479  -5.218   0.016  0.00  0.00    -0.047 A 
ATOM      6  C4  UNL d   1       3.421  -4.581  -1.205  0.00  0.00    -0.004 A 
ENDROOT
TORSDOF 0
ENDMDL
