MODEL 1
REMARK minimizedAffinity 0.395414293
REMARK minimizedRMSD -1
REMARK  0 active torsions:
REMARK  status: ('A' for Active; 'I' for Inactive)
ROOT
ATOM      1  C   UNL d   1       0.081   1.724  -0.782  0.00  0.00     0.172 C 
ATOM      2  N   UNL d   1       0.408   3.130  -0.742  0.00  0.00    -0.070 N 
ATOM      3  C1  UNL d   1       0.362   3.990  -1.806  0.00  0.00    -0.004 A 
ATOM      4  C2  UNL d   1       0.744   5.237  -1.358  0.00  0.00    -0.047 A 
ATOM      5  C3  UNL d   1       1.029   5.121   0.023  0.00  0.00    -0.047 A 
ATOM      6  C4  UNL d   1       0.813   3.806   0.378  0.00  0.00    -0.004 A 
ENDROOT
TORSDOF 0
ENDMDL
