MODEL 1
REMARK minimizedAffinity 0.96133256
REMARK minimizedRMSD -1
REMARK  0 active torsions:
REMARK  status: ('A' for Active; 'I' for Inactive)
ROOT
ATOM      1  C   UNL d   1      -4.717   0.163   4.353  0.00  0.00     0.172 C 
ATOM      2  N   UNL d   1      -5.117  -1.163   4.761  0.00  0.00    -0.070 N 
ATOM      3  C1  UNL d   1      -5.817  -2.057   3.995  0.00  0.00    -0.004 A 
ATOM      4  C2  UNL d   1      -5.998  -3.201   4.742  0.00  0.00    -0.047 A 
ATOM      5  C3  UNL d   1      -5.387  -2.987   6.000  0.00  0.00    -0.047 A 
ATOM      6  C4  UNL d   1      -4.850  -1.717   5.985  0.00  0.00    -0.004 A 
ENDROOT
TORSDOF 0
ENDMDL
