MODEL 1
REMARK minimizedAffinity 2.5054307
REMARK minimizedRMSD -1
REMARK  0 active torsions:
REMARK  status: ('A' for Active; 'I' for Inactive)
ROOT
ATOM      1  C   UNL d   1      -0.376   5.995  -2.939  0.00  0.00     0.172 C 
ATOM      2  N   UNL d   1       0.114   5.367  -1.735  0.00  0.00    -0.070 N 
ATOM      3  C1  UNL d   1       0.344   5.999  -0.542  0.00  0.00    -0.004 A 
ATOM      4  C2  UNL d   1       0.804   5.058   0.353  0.00  0.00    -0.047 A 
ATOM      5  C3  UNL d   1       0.853   3.817  -0.326  0.00  0.00    -0.047 A 
ATOM      6  C4  UNL d   1       0.421   4.038  -1.616  0.00  0.00    -0.004 A 
ENDROOT
TORSDOF 0
ENDMDL
