MODEL 1
REMARK minimizedAffinity -2.8653059
REMARK minimizedRMSD -1
REMARK  0 active torsions:
REMARK  status: ('A' for Active; 'I' for Inactive)
ROOT
ATOM      1  C   UNL d   1      -0.296   1.617  -1.029  0.00  0.00     0.172 C 
ATOM      2  N   UNL d   1      -0.558   2.915  -1.605  0.00  0.00    -0.070 N 
ATOM      3  C1  UNL d   1       0.238   4.022  -1.475  0.00  0.00    -0.004 A 
ATOM      4  C2  UNL d   1      -0.358   5.053  -2.168  0.00  0.00    -0.047 A 
ATOM      5  C3  UNL d   1      -1.553   4.549  -2.734  0.00  0.00    -0.047 A 
ATOM      6  C4  UNL d   1      -1.652   3.223  -2.369  0.00  0.00    -0.004 A 
ENDROOT
TORSDOF 0
ENDMDL
