MODEL 1
REMARK minimizedAffinity -1.7867142
REMARK minimizedRMSD -1
REMARK  0 active torsions:
REMARK  status: ('A' for Active; 'I' for Inactive)
ROOT
ATOM      1  C   UNL d   1      -0.399   1.949  -1.551  0.00  0.00     0.172 C 
ATOM      2  N   UNL d   1      -0.169   3.370  -1.669  0.00  0.00    -0.070 N 
ATOM      3  C1  UNL d   1       0.504   4.147  -0.765  0.00  0.00    -0.004 A 
ATOM      4  C2  UNL d   1       0.506   5.441  -1.240  0.00  0.00    -0.047 A 
ATOM      5  C3  UNL d   1      -0.190   5.441  -2.472  0.00  0.00    -0.047 A 
ATOM      6  C4  UNL d   1      -0.597   4.146  -2.713  0.00  0.00    -0.004 A 
ENDROOT
TORSDOF 0
ENDMDL
