MODEL 1
REMARK minimizedAffinity -2.88278556
REMARK minimizedRMSD -1
REMARK  0 active torsions:
REMARK  status: ('A' for Active; 'I' for Inactive)
ROOT
ATOM      1  C   UNL d   1      -5.999  -2.853   5.999  0.00  0.00     0.172 C 
ATOM      2  N   UNL d   1      -5.909  -1.588   5.308  0.00  0.00    -0.070 N 
ATOM      3  C1  UNL d   1      -5.720  -1.426   3.962  0.00  0.00    -0.004 A 
ATOM      4  C2  UNL d   1      -5.691  -0.073   3.700  0.00  0.00    -0.047 A 
ATOM      5  C3  UNL d   1      -5.867   0.601   4.932  0.00  0.00    -0.047 A 
ATOM      6  C4  UNL d   1      -6.000  -0.362   5.911  0.00  0.00    -0.004 A 
ENDROOT
TORSDOF 0
ENDMDL
