MODEL 1
REMARK minimizedAffinity 2.19024944
REMARK minimizedRMSD -1
REMARK  0 active torsions:
REMARK  status: ('A' for Active; 'I' for Inactive)
ROOT
ATOM      1  C   UNL d   1       0.535   3.862  -0.404  0.00  0.00     0.172 C 
ATOM      2  N   UNL d   1       0.423   2.674   0.409  0.00  0.00    -0.070 N 
ATOM      3  C1  UNL d   1       0.260   2.650   1.769  0.00  0.00    -0.004 A 
ATOM      4  C2  UNL d   1       0.196   1.331   2.162  0.00  0.00    -0.047 A 
ATOM      5  C3  UNL d   1       0.326   0.535   0.999  0.00  0.00    -0.047 A 
ATOM      6  C4  UNL d   1       0.465   1.392  -0.072  0.00  0.00    -0.004 A 
ENDROOT
TORSDOF 0
ENDMDL
