MODEL 1
REMARK minimizedAffinity 17.0161495
REMARK minimizedRMSD -1
REMARK  0 active torsions:
REMARK  status: ('A' for Active; 'I' for Inactive)
ROOT
ATOM      1  C   UNL d   1      -0.371  -2.458   0.381  0.00  0.00     0.124 A 
ATOM      2  C1  UNL d   1       0.991  -2.528   0.124  0.00  0.00     0.062 A 
ATOM      3  C2  UNL d   1       1.627  -1.502  -0.570  0.00  0.00     0.162 A 
ATOM      4  C3  UNL d   1       0.901  -0.396  -1.011  0.00  0.00    -0.034 A 
ATOM      5  C4  UNL d   1      -0.469  -0.333  -0.749  0.00  0.00     0.162 A 
ATOM      6  C5  UNL d   1      -1.100  -1.360  -0.055  0.00  0.00     0.062 A 
ATOM      7  F   UNL d   1      -2.416  -1.290   0.193  0.00  0.00    -0.097 F 
ATOM      8  F1  UNL d   1      -1.197   0.717  -1.159  0.00  0.00    -0.096 F 
ATOM      9  I   UNL d   1       1.847   1.140  -2.049  0.00  0.00    -0.060 I 
ATOM     10  F2  UNL d   1       2.944  -1.597  -0.804  0.00  0.00    -0.096 F 
ATOM     11  F3  UNL d   1       1.697  -3.588   0.544  0.00  0.00    -0.097 F 
ATOM     12  F4  UNL d   1      -0.980  -3.446   1.049  0.00  0.00    -0.092 F 
ENDROOT
TORSDOF 0
ENDMDL
