MODEL 1
REMARK minimizedAffinity 16.4327106
REMARK minimizedRMSD -1
REMARK  0 active torsions:
REMARK  status: ('A' for Active; 'I' for Inactive)
ROOT
ATOM      1  C   UNL d   1       5.384  -4.839   3.917  0.00  0.00     0.124 A 
ATOM      2  C1  UNL d   1       5.596  -4.835   2.545  0.00  0.00     0.062 A 
ATOM      3  C2  UNL d   1       5.769  -3.631   1.868  0.00  0.00     0.162 A 
ATOM      4  C3  UNL d   1       5.732  -2.421   2.562  0.00  0.00    -0.034 A 
ATOM      5  C4  UNL d   1       5.517  -2.434   3.941  0.00  0.00     0.162 A 
ATOM      6  C5  UNL d   1       5.345  -3.640   4.613  0.00  0.00     0.062 A 
ATOM      7  F   UNL d   1       5.140  -3.642   5.939  0.00  0.00    -0.097 F 
ATOM      8  F1  UNL d   1       5.476  -1.289   4.639  0.00  0.00    -0.096 F 
ATOM      9  I   UNL d   1       5.990  -0.620   1.552  0.00  0.00    -0.060 I 
ATOM     10  F2  UNL d   1       5.972  -3.656   0.542  0.00  0.00    -0.096 F 
ATOM     11  F3  UNL d   1       5.633  -5.992   1.870  0.00  0.00    -0.097 F 
ATOM     12  F4  UNL d   1       5.217  -5.999   4.566  0.00  0.00    -0.092 F 
ENDROOT
TORSDOF 0
ENDMDL
