MODEL 1
REMARK minimizedAffinity 0.490704507
REMARK minimizedRMSD -1
REMARK  0 active torsions:
REMARK  status: ('A' for Active; 'I' for Inactive)
ROOT
ATOM      1  C   UNL d   1       5.691  -2.382   2.409  0.00  0.00     0.124 A 
ATOM      2  C1  UNL d   1       5.550  -2.086   3.758  0.00  0.00     0.062 A 
ATOM      3  C2  UNL d   1       5.560  -3.107   4.704  0.00  0.00     0.162 A 
ATOM      4  C3  UNL d   1       5.711  -4.435   4.304  0.00  0.00    -0.034 A 
ATOM      5  C4  UNL d   1       5.852  -4.725   2.946  0.00  0.00     0.162 A 
ATOM      6  C5  UNL d   1       5.842  -3.701   2.005  0.00  0.00     0.062 A 
ATOM      7  F   UNL d   1       5.978  -3.989   0.702  0.00  0.00    -0.097 F 
ATOM      8  F1  UNL d   1       6.000  -5.991   2.527  0.00  0.00    -0.096 F 
ATOM      9  I   UNL d   1       5.726  -5.965   5.715  0.00  0.00    -0.060 I 
ATOM     10  F2  UNL d   1       5.421  -2.792   6.000  0.00  0.00    -0.096 F 
ATOM     11  F3  UNL d   1       5.404  -0.813   4.151  0.00  0.00    -0.097 F 
ATOM     12  F4  UNL d   1       5.681  -1.398   1.501  0.00  0.00    -0.092 F 
ENDROOT
TORSDOF 0
ENDMDL
