MODEL 1
REMARK minimizedAffinity 9.32568836
REMARK minimizedRMSD -1
REMARK  0 active torsions:
REMARK  status: ('A' for Active; 'I' for Inactive)
ROOT
ATOM      1  C   UNL d   1      -1.575   1.197   0.191  0.00  0.00     0.124 A 
ATOM      2  C1  UNL d   1      -1.542   0.453   1.363  0.00  0.00     0.062 A 
ATOM      3  C2  UNL d   1      -2.586   0.544   2.279  0.00  0.00     0.162 A 
ATOM      4  C3  UNL d   1      -3.672   1.382   2.028  0.00  0.00    -0.034 A 
ATOM      5  C4  UNL d   1      -3.698   2.128   0.848  0.00  0.00     0.162 A 
ATOM      6  C5  UNL d   1      -2.653   2.033  -0.065  0.00  0.00     0.062 A 
ATOM      7  F   UNL d   1      -2.686   2.752  -1.196  0.00  0.00    -0.097 F 
ATOM      8  F1  UNL d   1      -4.727   2.943   0.574  0.00  0.00    -0.096 F 
ATOM      9  I   UNL d   1      -5.235   1.521   3.396  0.00  0.00    -0.060 I 
ATOM     10  F2  UNL d   1      -2.527  -0.186   3.403  0.00  0.00    -0.096 F 
ATOM     11  F3  UNL d   1      -0.502  -0.355   1.613  0.00  0.00    -0.097 F 
ATOM     12  F4  UNL d   1      -0.569   1.108  -0.688  0.00  0.00    -0.092 F 
ENDROOT
TORSDOF 0
ENDMDL
