MODEL 1
REMARK minimizedAffinity -1.36836863
REMARK minimizedRMSD -1
REMARK  0 active torsions:
REMARK  status: ('A' for Active; 'I' for Inactive)
ROOT
ATOM      1  C   UNL d   1       5.823  -2.388   2.361  0.00  0.00     0.124 A 
ATOM      2  C1  UNL d   1       5.736  -2.038   3.702  0.00  0.00     0.062 A 
ATOM      3  C2  UNL d   1       5.736  -3.024   4.684  0.00  0.00     0.162 A 
ATOM      4  C3  UNL d   1       5.826  -4.370   4.330  0.00  0.00    -0.034 A 
ATOM      5  C4  UNL d   1       5.912  -4.715   2.980  0.00  0.00     0.162 A 
ATOM      6  C5  UNL d   1       5.911  -3.726   2.002  0.00  0.00     0.062 A 
ATOM      7  F   UNL d   1       5.996  -4.066   0.708  0.00  0.00    -0.097 F 
ATOM      8  F1  UNL d   1       6.000  -6.000   2.605  0.00  0.00    -0.096 F 
ATOM      9  I   UNL d   1       5.827  -5.847   5.797  0.00  0.00    -0.060 I 
ATOM     10  F2  UNL d   1       5.651  -2.656   5.971  0.00  0.00    -0.096 F 
ATOM     11  F3  UNL d   1       5.649  -0.747   4.051  0.00  0.00    -0.097 F 
ATOM     12  F4  UNL d   1       5.821  -1.438   1.418  0.00  0.00    -0.092 F 
ENDROOT
TORSDOF 0
ENDMDL
