MODEL 1
REMARK minimizedAffinity 14.0064669
REMARK minimizedRMSD -1
REMARK  0 active torsions:
REMARK  status: ('A' for Active; 'I' for Inactive)
ROOT
ATOM      1  C   UNL d   1       5.982  -2.402   1.524  0.00  0.00     0.124 A 
ATOM      2  C1  UNL d   1       5.983  -1.973   2.844  0.00  0.00     0.062 A 
ATOM      3  C2  UNL d   1       5.987  -2.902   3.882  0.00  0.00     0.162 A 
ATOM      4  C3  UNL d   1       5.991  -4.268   3.603  0.00  0.00    -0.034 A 
ATOM      5  C4  UNL d   1       5.989  -4.692   2.273  0.00  0.00     0.162 A 
ATOM      6  C5  UNL d   1       5.985  -3.760   1.240  0.00  0.00     0.062 A 
ATOM      7  F   UNL d   1       5.984  -4.176  -0.035  0.00  0.00    -0.097 F 
ATOM      8  F1  UNL d   1       5.993  -5.998   1.969  0.00  0.00    -0.096 F 
ATOM      9  I   UNL d   1       5.998  -5.659   5.151  0.00  0.00    -0.060 I 
ATOM     10  F2  UNL d   1       5.988  -2.459   5.148  0.00  0.00    -0.096 F 
ATOM     11  F3  UNL d   1       5.979  -0.662   3.122  0.00  0.00    -0.097 F 
ATOM     12  F4  UNL d   1       5.977  -1.507   0.528  0.00  0.00    -0.092 F 
ENDROOT
TORSDOF 0
ENDMDL
