MODEL 1
REMARK minimizedAffinity -1.79581881
REMARK minimizedRMSD -1
REMARK  0 active torsions:
REMARK  status: ('A' for Active; 'I' for Inactive)
ROOT
ATOM      1  C   UNL d   1       5.619  -2.396   2.407  0.00  0.00     0.124 A 
ATOM      2  C1  UNL d   1       5.806  -3.714   2.017  0.00  0.00     0.062 A 
ATOM      3  C2  UNL d   1       5.796  -4.733   2.965  0.00  0.00     0.162 A 
ATOM      4  C3  UNL d   1       5.596  -4.438   4.313  0.00  0.00    -0.034 A 
ATOM      5  C4  UNL d   1       5.410  -3.109   4.698  0.00  0.00     0.162 A 
ATOM      6  C5  UNL d   1       5.421  -2.094   3.747  0.00  0.00     0.062 A 
ATOM      7  F   UNL d   1       5.241  -0.821   4.126  0.00  0.00    -0.097 F 
ATOM      8  F1  UNL d   1       5.216  -2.789   5.986  0.00  0.00    -0.096 F 
ATOM      9  I   UNL d   1       5.580  -5.958   5.734  0.00  0.00    -0.060 I 
ATOM     10  F2  UNL d   1       5.979  -5.999   2.559  0.00  0.00    -0.096 F 
ATOM     11  F3  UNL d   1       5.999  -4.008   0.722  0.00  0.00    -0.097 F 
ATOM     12  F4  UNL d   1       5.631  -1.417   1.493  0.00  0.00    -0.092 F 
ENDROOT
TORSDOF 0
ENDMDL
