MODEL 1
REMARK minimizedAffinity 15.4568195
REMARK minimizedRMSD -1
REMARK  0 active torsions:
REMARK  status: ('A' for Active; 'I' for Inactive)
ROOT
ATOM      1  C   UNL d   1       3.891   1.541  -1.949  0.00  0.00     0.124 A 
ATOM      2  C1  UNL d   1       2.573   1.108  -1.917  0.00  0.00     0.062 A 
ATOM      3  C2  UNL d   1       1.709   1.567  -0.927  0.00  0.00     0.162 A 
ATOM      4  C3  UNL d   1       2.160   2.465   0.040  0.00  0.00    -0.034 A 
ATOM      5  C4  UNL d   1       3.488   2.895   0.003  0.00  0.00     0.162 A 
ATOM      6  C5  UNL d   1       4.347   2.434  -0.989  0.00  0.00     0.062 A 
ATOM      7  F   UNL d   1       5.621   2.853  -1.018  0.00  0.00    -0.097 F 
ATOM      8  F1  UNL d   1       3.955   3.758   0.917  0.00  0.00    -0.096 F 
ATOM      9  I   UNL d   1       0.872   3.152   1.523  0.00  0.00    -0.060 I 
ATOM     10  F2  UNL d   1       0.440   1.132  -0.921  0.00  0.00    -0.096 F 
ATOM     11  F3  UNL d   1       2.130   0.245  -2.843  0.00  0.00    -0.097 F 
ATOM     12  F4  UNL d   1       4.720   1.098  -2.902  0.00  0.00    -0.092 F 
ENDROOT
TORSDOF 0
ENDMDL
