MODEL 1
REMARK minimizedAffinity 1.05059361
REMARK minimizedRMSD -1
REMARK  0 active torsions:
REMARK  status: ('A' for Active; 'I' for Inactive)
ROOT
ATOM      1  C   UNL d   1       5.950  -2.401   2.217  0.00  0.00     0.124 A 
ATOM      2  C1  UNL d   1       5.930  -1.908   3.515  0.00  0.00     0.062 A 
ATOM      3  C2  UNL d   1       5.930  -2.785   4.596  0.00  0.00     0.162 A 
ATOM      4  C3  UNL d   1       5.953  -4.163   4.385  0.00  0.00    -0.034 A 
ATOM      5  C4  UNL d   1       5.972  -4.651   3.077  0.00  0.00     0.162 A 
ATOM      6  C5  UNL d   1       5.971  -3.771   2.000  0.00  0.00     0.062 A 
ATOM      7  F   UNL d   1       5.991  -4.249   0.747  0.00  0.00    -0.097 F 
ATOM      8  F1  UNL d   1       5.993  -5.971   2.838  0.00  0.00    -0.096 F 
ATOM      9  I   UNL d   1       5.954  -5.477   5.999  0.00  0.00    -0.060 I 
ATOM     10  F2  UNL d   1       5.911  -2.281   5.839  0.00  0.00    -0.096 F 
ATOM     11  F3  UNL d   1       5.908  -0.585   3.728  0.00  0.00    -0.097 F 
ATOM     12  F4  UNL d   1       5.948  -1.555   1.179  0.00  0.00    -0.092 F 
ENDROOT
TORSDOF 0
ENDMDL
