MODEL 1
REMARK minimizedAffinity 0.732986867
REMARK minimizedRMSD -1
REMARK  0 active torsions:
REMARK  status: ('A' for Active; 'I' for Inactive)
ROOT
ATOM      1  C   UNL d   1       5.859  -2.381   2.419  0.00  0.00     0.124 A 
ATOM      2  C1  UNL d   1       5.713  -2.066   3.763  0.00  0.00     0.062 A 
ATOM      3  C2  UNL d   1       5.566  -3.078   4.708  0.00  0.00     0.162 A 
ATOM      4  C3  UNL d   1       5.565  -4.416   4.311  0.00  0.00    -0.034 A 
ATOM      5  C4  UNL d   1       5.712  -4.725   2.958  0.00  0.00     0.162 A 
ATOM      6  C5  UNL d   1       5.858  -3.710   2.018  0.00  0.00     0.062 A 
ATOM      7  F   UNL d   1       6.000  -4.016   0.720  0.00  0.00    -0.097 F 
ATOM      8  F1  UNL d   1       5.715  -6.000   2.543  0.00  0.00    -0.096 F 
ATOM      9  I   UNL d   1       5.345  -5.932   5.720  0.00  0.00    -0.060 I 
ATOM     10  F2  UNL d   1       5.426  -2.745   5.999  0.00  0.00    -0.096 F 
ATOM     11  F3  UNL d   1       5.712  -0.783   4.154  0.00  0.00    -0.097 F 
ATOM     12  F4  UNL d   1       6.000  -1.405   1.513  0.00  0.00    -0.092 F 
ENDROOT
TORSDOF 0
ENDMDL
