MODEL 1
REMARK minimizedAffinity 21.3815041
REMARK minimizedRMSD -1
REMARK  0 active torsions:
REMARK  status: ('A' for Active; 'I' for Inactive)
ROOT
ATOM      1  C   UNL d   1      -1.105  -1.898   0.147  0.00  0.00     0.124 A 
ATOM      2  C1  UNL d   1      -1.360  -0.597   0.558  0.00  0.00     0.062 A 
ATOM      3  C2  UNL d   1      -0.357   0.366   0.495  0.00  0.00     0.162 A 
ATOM      4  C3  UNL d   1       0.911   0.032   0.018  0.00  0.00    -0.034 A 
ATOM      5  C4  UNL d   1       1.160  -1.278  -0.392  0.00  0.00     0.162 A 
ATOM      6  C5  UNL d   1       0.155  -2.238  -0.327  0.00  0.00     0.062 A 
ATOM      7  F   UNL d   1       0.403  -3.494  -0.724  0.00  0.00    -0.097 F 
ATOM      8  F1  UNL d   1       2.368  -1.634  -0.856  0.00  0.00    -0.096 F 
ATOM      9  I   UNL d   1       2.412   1.470  -0.078  0.00  0.00    -0.060 I 
ATOM     10  F2  UNL d   1      -0.632   1.616   0.898  0.00  0.00    -0.096 F 
ATOM     11  F3  UNL d   1      -2.575  -0.267   1.018  0.00  0.00    -0.097 F 
ATOM     12  F4  UNL d   1      -2.071  -2.823   0.210  0.00  0.00    -0.092 F 
ENDROOT
TORSDOF 0
ENDMDL
