MODEL 1
REMARK minimizedAffinity 14.9342442
REMARK minimizedRMSD -1
REMARK  0 active torsions:
REMARK  status: ('A' for Active; 'I' for Inactive)
ROOT
ATOM      1  C   UNL d   1      -0.433  -2.069   0.186  0.00  0.00     0.124 A 
ATOM      2  C1  UNL d   1      -1.135  -0.908  -0.108  0.00  0.00     0.062 A 
ATOM      3  C2  UNL d   1      -0.508   0.136  -0.782  0.00  0.00     0.162 A 
ATOM      4  C3  UNL d   1       0.828   0.024  -1.168  0.00  0.00    -0.034 A 
ATOM      5  C4  UNL d   1       1.527  -1.146  -0.868  0.00  0.00     0.162 A 
ATOM      6  C5  UNL d   1       0.896  -2.187  -0.194  0.00  0.00     0.062 A 
ATOM      7  F   UNL d   1       1.575  -3.308   0.089  0.00  0.00    -0.097 F 
ATOM      8  F1  UNL d   1       2.812  -1.288  -1.224  0.00  0.00    -0.096 F 
ATOM      9  I   UNL d   1       1.768   1.583  -2.176  0.00  0.00    -0.060 I 
ATOM     10  F2  UNL d   1      -1.210   1.247  -1.053  0.00  0.00    -0.096 F 
ATOM     11  F3  UNL d   1      -2.419  -0.791   0.258  0.00  0.00    -0.097 F 
ATOM     12  F4  UNL d   1      -1.039  -3.072   0.835  0.00  0.00    -0.092 F 
ENDROOT
TORSDOF 0
ENDMDL
