MODEL 1
REMARK minimizedAffinity -3.19706225
REMARK minimizedRMSD -1
REMARK  0 active torsions:
REMARK  status: ('A' for Active; 'I' for Inactive)
ROOT
ATOM      1  C   UNL d   1       5.628  -2.389   2.561  0.00  0.00     0.124 A 
ATOM      2  C1  UNL d   1       5.263  -2.102   3.869  0.00  0.00     0.062 A 
ATOM      3  C2  UNL d   1       4.916  -3.131   4.740  0.00  0.00     0.162 A 
ATOM      4  C3  UNL d   1       4.933  -4.457   4.306  0.00  0.00    -0.034 A 
ATOM      5  C4  UNL d   1       5.301  -4.737   2.989  0.00  0.00     0.162 A 
ATOM      6  C5  UNL d   1       5.647  -3.705   2.122  0.00  0.00     0.062 A 
ATOM      7  F   UNL d   1       6.000  -3.984   0.859  0.00  0.00    -0.097 F 
ATOM      8  F1  UNL d   1       5.328  -6.000   2.538  0.00  0.00    -0.096 F 
ATOM      9  I   UNL d   1       4.414  -5.998   5.605  0.00  0.00    -0.060 I 
ATOM     10  F2  UNL d   1       4.567  -2.825   5.998  0.00  0.00    -0.096 F 
ATOM     11  F3  UNL d   1       5.243  -0.831   4.295  0.00  0.00    -0.097 F 
ATOM     12  F4  UNL d   1       5.961  -1.397   1.725  0.00  0.00    -0.092 F 
ENDROOT
TORSDOF 0
ENDMDL
