MODEL 1
REMARK minimizedAffinity 7.99312639
REMARK minimizedRMSD -1
REMARK  0 active torsions:
REMARK  status: ('A' for Active; 'I' for Inactive)
ROOT
ATOM      1  C   UNL d   1       0.870  -3.059   4.307  0.00  0.00     0.077 C 
ATOM      2  C1  UNL d   1       0.987  -1.742   3.599  0.00  0.00    -0.074 A 
ATOM      3  C2  UNL d   1      -0.044  -1.272   2.779  0.00  0.00    -0.005 A 
ATOM      4  C3  UNL d   1       0.075  -0.041   2.135  0.00  0.00     0.006 A 
ATOM      5  C4  UNL d   1       1.224   0.732   2.303  0.00  0.00    -0.005 A 
ATOM      6  C5  UNL d   1       2.265   0.279   3.120  0.00  0.00    -0.074 A 
ATOM      7  C6  UNL d   1       3.503   1.102   3.319  0.00  0.00     0.077 C 
ATOM      8  C7  UNL d   1       2.135  -0.956   3.769  0.00  0.00    -0.001 A 
ENDROOT
TORSDOF 0
ENDMDL
