MODEL 1
REMARK minimizedAffinity 8.05782509
REMARK minimizedRMSD -1
REMARK  0 active torsions:
REMARK  status: ('A' for Active; 'I' for Inactive)
ROOT
ATOM      1  C   UNL d   1      -1.398  -0.596   1.711  0.00  0.00     0.077 C 
ATOM      2  C1  UNL d   1      -0.171  -0.319   2.528  0.00  0.00    -0.074 A 
ATOM      3  C2  UNL d   1       1.054  -0.914   2.210  0.00  0.00    -0.005 A 
ATOM      4  C3  UNL d   1       2.189  -0.640   2.973  0.00  0.00     0.006 A 
ATOM      5  C4  UNL d   1       2.110   0.232   4.061  0.00  0.00    -0.005 A 
ATOM      6  C5  UNL d   1       0.894   0.837   4.393  0.00  0.00    -0.074 A 
ATOM      7  C6  UNL d   1       0.795   1.784   5.552  0.00  0.00     0.077 C 
ATOM      8  C7  UNL d   1      -0.240   0.561   3.617  0.00  0.00    -0.001 A 
ENDROOT
TORSDOF 0
ENDMDL
