MODEL 1
REMARK minimizedAffinity 15.0392199
REMARK minimizedRMSD -1
REMARK  0 active torsions:
REMARK  status: ('A' for Active; 'I' for Inactive)
ROOT
ATOM      1  C   UNL d   1      -2.944  -1.494   2.319  0.00  0.00     0.077 C 
ATOM      2  C1  UNL d   1      -1.499  -1.225   2.620  0.00  0.00    -0.074 A 
ATOM      3  C2  UNL d   1      -0.903  -0.012   2.260  0.00  0.00    -0.005 A 
ATOM      4  C3  UNL d   1       0.439   0.227   2.555  0.00  0.00     0.006 A 
ATOM      5  C4  UNL d   1       1.197  -0.742   3.212  0.00  0.00    -0.005 A 
ATOM      6  C5  UNL d   1       0.619  -1.960   3.581  0.00  0.00    -0.074 A 
ATOM      7  C6  UNL d   1       1.418  -3.009   4.296  0.00  0.00     0.077 C 
ATOM      8  C7  UNL d   1      -0.732  -2.191   3.287  0.00  0.00    -0.001 A 
ENDROOT
TORSDOF 0
ENDMDL
