MODEL 1
REMARK minimizedAffinity 9.26839256
REMARK minimizedRMSD -1
REMARK  0 active torsions:
REMARK  status: ('A' for Active; 'I' for Inactive)
ROOT
ATOM      1  C   UNL d   1      -2.332  -0.556   1.928  0.00  0.00     0.077 C 
ATOM      2  C1  UNL d   1      -0.972  -0.616   2.558  0.00  0.00    -0.074 A 
ATOM      3  C2  UNL d   1      -0.131   0.501   2.561  0.00  0.00    -0.005 A 
ATOM      4  C3  UNL d   1       1.127   0.433   3.160  0.00  0.00     0.006 A 
ATOM      5  C4  UNL d   1       1.556  -0.751   3.760  0.00  0.00    -0.005 A 
ATOM      6  C5  UNL d   1       0.729  -1.879   3.767  0.00  0.00    -0.074 A 
ATOM      7  C6  UNL d   1       1.170  -3.157   4.416  0.00  0.00     0.077 C 
ATOM      8  C7  UNL d   1      -0.537  -1.800   3.170  0.00  0.00    -0.001 A 
ENDROOT
TORSDOF 0
ENDMDL
