MODEL 1
REMARK minimizedAffinity 13.2580824
REMARK minimizedRMSD -1
REMARK  0 active torsions:
REMARK  status: ('A' for Active; 'I' for Inactive)
ROOT
ATOM      1  C   UNL d   1      -3.313  -1.905   2.001  0.00  0.00     0.077 C 
ATOM      2  C1  UNL d   1      -2.102  -1.072   2.298  0.00  0.00    -0.074 A 
ATOM      3  C2  UNL d   1      -2.224   0.283   2.624  0.00  0.00    -0.005 A 
ATOM      4  C3  UNL d   1      -1.089   1.043   2.906  0.00  0.00     0.006 A 
ATOM      5  C4  UNL d   1       0.177   0.457   2.866  0.00  0.00    -0.005 A 
ATOM      6  C5  UNL d   1       0.318  -0.896   2.544  0.00  0.00    -0.074 A 
ATOM      7  C6  UNL d   1       1.670  -1.544   2.506  0.00  0.00     0.077 C 
ATOM      8  C7  UNL d   1      -0.828  -1.655   2.267  0.00  0.00    -0.001 A 
ENDROOT
TORSDOF 0
ENDMDL
