MODEL 1
REMARK minimizedAffinity 8.87284279
REMARK minimizedRMSD -1
REMARK  0 active torsions:
REMARK  status: ('A' for Active; 'I' for Inactive)
ROOT
ATOM      1  C   UNL d   1      -2.939  -2.516   1.743  0.00  0.00     0.077 C 
ATOM      2  C1  UNL d   1      -2.858  -1.888   0.383  0.00  0.00    -0.074 A 
ATOM      3  C2  UNL d   1      -1.771  -2.139  -0.461  0.00  0.00    -0.005 A 
ATOM      4  C3  UNL d   1      -1.714  -1.554  -1.726  0.00  0.00     0.006 A 
ATOM      5  C4  UNL d   1      -2.741  -0.715  -2.159  0.00  0.00    -0.005 A 
ATOM      6  C5  UNL d   1      -3.835  -0.453  -1.330  0.00  0.00    -0.074 A 
ATOM      7  C6  UNL d   1      -4.952   0.439  -1.784  0.00  0.00     0.077 C 
ATOM      8  C7  UNL d   1      -3.889  -1.049  -0.062  0.00  0.00    -0.001 A 
ENDROOT
TORSDOF 0
ENDMDL
