MODEL 1
REMARK minimizedAffinity 15.9123106
REMARK minimizedRMSD -1
REMARK  0 active torsions:
REMARK  status: ('A' for Active; 'I' for Inactive)
ROOT
ATOM      1  C   UNL d   1       0.125  -1.025   3.033  0.00  0.00     0.077 C 
ATOM      2  C1  UNL d   1      -0.405   0.352   3.303  0.00  0.00    -0.074 A 
ATOM      3  C2  UNL d   1      -1.292   0.968   2.415  0.00  0.00    -0.005 A 
ATOM      4  C3  UNL d   1      -1.783   2.245   2.685  0.00  0.00     0.006 A 
ATOM      5  C4  UNL d   1      -1.394   2.917   3.844  0.00  0.00    -0.005 A 
ATOM      6  C5  UNL d   1      -0.509   2.316   4.744  0.00  0.00    -0.074 A 
ATOM      7  C6  UNL d   1      -0.087   3.021   6.000  0.00  0.00     0.077 C 
ATOM      8  C7  UNL d   1      -0.024   1.030   4.470  0.00  0.00    -0.001 A 
ENDROOT
TORSDOF 0
ENDMDL
