MODEL 1
REMARK minimizedAffinity 7.14428043
REMARK minimizedRMSD -1
REMARK  0 active torsions:
REMARK  status: ('A' for Active; 'I' for Inactive)
ROOT
ATOM      1  C   UNL d   1       0.366   2.244   5.999  0.00  0.00     0.077 C 
ATOM      2  C1  UNL d   1       0.932   1.286   4.993  0.00  0.00    -0.074 A 
ATOM      3  C2  UNL d   1       2.298   0.988   4.973  0.00  0.00    -0.005 A 
ATOM      4  C3  UNL d   1       2.808   0.088   4.038  0.00  0.00     0.006 A 
ATOM      5  C4  UNL d   1       1.959  -0.522   3.114  0.00  0.00    -0.005 A 
ATOM      6  C5  UNL d   1       0.590  -0.237   3.120  0.00  0.00    -0.074 A 
ATOM      7  C6  UNL d   1      -0.339  -0.892   2.140  0.00  0.00     0.077 C 
ATOM      8  C7  UNL d   1       0.083   0.663   4.067  0.00  0.00    -0.001 A 
ENDROOT
TORSDOF 0
ENDMDL
