MODEL 1
REMARK minimizedAffinity 12.6260042
REMARK minimizedRMSD -1
REMARK  0 active torsions:
REMARK  status: ('A' for Active; 'I' for Inactive)
ROOT
ATOM      1  C   UNL d   1       3.161   0.227  -4.785  0.00  0.00     0.077 C 
ATOM      2  C1  UNL d   1       1.806  -0.338  -4.478  0.00  0.00    -0.074 A 
ATOM      3  C2  UNL d   1       0.841  -0.476  -5.481  0.00  0.00    -0.005 A 
ATOM      4  C3  UNL d   1      -0.412  -1.012  -5.182  0.00  0.00     0.006 A 
ATOM      5  C4  UNL d   1      -0.711  -1.414  -3.880  0.00  0.00    -0.005 A 
ATOM      6  C5  UNL d   1       0.241  -1.285  -2.865  0.00  0.00    -0.074 A 
ATOM      7  C6  UNL d   1      -0.061  -1.722  -1.462  0.00  0.00     0.077 C 
ATOM      8  C7  UNL d   1       1.500  -0.752  -3.174  0.00  0.00    -0.001 A 
ENDROOT
TORSDOF 0
ENDMDL
