MODEL 1
REMARK minimizedAffinity -3.13729239
REMARK minimizedRMSD -1
REMARK  1 active torsions:
REMARK  status: ('A' for Active; 'I' for Inactive)
REMARK    1  A    between atoms: C1_2  and  C2_3 
ROOT
ATOM      1  C2  UNL d   1      -1.246  -1.199   0.893  0.00  0.00    -0.076 A 
ATOM      2  C3  UNL d   1      -2.458  -1.785   0.487  0.00  0.00     0.004 A 
ATOM      3  C4  UNL d   1      -3.036  -1.462  -0.739  0.00  0.00    -0.003 A 
ATOM      4  C5  UNL d   1      -2.412  -0.549  -1.581  0.00  0.00     0.000 A 
ATOM      5  C6  UNL d   1      -1.200   0.029  -1.203  0.00  0.00     0.000 A 
ATOM      6  C7  UNL d   1      -0.596  -0.298   0.023  0.00  0.00    -0.073 A 
ATOM      7  C8  UNL d   1       0.708   0.360   0.383  0.00  0.00     0.078 C 
ENDROOT
BRANCH   1   8
ATOM      8  C1  UNL d   1      -0.681  -1.567   2.246  0.00  0.00     0.053 C 
ATOM      9  C   UNL d   1       0.419  -2.614   2.152  0.00  0.00     0.018 C 
ENDBRANCH   1   8
TORSDOF 1
ENDMDL
