MODEL 1
REMARK minimizedAffinity -1.38145888
REMARK minimizedRMSD -1
REMARK  1 active torsions:
REMARK  status: ('A' for Active; 'I' for Inactive)
REMARK    1  A    between atoms: C1_2  and  C2_3 
ROOT
ATOM      1  C2  UNL d   1      -0.765   0.239   1.007  0.00  0.00    -0.076 A 
ATOM      2  C3  UNL d   1      -1.631  -0.234   2.008  0.00  0.00     0.004 A 
ATOM      3  C4  UNL d   1      -1.442  -1.489   2.585  0.00  0.00    -0.003 A 
ATOM      4  C5  UNL d   1      -0.384  -2.290   2.171  0.00  0.00     0.000 A 
ATOM      5  C6  UNL d   1       0.495  -1.829   1.192  0.00  0.00     0.000 A 
ATOM      6  C7  UNL d   1       0.329  -0.560   0.611  0.00  0.00    -0.073 A 
ATOM      7  C8  UNL d   1       1.303  -0.116  -0.445  0.00  0.00     0.078 C 
ENDROOT
BRANCH   1   8
ATOM      8  C1  UNL d   1      -1.035   1.597   0.398  0.00  0.00     0.053 C 
ATOM      9  C   UNL d   1      -0.190   2.695   1.025  0.00  0.00     0.018 C 
ENDBRANCH   1   8
TORSDOF 1
ENDMDL
