MODEL 1
REMARK minimizedAffinity -2.47579741
REMARK minimizedRMSD -1
REMARK  1 active torsions:
REMARK  status: ('A' for Active; 'I' for Inactive)
REMARK    1  A    between atoms: C1_2  and  C2_3 
ROOT
ATOM      1  C2  UNL d   1      -0.568  -0.208   0.030  0.00  0.00    -0.076 A 
ATOM      2  C3  UNL d   1      -1.365  -0.575   1.128  0.00  0.00     0.004 A 
ATOM      3  C4  UNL d   1      -2.657  -1.065   0.945  0.00  0.00    -0.003 A 
ATOM      4  C5  UNL d   1      -3.173  -1.197  -0.340  0.00  0.00     0.000 A 
ATOM      5  C6  UNL d   1      -2.389  -0.855  -1.442  0.00  0.00     0.000 A 
ATOM      6  C7  UNL d   1      -1.079  -0.375  -1.275  0.00  0.00    -0.073 A 
ATOM      7  C8  UNL d   1      -0.281  -0.015  -2.498  0.00  0.00     0.078 C 
ENDROOT
BRANCH   1   8
ATOM      8  C1  UNL d   1       0.816   0.342   0.291  0.00  0.00     0.053 C 
ATOM      9  C   UNL d   1       1.687  -0.622   1.081  0.00  0.00     0.018 C 
ENDBRANCH   1   8
TORSDOF 1
ENDMDL
