MODEL 1
REMARK minimizedAffinity -4.48077154
REMARK minimizedRMSD -1
REMARK  1 active torsions:
REMARK  status: ('A' for Active; 'I' for Inactive)
REMARK    1  A    between atoms: C1_2  and  C2_3 
ROOT
ATOM      1  C2  UNL d   1      -0.557  -0.307  -1.216  0.00  0.00    -0.076 A 
ATOM      2  C3  UNL d   1      -1.439  -0.969  -2.088  0.00  0.00     0.004 A 
ATOM      3  C4  UNL d   1      -2.774  -1.170  -1.742  0.00  0.00    -0.003 A 
ATOM      4  C5  UNL d   1      -3.250  -0.709  -0.519  0.00  0.00     0.000 A 
ATOM      5  C6  UNL d   1      -2.394  -0.034   0.350  0.00  0.00     0.000 A 
ATOM      6  C7  UNL d   1      -1.049   0.190   0.010  0.00  0.00    -0.073 A 
ATOM      7  C8  UNL d   1      -0.168   0.919   0.988  0.00  0.00     0.078 C 
ENDROOT
BRANCH   1   8
ATOM      8  C1  UNL d   1       0.887  -0.143  -1.634  0.00  0.00     0.053 C 
ATOM      9  C   UNL d   1       1.186  -0.803  -2.971  0.00  0.00     0.018 C 
ENDBRANCH   1   8
TORSDOF 1
ENDMDL
