MODEL 1
REMARK minimizedAffinity -3.39180517
REMARK minimizedRMSD -1
REMARK  1 active torsions:
REMARK  status: ('A' for Active; 'I' for Inactive)
REMARK    1  A    between atoms: C1_2  and  C2_3 
ROOT
ATOM      1  C2  UNL d   1       2.107   0.720   0.394  0.00  0.00    -0.076 A 
ATOM      2  C3  UNL d   1       2.090   1.763   1.337  0.00  0.00     0.004 A 
ATOM      3  C4  UNL d   1       2.863   2.908   1.154  0.00  0.00    -0.003 A 
ATOM      4  C5  UNL d   1       3.664   3.030   0.024  0.00  0.00     0.000 A 
ATOM      5  C6  UNL d   1       3.680   2.014  -0.931  0.00  0.00     0.000 A 
ATOM      6  C7  UNL d   1       2.895   0.860  -0.769  0.00  0.00    -0.073 A 
ATOM      7  C8  UNL d   1       2.954  -0.208  -1.827  0.00  0.00     0.078 C 
ENDROOT
BRANCH   1   8
ATOM      8  C1  UNL d   1       1.269  -0.510   0.659  0.00  0.00     0.053 C 
ATOM      9  C   UNL d   1      -0.223  -0.225   0.592  0.00  0.00     0.018 C 
ENDBRANCH   1   8
TORSDOF 1
ENDMDL
