MODEL 1
REMARK minimizedAffinity -3.4058609
REMARK minimizedRMSD -1
REMARK  1 active torsions:
REMARK  status: ('A' for Active; 'I' for Inactive)
REMARK    1  A    between atoms: C1_2  and  C2_3 
ROOT
ATOM      1  C2  UNL d   1      -1.434  -0.395  -0.258  0.00  0.00    -0.076 A 
ATOM      2  C3  UNL d   1      -1.011   0.240  -1.439  0.00  0.00     0.004 A 
ATOM      3  C4  UNL d   1       0.341   0.475  -1.682  0.00  0.00    -0.003 A 
ATOM      4  C5  UNL d   1       1.292   0.079  -0.748  0.00  0.00     0.000 A 
ATOM      5  C6  UNL d   1       0.892  -0.568   0.421  0.00  0.00     0.000 A 
ATOM      6  C7  UNL d   1      -0.466  -0.827   0.674  0.00  0.00    -0.073 A 
ATOM      7  C8  UNL d   1      -0.843  -1.522   1.953  0.00  0.00     0.078 C 
ENDROOT
BRANCH   1   8
ATOM      8  C1  UNL d   1      -2.916  -0.598  -0.036  0.00  0.00     0.053 C 
ATOM      9  C   UNL d   1      -3.615  -1.170  -1.260  0.00  0.00     0.018 C 
ENDBRANCH   1   8
TORSDOF 1
ENDMDL
