MODEL 1
REMARK minimizedAffinity -3.68690348
REMARK minimizedRMSD -1
REMARK  1 active torsions:
REMARK  status: ('A' for Active; 'I' for Inactive)
REMARK    1  A    between atoms: C1_2  and  C2_3 
ROOT
ATOM      1  C2  UNL d   1      -0.545  -0.335  -1.073  0.00  0.00    -0.076 A 
ATOM      2  C3  UNL d   1      -1.787  -0.696  -1.623  0.00  0.00     0.004 A 
ATOM      3  C4  UNL d   1      -2.887  -0.950  -0.806  0.00  0.00    -0.003 A 
ATOM      4  C5  UNL d   1      -2.763  -0.845   0.575  0.00  0.00     0.000 A 
ATOM      5  C6  UNL d   1      -1.544  -0.470   1.137  0.00  0.00     0.000 A 
ATOM      6  C7  UNL d   1      -0.429  -0.195   0.326  0.00  0.00    -0.073 A 
ATOM      7  C8  UNL d   1       0.864   0.199   0.986  0.00  0.00     0.078 C 
ENDROOT
BRANCH   1   8
ATOM      8  C1  UNL d   1       0.620  -0.098  -2.008  0.00  0.00     0.053 C 
ATOM      9  C   UNL d   1       0.175   0.348  -3.392  0.00  0.00     0.018 C 
ENDBRANCH   1   8
TORSDOF 1
ENDMDL
