MODEL 1
REMARK minimizedAffinity -4.92409086
REMARK minimizedRMSD -1
REMARK  1 active torsions:
REMARK  status: ('A' for Active; 'I' for Inactive)
REMARK    1  A    between atoms: C1_2  and  C2_3 
ROOT
ATOM      1  C2  UNL d   1       1.003   0.131  -1.087  0.00  0.00    -0.076 A 
ATOM      2  C3  UNL d   1      -0.207  -0.289  -1.667  0.00  0.00     0.004 A 
ATOM      3  C4  UNL d   1      -1.412  -0.173  -0.975  0.00  0.00    -0.003 A 
ATOM      4  C5  UNL d   1      -1.426   0.365   0.307  0.00  0.00     0.000 A 
ATOM      5  C6  UNL d   1      -0.237   0.803   0.891  0.00  0.00     0.000 A 
ATOM      6  C7  UNL d   1       0.984   0.708   0.200  0.00  0.00    -0.073 A 
ATOM      7  C8  UNL d   1       2.236   1.191   0.880  0.00  0.00     0.078 C 
ENDROOT
BRANCH   1   8
ATOM      8  C1  UNL d   1       2.282  -0.044  -1.875  0.00  0.00     0.053 C 
ATOM      9  C   UNL d   1       2.027  -0.456  -3.316  0.00  0.00     0.018 C 
ENDBRANCH   1   8
TORSDOF 1
ENDMDL
