MODEL 1
REMARK minimizedAffinity -4.70933771
REMARK minimizedRMSD -1
REMARK  1 active torsions:
REMARK  status: ('A' for Active; 'I' for Inactive)
REMARK    1  A    between atoms: C1_2  and  C2_3 
ROOT
ATOM      1  C2  UNL d   1      -0.164  -0.304   0.044  0.00  0.00    -0.076 A 
ATOM      2  C3  UNL d   1      -0.963  -0.662   1.143  0.00  0.00     0.004 A 
ATOM      3  C4  UNL d   1      -2.298  -1.026   0.972  0.00  0.00    -0.003 A 
ATOM      4  C5  UNL d   1      -2.855  -1.037  -0.302  0.00  0.00     0.000 A 
ATOM      5  C6  UNL d   1      -2.072  -0.702  -1.406  0.00  0.00     0.000 A 
ATOM      6  C7  UNL d   1      -0.720  -0.349  -1.253  0.00  0.00    -0.073 A 
ATOM      7  C8  UNL d   1       0.076   0.010  -2.477  0.00  0.00     0.078 C 
ENDROOT
BRANCH   1   8
ATOM      8  C1  UNL d   1       1.269   0.108   0.294  0.00  0.00     0.053 C 
ATOM      9  C   UNL d   1       1.375   1.365   1.143  0.00  0.00     0.018 C 
ENDBRANCH   1   8
TORSDOF 1
ENDMDL
