MODEL 1
REMARK minimizedAffinity -2.98098302
REMARK minimizedRMSD -1
REMARK  1 active torsions:
REMARK  status: ('A' for Active; 'I' for Inactive)
REMARK    1  A    between atoms: C1_2  and  C2_3 
ROOT
ATOM      1  C2  UNL d   1      -0.344  -0.471   0.437  0.00  0.00    -0.076 A 
ATOM      2  C3  UNL d   1      -1.543  -0.155  -0.224  0.00  0.00     0.004 A 
ATOM      3  C4  UNL d   1      -2.706  -0.888   0.009  0.00  0.00    -0.003 A 
ATOM      4  C5  UNL d   1      -2.688  -1.949   0.907  0.00  0.00     0.000 A 
ATOM      5  C6  UNL d   1      -1.511  -2.266   1.585  0.00  0.00     0.000 A 
ATOM      6  C7  UNL d   1      -0.334  -1.527   1.374  0.00  0.00    -0.073 A 
ATOM      7  C8  UNL d   1       0.908  -1.916   2.127  0.00  0.00     0.078 C 
ENDROOT
BRANCH   1   8
ATOM      8  C1  UNL d   1       0.892   0.342   0.124  0.00  0.00     0.053 C 
ATOM      9  C   UNL d   1       1.137   1.445   1.142  0.00  0.00     0.018 C 
ENDBRANCH   1   8
TORSDOF 1
ENDMDL
