MODEL 1
REMARK minimizedAffinity -0.127769426
REMARK minimizedRMSD -1
REMARK  1 active torsions:
REMARK  status: ('A' for Active; 'I' for Inactive)
REMARK    1  A    between atoms: C1_2  and  C2_3 
ROOT
ATOM      1  C2  UNL d   1       0.576  -0.189   0.537  0.00  0.00    -0.076 A 
ATOM      2  C3  UNL d   1       0.277  -0.962   1.672  0.00  0.00     0.004 A 
ATOM      3  C4  UNL d   1      -0.996  -1.499   1.859  0.00  0.00    -0.003 A 
ATOM      4  C5  UNL d   1      -1.989  -1.273   0.913  0.00  0.00     0.000 A 
ATOM      5  C6  UNL d   1      -1.705  -0.523  -0.227  0.00  0.00     0.000 A 
ATOM      6  C7  UNL d   1      -0.423   0.013  -0.439  0.00  0.00    -0.073 A 
ATOM      7  C8  UNL d   1      -0.174   0.819  -1.684  0.00  0.00     0.078 C 
ENDROOT
BRANCH   1   8
ATOM      8  C1  UNL d   1       1.966   0.391   0.401  0.00  0.00     0.053 C 
ATOM      9  C   UNL d   1       2.156   1.649   1.234  0.00  0.00     0.018 C 
ENDBRANCH   1   8
TORSDOF 1
ENDMDL
