MODEL 1
REMARK minimizedAffinity 17.1088943
REMARK minimizedRMSD -1
REMARK  0 active torsions:
REMARK  status: ('A' for Active; 'I' for Inactive)
ROOT
ATOM      1  N1  IND d   1      -0.921  -5.997   3.599  0.00  0.00    -0.196 N 
ATOM      2  C2  IND d   1      -0.390  -5.517   2.434  0.00  0.00     0.054 A 
ATOM      3  C3  IND d   1      -0.554  -4.177   2.360  0.00  0.00    -0.031 A 
ATOM      4  C4  IND d   1      -1.574  -2.557   4.080  0.00  0.00     0.051 A 
ATOM      5  C5  IND d   1      -2.226  -2.531   5.281  0.00  0.00    -0.031 A 
ATOM      6  C6  IND d   1      -2.479  -3.682   5.999  0.00  0.00     0.015 A 
ATOM      7  C7  IND d   1      -2.077  -4.907   5.545  0.00  0.00    -0.016 A 
ATOM      8  C8  IND d   1      -1.421  -4.937   4.322  0.00  0.00    -0.047 A 
ATOM      9  C9  IND d   1      -1.200  -3.777   3.570  0.00  0.00    -0.096 A 
ATOM     10  HN1 IND d   1      -0.939  -6.823   3.839  0.00  0.00     0.298 HD
ENDROOT
TORSDOF 0
ENDMDL
