MODEL 1
REMARK minimizedAffinity 25.4840794
REMARK minimizedRMSD -1
REMARK  0 active torsions:
REMARK  status: ('A' for Active; 'I' for Inactive)
ROOT
ATOM      1  N1  IND d   1      -0.324  -3.509   1.579  0.00  0.00    -0.196 N 
ATOM      2  C2  IND d   1      -0.436  -4.869   1.501  0.00  0.00     0.054 A 
ATOM      3  C3  IND d   1      -0.798  -5.240   0.253  0.00  0.00    -0.031 A 
ATOM      4  C4  IND d   1      -1.160  -3.791  -1.844  0.00  0.00     0.051 A 
ATOM      5  C5  IND d   1      -1.208  -2.490  -2.259  0.00  0.00    -0.031 A 
ATOM      6  C6  IND d   1      -0.955  -1.441  -1.400  0.00  0.00     0.015 A 
ATOM      7  C7  IND d   1      -0.633  -1.655  -0.089  0.00  0.00    -0.016 A 
ATOM      8  C8  IND d   1      -0.591  -2.975   0.337  0.00  0.00    -0.047 A 
ATOM      9  C9  IND d   1      -0.888  -4.042  -0.520  0.00  0.00    -0.096 A 
ATOM     10  HN1 IND d   1      -0.120  -3.062   2.285  0.00  0.00     0.298 HD
ENDROOT
TORSDOF 0
ENDMDL
