MODEL 1
REMARK minimizedAffinity 14.9907026
REMARK minimizedRMSD -1
REMARK  0 active torsions:
REMARK  status: ('A' for Active; 'I' for Inactive)
ROOT
ATOM      1  N1  IND d   1       3.711   2.214   6.000  0.00  0.00    -0.196 N 
ATOM      2  C2  IND d   1       4.874   1.498   5.950  0.00  0.00     0.054 A 
ATOM      3  C3  IND d   1       5.932   2.329   5.817  0.00  0.00    -0.031 A 
ATOM      4  C4  IND d   1       5.995   4.902   5.764  0.00  0.00     0.051 A 
ATOM      5  C5  IND d   1       5.180   5.999   5.742  0.00  0.00    -0.031 A 
ATOM      6  C6  IND d   1       3.806   5.888   5.808  0.00  0.00     0.015 A 
ATOM      7  C7  IND d   1       3.194   4.671   5.912  0.00  0.00    -0.016 A 
ATOM      8  C8  IND d   1       4.018   3.555   5.927  0.00  0.00    -0.047 A 
ATOM      9  C9  IND d   1       5.410   3.659   5.817  0.00  0.00    -0.096 A 
ATOM     10  HN1 IND d   1       2.920   1.882   6.065  0.00  0.00     0.298 HD
ENDROOT
TORSDOF 0
ENDMDL
