MODEL 1
REMARK minimizedAffinity 13.7918453
REMARK minimizedRMSD -1
REMARK  0 active torsions:
REMARK  status: ('A' for Active; 'I' for Inactive)
ROOT
ATOM      1  N1  IND d   1       2.557  -1.372  -3.014  0.00  0.00    -0.196 N 
ATOM      2  C2  IND d   1       1.811  -0.370  -2.459  0.00  0.00     0.054 A 
ATOM      3  C3  IND d   1       2.528   0.775  -2.404  0.00  0.00    -0.031 A 
ATOM      4  C4  IND d   1       4.908   1.256  -3.259  0.00  0.00     0.051 A 
ATOM      5  C5  IND d   1       6.000   0.644  -3.808  0.00  0.00    -0.031 A 
ATOM      6  C6  IND d   1       5.999  -0.697  -4.129  0.00  0.00     0.015 A 
ATOM      7  C7  IND d   1       4.897  -1.478  -3.923  0.00  0.00    -0.016 A 
ATOM      8  C8  IND d   1       3.789  -0.862  -3.359  0.00  0.00    -0.047 A 
ATOM      9  C9  IND d   1       3.798   0.490  -2.992  0.00  0.00    -0.096 A 
ATOM     10  HN1 IND d   1       2.299  -2.185  -3.128  0.00  0.00     0.298 HD
ENDROOT
TORSDOF 0
ENDMDL
