MODEL 1
REMARK minimizedAffinity 15.159194
REMARK minimizedRMSD -1
REMARK  0 active torsions:
REMARK  status: ('A' for Active; 'I' for Inactive)
ROOT
ATOM      1  N1  IND d   1       4.776   1.947   5.990  0.00  0.00    -0.196 N 
ATOM      2  C2  IND d   1       3.457   1.588   5.987  0.00  0.00     0.054 A 
ATOM      3  C3  IND d   1       2.671   2.688   6.000  0.00  0.00    -0.031 A 
ATOM      4  C4  IND d   1       3.335   5.174   5.923  0.00  0.00     0.051 A 
ATOM      5  C5  IND d   1       4.424   6.000   5.953  0.00  0.00    -0.031 A 
ATOM      6  C6  IND d   1       5.712   5.506   5.995  0.00  0.00     0.015 A 
ATOM      7  C7  IND d   1       5.960   4.163   5.997  0.00  0.00    -0.016 A 
ATOM      8  C8  IND d   1       4.857   3.322   5.974  0.00  0.00    -0.047 A 
ATOM      9  C9  IND d   1       3.547   3.817   5.974  0.00  0.00    -0.096 A 
ATOM     10  HN1 IND d   1       5.444   1.404   6.000  0.00  0.00     0.298 HD
ENDROOT
TORSDOF 0
ENDMDL
