MODEL 1
REMARK minimizedAffinity 27.1386967
REMARK minimizedRMSD -1
REMARK  0 active torsions:
REMARK  status: ('A' for Active; 'I' for Inactive)
ROOT
ATOM      1  N1  IND d   1      -2.535   2.219  -3.396  0.00  0.00    -0.196 N 
ATOM      2  C2  IND d   1      -1.477   2.757  -4.073  0.00  0.00     0.054 A 
ATOM      3  C3  IND d   1      -0.441   1.888  -4.094  0.00  0.00    -0.031 A 
ATOM      4  C4  IND d   1      -0.298  -0.510  -3.169  0.00  0.00     0.051 A 
ATOM      5  C5  IND d   1      -1.001  -1.426  -2.437  0.00  0.00    -0.031 A 
ATOM      6  C6  IND d   1      -2.277  -1.169  -1.980  0.00  0.00     0.015 A 
ATOM      7  C7  IND d   1      -2.906   0.014  -2.249  0.00  0.00    -0.016 A 
ATOM      8  C8  IND d   1      -2.193   0.948  -2.986  0.00  0.00    -0.047 A 
ATOM      9  C9  IND d   1      -0.882   0.710  -3.417  0.00  0.00    -0.096 A 
ATOM     10  HN1 IND d   1      -3.288   2.608  -3.250  0.00  0.00     0.298 HD
ENDROOT
TORSDOF 0
ENDMDL
