MODEL 1
REMARK minimizedAffinity 23.1932392
REMARK minimizedRMSD -1
REMARK  0 active torsions:
REMARK  status: ('A' for Active; 'I' for Inactive)
ROOT
ATOM      1  N1  IND d   1       4.450   1.977   5.452  0.00  0.00    -0.196 N 
ATOM      2  C2  IND d   1       3.089   1.852   5.443  0.00  0.00     0.054 A 
ATOM      3  C3  IND d   1       2.504   3.058   5.620  0.00  0.00    -0.031 A 
ATOM      4  C4  IND d   1       3.587   5.383   5.845  0.00  0.00     0.051 A 
ATOM      5  C5  IND d   1       4.802   6.000   5.948  0.00  0.00    -0.031 A 
ATOM      6  C6  IND d   1       5.986   5.293   5.887  0.00  0.00     0.015 A 
ATOM      7  C7  IND d   1       5.999   3.939   5.709  0.00  0.00    -0.016 A 
ATOM      8  C8  IND d   1       4.767   3.308   5.610  0.00  0.00    -0.047 A 
ATOM      9  C9  IND d   1       3.562   4.014   5.714  0.00  0.00    -0.096 A 
ATOM     10  HN1 IND d   1       5.014   1.332   5.372  0.00  0.00     0.298 HD
ENDROOT
TORSDOF 0
ENDMDL
