MODEL 1
REMARK minimizedAffinity 11.4778814
REMARK minimizedRMSD -1
REMARK  0 active torsions:
REMARK  status: ('A' for Active; 'I' for Inactive)
ROOT
ATOM      1  N1  IND d   1      -1.263  -3.516  -1.794  0.00  0.00    -0.196 N 
ATOM      2  C2  IND d   1      -1.853  -2.607  -2.627  0.00  0.00     0.054 A 
ATOM      3  C3  IND d   1      -2.322  -1.555  -1.919  0.00  0.00    -0.031 A 
ATOM      4  C4  IND d   1      -2.142  -1.071   0.603  0.00  0.00     0.051 A 
ATOM      5  C5  IND d   1      -1.722  -1.625   1.779  0.00  0.00    -0.031 A 
ATOM      6  C6  IND d   1      -1.113  -2.863   1.825  0.00  0.00     0.015 A 
ATOM      7  C7  IND d   1      -0.890  -3.589   0.690  0.00  0.00    -0.016 A 
ATOM      8  C8  IND d   1      -1.321  -3.032  -0.506  0.00  0.00    -0.047 A 
ATOM      9  C9  IND d   1      -1.978  -1.796  -0.554  0.00  0.00    -0.096 A 
ATOM     10  HN1 IND d   1      -0.914  -4.264  -2.035  0.00  0.00     0.298 HD
ENDROOT
TORSDOF 0
ENDMDL
