MODEL 1
REMARK minimizedAffinity 21.5055885
REMARK minimizedRMSD -1
REMARK  0 active torsions:
REMARK  status: ('A' for Active; 'I' for Inactive)
ROOT
ATOM      1  N1  IND d   1       3.046   3.283  -0.255  0.00  0.00    -0.196 N 
ATOM      2  C2  IND d   1       4.283   3.862  -0.314  0.00  0.00     0.054 A 
ATOM      3  C3  IND d   1       5.173   3.014  -0.877  0.00  0.00    -0.031 A 
ATOM      4  C4  IND d   1       4.797   0.668  -1.868  0.00  0.00     0.051 A 
ATOM      5  C5  IND d   1       3.842  -0.299  -2.013  0.00  0.00    -0.031 A 
ATOM      6  C6  IND d   1       2.547  -0.117  -1.573  0.00  0.00     0.015 A 
ATOM      7  C7  IND d   1       2.153   1.048  -0.979  0.00  0.00    -0.016 A 
ATOM      8  C8  IND d   1       3.121   2.030  -0.824  0.00  0.00    -0.047 A 
ATOM      9  C9  IND d   1       4.448   1.835  -1.230  0.00  0.00    -0.096 A 
ATOM     10  HN1 IND d   1       2.340   3.641   0.080  0.00  0.00     0.298 HD
ENDROOT
TORSDOF 0
ENDMDL
