MODEL 1
REMARK minimizedAffinity 11.1991072
REMARK minimizedRMSD -1
REMARK  0 active torsions:
REMARK  status: ('A' for Active; 'I' for Inactive)
ROOT
ATOM      1  N1  IND d   1       4.330   5.885   5.975  0.00  0.00    -0.196 N 
ATOM      2  C2  IND d   1       2.965   5.969   5.979  0.00  0.00     0.054 A 
ATOM      3  C3  IND d   1       2.418   4.733   5.950  0.00  0.00    -0.031 A 
ATOM      4  C4  IND d   1       3.572   2.432   5.997  0.00  0.00     0.051 A 
ATOM      5  C5  IND d   1       4.805   1.845   5.960  0.00  0.00    -0.031 A 
ATOM      6  C6  IND d   1       5.967   2.589   5.928  0.00  0.00     0.015 A 
ATOM      7  C7  IND d   1       5.938   3.955   5.944  0.00  0.00    -0.016 A 
ATOM      8  C8  IND d   1       4.687   4.555   5.974  0.00  0.00    -0.047 A 
ATOM      9  C9  IND d   1       3.504   3.805   5.964  0.00  0.00    -0.096 A 
ATOM     10  HN1 IND d   1       4.873   6.552   5.974  0.00  0.00     0.298 HD
ENDROOT
TORSDOF 0
ENDMDL
