MODEL 1
REMARK minimizedAffinity 18.5131607
REMARK minimizedRMSD -1
REMARK  0 active torsions:
REMARK  status: ('A' for Active; 'I' for Inactive)
ROOT
ATOM      1  N1  IND d   1       2.573   5.976   5.997  0.00  0.00    -0.196 N 
ATOM      2  C2  IND d   1       1.603   5.014   5.949  0.00  0.00     0.054 A 
ATOM      3  C3  IND d   1       2.111   3.858   5.465  0.00  0.00    -0.031 A 
ATOM      4  C4  IND d   1       4.528   3.292   4.783  0.00  0.00     0.051 A 
ATOM      5  C5  IND d   1       5.761   3.858   4.618  0.00  0.00    -0.031 A 
ATOM      6  C6  IND d   1       6.000   5.185   4.913  0.00  0.00     0.015 A 
ATOM      7  C7  IND d   1       5.013   5.996   5.396  0.00  0.00    -0.016 A 
ATOM      8  C8  IND d   1       3.758   5.427   5.559  0.00  0.00    -0.047 A 
ATOM      9  C9  IND d   1       3.499   4.092   5.221  0.00  0.00    -0.096 A 
ATOM     10  HN1 IND d   1       2.461   6.788   6.257  0.00  0.00     0.298 HD
ENDROOT
TORSDOF 0
ENDMDL
