MODEL 1
REMARK minimizedAffinity 9.88546848
REMARK minimizedRMSD -1
REMARK  0 active torsions:
REMARK  status: ('A' for Active; 'I' for Inactive)
ROOT
ATOM      1  N1  IND d   1      -0.094  -4.021   3.029  0.00  0.00    -0.196 N 
ATOM      2  C2  IND d   1      -0.322  -5.335   3.331  0.00  0.00     0.054 A 
ATOM      3  C3  IND d   1      -0.775  -5.996   2.243  0.00  0.00    -0.031 A 
ATOM      4  C4  IND d   1      -1.122  -5.145  -0.162  0.00  0.00     0.051 A 
ATOM      5  C5  IND d   1      -1.084  -4.008  -0.918  0.00  0.00    -0.031 A 
ATOM      6  C6  IND d   1      -0.703  -2.792  -0.387  0.00  0.00     0.015 A 
ATOM      7  C7  IND d   1      -0.334  -2.671   0.923  0.00  0.00    -0.016 A 
ATOM      8  C8  IND d   1      -0.379  -3.823   1.695  0.00  0.00    -0.047 A 
ATOM      9  C9  IND d   1      -0.805  -5.051   1.173  0.00  0.00    -0.096 A 
ATOM     10  HN1 IND d   1       0.181  -3.420   3.578  0.00  0.00     0.298 HD
ENDROOT
TORSDOF 0
ENDMDL
