MODEL 1
REMARK minimizedAffinity 16.6688423
REMARK minimizedRMSD -1
REMARK  0 active torsions:
REMARK  status: ('A' for Active; 'I' for Inactive)
ROOT
ATOM      1  N1  IND d   1       2.427   4.835   4.351  0.00  0.00    -0.196 N 
ATOM      2  C2  IND d   1       2.425   5.951   5.140  0.00  0.00     0.054 A 
ATOM      3  C3  IND d   1       3.542   5.992   5.900  0.00  0.00    -0.031 A 
ATOM      4  C4  IND d   1       5.554   4.387   5.938  0.00  0.00     0.051 A 
ATOM      5  C5  IND d   1       5.997   3.203   5.420  0.00  0.00    -0.031 A 
ATOM      6  C6  IND d   1       5.259   2.489   4.498  0.00  0.00     0.015 A 
ATOM      7  C7  IND d   1       4.050   2.940   4.050  0.00  0.00    -0.016 A 
ATOM      8  C8  IND d   1       3.594   4.139   4.579  0.00  0.00    -0.047 A 
ATOM      9  C9  IND d   1       4.319   4.847   5.546  0.00  0.00    -0.096 A 
ATOM     10  HN1 IND d   1       1.804   4.606   3.805  0.00  0.00     0.298 HD
ENDROOT
TORSDOF 0
ENDMDL
