MODEL 1
REMARK minimizedAffinity 12.8930969
REMARK minimizedRMSD -1
REMARK  0 active torsions:
REMARK  status: ('A' for Active; 'I' for Inactive)
ROOT
ATOM      1  N1  IND d   1      -2.404   2.282  -4.956  0.00  0.00    -0.196 N 
ATOM      2  C2  IND d   1      -1.387   2.966  -5.561  0.00  0.00     0.054 A 
ATOM      3  C3  IND d   1      -0.194   2.418  -5.239  0.00  0.00    -0.031 A 
ATOM      4  C4  IND d   1       0.316   0.334  -3.816  0.00  0.00     0.051 A 
ATOM      5  C5  IND d   1      -0.285  -0.603  -3.023  0.00  0.00    -0.031 A 
ATOM      6  C6  IND d   1      -1.652  -0.628  -2.833  0.00  0.00     0.015 A 
ATOM      7  C7  IND d   1      -2.473   0.280  -3.440  0.00  0.00    -0.016 A 
ATOM      8  C8  IND d   1      -1.865   1.237  -4.240  0.00  0.00    -0.047 A 
ATOM      9  C9  IND d   1      -0.474   1.293  -4.403  0.00  0.00    -0.096 A 
ATOM     10  HN1 IND d   1      -3.241   2.473  -5.014  0.00  0.00     0.298 HD
ENDROOT
TORSDOF 0
ENDMDL
