MODEL 1
REMARK minimizedAffinity 12.9009371
REMARK minimizedRMSD -1
REMARK  0 active torsions:
REMARK  status: ('A' for Active; 'I' for Inactive)
ROOT
ATOM      1  N1  IND d   1       4.931   1.969   5.912  0.00  0.00    -0.196 N 
ATOM      2  C2  IND d   1       3.633   1.544   5.876  0.00  0.00     0.054 A 
ATOM      3  C3  IND d   1       2.791   2.601   5.892  0.00  0.00    -0.031 A 
ATOM      4  C4  IND d   1       3.327   5.119   5.873  0.00  0.00     0.051 A 
ATOM      5  C5  IND d   1       4.371   5.999   5.940  0.00  0.00    -0.031 A 
ATOM      6  C6  IND d   1       5.681   5.572   5.999  0.00  0.00     0.015 A 
ATOM      7  C7  IND d   1       5.999   4.243   5.983  0.00  0.00    -0.016 A 
ATOM      8  C8  IND d   1       4.941   3.347   5.922  0.00  0.00    -0.047 A 
ATOM      9  C9  IND d   1       3.607   3.773   5.904  0.00  0.00    -0.096 A 
ATOM     10  HN1 IND d   1       5.625   1.462   5.926  0.00  0.00     0.298 HD
ENDROOT
TORSDOF 0
ENDMDL
