MODEL 1
REMARK minimizedAffinity 16.2228355
REMARK minimizedRMSD -1
REMARK  0 active torsions:
REMARK  status: ('A' for Active; 'I' for Inactive)
ROOT
ATOM      1  N1  IND d   1      -2.764   2.293  -3.876  0.00  0.00    -0.196 N 
ATOM      2  C2  IND d   1      -1.840   3.076  -4.511  0.00  0.00     0.054 A 
ATOM      3  C3  IND d   1      -0.642   2.451  -4.553  0.00  0.00    -0.031 A 
ATOM      4  C4  IND d   1       0.004   0.097  -3.735  0.00  0.00     0.051 A 
ATOM      5  C5  IND d   1      -0.491  -0.981  -3.056  0.00  0.00    -0.031 A 
ATOM      6  C6  IND d   1      -1.796  -1.025  -2.610  0.00  0.00     0.015 A 
ATOM      7  C7  IND d   1      -2.662   0.007  -2.836  0.00  0.00    -0.016 A 
ATOM      8  C8  IND d   1      -2.161   1.107  -3.519  0.00  0.00    -0.047 A 
ATOM      9  C9  IND d   1      -0.825   1.175  -3.937  0.00  0.00    -0.096 A 
ATOM     10  HN1 IND d   1      -3.583   2.505  -3.726  0.00  0.00     0.298 HD
ENDROOT
TORSDOF 0
ENDMDL
