MODEL 1
REMARK minimizedAffinity 17.1175957
REMARK minimizedRMSD -1
REMARK  0 active torsions:
REMARK  status: ('A' for Active; 'I' for Inactive)
ROOT
ATOM      1  N1  IND d   1       2.715   4.709   5.919  0.00  0.00    -0.196 N 
ATOM      2  C2  IND d   1       3.213   5.980   5.998  0.00  0.00     0.054 A 
ATOM      3  C3  IND d   1       4.515   5.998   5.633  0.00  0.00    -0.031 A 
ATOM      4  C4  IND d   1       5.999   4.079   4.772  0.00  0.00     0.051 A 
ATOM      5  C5  IND d   1       6.000   2.729   4.561  0.00  0.00    -0.031 A 
ATOM      6  C6  IND d   1       4.881   1.954   4.794  0.00  0.00     0.015 A 
ATOM      7  C7  IND d   1       3.713   2.506   5.237  0.00  0.00    -0.016 A 
ATOM      8  C8  IND d   1       3.711   3.875   5.460  0.00  0.00    -0.047 A 
ATOM      9  C9  IND d   1       4.855   4.660   5.266  0.00  0.00    -0.096 A 
ATOM     10  HN1 IND d   1       1.914   4.471   6.121  0.00  0.00     0.298 HD
ENDROOT
TORSDOF 0
ENDMDL
