MODEL 1
REMARK minimizedAffinity 23.2567711
REMARK minimizedRMSD -1
REMARK  0 active torsions:
REMARK  status: ('A' for Active; 'I' for Inactive)
ROOT
ATOM      1  N1  IND d   1      -6.000   4.927   1.626  0.00  0.00    -0.196 N 
ATOM      2  C2  IND d   1      -5.930   5.998   0.781  0.00  0.00     0.054 A 
ATOM      3  C3  IND d   1      -4.773   5.971   0.081  0.00  0.00    -0.031 A 
ATOM      4  C4  IND d   1      -2.898   4.207   0.090  0.00  0.00     0.051 A 
ATOM      5  C5  IND d   1      -2.496   3.066   0.725  0.00  0.00    -0.031 A 
ATOM      6  C6  IND d   1      -3.258   2.472   1.711  0.00  0.00     0.015 A 
ATOM      7  C7  IND d   1      -4.461   2.995   2.092  0.00  0.00    -0.016 A 
ATOM      8  C8  IND d   1      -4.869   4.158   1.455  0.00  0.00    -0.047 A 
ATOM      9  C9  IND d   1      -4.080   4.788   0.483  0.00  0.00    -0.096 A 
ATOM     10  HN1 IND d   1      -6.642   4.761   2.174  0.00  0.00     0.298 HD
ENDROOT
TORSDOF 0
ENDMDL
