MODEL 1
REMARK minimizedAffinity 22.1952171
REMARK minimizedRMSD -1
REMARK  0 active torsions:
REMARK  status: ('A' for Active; 'I' for Inactive)
ROOT
ATOM      1  N1  IND d   1       4.459  -1.200  -3.157  0.00  0.00    -0.196 N 
ATOM      2  C2  IND d   1       5.557  -0.602  -3.711  0.00  0.00     0.054 A 
ATOM      3  C3  IND d   1       5.720   0.641  -3.204  0.00  0.00    -0.031 A 
ATOM      4  C4  IND d   1       4.365   1.857  -1.384  0.00  0.00     0.051 A 
ATOM      5  C5  IND d   1       3.249   1.729  -0.607  0.00  0.00    -0.031 A 
ATOM      6  C6  IND d   1       2.464   0.594  -0.638  0.00  0.00     0.015 A 
ATOM      7  C7  IND d   1       2.775  -0.464  -1.444  0.00  0.00    -0.016 A 
ATOM      8  C8  IND d   1       3.904  -0.335  -2.240  0.00  0.00    -0.047 A 
ATOM      9  C9  IND d   1       4.680   0.831  -2.244  0.00  0.00    -0.096 A 
ATOM     10  HN1 IND d   1       4.165  -1.985  -3.350  0.00  0.00     0.298 HD
ENDROOT
TORSDOF 0
ENDMDL
