MODEL 1
REMARK minimizedAffinity -4.33407974
REMARK minimizedRMSD -1
REMARK  0 active torsions:
REMARK  status: ('A' for Active; 'I' for Inactive)
ROOT
ATOM      1  C2' OXE d   1       1.380  -0.126   1.787  0.00  0.00     0.078 C 
ATOM      2  C1' OXE d   1      -0.433  -0.835  -0.235  0.00  0.00     0.078 C 
ATOM      3  C1  OXE d   1      -0.676   0.456   0.506  0.00  0.00    -0.078 A 
ATOM      4  C2  OXE d   1       0.190   0.772   1.525  0.00  0.00    -0.078 A 
ATOM      5  C3  OXE d   1       0.044   1.977   2.205  0.00  0.00     0.003 A 
ATOM      6  C4  OXE d   1      -1.065   2.797   1.964  0.00  0.00    -0.002 A 
ATOM      7  C5  OXE d   1      -1.981   2.474   0.957  0.00  0.00    -0.002 A 
ATOM      8  C6  OXE d   1      -1.778   1.331   0.192  0.00  0.00     0.003 A 
ENDROOT
TORSDOF 0
ENDMDL
