MODEL 1
REMARK minimizedAffinity -3.46032333
REMARK minimizedRMSD -1
REMARK  0 active torsions:
REMARK  status: ('A' for Active; 'I' for Inactive)
ROOT
ATOM      1  C2' OXE d   1       1.809  -0.433   1.841  0.00  0.00     0.078 C 
ATOM      2  C1' OXE d   1       0.088  -0.995  -0.304  0.00  0.00     0.078 C 
ATOM      3  C1  OXE d   1      -0.201   0.229   0.528  0.00  0.00    -0.078 A 
ATOM      4  C2  OXE d   1       0.619   0.471   1.604  0.00  0.00    -0.078 A 
ATOM      5  C3  OXE d   1       0.429   1.617   2.371  0.00  0.00     0.003 A 
ATOM      6  C4  OXE d   1      -0.680   2.442   2.151  0.00  0.00    -0.002 A 
ATOM      7  C5  OXE d   1      -1.551   2.192   1.085  0.00  0.00    -0.002 A 
ATOM      8  C6  OXE d   1      -1.302   1.116   0.240  0.00  0.00     0.003 A 
ENDROOT
TORSDOF 0
ENDMDL
