MODEL 1
REMARK minimizedAffinity -0.852002263
REMARK minimizedRMSD -1
REMARK  0 active torsions:
REMARK  status: ('A' for Active; 'I' for Inactive)
ROOT
ATOM      1  C2' OXE d   1       0.653   0.089   2.494  0.00  0.00     0.078 C 
ATOM      2  C1' OXE d   1      -0.404   2.642   2.002  0.00  0.00     0.078 C 
ATOM      3  C1  OXE d   1      -0.135   1.752   0.815  0.00  0.00    -0.078 A 
ATOM      4  C2  OXE d   1       0.427   0.522   1.062  0.00  0.00    -0.078 A 
ATOM      5  C3  OXE d   1       0.645  -0.360   0.007  0.00  0.00     0.003 A 
ATOM      6  C4  OXE d   1       0.442   0.052  -1.315  0.00  0.00    -0.002 A 
ATOM      7  C5  OXE d   1      -0.091   1.315  -1.591  0.00  0.00    -0.002 A 
ATOM      8  C6  OXE d   1      -0.424   2.159  -0.538  0.00  0.00     0.003 A 
ENDROOT
TORSDOF 0
ENDMDL
