MODEL 1
REMARK minimizedAffinity -3.60672092
REMARK minimizedRMSD -1
REMARK  0 active torsions:
REMARK  status: ('A' for Active; 'I' for Inactive)
ROOT
ATOM      1  C2' OXE d   1       0.028  -1.259  -0.513  0.00  0.00     0.078 C 
ATOM      2  C1' OXE d   1       2.078  -0.514   1.253  0.00  0.00     0.078 C 
ATOM      3  C1  OXE d   1       0.841   0.348   1.208  0.00  0.00    -0.078 A 
ATOM      4  C2  OXE d   1      -0.137   0.003   0.307  0.00  0.00    -0.078 A 
ATOM      5  C3  OXE d   1      -1.322   0.732   0.263  0.00  0.00     0.003 A 
ATOM      6  C4  OXE d   1      -1.462   1.903   1.018  0.00  0.00    -0.002 A 
ATOM      7  C5  OXE d   1      -0.461   2.295   1.913  0.00  0.00    -0.002 A 
ATOM      8  C6  OXE d   1       0.676   1.507   2.051  0.00  0.00     0.003 A 
ENDROOT
TORSDOF 0
ENDMDL
