MODEL 1
REMARK minimizedAffinity -2.0513742
REMARK minimizedRMSD -1
REMARK  0 active torsions:
REMARK  status: ('A' for Active; 'I' for Inactive)
ROOT
ATOM      1  C2' OXE d   1      -1.557   2.905   1.692  0.00  0.00     0.078 C 
ATOM      2  C1' OXE d   1       0.754   1.490   2.424  0.00  0.00     0.078 C 
ATOM      3  C1  OXE d   1       0.165   1.218   1.063  0.00  0.00    -0.078 A 
ATOM      4  C2  OXE d   1      -0.992   1.881   0.731  0.00  0.00    -0.078 A 
ATOM      5  C3  OXE d   1      -1.547   1.708  -0.534  0.00  0.00     0.003 A 
ATOM      6  C4  OXE d   1      -1.024   0.752  -1.413  0.00  0.00    -0.002 A 
ATOM      7  C5  OXE d   1       0.131   0.037  -1.079  0.00  0.00    -0.002 A 
ATOM      8  C6  OXE d   1       0.761   0.289   0.135  0.00  0.00     0.003 A 
ENDROOT
TORSDOF 0
ENDMDL
