MODEL 1
REMARK minimizedAffinity -2.72567296
REMARK minimizedRMSD -1
REMARK  0 active torsions:
REMARK  status: ('A' for Active; 'I' for Inactive)
ROOT
ATOM      1  C2' OXE d   1       1.873  -0.415   1.176  0.00  0.00     0.078 C 
ATOM      2  C1' OXE d   1       0.301  -1.104  -1.045  0.00  0.00     0.078 C 
ATOM      3  C1  OXE d   1      -0.168   0.039  -0.178  0.00  0.00    -0.078 A 
ATOM      4  C2  OXE d   1       0.583   0.339   0.933  0.00  0.00    -0.078 A 
ATOM      5  C3  OXE d   1       0.226   1.418   1.735  0.00  0.00     0.003 A 
ATOM      6  C4  OXE d   1      -0.974   2.104   1.509  0.00  0.00    -0.002 A 
ATOM      7  C5  OXE d   1      -1.774   1.788   0.405  0.00  0.00    -0.002 A 
ATOM      8  C6  OXE d   1      -1.364   0.789  -0.470  0.00  0.00     0.003 A 
ENDROOT
TORSDOF 0
ENDMDL
