MODEL 1
REMARK minimizedAffinity 3.80797768
REMARK minimizedRMSD -1
REMARK  0 active torsions:
REMARK  status: ('A' for Active; 'I' for Inactive)
ROOT
ATOM      1  C2' OXE d   1      -0.950  -1.340   1.826  0.00  0.00     0.078 C 
ATOM      2  C1' OXE d   1      -0.509  -2.539  -0.674  0.00  0.00     0.078 C 
ATOM      3  C1  OXE d   1      -0.321  -1.047  -0.567  0.00  0.00    -0.078 A 
ATOM      4  C2  OXE d   1      -0.584  -0.462   0.649  0.00  0.00    -0.078 A 
ATOM      5  C3  OXE d   1      -0.374   0.904   0.817  0.00  0.00     0.003 A 
ATOM      6  C4  OXE d   1      -0.045   1.710  -0.279  0.00  0.00    -0.002 A 
ATOM      7  C5  OXE d   1       0.189   1.141  -1.535  0.00  0.00    -0.002 A 
ATOM      8  C6  OXE d   1       0.097  -0.239  -1.686  0.00  0.00     0.003 A 
ENDROOT
TORSDOF 0
ENDMDL
