MODEL 1
REMARK minimizedAffinity -0.718801439
REMARK minimizedRMSD -1
REMARK  0 active torsions:
REMARK  status: ('A' for Active; 'I' for Inactive)
ROOT
ATOM      1  C2' OXE d   1      -0.325  -1.531  -0.426  0.00  0.00     0.078 C 
ATOM      2  C1' OXE d   1      -0.494   0.865  -1.879  0.00  0.00     0.078 C 
ATOM      3  C1  OXE d   1      -0.394   0.959  -0.377  0.00  0.00    -0.078 A 
ATOM      4  C2  OXE d   1      -0.359  -0.219   0.329  0.00  0.00    -0.078 A 
ATOM      5  C3  OXE d   1      -0.211  -0.190   1.713  0.00  0.00     0.003 A 
ATOM      6  C4  OXE d   1      -0.253   1.027   2.404  0.00  0.00    -0.002 A 
ATOM      7  C5  OXE d   1      -0.328   2.238   1.707  0.00  0.00    -0.002 A 
ATOM      8  C6  OXE d   1      -0.356   2.223   0.317  0.00  0.00     0.003 A 
ENDROOT
TORSDOF 0
ENDMDL
