MODEL 1
REMARK minimizedAffinity -0.50547713
REMARK minimizedRMSD -1
REMARK  0 active torsions:
REMARK  status: ('A' for Active; 'I' for Inactive)
ROOT
ATOM      1  O1  BZF d   1       0.046  -2.432  -3.343  0.00  0.00    -0.204 OA
ATOM      2  C2  BZF d   1       0.447  -3.523  -2.597  0.00  0.00     0.174 A 
ATOM      3  C3  BZF d   1       0.812  -3.146  -1.355  0.00  0.00    -0.012 A 
ATOM      4  C3A BZF d   1       0.540  -1.742  -1.293  0.00  0.00    -0.107 A 
ATOM      5  C4  BZF d   1       0.678  -0.801  -0.313  0.00  0.00     0.055 A 
ATOM      6  C5  BZF d   1       0.391   0.496  -0.597  0.00  0.00    -0.016 A 
ATOM      7  C6  BZF d   1      -0.031   0.888  -1.851  0.00  0.00     0.022 A 
ATOM      8  C7  BZF d   1      -0.187  -0.009  -2.854  0.00  0.00     0.029 A 
ATOM      9  C7A BZF d   1       0.071  -1.326  -2.560  0.00  0.00     0.058 A 
ENDROOT
TORSDOF 0
ENDMDL
