MODEL 1
REMARK minimizedAffinity 0.513852775
REMARK minimizedRMSD -1
REMARK  0 active torsions:
REMARK  status: ('A' for Active; 'I' for Inactive)
ROOT
ATOM      1  O1  BZF d   1      -5.646   3.356  -2.662  0.00  0.00    -0.204 OA
ATOM      2  C2  BZF d   1      -4.998   2.704  -1.630  0.00  0.00     0.174 A 
ATOM      3  C3  BZF d   1      -4.492   1.527  -2.050  0.00  0.00    -0.012 A 
ATOM      4  C3A BZF d   1      -4.766   1.479  -3.454  0.00  0.00    -0.107 A 
ATOM      5  C4  BZF d   1      -4.496   0.566  -4.432  0.00  0.00     0.055 A 
ATOM      6  C5  BZF d   1      -4.964   0.786  -5.689  0.00  0.00    -0.016 A 
ATOM      7  C6  BZF d   1      -5.710   1.904  -6.000  0.00  0.00     0.022 A 
ATOM      8  C7  BZF d   1      -6.000   2.841  -5.064  0.00  0.00     0.029 A 
ATOM      9  C7A BZF d   1      -5.500   2.637  -3.801  0.00  0.00     0.058 A 
ENDROOT
TORSDOF 0
ENDMDL
