MODEL 1
REMARK minimizedAffinity 11.6385183
REMARK minimizedRMSD -1
REMARK  0 active torsions:
REMARK  status: ('A' for Active; 'I' for Inactive)
ROOT
ATOM      1  O1  BZF d   1       0.936   2.494   4.582  0.00  0.00    -0.204 OA
ATOM      2  C2  BZF d   1       0.977   3.875   4.617  0.00  0.00     0.174 A 
ATOM      3  C3  BZF d   1       0.695   4.392   3.403  0.00  0.00    -0.012 A 
ATOM      4  C3A BZF d   1       0.374   3.268   2.580  0.00  0.00    -0.107 A 
ATOM      5  C4  BZF d   1      -0.005   3.138   1.274  0.00  0.00     0.055 A 
ATOM      6  C5  BZF d   1      -0.172   1.893   0.756  0.00  0.00    -0.016 A 
ATOM      7  C6  BZF d   1       0.036   0.757   1.511  0.00  0.00     0.022 A 
ATOM      8  C7  BZF d   1       0.408   0.836   2.812  0.00  0.00     0.029 A 
ATOM      9  C7A BZF d   1       0.545   2.093   3.348  0.00  0.00     0.058 A 
ENDROOT
TORSDOF 0
ENDMDL
