MODEL 1
REMARK minimizedAffinity 3.61108541
REMARK minimizedRMSD -1
REMARK  0 active torsions:
REMARK  status: ('A' for Active; 'I' for Inactive)
ROOT
ATOM      1  O1  BZF d   1      -5.592   2.938  -5.995  0.00  0.00    -0.204 OA
ATOM      2  C2  BZF d   1      -5.980   4.248  -5.786  0.00  0.00     0.174 A 
ATOM      3  C3  BZF d   1      -5.994   4.538  -4.469  0.00  0.00    -0.012 A 
ATOM      4  C3A BZF d   1      -5.501   3.363  -3.819  0.00  0.00    -0.107 A 
ATOM      5  C4  BZF d   1      -5.267   3.040  -2.513  0.00  0.00     0.055 A 
ATOM      6  C5  BZF d   1      -4.853   1.783  -2.207  0.00  0.00    -0.016 A 
ATOM      7  C6  BZF d   1      -4.668   0.822  -3.180  0.00  0.00     0.022 A 
ATOM      8  C7  BZF d   1      -4.882   1.097  -4.490  0.00  0.00     0.029 A 
ATOM      9  C7A BZF d   1      -5.269   2.376  -4.805  0.00  0.00     0.058 A 
ENDROOT
TORSDOF 0
ENDMDL
