MODEL 1
REMARK minimizedAffinity 0.80532968
REMARK minimizedRMSD -1
REMARK  0 active torsions:
REMARK  status: ('A' for Active; 'I' for Inactive)
ROOT
ATOM      1  O1  BZF d   1      -0.675  -2.956   5.804  0.00  0.00    -0.204 OA
ATOM      2  C2  BZF d   1      -1.940  -2.476   5.524  0.00  0.00     0.174 A 
ATOM      3  C3  BZF d   1      -1.955  -1.830   4.340  0.00  0.00    -0.012 A 
ATOM      4  C3A BZF d   1      -0.638  -1.991   3.807  0.00  0.00    -0.107 A 
ATOM      5  C4  BZF d   1      -0.038  -1.586   2.649  0.00  0.00     0.055 A 
ATOM      6  C5  BZF d   1       1.284  -1.844   2.465  0.00  0.00    -0.016 A 
ATOM      7  C6  BZF d   1       2.036  -2.498   3.419  0.00  0.00     0.022 A 
ATOM      8  C7  BZF d   1       1.484  -2.923   4.581  0.00  0.00     0.029 A 
ATOM      9  C7A BZF d   1       0.141  -2.694   4.756  0.00  0.00     0.058 A 
ENDROOT
TORSDOF 0
ENDMDL
