MODEL 1
REMARK minimizedAffinity 0.383522987
REMARK minimizedRMSD -1
REMARK  0 active torsions:
REMARK  status: ('A' for Active; 'I' for Inactive)
ROOT
ATOM      1  O1  BZF d   1       0.496   1.420   1.314  0.00  0.00    -0.204 OA
ATOM      2  C2  BZF d   1       0.001   0.260   1.878  0.00  0.00     0.174 A 
ATOM      3  C3  BZF d   1      -0.209   0.423   3.200  0.00  0.00    -0.012 A 
ATOM      4  C3A BZF d   1       0.092   1.796   3.463  0.00  0.00    -0.107 A 
ATOM      5  C4  BZF d   1       0.059   2.566   4.591  0.00  0.00     0.055 A 
ATOM      6  C5  BZF d   1       0.485   3.855   4.524  0.00  0.00    -0.016 A 
ATOM      7  C6  BZF d   1       0.955   4.404   3.349  0.00  0.00     0.022 A 
ATOM      8  C7  BZF d   1       1.002   3.681   2.203  0.00  0.00     0.029 A 
ATOM      9  C7A BZF d   1       0.541   2.389   2.260  0.00  0.00     0.058 A 
ENDROOT
TORSDOF 0
ENDMDL
