MODEL 1
REMARK minimizedAffinity 2.14465976
REMARK minimizedRMSD -1
REMARK  0 active torsions:
REMARK  status: ('A' for Active; 'I' for Inactive)
ROOT
ATOM      1  O1  BZF d   1       0.536   2.382   0.526  0.00  0.00    -0.204 OA
ATOM      2  C2  BZF d   1       0.122   1.561   1.557  0.00  0.00     0.174 A 
ATOM      3  C3  BZF d   1      -0.165   2.285   2.658  0.00  0.00    -0.012 A 
ATOM      4  C3A BZF d   1      -0.004   3.651   2.264  0.00  0.00    -0.107 A 
ATOM      5  C4  BZF d   1      -0.161   4.841   2.915  0.00  0.00     0.055 A 
ATOM      6  C5  BZF d   1       0.148   5.995   2.266  0.00  0.00    -0.016 A 
ATOM      7  C6  BZF d   1       0.621   5.995   0.970  0.00  0.00     0.022 A 
ATOM      8  C7  BZF d   1       0.789   4.839   0.282  0.00  0.00     0.029 A 
ATOM      9  C7A BZF d   1       0.446   3.674   0.923  0.00  0.00     0.058 A 
ENDROOT
TORSDOF 0
ENDMDL
