MODEL 1
REMARK minimizedAffinity 7.75056648
REMARK minimizedRMSD -1
REMARK  0 active torsions:
REMARK  status: ('A' for Active; 'I' for Inactive)
ROOT
ATOM      1  O1  BZF d   1      -4.211   4.274  -4.434  0.00  0.00    -0.204 OA
ATOM      2  C2  BZF d   1      -5.183   4.821  -5.251  0.00  0.00     0.174 A 
ATOM      3  C3  BZF d   1      -6.000   3.861  -5.731  0.00  0.00    -0.012 A 
ATOM      4  C3A BZF d   1      -5.565   2.649  -5.106  0.00  0.00    -0.107 A 
ATOM      5  C4  BZF d   1      -5.993   1.354  -5.170  0.00  0.00     0.055 A 
ATOM      6  C5  BZF d   1      -5.305   0.397  -4.493  0.00  0.00    -0.016 A 
ATOM      7  C6  BZF d   1      -4.183   0.699  -3.749  0.00  0.00     0.022 A 
ATOM      8  C7  BZF d   1      -3.723   1.970  -3.653  0.00  0.00     0.029 A 
ATOM      9  C7A BZF d   1      -4.435   2.944  -4.308  0.00  0.00     0.058 A 
ENDROOT
TORSDOF 0
ENDMDL
