MODEL 1
REMARK minimizedAffinity 4.64278316
REMARK minimizedRMSD -1
REMARK  0 active torsions:
REMARK  status: ('A' for Active; 'I' for Inactive)
ROOT
ATOM      1  O1  BZF d   1      -4.022   3.402  -5.739  0.00  0.00    -0.204 OA
ATOM      2  C2  BZF d   1      -5.370   3.231  -5.990  0.00  0.00     0.174 A 
ATOM      3  C3  BZF d   1      -6.000   2.739  -4.905  0.00  0.00    -0.012 A 
ATOM      4  C3A BZF d   1      -4.999   2.679  -3.884  0.00  0.00    -0.107 A 
ATOM      5  C4  BZF d   1      -5.016   2.289  -2.575  0.00  0.00     0.055 A 
ATOM      6  C5  BZF d   1      -3.852   2.283  -1.873  0.00  0.00    -0.016 A 
ATOM      7  C6  BZF d   1      -2.655   2.654  -2.449  0.00  0.00     0.022 A 
ATOM      8  C7  BZF d   1      -2.590   3.053  -3.742  0.00  0.00     0.029 A 
ATOM      9  C7A BZF d   1      -3.769   3.092  -4.445  0.00  0.00     0.058 A 
ENDROOT
TORSDOF 0
ENDMDL
