MODEL 1
REMARK minimizedAffinity 3.99592209
REMARK minimizedRMSD -1
REMARK  0 active torsions:
REMARK  status: ('A' for Active; 'I' for Inactive)
ROOT
ATOM      1  O1  BZF d   1       0.659   2.521  -1.069  0.00  0.00    -0.204 OA
ATOM      2  C2  BZF d   1       0.148   1.250  -0.891  0.00  0.00     0.174 A 
ATOM      3  C3  BZF d   1      -0.160   1.035   0.404  0.00  0.00    -0.012 A 
ATOM      4  C3A BZF d   1       0.094   2.279   1.063  0.00  0.00    -0.107 A 
ATOM      5  C4  BZF d   1      -0.037   2.701   2.355  0.00  0.00     0.055 A 
ATOM      6  C5  BZF d   1       0.367   3.956   2.684  0.00  0.00    -0.016 A 
ATOM      7  C6  BZF d   1       0.908   4.813   1.748  0.00  0.00     0.022 A 
ATOM      8  C7  BZF d   1       1.053   4.442   0.453  0.00  0.00     0.029 A 
ATOM      9  C7A BZF d   1       0.616   3.185   0.111  0.00  0.00     0.058 A 
ENDROOT
TORSDOF 0
ENDMDL
