MODEL 1
REMARK minimizedAffinity 7.31108379
REMARK minimizedRMSD -1
REMARK  0 active torsions:
REMARK  status: ('A' for Active; 'I' for Inactive)
ROOT
ATOM      1  O1  BZF d   1      -2.685   0.795  -1.245  0.00  0.00    -0.204 OA
ATOM      2  C2  BZF d   1      -2.581   1.976  -1.953  0.00  0.00     0.174 A 
ATOM      3  C3  BZF d   1      -1.389   2.567  -1.726  0.00  0.00    -0.012 A 
ATOM      4  C3A BZF d   1      -0.670   1.654  -0.891  0.00  0.00    -0.107 A 
ATOM      5  C4  BZF d   1       0.580   1.671  -0.341  0.00  0.00     0.055 A 
ATOM      6  C5  BZF d   1       0.951   0.658   0.485  0.00  0.00    -0.016 A 
ATOM      7  C6  BZF d   1       0.098  -0.384   0.786  0.00  0.00     0.022 A 
ATOM      8  C7  BZF d   1      -1.150  -0.447   0.259  0.00  0.00     0.029 A 
ATOM      9  C7A BZF d   1      -1.516   0.559  -0.602  0.00  0.00     0.058 A 
ENDROOT
TORSDOF 0
ENDMDL
