MODEL 1
REMARK minimizedAffinity 4.16345024
REMARK minimizedRMSD -1
REMARK  0 active torsions:
REMARK  status: ('A' for Active; 'I' for Inactive)
ROOT
ATOM      1  O1  BZF d   1      -0.261  -0.787  -0.080  0.00  0.00    -0.204 OA
ATOM      2  C2  BZF d   1       1.065  -0.866   0.302  0.00  0.00     0.174 A 
ATOM      3  C3  BZF d   1       1.764   0.183  -0.179  0.00  0.00    -0.012 A 
ATOM      4  C3A BZF d   1       0.797   1.013  -0.830  0.00  0.00    -0.107 A 
ATOM      5  C4  BZF d   1       0.876   2.207  -1.488  0.00  0.00     0.055 A 
ATOM      6  C5  BZF d   1      -0.242   2.714  -2.072  0.00  0.00    -0.016 A 
ATOM      7  C6  BZF d   1      -1.451   2.053  -2.021  0.00  0.00     0.022 A 
ATOM      8  C7  BZF d   1      -1.580   0.868  -1.376  0.00  0.00     0.029 A 
ATOM      9  C7A BZF d   1      -0.460   0.369  -0.757  0.00  0.00     0.058 A 
ENDROOT
TORSDOF 0
ENDMDL
