MODEL 1
REMARK minimizedAffinity 6.86861563
REMARK minimizedRMSD -1
REMARK  0 active torsions:
REMARK  status: ('A' for Active; 'I' for Inactive)
ROOT
ATOM      1  O1  BZF d   1      -4.226   0.237  -3.937  0.00  0.00    -0.204 OA
ATOM      2  C2  BZF d   1      -3.839   0.559  -2.650  0.00  0.00     0.174 A 
ATOM      3  C3  BZF d   1      -4.158   1.837  -2.360  0.00  0.00    -0.012 A 
ATOM      4  C3A BZF d   1      -4.866   2.317  -3.506  0.00  0.00    -0.107 A 
ATOM      5  C4  BZF d   1      -5.453   3.511  -3.815  0.00  0.00     0.055 A 
ATOM      6  C5  BZF d   1      -5.999   3.680  -5.048  0.00  0.00    -0.016 A 
ATOM      7  C6  BZF d   1      -5.972   2.679  -5.997  0.00  0.00     0.022 A 
ATOM      8  C7  BZF d   1      -5.405   1.476  -5.736  0.00  0.00     0.029 A 
ATOM      9  C7A BZF d   1      -4.882   1.291  -4.479  0.00  0.00     0.058 A 
ENDROOT
TORSDOF 0
ENDMDL
