MODEL 1
REMARK minimizedAffinity 1.09980237
REMARK minimizedRMSD -1
REMARK  0 active torsions:
REMARK  status: ('A' for Active; 'I' for Inactive)
ROOT
ATOM      1  O1  BZF d   1      -6.000   1.375  -5.995  0.00  0.00    -0.204 OA
ATOM      2  C2  BZF d   1      -5.295   0.420  -5.288  0.00  0.00     0.174 A 
ATOM      3  C3  BZF d   1      -4.405   1.000  -4.457  0.00  0.00    -0.012 A 
ATOM      4  C3A BZF d   1      -4.628   2.407  -4.590  0.00  0.00    -0.107 A 
ATOM      5  C4  BZF d   1      -4.063   3.506  -4.007  0.00  0.00     0.055 A 
ATOM      6  C5  BZF d   1      -4.458   4.742  -4.410  0.00  0.00    -0.016 A 
ATOM      7  C6  BZF d   1      -5.408   4.917  -5.394  0.00  0.00     0.022 A 
ATOM      8  C7  BZF d   1      -6.000   3.857  -5.997  0.00  0.00     0.029 A 
ATOM      9  C7A BZF d   1      -5.628   2.606  -5.569  0.00  0.00     0.058 A 
ENDROOT
TORSDOF 0
ENDMDL
