MODEL 1
REMARK minimizedAffinity -3.80723453
REMARK minimizedRMSD -1
REMARK  0 active torsions:
REMARK  status: ('A' for Active; 'I' for Inactive)
ROOT
ATOM      1  O1  BZF d   1      -5.982   4.345  -1.879  0.00  0.00    -0.204 OA
ATOM      2  C2  BZF d   1      -5.694   3.439  -0.876  0.00  0.00     0.174 A 
ATOM      3  C3  BZF d   1      -5.124   2.327  -1.384  0.00  0.00    -0.012 A 
ATOM      4  C3A BZF d   1      -4.966   2.591  -2.782  0.00  0.00    -0.107 A 
ATOM      5  C4  BZF d   1      -4.444   1.872  -3.819  0.00  0.00     0.055 A 
ATOM      6  C5  BZF d   1      -4.507   2.386  -5.076  0.00  0.00    -0.016 A 
ATOM      7  C6  BZF d   1      -5.089   3.611  -5.331  0.00  0.00     0.022 A 
ATOM      8  C7  BZF d   1      -5.616   4.362  -4.334  0.00  0.00     0.029 A 
ATOM      9  C7A BZF d   1      -5.524   3.860  -3.059  0.00  0.00     0.058 A 
ENDROOT
TORSDOF 0
ENDMDL
