MODEL 1
REMARK minimizedAffinity -0.506716669
REMARK minimizedRMSD -1
REMARK  0 active torsions:
REMARK  status: ('A' for Active; 'I' for Inactive)
ROOT
ATOM      1  O1  BZF d   1       0.920   2.667  -1.042  0.00  0.00    -0.204 OA
ATOM      2  C2  BZF d   1       0.544   1.383  -0.697  0.00  0.00     0.174 A 
ATOM      3  C3  BZF d   1       0.158   1.329   0.594  0.00  0.00    -0.012 A 
ATOM      4  C3A BZF d   1       0.214   2.680   1.061  0.00  0.00    -0.107 A 
ATOM      5  C4  BZF d   1      -0.068   3.272   2.259  0.00  0.00     0.055 A 
ATOM      6  C5  BZF d   1       0.162   4.603   2.408  0.00  0.00    -0.016 A 
ATOM      7  C6  BZF d   1       0.677   5.370   1.384  0.00  0.00     0.022 A 
ATOM      8  C7  BZF d   1       0.968   4.829   0.176  0.00  0.00     0.029 A 
ATOM      9  C7A BZF d   1       0.706   3.491   0.012  0.00  0.00     0.058 A 
ENDROOT
TORSDOF 0
ENDMDL
