MODEL 1
REMARK minimizedAffinity 2.24299002
REMARK minimizedRMSD -1
REMARK  0 active torsions:
REMARK  status: ('A' for Active; 'I' for Inactive)
ROOT
ATOM      1  O1  BZF d   1       3.162  -4.180  -1.059  0.00  0.00    -0.204 OA
ATOM      2  C2  BZF d   1       4.514  -4.127  -1.337  0.00  0.00     0.174 A 
ATOM      3  C3  BZF d   1       4.724  -3.938  -2.656  0.00  0.00    -0.012 A 
ATOM      4  C3A BZF d   1       3.422  -3.776  -3.225  0.00  0.00    -0.107 A 
ATOM      5  C4  BZF d   1       2.974  -3.542  -4.493  0.00  0.00     0.055 A 
ATOM      6  C5  BZF d   1       1.635  -3.510  -4.726  0.00  0.00    -0.016 A 
ATOM      7  C6  BZF d   1       0.718  -3.712  -3.716  0.00  0.00     0.022 A 
ATOM      8  C7  BZF d   1       1.114  -3.943  -2.440  0.00  0.00     0.029 A 
ATOM      9  C7A BZF d   1       2.466  -3.944  -2.196  0.00  0.00     0.058 A 
ENDROOT
TORSDOF 0
ENDMDL
