MODEL 1
REMARK minimizedAffinity 4.45778847
REMARK minimizedRMSD -1
REMARK  0 active torsions:
REMARK  status: ('A' for Active; 'I' for Inactive)
ROOT
ATOM      1  O1  BZF d   1      -4.881   4.737  -5.999  0.00  0.00    -0.204 OA
ATOM      2  C2  BZF d   1      -5.995   3.921  -6.000  0.00  0.00     0.174 A 
ATOM      3  C3  BZF d   1      -5.782   2.819  -5.251  0.00  0.00    -0.012 A 
ATOM      4  C3A BZF d   1      -4.484   3.001  -4.676  0.00  0.00    -0.107 A 
ATOM      5  C4  BZF d   1      -3.721   2.253  -3.825  0.00  0.00     0.055 A 
ATOM      6  C5  BZF d   1      -2.468   2.678  -3.516  0.00  0.00    -0.016 A 
ATOM      7  C6  BZF d   1      -1.945   3.840  -4.042  0.00  0.00     0.022 A 
ATOM      8  C7  BZF d   1      -2.665   4.618  -4.886  0.00  0.00     0.029 A 
ATOM      9  C7A BZF d   1      -3.944   4.209  -5.175  0.00  0.00     0.058 A 
ENDROOT
TORSDOF 0
ENDMDL
