MODEL 1
REMARK minimizedAffinity 5.21936846
REMARK minimizedRMSD -1
REMARK  0 active torsions:
REMARK  status: ('A' for Active; 'I' for Inactive)
ROOT
ATOM      1  O1  BZF d   1       0.818   0.215   1.987  0.00  0.00    -0.204 OA
ATOM      2  C2  BZF d   1      -0.240   0.396   2.857  0.00  0.00     0.174 A 
ATOM      3  C3  BZF d   1      -1.335   0.822   2.196  0.00  0.00    -0.012 A 
ATOM      4  C3A BZF d   1      -0.964   0.824   0.814  0.00  0.00    -0.107 A 
ATOM      5  C4  BZF d   1      -1.630   1.135  -0.337  0.00  0.00     0.055 A 
ATOM      6  C5  BZF d   1      -0.958   1.103  -1.518  0.00  0.00    -0.016 A 
ATOM      7  C6  BZF d   1       0.379   0.770  -1.584  0.00  0.00     0.022 A 
ATOM      8  C7  BZF d   1       1.080   0.449  -0.470  0.00  0.00     0.029 A 
ATOM      9  C7A BZF d   1       0.396   0.448   0.721  0.00  0.00     0.058 A 
ENDROOT
TORSDOF 0
ENDMDL
