MODEL 1
REMARK minimizedAffinity -0.0660360456
REMARK minimizedRMSD -1
REMARK  0 active torsions:
REMARK  status: ('A' for Active; 'I' for Inactive)
ROOT
ATOM      1  C   UNL d   1      -1.294   0.928   2.608  0.00  0.00     0.172 C 
ATOM      2  N   UNL d   1      -0.790   0.476   1.332  0.00  0.00    -0.070 N 
ATOM      3  C1  UNL d   1      -1.555   0.083   0.266  0.00  0.00    -0.004 A 
ATOM      4  C2  UNL d   1      -0.702  -0.272  -0.756  0.00  0.00    -0.047 A 
ATOM      5  C3  UNL d   1       0.621  -0.087  -0.288  0.00  0.00    -0.047 A 
ATOM      6  C4  UNL d   1       0.537   0.377   1.007  0.00  0.00    -0.004 A 
ENDROOT
TORSDOF 0
ENDMDL
