MODEL 1
REMARK minimizedAffinity -0.508893967
REMARK minimizedRMSD -1
REMARK  0 active torsions:
REMARK  status: ('A' for Active; 'I' for Inactive)
ROOT
ATOM      1  C   UNL d   1      -1.338   0.670   2.254  0.00  0.00     0.172 C 
ATOM      2  N   UNL d   1      -0.801   0.088   1.046  0.00  0.00    -0.070 N 
ATOM      3  C1  UNL d   1      -1.537  -0.373  -0.013  0.00  0.00    -0.004 A 
ATOM      4  C2  UNL d   1      -0.657  -0.848  -0.963  0.00  0.00    -0.047 A 
ATOM      5  C3  UNL d   1       0.651  -0.666  -0.456  0.00  0.00    -0.047 A 
ATOM      6  C4  UNL d   1       0.533  -0.085   0.789  0.00  0.00    -0.004 A 
ENDROOT
TORSDOF 0
ENDMDL
