MODEL 1
REMARK minimizedAffinity -2.80835176
REMARK minimizedRMSD -1
REMARK  0 active torsions:
REMARK  status: ('A' for Active; 'I' for Inactive)
ROOT
ATOM      1  C   UNL d   1      -1.652  -0.100   0.083  0.00  0.00     0.172 C 
ATOM      2  N   UNL d   1      -0.978   0.331   1.285  0.00  0.00    -0.070 N 
ATOM      3  C1  UNL d   1      -1.588   0.708   2.451  0.00  0.00    -0.004 A 
ATOM      4  C2  UNL d   1      -0.603   1.047   3.353  0.00  0.00    -0.047 A 
ATOM      5  C3  UNL d   1       0.643   0.869   2.706  0.00  0.00    -0.047 A 
ATOM      6  C4  UNL d   1       0.381   0.425   1.427  0.00  0.00    -0.004 A 
ENDROOT
TORSDOF 0
ENDMDL
