MODEL 1
REMARK minimizedAffinity -4.01038694
REMARK minimizedRMSD -1
REMARK  0 active torsions:
REMARK  status: ('A' for Active; 'I' for Inactive)
ROOT
ATOM      1  C   UNL d   1       0.116  -0.013   0.111  0.00  0.00     0.172 C 
ATOM      2  N   UNL d   1       0.422   0.253   1.497  0.00  0.00    -0.070 N 
ATOM      3  C1  UNL d   1       1.588  -0.076   2.135  0.00  0.00    -0.004 A 
ATOM      4  C2  UNL d   1       1.488   0.348   3.442  0.00  0.00    -0.047 A 
ATOM      5  C3  UNL d   1       0.217   0.951   3.596  0.00  0.00    -0.047 A 
ATOM      6  C4  UNL d   1      -0.422   0.879   2.376  0.00  0.00    -0.004 A 
ENDROOT
TORSDOF 0
ENDMDL
