MODEL 1
REMARK minimizedAffinity -3.88044643
REMARK minimizedRMSD -1
REMARK  0 active torsions:
REMARK  status: ('A' for Active; 'I' for Inactive)
ROOT
ATOM      1  C   UNL d   1       0.304  -0.859  -1.092  0.00  0.00     0.172 C 
ATOM      2  N   UNL d   1      -0.364  -0.298   0.059  0.00  0.00    -0.070 N 
ATOM      3  C1  UNL d   1      -1.716  -0.128   0.193  0.00  0.00    -0.004 A 
ATOM      4  C2  UNL d   1      -1.950   0.434   1.429  0.00  0.00    -0.047 A 
ATOM      5  C3  UNL d   1      -0.695   0.608   2.060  0.00  0.00    -0.047 A 
ATOM      6  C4  UNL d   1       0.270   0.147   1.189  0.00  0.00    -0.004 A 
ENDROOT
TORSDOF 0
ENDMDL
