MODEL 1
REMARK minimizedAffinity -3.98925304
REMARK minimizedRMSD -1
REMARK  0 active torsions:
REMARK  status: ('A' for Active; 'I' for Inactive)
ROOT
ATOM      1  C   UNL d   1       0.331  -0.500  -0.481  0.00  0.00     0.172 C 
ATOM      2  N   UNL d   1      -0.086   0.237   0.689  0.00  0.00    -0.070 N 
ATOM      3  C1  UNL d   1       0.726   1.007   1.478  0.00  0.00    -0.004 A 
ATOM      4  C2  UNL d   1      -0.048   1.540   2.487  0.00  0.00    -0.047 A 
ATOM      5  C3  UNL d   1      -1.371   1.073   2.297  0.00  0.00    -0.047 A 
ATOM      6  C4  UNL d   1      -1.366   0.269   1.177  0.00  0.00    -0.004 A 
ENDROOT
TORSDOF 0
ENDMDL
