MODEL 1
REMARK minimizedAffinity 6.81627417
REMARK minimizedRMSD -1
REMARK  3 active torsions:
REMARK  status: ('A' for Active; 'I' for Inactive)
REMARK    1  A    between atoms: C3'_2  and  C2'_3 
REMARK    2  A    between atoms: C2'_3  and  C1'_4 
REMARK    3  A    between atoms: C1'_4  and  C1_5 
ROOT
ATOM      1  C1  N4B d   1      -0.401  -0.073   2.516  0.00  0.00    -0.075 A 
ATOM      2  C2  N4B d   1       0.015   0.745   3.590  0.00  0.00     0.002 A 
ATOM      3  C3  N4B d   1       1.275   0.599   4.116  0.00  0.00     0.002 A 
ATOM      4  C4  N4B d   1       2.126  -0.366   3.600  0.00  0.00    -0.004 A 
ATOM      5  C5  N4B d   1       1.727  -1.134   2.546  0.00  0.00     0.002 A 
ATOM      6  C6  N4B d   1       0.465  -0.996   2.004  0.00  0.00     0.002 A 
ENDROOT
BRANCH   1   7
ATOM      7  C1' N4B d   1      -1.798  -0.008   1.963  0.00  0.00     0.057 C 
BRANCH   7   8
ATOM      8  C2' N4B d   1      -2.305  -1.426   1.718  0.00  0.00     0.009 C 
BRANCH   8   9
ATOM      9  C3' N4B d   1      -3.771  -1.578   2.088  0.00  0.00     0.004 C 
ATOM     10  C4' N4B d   1      -4.555  -2.334   1.058  0.00  0.00     0.003 C 
ENDBRANCH   8   9
ENDBRANCH   7   8
ENDBRANCH   1   7
TORSDOF 3
ENDMDL
