MODEL 1
REMARK minimizedAffinity 11.9160461
REMARK minimizedRMSD -1
REMARK  3 active torsions:
REMARK  status: ('A' for Active; 'I' for Inactive)
REMARK    1  A    between atoms: C3'_2  and  C2'_3 
REMARK    2  A    between atoms: C2'_3  and  C1'_4 
REMARK    3  A    between atoms: C1'_4  and  C1_5 
ROOT
ATOM      1  C1  N4B d   1       1.911   0.035   2.884  0.00  0.00    -0.075 A 
ATOM      2  C2  N4B d   1       1.730  -1.264   3.409  0.00  0.00     0.002 A 
ATOM      3  C3  N4B d   1       0.501  -1.872   3.328  0.00  0.00     0.002 A 
ATOM      4  C4  N4B d   1      -0.561  -1.198   2.745  0.00  0.00    -0.004 A 
ATOM      5  C5  N4B d   1      -0.371   0.046   2.217  0.00  0.00     0.002 A 
ATOM      6  C6  N4B d   1       0.859   0.668   2.288  0.00  0.00     0.002 A 
ENDROOT
BRANCH   1   7
ATOM      7  C1' N4B d   1       3.213   0.775   3.026  0.00  0.00     0.057 C 
BRANCH   7   8
ATOM      8  C2' N4B d   1       3.968   0.231   4.235  0.00  0.00     0.009 C 
BRANCH   8   9
ATOM      9  C3' N4B d   1       5.337  -0.305   3.856  0.00  0.00     0.004 C 
ATOM     10  C4' N4B d   1       5.999  -1.053   4.975  0.00  0.00     0.003 C 
ENDBRANCH   8   9
ENDBRANCH   7   8
ENDBRANCH   1   7
TORSDOF 3
ENDMDL
