MODEL 1
REMARK minimizedAffinity 6.59173536
REMARK minimizedRMSD -1
REMARK  3 active torsions:
REMARK  status: ('A' for Active; 'I' for Inactive)
REMARK    1  A    between atoms: C3'_2  and  C2'_3 
REMARK    2  A    between atoms: C2'_3  and  C1'_4 
REMARK    3  A    between atoms: C1'_4  and  C1_5 
ROOT
ATOM      1  C1  N4B d   1      -0.337   0.068   3.010  0.00  0.00    -0.075 A 
ATOM      2  C2  N4B d   1      -0.949   1.326   3.203  0.00  0.00     0.002 A 
ATOM      3  C3  N4B d   1      -2.257   1.517   2.831  0.00  0.00     0.002 A 
ATOM      4  C4  N4B d   1      -2.964   0.476   2.249  0.00  0.00    -0.004 A 
ATOM      5  C5  N4B d   1      -2.374  -0.744   2.090  0.00  0.00     0.002 A 
ATOM      6  C6  N4B d   1      -1.061  -0.952   2.463  0.00  0.00     0.002 A 
ENDROOT
BRANCH   1   7
ATOM      7  C1' N4B d   1       1.116  -0.165   3.322  0.00  0.00     0.057 C 
BRANCH   7   8
ATOM      8  C2' N4B d   1       1.389  -1.666   3.346  0.00  0.00     0.009 C 
BRANCH   8   9
ATOM      9  C3' N4B d   1       0.694  -2.351   4.511  0.00  0.00     0.004 C 
ATOM     10  C4' N4B d   1       1.653  -3.038   5.436  0.00  0.00     0.003 C 
ENDBRANCH   8   9
ENDBRANCH   7   8
ENDBRANCH   1   7
TORSDOF 3
ENDMDL
