MODEL 1
REMARK minimizedAffinity 9.33559132
REMARK minimizedRMSD -1
REMARK  3 active torsions:
REMARK  status: ('A' for Active; 'I' for Inactive)
REMARK    1  A    between atoms: C3'_2  and  C2'_3 
REMARK    2  A    between atoms: C2'_3  and  C1'_4 
REMARK    3  A    between atoms: C1'_4  and  C1_5 
ROOT
ATOM      1  C1  N4B d   1       0.756   0.093   3.584  0.00  0.00    -0.075 A 
ATOM      2  C2  N4B d   1      -0.401   0.895   3.695  0.00  0.00     0.002 A 
ATOM      3  C3  N4B d   1      -0.418   1.959   4.563  0.00  0.00     0.002 A 
ATOM      4  C4  N4B d   1       0.699   2.228   5.341  0.00  0.00    -0.004 A 
ATOM      5  C5  N4B d   1       1.821   1.464   5.209  0.00  0.00     0.002 A 
ATOM      6  C6  N4B d   1       1.854   0.394   4.338  0.00  0.00     0.002 A 
ENDROOT
BRANCH   1   7
ATOM      7  C1' N4B d   1       0.793  -1.132   2.712  0.00  0.00     0.057 C 
BRANCH   7   8
ATOM      8  C2' N4B d   1       0.346  -0.757   1.302  0.00  0.00     0.009 C 
BRANCH   8   9
ATOM      9  C3' N4B d   1       0.912  -1.703   0.257  0.00  0.00     0.004 C 
ATOM     10  C4' N4B d   1      -0.024  -1.922  -0.894  0.00  0.00     0.003 C 
ENDBRANCH   8   9
ENDBRANCH   7   8
ENDBRANCH   1   7
TORSDOF 3
ENDMDL
