MODEL 1
REMARK minimizedAffinity 13.3865213
REMARK minimizedRMSD -1
REMARK  3 active torsions:
REMARK  status: ('A' for Active; 'I' for Inactive)
REMARK    1  A    between atoms: C3'_2  and  C2'_3 
REMARK    2  A    between atoms: C2'_3  and  C1'_4 
REMARK    3  A    between atoms: C1'_4  and  C1_5 
ROOT
ATOM      1  C1  N4B d   1      -0.204  -1.883   2.717  0.00  0.00    -0.075 A 
ATOM      2  C2  N4B d   1      -0.509  -3.114   3.337  0.00  0.00     0.002 A 
ATOM      3  C3  N4B d   1       0.432  -3.743   4.115  0.00  0.00     0.002 A 
ATOM      4  C4  N4B d   1       1.686  -3.172   4.271  0.00  0.00    -0.004 A 
ATOM      5  C5  N4B d   1       1.964  -1.969   3.690  0.00  0.00     0.002 A 
ATOM      6  C6  N4B d   1       1.027  -1.324   2.908  0.00  0.00     0.002 A 
ENDROOT
BRANCH   1   7
ATOM      7  C1' N4B d   1      -1.170  -1.200   1.788  0.00  0.00     0.057 C 
BRANCH   7   8
ATOM      8  C2' N4B d   1      -2.242  -2.198   1.360  0.00  0.00     0.009 C 
BRANCH   8   9
ATOM      9  C3' N4B d   1      -3.486  -2.101   2.226  0.00  0.00     0.004 C 
ATOM     10  C4' N4B d   1      -3.777  -0.699   2.671  0.00  0.00     0.003 C 
ENDBRANCH   8   9
ENDBRANCH   7   8
ENDBRANCH   1   7
TORSDOF 3
ENDMDL
