MODEL 1
REMARK minimizedAffinity 15.2861576
REMARK minimizedRMSD -1
REMARK  3 active torsions:
REMARK  status: ('A' for Active; 'I' for Inactive)
REMARK    1  A    between atoms: C3'_2  and  C2'_3 
REMARK    2  A    between atoms: C2'_3  and  C1'_4 
REMARK    3  A    between atoms: C1'_4  and  C1_5 
ROOT
ATOM      1  C1  N4B d   1      -0.423  -3.245  -5.691  0.00  0.00    -0.075 A 
ATOM      2  C2  N4B d   1      -1.638  -3.965  -5.662  0.00  0.00     0.002 A 
ATOM      3  C3  N4B d   1      -1.630  -5.331  -5.805  0.00  0.00     0.002 A 
ATOM      4  C4  N4B d   1      -0.427  -5.994  -5.996  0.00  0.00    -0.004 A 
ATOM      5  C5  N4B d   1       0.744  -5.294  -5.998  0.00  0.00     0.002 A 
ATOM      6  C6  N4B d   1       0.752  -3.921  -5.851  0.00  0.00     0.002 A 
ENDROOT
BRANCH   1   7
ATOM      7  C1' N4B d   1      -0.388  -1.743  -5.625  0.00  0.00     0.057 C 
BRANCH   7   8
ATOM      8  C2' N4B d   1       0.329  -1.314  -4.349  0.00  0.00     0.009 C 
BRANCH   8   9
ATOM      9  C3' N4B d   1      -0.646  -1.011  -3.224  0.00  0.00     0.004 C 
ATOM     10  C4' N4B d   1      -0.877  -2.188  -2.323  0.00  0.00     0.003 C 
ENDBRANCH   8   9
ENDBRANCH   7   8
ENDBRANCH   1   7
TORSDOF 3
ENDMDL
