MODEL 1
REMARK minimizedAffinity 10.1602306
REMARK minimizedRMSD -1
REMARK  3 active torsions:
REMARK  status: ('A' for Active; 'I' for Inactive)
REMARK    1  A    between atoms: C3'_2  and  C2'_3 
REMARK    2  A    between atoms: C2'_3  and  C1'_4 
REMARK    3  A    between atoms: C1'_4  and  C1_5 
ROOT
ATOM      1  C1  N4B d   1      -0.173  -0.776   2.463  0.00  0.00    -0.075 A 
ATOM      2  C2  N4B d   1      -1.390  -1.277   1.950  0.00  0.00     0.002 A 
ATOM      3  C3  N4B d   1      -2.492  -0.461   1.876  0.00  0.00     0.002 A 
ATOM      4  C4  N4B d   1      -2.407   0.848   2.324  0.00  0.00    -0.004 A 
ATOM      5  C5  N4B d   1      -1.222   1.333   2.794  0.00  0.00     0.002 A 
ATOM      6  C6  N4B d   1      -0.105   0.525   2.871  0.00  0.00     0.002 A 
ENDROOT
BRANCH   1   7
ATOM      7  C1' N4B d   1       1.035  -1.654   2.644  0.00  0.00     0.057 C 
BRANCH   7   8
ATOM      8  C2' N4B d   1       1.264  -1.889   4.134  0.00  0.00     0.009 C 
BRANCH   8   9
ATOM      9  C3' N4B d   1       0.705  -3.225   4.591  0.00  0.00     0.004 C 
ATOM     10  C4' N4B d   1       1.522  -3.856   5.679  0.00  0.00     0.003 C 
ENDBRANCH   8   9
ENDBRANCH   7   8
ENDBRANCH   1   7
TORSDOF 3
ENDMDL
