MODEL 1
REMARK minimizedAffinity 16.7348633
REMARK minimizedRMSD -1
REMARK  0 active torsions:
REMARK  status: ('A' for Active; 'I' for Inactive)
ROOT
ATOM      1  C   UNL d   1      -4.878  -1.324  -4.189  0.00  0.00    -0.002 A 
ATOM      2  C1  UNL d   1      -3.639  -1.430  -4.807  0.00  0.00     0.010 A 
ATOM      3  C2  UNL d   1      -3.217  -2.646  -5.348  0.00  0.00     0.041 A 
ATOM      4  C3  UNL d   1      -4.069  -3.764  -5.258  0.00  0.00    -0.075 A 
ATOM      5  S   UNL d   1      -3.762  -5.354  -5.850  0.00  0.00     0.015 SA
ATOM      6  C4  UNL d   1      -5.268  -5.930  -5.298  0.00  0.00     0.022 A 
ATOM      7  C5  UNL d   1      -5.999  -4.947  -4.674  0.00  0.00     0.026 A 
ATOM      8  C6  UNL d   1      -5.321  -3.682  -4.642  0.00  0.00    -0.082 A 
ATOM      9  C7  UNL d   1      -5.720  -2.436  -4.103  0.00  0.00     0.045 A 
ENDROOT
TORSDOF 0
ENDMDL
