MODEL 1
REMARK minimizedAffinity 17.1421223
REMARK minimizedRMSD -1
REMARK  0 active torsions:
REMARK  status: ('A' for Active; 'I' for Inactive)
ROOT
ATOM      1  C   UNL d   1      -3.478   1.533  -3.473  0.00  0.00    -0.002 A 
ATOM      2  C1  UNL d   1      -4.718   1.684  -2.869  0.00  0.00     0.010 A 
ATOM      3  C2  UNL d   1      -4.815   1.901  -1.493  0.00  0.00     0.041 A 
ATOM      4  C3  UNL d   1      -3.634   1.967  -0.728  0.00  0.00    -0.075 A 
ATOM      5  S   UNL d   1      -3.510   2.225   0.973  0.00  0.00     0.015 SA
ATOM      6  C4  UNL d   1      -1.808   2.142   0.936  0.00  0.00     0.022 A 
ATOM      7  C5  UNL d   1      -1.329   1.923  -0.334  0.00  0.00     0.026 A 
ATOM      8  C6  UNL d   1      -2.374   1.819  -1.314  0.00  0.00    -0.082 A 
ATOM      9  C7  UNL d   1      -2.308   1.599  -2.711  0.00  0.00     0.045 A 
ENDROOT
TORSDOF 0
ENDMDL
