MODEL 1
REMARK minimizedAffinity 7.42903185
REMARK minimizedRMSD -1
REMARK  0 active torsions:
REMARK  status: ('A' for Active; 'I' for Inactive)
ROOT
ATOM      1  C   UNL d   1       5.159   0.821  -5.989  0.00  0.00    -0.002 A 
ATOM      2  C1  UNL d   1       6.000  -0.283  -6.000  0.00  0.00     0.010 A 
ATOM      3  C2  UNL d   1       5.635  -1.460  -5.345  0.00  0.00     0.041 A 
ATOM      4  C3  UNL d   1       4.397  -1.511  -4.674  0.00  0.00    -0.075 A 
ATOM      5  S   UNL d   1       3.740  -2.847  -3.804  0.00  0.00     0.015 SA
ATOM      6  C4  UNL d   1       2.327  -1.984  -3.399  0.00  0.00     0.022 A 
ATOM      7  C5  UNL d   1       2.340  -0.707  -3.906  0.00  0.00     0.026 A 
ATOM      8  C6  UNL d   1       3.533  -0.413  -4.650  0.00  0.00    -0.082 A 
ATOM      9  C7  UNL d   1       3.932   0.767  -5.322  0.00  0.00     0.045 A 
ENDROOT
TORSDOF 0
ENDMDL
