MODEL 1
REMARK minimizedAffinity 14.1678152
REMARK minimizedRMSD -1
REMARK  0 active torsions:
REMARK  status: ('A' for Active; 'I' for Inactive)
ROOT
ATOM      1  C   UNL d   1       2.185  -1.569   1.549  0.00  0.00    -0.002 A 
ATOM      2  C1  UNL d   1       1.131  -1.990   2.348  0.00  0.00     0.010 A 
ATOM      3  C2  UNL d   1       1.354  -2.862   3.415  0.00  0.00     0.041 A 
ATOM      4  C3  UNL d   1       2.666  -3.307   3.669  0.00  0.00    -0.075 A 
ATOM      5  S   UNL d   1       3.177  -4.377   4.921  0.00  0.00     0.015 SA
ATOM      6  C4  UNL d   1       4.805  -4.300   4.426  0.00  0.00     0.022 A 
ATOM      7  C5  UNL d   1       4.974  -3.483   3.333  0.00  0.00     0.026 A 
ATOM      8  C6  UNL d   1       3.744  -2.897   2.879  0.00  0.00    -0.082 A 
ATOM      9  C7  UNL d   1       3.485  -2.013   1.804  0.00  0.00     0.045 A 
ENDROOT
TORSDOF 0
ENDMDL
