MODEL 1
REMARK minimizedAffinity 8.85325336
REMARK minimizedRMSD -1
REMARK  0 active torsions:
REMARK  status: ('A' for Active; 'I' for Inactive)
ROOT
ATOM      1  C   UNL d   1       2.584  -0.658  -2.605  0.00  0.00    -0.002 A 
ATOM      2  C1  UNL d   1       3.099  -1.934  -2.423  0.00  0.00     0.010 A 
ATOM      3  C2  UNL d   1       4.158  -2.391  -3.210  0.00  0.00     0.041 A 
ATOM      4  C3  UNL d   1       4.697  -1.536  -4.191  0.00  0.00    -0.075 A 
ATOM      5  S   UNL d   1       5.996  -1.881  -5.271  0.00  0.00     0.015 SA
ATOM      6  C4  UNL d   1       5.898  -0.344  -5.999  0.00  0.00     0.022 A 
ATOM      7  C5  UNL d   1       4.904   0.427  -5.445  0.00  0.00     0.026 A 
ATOM      8  C6  UNL d   1       4.195  -0.247  -4.393  0.00  0.00    -0.082 A 
ATOM      9  C7  UNL d   1       3.121   0.187  -3.580  0.00  0.00     0.045 A 
ENDROOT
TORSDOF 0
ENDMDL
