MODEL 1
REMARK minimizedAffinity 4.44732714
REMARK minimizedRMSD -1
REMARK  0 active torsions:
REMARK  status: ('A' for Active; 'I' for Inactive)
ROOT
ATOM      1  C   UNL d   1       5.612  -2.458   3.807  0.00  0.00    -0.002 A 
ATOM      2  C1  UNL d   1       4.993  -2.698   5.026  0.00  0.00     0.010 A 
ATOM      3  C2  UNL d   1       3.605  -2.611   5.148  0.00  0.00     0.041 A 
ATOM      4  C3  UNL d   1       2.841  -2.277   4.012  0.00  0.00    -0.075 A 
ATOM      5  S   UNL d   1       1.127  -2.113   3.924  0.00  0.00     0.015 SA
ATOM      6  C4  UNL d   1       1.175  -1.722   2.266  0.00  0.00     0.022 A 
ATOM      7  C5  UNL d   1       2.459  -1.711   1.776  0.00  0.00     0.026 A 
ATOM      8  C6  UNL d   1       3.441  -2.032   2.774  0.00  0.00    -0.082 A 
ATOM      9  C7  UNL d   1       4.850  -2.127   2.683  0.00  0.00     0.045 A 
ENDROOT
TORSDOF 0
ENDMDL
