MODEL 1
REMARK minimizedAffinity -3.40459919
REMARK minimizedRMSD -1
REMARK  0 active torsions:
REMARK  status: ('A' for Active; 'I' for Inactive)
ROOT
ATOM      1  N1  IND d   1      -4.403  -0.961  -5.431  0.00  0.00    -0.196 N 
ATOM      2  C2  IND d   1      -5.313  -0.763  -4.430  0.00  0.00     0.054 A 
ATOM      3  C3  IND d   1      -5.307  -1.810  -3.574  0.00  0.00    -0.031 A 
ATOM      4  C4  IND d   1      -3.817  -3.909  -3.569  0.00  0.00     0.051 A 
ATOM      5  C5  IND d   1      -2.861  -4.553  -4.303  0.00  0.00    -0.031 A 
ATOM      6  C6  IND d   1      -2.359  -4.021  -5.473  0.00  0.00     0.015 A 
ATOM      7  C7  IND d   1      -2.787  -2.814  -5.948  0.00  0.00    -0.016 A 
ATOM      8  C8  IND d   1      -3.762  -2.160  -5.209  0.00  0.00    -0.047 A 
ATOM      9  C9  IND d   1      -4.307  -2.715  -4.044  0.00  0.00    -0.096 A 
ATOM     10  HN1 IND d   1      -4.257  -0.427  -6.089  0.00  0.00     0.298 HD
ENDROOT
TORSDOF 0
ENDMDL
