MODEL 1
REMARK minimizedAffinity -2.32869649
REMARK minimizedRMSD -1
REMARK  0 active torsions:
REMARK  status: ('A' for Active; 'I' for Inactive)
ROOT
ATOM      1  N1  IND d   1      -5.430  -3.060  -3.373  0.00  0.00    -0.196 N 
ATOM      2  C2  IND d   1      -5.994  -2.248  -4.317  0.00  0.00     0.054 A 
ATOM      3  C3  IND d   1      -5.249  -2.249  -5.445  0.00  0.00    -0.031 A 
ATOM      4  C4  IND d   1      -3.122  -3.590  -5.999  0.00  0.00     0.051 A 
ATOM      5  C5  IND d   1      -2.208  -4.439  -5.441  0.00  0.00    -0.031 A 
ATOM      6  C6  IND d   1      -2.325  -4.884  -4.140  0.00  0.00     0.015 A 
ATOM      7  C7  IND d   1      -3.372  -4.502  -3.348  0.00  0.00    -0.016 A 
ATOM      8  C8  IND d   1      -4.298  -3.634  -3.909  0.00  0.00    -0.047 A 
ATOM      9  C9  IND d   1      -4.161  -3.146  -5.215  0.00  0.00    -0.096 A 
ATOM     10  HN1 IND d   1      -5.731  -3.191  -2.579  0.00  0.00     0.298 HD
ENDROOT
TORSDOF 0
ENDMDL
