MODEL 1
REMARK minimizedAffinity -4.40501928
REMARK minimizedRMSD -1
REMARK  0 active torsions:
REMARK  status: ('A' for Active; 'I' for Inactive)
ROOT
ATOM      1  N1  IND d   1      -3.684  -6.000  -3.550  0.00  0.00    -0.196 N 
ATOM      2  C2  IND d   1      -2.379  -5.612  -3.421  0.00  0.00     0.054 A 
ATOM      3  C3  IND d   1      -2.150  -4.488  -4.135  0.00  0.00    -0.031 A 
ATOM      4  C4  IND d   1      -3.794  -3.057  -5.506  0.00  0.00     0.051 A 
ATOM      5  C5  IND d   1      -5.086  -3.027  -5.948  0.00  0.00    -0.031 A 
ATOM      6  C6  IND d   1      -5.997  -4.006  -5.605  0.00  0.00     0.015 A 
ATOM      7  C7  IND d   1      -5.650  -5.048  -4.793  0.00  0.00    -0.016 A 
ATOM      8  C8  IND d   1      -4.336  -5.085  -4.347  0.00  0.00    -0.047 A 
ATOM      9  C9  IND d   1      -3.397  -4.118  -4.727  0.00  0.00    -0.096 A 
ATOM     10  HN1 IND d   1      -4.038  -6.697  -3.192  0.00  0.00     0.298 HD
ENDROOT
TORSDOF 0
ENDMDL
