MODEL 1
REMARK minimizedAffinity -2.81462789
REMARK minimizedRMSD -1
REMARK  0 active torsions:
REMARK  status: ('A' for Active; 'I' for Inactive)
ROOT
ATOM      1  N1  IND d   1      -2.137  -3.804  -6.000  0.00  0.00    -0.196 N 
ATOM      2  C2  IND d   1      -1.449  -4.974  -5.835  0.00  0.00     0.054 A 
ATOM      3  C3  IND d   1      -2.306  -5.998  -5.624  0.00  0.00    -0.031 A 
ATOM      4  C4  IND d   1      -4.880  -6.000  -5.608  0.00  0.00     0.051 A 
ATOM      5  C5  IND d   1      -5.958  -5.163  -5.676  0.00  0.00    -0.031 A 
ATOM      6  C6  IND d   1      -5.815  -3.803  -5.862  0.00  0.00     0.015 A 
ATOM      7  C7  IND d   1      -4.583  -3.229  -5.999  0.00  0.00    -0.016 A 
ATOM      8  C8  IND d   1      -3.486  -4.075  -5.923  0.00  0.00    -0.047 A 
ATOM      9  C9  IND d   1      -3.623  -5.449  -5.692  0.00  0.00    -0.096 A 
ATOM     10  HN1 IND d   1      -1.787  -3.030  -6.129  0.00  0.00     0.298 HD
ENDROOT
TORSDOF 0
ENDMDL
