MODEL 1
REMARK minimizedAffinity 0.692148387
REMARK minimizedRMSD -1
REMARK  0 active torsions:
REMARK  status: ('A' for Active; 'I' for Inactive)
ROOT
ATOM      1  N1  IND d   1      -2.500  -5.383  -3.820  0.00  0.00    -0.196 N 
ATOM      2  C2  IND d   1      -2.135  -6.000  -4.984  0.00  0.00     0.054 A 
ATOM      3  C3  IND d   1      -2.932  -5.598  -6.000  0.00  0.00    -0.031 A 
ATOM      4  C4  IND d   1      -4.832  -3.861  -5.999  0.00  0.00     0.051 A 
ATOM      5  C5  IND d   1      -5.556  -3.057  -5.164  0.00  0.00    -0.031 A 
ATOM      6  C6  IND d   1      -5.292  -2.985  -3.811  0.00  0.00     0.015 A 
ATOM      7  C7  IND d   1      -4.282  -3.707  -3.243  0.00  0.00    -0.016 A 
ATOM      8  C8  IND d   1      -3.548  -4.529  -4.087  0.00  0.00    -0.047 A 
ATOM      9  C9  IND d   1      -3.839  -4.639  -5.453  0.00  0.00    -0.096 A 
ATOM     10  HN1 IND d   1      -2.136  -5.507  -3.051  0.00  0.00     0.298 HD
ENDROOT
TORSDOF 0
ENDMDL
