MODEL 1
REMARK minimizedAffinity 0.28561759
REMARK minimizedRMSD -1
REMARK  0 active torsions:
REMARK  status: ('A' for Active; 'I' for Inactive)
ROOT
ATOM      1  N1  IND d   1      -2.185  -3.772  -5.733  0.00  0.00    -0.196 N 
ATOM      2  C2  IND d   1      -1.499  -4.936  -5.940  0.00  0.00     0.054 A 
ATOM      3  C3  IND d   1      -2.354  -5.982  -5.999  0.00  0.00    -0.031 A 
ATOM      4  C4  IND d   1      -4.925  -6.000  -5.884  0.00  0.00     0.051 A 
ATOM      5  C5  IND d   1      -6.000  -5.184  -5.665  0.00  0.00    -0.031 A 
ATOM      6  C6  IND d   1      -5.855  -3.828  -5.457  0.00  0.00     0.015 A 
ATOM      7  C7  IND d   1      -4.625  -3.232  -5.470  0.00  0.00    -0.016 A 
ATOM      8  C8  IND d   1      -3.531  -4.059  -5.685  0.00  0.00    -0.047 A 
ATOM      9  C9  IND d   1      -3.669  -5.443  -5.855  0.00  0.00    -0.096 A 
ATOM     10  HN1 IND d   1      -1.834  -2.991  -5.648  0.00  0.00     0.298 HD
ENDROOT
TORSDOF 0
ENDMDL
