MODEL 1
REMARK minimizedAffinity -3.95421696
REMARK minimizedRMSD -1
REMARK  0 active torsions:
REMARK  status: ('A' for Active; 'I' for Inactive)
ROOT
ATOM      1  N1  IND d   1      -4.913  -2.882  -6.000  0.00  0.00    -0.196 N 
ATOM      2  C2  IND d   1      -6.000  -2.882  -5.171  0.00  0.00     0.054 A 
ATOM      3  C3  IND d   1      -5.823  -3.766  -4.164  0.00  0.00    -0.031 A 
ATOM      4  C4  IND d   1      -3.785  -5.244  -3.623  0.00  0.00     0.051 A 
ATOM      5  C5  IND d   1      -2.565  -5.616  -4.113  0.00  0.00    -0.031 A 
ATOM      6  C6  IND d   1      -2.053  -5.083  -5.278  0.00  0.00     0.015 A 
ATOM      7  C7  IND d   1      -2.741  -4.146  -5.995  0.00  0.00    -0.016 A 
ATOM      8  C8  IND d   1      -3.984  -3.770  -5.505  0.00  0.00    -0.047 A 
ATOM      9  C9  IND d   1      -4.527  -4.339  -4.345  0.00  0.00    -0.096 A 
ATOM     10  HN1 IND d   1      -4.824  -2.406  -6.711  0.00  0.00     0.298 HD
ENDROOT
TORSDOF 0
ENDMDL
