MODEL 1
REMARK minimizedAffinity -3.10813522
REMARK minimizedRMSD -1
REMARK  0 active torsions:
REMARK  status: ('A' for Active; 'I' for Inactive)
ROOT
ATOM      1  N1  IND d   1      -2.065  -4.493  -4.669  0.00  0.00    -0.196 N 
ATOM      2  C2  IND d   1      -1.885  -5.632  -5.403  0.00  0.00     0.054 A 
ATOM      3  C3  IND d   1      -3.044  -6.000  -5.993  0.00  0.00    -0.031 A 
ATOM      4  C4  IND d   1      -5.335  -4.825  -5.971  0.00  0.00     0.051 A 
ATOM      5  C5  IND d   1      -6.000  -3.772  -5.409  0.00  0.00    -0.031 A 
ATOM      6  C6  IND d   1      -5.374  -2.886  -4.556  0.00  0.00     0.015 A 
ATOM      7  C7  IND d   1      -4.051  -3.014  -4.241  0.00  0.00    -0.016 A 
ATOM      8  C8  IND d   1      -3.374  -4.086  -4.805  0.00  0.00    -0.047 A 
ATOM      9  C9  IND d   1      -4.014  -5.013  -5.638  0.00  0.00    -0.096 A 
ATOM     10  HN1 IND d   1      -1.462  -4.097  -4.200  0.00  0.00     0.298 HD
ENDROOT
TORSDOF 0
ENDMDL
