MODEL 1
REMARK minimizedAffinity -4.26772308
REMARK minimizedRMSD -1
REMARK  0 active torsions:
REMARK  status: ('A' for Active; 'I' for Inactive)
ROOT
ATOM      1  N1  IND d   1      -4.214  -6.000  -4.405  0.00  0.00    -0.196 N 
ATOM      2  C2  IND d   1      -2.982  -5.954  -4.995  0.00  0.00     0.054 A 
ATOM      3  C3  IND d   1      -2.616  -4.672  -5.219  0.00  0.00    -0.031 A 
ATOM      4  C4  IND d   1      -3.837  -2.491  -4.605  0.00  0.00     0.051 A 
ATOM      5  C5  IND d   1      -5.012  -2.023  -4.086  0.00  0.00    -0.031 A 
ATOM      6  C6  IND d   1      -6.000  -2.875  -3.636  0.00  0.00     0.015 A 
ATOM      7  C7  IND d   1      -5.844  -4.231  -3.677  0.00  0.00    -0.016 A 
ATOM      8  C8  IND d   1      -4.655  -4.710  -4.210  0.00  0.00    -0.047 A 
ATOM      9  C9  IND d   1      -3.667  -3.851  -4.708  0.00  0.00    -0.096 A 
ATOM     10  HN1 IND d   1      -4.642  -6.715  -4.192  0.00  0.00     0.298 HD
ENDROOT
TORSDOF 0
ENDMDL
