MODEL 1
REMARK minimizedAffinity -2.84751534
REMARK minimizedRMSD -1
REMARK  0 active torsions:
REMARK  status: ('A' for Active; 'I' for Inactive)
ROOT
ATOM      1  N1  IND d   1      -1.830  -6.000  -5.988  0.00  0.00    -0.196 N 
ATOM      2  C2  IND d   1      -0.788  -5.509  -5.251  0.00  0.00     0.054 A 
ATOM      3  C3  IND d   1      -1.231  -4.587  -4.367  0.00  0.00    -0.031 A 
ATOM      4  C4  IND d   1      -3.635  -3.802  -3.888  0.00  0.00     0.051 A 
ATOM      5  C5  IND d   1      -4.921  -3.937  -4.331  0.00  0.00    -0.031 A 
ATOM      6  C6  IND d   1      -5.249  -4.786  -5.369  0.00  0.00     0.015 A 
ATOM      7  C7  IND d   1      -4.301  -5.543  -5.997  0.00  0.00    -0.016 A 
ATOM      8  C8  IND d   1      -2.993  -5.403  -5.554  0.00  0.00    -0.047 A 
ATOM      9  C9  IND d   1      -2.648  -4.512  -4.530  0.00  0.00    -0.096 A 
ATOM     10  HN1 IND d   1      -1.769  -6.583  -6.617  0.00  0.00     0.298 HD
ENDROOT
TORSDOF 0
ENDMDL
