MODEL 1
REMARK minimizedAffinity -2.9382894
REMARK minimizedRMSD -1
REMARK  0 active torsions:
REMARK  status: ('A' for Active; 'I' for Inactive)
ROOT
ATOM      1  N1  IND d   1      -3.133  -5.998  -6.000  0.00  0.00    -0.196 N 
ATOM      2  C2  IND d   1      -1.880  -5.669  -5.563  0.00  0.00     0.054 A 
ATOM      3  C3  IND d   1      -1.916  -4.521  -4.851  0.00  0.00    -0.031 A 
ATOM      4  C4  IND d   1      -3.937  -3.069  -4.191  0.00  0.00     0.051 A 
ATOM      5  C5  IND d   1      -5.284  -2.945  -4.387  0.00  0.00    -0.031 A 
ATOM      6  C6  IND d   1      -5.998  -3.852  -5.144  0.00  0.00     0.015 A 
ATOM      7  C7  IND d   1      -5.390  -4.928  -5.726  0.00  0.00    -0.016 A 
ATOM      8  C8  IND d   1      -4.021  -5.054  -5.535  0.00  0.00    -0.047 A 
ATOM      9  C9  IND d   1      -3.285  -4.113  -4.803  0.00  0.00    -0.096 A 
ATOM     10  HN1 IND d   1      -3.333  -6.681  -6.483  0.00  0.00     0.298 HD
ENDROOT
TORSDOF 0
ENDMDL
