MODEL 1
REMARK minimizedAffinity -3.77604771
REMARK minimizedRMSD -1
REMARK  0 active torsions:
REMARK  status: ('A' for Active; 'I' for Inactive)
ROOT
ATOM      1  N1  IND d   1      -5.072  -1.545  -5.833  0.00  0.00    -0.196 N 
ATOM      2  C2  IND d   1      -6.000  -1.189  -4.895  0.00  0.00     0.054 A 
ATOM      3  C3  IND d   1      -5.999  -2.073  -3.873  0.00  0.00    -0.031 A 
ATOM      4  C4  IND d   1      -4.488  -4.121  -3.483  0.00  0.00     0.051 A 
ATOM      5  C5  IND d   1      -3.513  -4.870  -4.080  0.00  0.00    -0.031 A 
ATOM      6  C6  IND d   1      -2.996  -4.540  -5.316  0.00  0.00     0.015 A 
ATOM      7  C7  IND d   1      -3.428  -3.439  -5.999  0.00  0.00    -0.016 A 
ATOM      8  C8  IND d   1      -4.422  -2.680  -5.398  0.00  0.00    -0.047 A 
ATOM      9  C9  IND d   1      -4.982  -3.033  -4.163  0.00  0.00    -0.096 A 
ATOM     10  HN1 IND d   1      -4.919  -1.130  -6.571  0.00  0.00     0.298 HD
ENDROOT
TORSDOF 0
ENDMDL
