MODEL 1
REMARK minimizedAffinity -6.78155231
REMARK minimizedRMSD -1
REMARK  2 active torsions:
REMARK  status: ('A' for Active; 'I' for Inactive)
REMARK    1  A    between atoms: C2'_3  and  C1'_4 
REMARK    2  A    between atoms: C1'_4  and  C1_5 
ROOT
ATOM      1  C1  I4B d   1       0.233   0.038  -0.125  0.00  0.00    -0.075 A 
ATOM      2  C2  I4B d   1       0.106  -0.596   1.086  0.00  0.00     0.003 A 
ATOM      3  C3  I4B d   1      -0.761  -0.073   2.076  0.00  0.00     0.002 A 
ATOM      4  C4  I4B d   1      -1.439   1.104   1.833  0.00  0.00    -0.004 A 
ATOM      5  C5  I4B d   1      -1.326   1.732   0.596  0.00  0.00     0.002 A 
ATOM      6  C6  I4B d   1      -0.495   1.189  -0.394  0.00  0.00     0.003 A 
ENDROOT
BRANCH   1   7
ATOM      7  C1' I4B d   1       1.183  -0.523  -1.136  0.00  0.00     0.060 C 
BRANCH   7   8
ATOM      8  C2' I4B d   1       0.684  -1.898  -1.532  0.00  0.00    -0.013 C 
ATOM      9  C4' I4B d   1      -0.010  -1.862  -2.868  0.00  0.00     0.013 C 
ATOM     10  C3' I4B d   1       1.861  -2.827  -1.558  0.00  0.00     0.013 C 
ENDBRANCH   7   8
ENDBRANCH   1   7
TORSDOF 2
ENDMDL
