MODEL 1
REMARK minimizedAffinity -4.91147852
REMARK minimizedRMSD -1
REMARK  2 active torsions:
REMARK  status: ('A' for Active; 'I' for Inactive)
REMARK    1  A    between atoms: C2'_3  and  C1'_4 
REMARK    2  A    between atoms: C1'_4  and  C1_5 
ROOT
ATOM      1  C1  I4B d   1       0.282  -0.342   0.122  0.00  0.00    -0.075 A 
ATOM      2  C2  I4B d   1      -0.313   0.879  -0.072  0.00  0.00     0.003 A 
ATOM      3  C3  I4B d   1      -1.252   1.371   0.867  0.00  0.00     0.002 A 
ATOM      4  C4  I4B d   1      -1.601   0.592   1.951  0.00  0.00    -0.004 A 
ATOM      5  C5  I4B d   1      -0.980  -0.636   2.158  0.00  0.00     0.002 A 
ATOM      6  C6  I4B d   1      -0.023  -1.101   1.244  0.00  0.00     0.003 A 
ENDROOT
BRANCH   1   7
ATOM      7  C1' I4B d   1       1.244  -0.846  -0.907  0.00  0.00     0.060 C 
BRANCH   7   8
ATOM      8  C2' I4B d   1       0.823  -2.250  -1.292  0.00  0.00    -0.013 C 
ATOM      9  C4' I4B d   1       0.194  -2.274  -2.660  0.00  0.00     0.013 C 
ATOM     10  C3' I4B d   1       2.037  -3.128  -1.240  0.00  0.00     0.013 C 
ENDBRANCH   7   8
ENDBRANCH   1   7
TORSDOF 2
ENDMDL
