MODEL 1
REMARK minimizedAffinity -4.7902751
REMARK minimizedRMSD -1
REMARK  2 active torsions:
REMARK  status: ('A' for Active; 'I' for Inactive)
REMARK    1  A    between atoms: C2'_3  and  C1'_4 
REMARK    2  A    between atoms: C1'_4  and  C1_5 
ROOT
ATOM      1  C1  I4B d   1      -0.876   0.382   0.516  0.00  0.00    -0.075 A 
ATOM      2  C2  I4B d   1      -0.938   1.408   1.424  0.00  0.00     0.003 A 
ATOM      3  C3  I4B d   1      -2.057   2.276   1.444  0.00  0.00     0.002 A 
ATOM      4  C4  I4B d   1      -3.059   2.113   0.510  0.00  0.00    -0.004 A 
ATOM      5  C5  I4B d   1      -3.005   1.058  -0.396  0.00  0.00     0.002 A 
ATOM      6  C6  I4B d   1      -1.913   0.179  -0.386  0.00  0.00     0.003 A 
ENDROOT
BRANCH   1   7
ATOM      7  C1' I4B d   1       0.336  -0.496   0.502  0.00  0.00     0.060 C 
BRANCH   7   8
ATOM      8  C2' I4B d   1       0.753  -0.693  -0.941  0.00  0.00    -0.013 C 
ATOM      9  C4' I4B d   1       1.631   0.436  -1.414  0.00  0.00     0.013 C 
ATOM     10  C3' I4B d   1       1.462  -2.010  -1.043  0.00  0.00     0.013 C 
ENDBRANCH   7   8
ENDBRANCH   1   7
TORSDOF 2
ENDMDL
