MODEL 1
REMARK minimizedAffinity -3.93836164
REMARK minimizedRMSD -1
REMARK  2 active torsions:
REMARK  status: ('A' for Active; 'I' for Inactive)
REMARK    1  A    between atoms: C2'_3  and  C1'_4 
REMARK    2  A    between atoms: C1'_4  and  C1_5 
ROOT
ATOM      1  C1  I4B d   1       0.081  -0.158  -0.467  0.00  0.00    -0.075 A 
ATOM      2  C2  I4B d   1      -0.227   1.123  -0.851  0.00  0.00     0.003 A 
ATOM      3  C3  I4B d   1      -1.070   1.926  -0.045  0.00  0.00     0.002 A 
ATOM      4  C4  I4B d   1      -1.619   1.394   1.104  0.00  0.00    -0.004 A 
ATOM      5  C5  I4B d   1      -1.287   0.103   1.504  0.00  0.00     0.002 A 
ATOM      6  C6  I4B d   1      -0.421  -0.674   0.720  0.00  0.00     0.003 A 
ENDROOT
BRANCH   1   7
ATOM      7  C1' I4B d   1       0.948  -0.989  -1.359  0.00  0.00     0.060 C 
BRANCH   7   8
ATOM      8  C2' I4B d   1       0.223  -2.291  -1.633  0.00  0.00    -0.013 C 
ATOM      9  C4' I4B d   1      -0.521  -2.235  -2.941  0.00  0.00     0.013 C 
ATOM     10  C3' I4B d   1       1.238  -3.394  -1.634  0.00  0.00     0.013 C 
ENDBRANCH   7   8
ENDBRANCH   1   7
TORSDOF 2
ENDMDL
