MODEL 1
REMARK minimizedAffinity -0.0995943248
REMARK minimizedRMSD -1
REMARK  2 active torsions:
REMARK  status: ('A' for Active; 'I' for Inactive)
REMARK    1  A    between atoms: C2'_3  and  C1'_4 
REMARK    2  A    between atoms: C1'_4  and  C1_5 
ROOT
ATOM      1  C1  I4B d   1       0.713  -0.777  -0.582  0.00  0.00    -0.075 A 
ATOM      2  C2  I4B d   1       0.743   0.309  -1.422  0.00  0.00     0.003 A 
ATOM      3  C3  I4B d   1       0.107   1.517  -1.048  0.00  0.00     0.002 A 
ATOM      4  C4  I4B d   1      -0.586   1.580   0.144  0.00  0.00    -0.004 A 
ATOM      5  C5  I4B d   1      -0.596   0.485   1.004  0.00  0.00     0.002 A 
ATOM      6  C6  I4B d   1       0.068  -0.697   0.645  0.00  0.00     0.003 A 
ENDROOT
BRANCH   1   7
ATOM      7  C1' I4B d   1       1.367  -2.048  -1.024  0.00  0.00     0.060 C 
BRANCH   7   8
ATOM      8  C2' I4B d   1       0.301  -2.933  -1.636  0.00  0.00    -0.013 C 
ATOM      9  C4' I4B d   1       0.316  -2.845  -3.139  0.00  0.00     0.013 C 
ATOM     10  C3' I4B d   1       0.546  -4.339  -1.174  0.00  0.00     0.013 C 
ENDBRANCH   7   8
ENDBRANCH   1   7
TORSDOF 2
ENDMDL
