MODEL 1
REMARK minimizedAffinity -1.27389193
REMARK minimizedRMSD -1
REMARK  2 active torsions:
REMARK  status: ('A' for Active; 'I' for Inactive)
REMARK    1  A    between atoms: C2'_3  and  C1'_4 
REMARK    2  A    between atoms: C1'_4  and  C1_5 
ROOT
ATOM      1  C1  I4B d   1       1.053  -1.343  -0.791  0.00  0.00    -0.075 A 
ATOM      2  C2  I4B d   1       1.047  -0.317  -1.702  0.00  0.00     0.003 A 
ATOM      3  C3  I4B d   1       0.474   0.933  -1.365  0.00  0.00     0.002 A 
ATOM      4  C4  I4B d   1      -0.122   1.097  -0.131  0.00  0.00    -0.004 A 
ATOM      5  C5  I4B d   1      -0.095   0.063   0.800  0.00  0.00     0.002 A 
ATOM      6  C6  I4B d   1       0.508  -1.161   0.473  0.00  0.00     0.003 A 
ENDROOT
BRANCH   1   7
ATOM      7  C1' I4B d   1       1.637  -2.660  -1.192  0.00  0.00     0.060 C 
BRANCH   7   8
ATOM      8  C2' I4B d   1       0.504  -3.662  -1.292  0.00  0.00    -0.013 C 
ATOM      9  C4' I4B d   1       0.182  -3.978  -2.729  0.00  0.00     0.013 C 
ATOM     10  C3' I4B d   1       0.910  -4.896  -0.543  0.00  0.00     0.013 C 
ENDBRANCH   7   8
ENDBRANCH   1   7
TORSDOF 2
ENDMDL
