MODEL 1
REMARK minimizedAffinity -4.28082371
REMARK minimizedRMSD -1
REMARK  2 active torsions:
REMARK  status: ('A' for Active; 'I' for Inactive)
REMARK    1  A    between atoms: C2'_3  and  C1'_4 
REMARK    2  A    between atoms: C1'_4  and  C1_5 
ROOT
ATOM      1  C1  I4B d   1       0.250  -0.170  -0.013  0.00  0.00    -0.075 A 
ATOM      2  C2  I4B d   1       0.114  -0.378   1.337  0.00  0.00     0.003 A 
ATOM      3  C3  I4B d   1      -0.806   0.394   2.087  0.00  0.00     0.002 A 
ATOM      4  C4  I4B d   1      -1.528   1.389   1.462  0.00  0.00    -0.004 A 
ATOM      5  C5  I4B d   1      -1.405   1.583   0.089  0.00  0.00     0.002 A 
ATOM      6  C6  I4B d   1      -0.520   0.791  -0.656  0.00  0.00     0.003 A 
ENDROOT
BRANCH   1   7
ATOM      7  C1' I4B d   1       1.255  -0.980  -0.770  0.00  0.00     0.060 C 
BRANCH   7   8
ATOM      8  C2' I4B d   1       0.581  -2.262  -1.215  0.00  0.00    -0.013 C 
ATOM      9  C4' I4B d   1      -0.059  -2.101  -2.568  0.00  0.00     0.013 C 
ATOM     10  C3' I4B d   1       1.616  -3.347  -1.231  0.00  0.00     0.013 C 
ENDBRANCH   7   8
ENDBRANCH   1   7
TORSDOF 2
ENDMDL
