MODEL 1
REMARK minimizedAffinity -4.9436388
REMARK minimizedRMSD -1
REMARK  2 active torsions:
REMARK  status: ('A' for Active; 'I' for Inactive)
REMARK    1  A    between atoms: C2'_3  and  C1'_4 
REMARK    2  A    between atoms: C1'_4  and  C1_5 
ROOT
ATOM      1  C1  I4B d   1       0.415  -0.044  -0.223  0.00  0.00    -0.075 A 
ATOM      2  C2  I4B d   1      -0.169   1.158  -0.535  0.00  0.00     0.003 A 
ATOM      3  C3  I4B d   1      -1.115   1.741   0.343  0.00  0.00     0.002 A 
ATOM      4  C4  I4B d   1      -1.482   1.067   1.490  0.00  0.00    -0.004 A 
ATOM      5  C5  I4B d   1      -0.872  -0.141   1.816  0.00  0.00     0.002 A 
ATOM      6  C6  I4B d   1       0.091  -0.695   0.961  0.00  0.00     0.003 A 
ENDROOT
BRANCH   1   7
ATOM      7  C1' I4B d   1       1.385  -0.647  -1.189  0.00  0.00     0.060 C 
BRANCH   7   8
ATOM      8  C2' I4B d   1       0.829  -1.984  -1.636  0.00  0.00    -0.013 C 
ATOM      9  C4' I4B d   1       0.193  -1.882  -2.998  0.00  0.00     0.013 C 
ATOM     10  C3' I4B d   1       1.953  -2.976  -1.637  0.00  0.00     0.013 C 
ENDBRANCH   7   8
ENDBRANCH   1   7
TORSDOF 2
ENDMDL
