MODEL 1
REMARK minimizedAffinity -4.6309886
REMARK minimizedRMSD -1
REMARK  2 active torsions:
REMARK  status: ('A' for Active; 'I' for Inactive)
REMARK    1  A    between atoms: C2'_3  and  C1'_4 
REMARK    2  A    between atoms: C1'_4  and  C1_5 
ROOT
ATOM      1  C1  I4B d   1      -0.825   1.088   0.445  0.00  0.00    -0.075 A 
ATOM      2  C2  I4B d   1      -0.284  -0.105   0.034  0.00  0.00     0.003 A 
ATOM      3  C3  I4B d   1       0.155  -1.054   0.988  0.00  0.00     0.002 A 
ATOM      4  C4  I4B d   1       0.083  -0.751   2.332  0.00  0.00    -0.004 A 
ATOM      5  C5  I4B d   1      -0.487   0.450   2.747  0.00  0.00     0.002 A 
ATOM      6  C6  I4B d   1      -0.955   1.370   1.798  0.00  0.00     0.003 A 
ENDROOT
BRANCH   1   7
ATOM      7  C1' I4B d   1      -1.248   2.082  -0.590  0.00  0.00     0.060 C 
BRANCH   7   8
ATOM      8  C2' I4B d   1      -0.043   2.930  -0.944  0.00  0.00    -0.013 C 
ATOM      9  C4' I4B d   1       1.019   2.110  -1.628  0.00  0.00     0.013 C 
ATOM     10  C3' I4B d   1      -0.509   4.053  -1.822  0.00  0.00     0.013 C 
ENDBRANCH   7   8
ENDBRANCH   1   7
TORSDOF 2
ENDMDL
