MODEL 1
REMARK minimizedAffinity 16.4761982
REMARK minimizedRMSD -1
REMARK  0 active torsions:
REMARK  status: ('A' for Active; 'I' for Inactive)
ROOT
ATOM      1  C1  DEN d   1       5.833   2.285   2.655  0.00  0.00     0.130 A 
ATOM      2  C2  DEN d   1       5.999   0.910   2.190  0.00  0.00    -0.031 A 
ATOM      3  C3  DEN d   1       4.655   0.330   1.995  0.00  0.00     0.027 A 
ATOM      4  C4  DEN d   1       2.347   1.422   2.359  0.00  0.00     0.027 A 
ATOM      5  C5  DEN d   1       1.699   2.570   2.758  0.00  0.00    -0.003 A 
ATOM      6  C6  DEN d   1       2.377   3.683   3.180  0.00  0.00     0.001 A 
ATOM      7  C7  DEN d   1       3.747   3.687   3.169  0.00  0.00     0.017 A 
ATOM      8  C8  DEN d   1       4.408   2.531   2.775  0.00  0.00    -0.094 A 
ATOM      9  C9  DEN d   1       3.704   1.420   2.341  0.00  0.00    -0.072 A 
ENDROOT
TORSDOF 0
ENDMDL
