MODEL 1
REMARK minimizedAffinity 2.69582796
REMARK minimizedRMSD -1
REMARK  0 active torsions:
REMARK  status: ('A' for Active; 'I' for Inactive)
ROOT
ATOM      1  C1  DEN d   1       2.267  -1.258   0.058  0.00  0.00     0.130 A 
ATOM      2  C2  DEN d   1       2.250   0.044   0.719  0.00  0.00    -0.031 A 
ATOM      3  C3  DEN d   1       0.968   0.703   0.397  0.00  0.00     0.027 A 
ATOM      4  C4  DEN d   1      -0.984  -0.164  -1.048  0.00  0.00     0.027 A 
ATOM      5  C5  DEN d   1      -1.425  -1.211  -1.827  0.00  0.00    -0.003 A 
ATOM      6  C6  DEN d   1      -0.660  -2.323  -2.058  0.00  0.00     0.001 A 
ATOM      7  C7  DEN d   1       0.571  -2.434  -1.467  0.00  0.00     0.017 A 
ATOM      8  C8  DEN d   1       1.026  -1.380  -0.686  0.00  0.00    -0.094 A 
ATOM      9  C9  DEN d   1       0.232  -0.269  -0.455  0.00  0.00    -0.072 A 
ENDROOT
TORSDOF 0
ENDMDL
