MODEL 1
REMARK minimizedAffinity 8.75433445
REMARK minimizedRMSD -1
REMARK  0 active torsions:
REMARK  status: ('A' for Active; 'I' for Inactive)
ROOT
ATOM      1  C1  DEN d   1      -5.514   2.248   0.756  0.00  0.00     0.130 A 
ATOM      2  C2  DEN d   1      -4.562   2.368   1.857  0.00  0.00    -0.031 A 
ATOM      3  C3  DEN d   1      -3.777   1.119   1.919  0.00  0.00     0.027 A 
ATOM      4  C4  DEN d   1      -3.937  -0.975   0.421  0.00  0.00     0.027 A 
ATOM      5  C5  DEN d   1      -4.604  -1.548  -0.640  0.00  0.00    -0.003 A 
ATOM      6  C6  DEN d   1      -5.634  -0.915  -1.283  0.00  0.00     0.001 A 
ATOM      7  C7  DEN d   1      -5.999   0.349  -0.899  0.00  0.00     0.017 A 
ATOM      8  C8  DEN d   1      -5.337   0.930   0.174  0.00  0.00    -0.094 A 
ATOM      9  C9  DEN d   1      -4.290   0.279   0.803  0.00  0.00    -0.072 A 
ENDROOT
TORSDOF 0
ENDMDL
