MODEL 1
REMARK minimizedAffinity 2.53167701
REMARK minimizedRMSD -1
REMARK  0 active torsions:
REMARK  status: ('A' for Active; 'I' for Inactive)
ROOT
ATOM      1  C1  DEN d   1      -4.556   2.822   2.250  0.00  0.00     0.130 A 
ATOM      2  C2  DEN d   1      -3.153   3.164   2.029  0.00  0.00    -0.031 A 
ATOM      3  C3  DEN d   1      -2.568   2.139   1.142  0.00  0.00     0.027 A 
ATOM      4  C4  DEN d   1      -3.691   0.069   0.092  0.00  0.00     0.027 A 
ATOM      5  C5  DEN d   1      -4.865  -0.646  -0.000  0.00  0.00    -0.003 A 
ATOM      6  C6  DEN d   1      -6.000  -0.276   0.672  0.00  0.00     0.001 A 
ATOM      7  C7  DEN d   1      -5.997   0.864   1.432  0.00  0.00     0.017 A 
ATOM      8  C8  DEN d   1      -4.815   1.585   1.536  0.00  0.00    -0.094 A 
ATOM      9  C9  DEN d   1      -3.683   1.202   0.839  0.00  0.00    -0.072 A 
ENDROOT
TORSDOF 0
ENDMDL
