MODEL 1
REMARK minimizedAffinity 6.08481932
REMARK minimizedRMSD -1
REMARK  0 active torsions:
REMARK  status: ('A' for Active; 'I' for Inactive)
ROOT
ATOM      1  C1  DEN d   1      -1.527  -3.764   5.958  0.00  0.00     0.130 A 
ATOM      2  C2  DEN d   1      -1.163  -5.178   5.950  0.00  0.00    -0.031 A 
ATOM      3  C3  DEN d   1       0.311  -5.270   5.962  0.00  0.00     0.027 A 
ATOM      4  C4  DEN d   1       2.055  -3.369   5.998  0.00  0.00     0.027 A 
ATOM      5  C5  DEN d   1       2.225  -2.002   5.999  0.00  0.00    -0.003 A 
ATOM      6  C6  DEN d   1       1.167  -1.134   5.954  0.00  0.00     0.001 A 
ATOM      7  C7  DEN d   1      -0.113  -1.624   5.950  0.00  0.00     0.017 A 
ATOM      8  C8  DEN d   1      -0.293  -3.000   5.940  0.00  0.00    -0.094 A 
ATOM      9  C9  DEN d   1       0.790  -3.861   5.999  0.00  0.00    -0.072 A 
ENDROOT
TORSDOF 0
ENDMDL
