MODEL 1
REMARK minimizedAffinity -5.43191481
REMARK minimizedRMSD -1
REMARK  0 active torsions:
REMARK  status: ('A' for Active; 'I' for Inactive)
ROOT
ATOM      1  C   UNL d   1       2.599  -0.731   1.004  0.00  0.00     0.020 A 
ATOM      2  C1  UNL d   1       1.552  -1.649   0.928  0.00  0.00     0.020 A 
ATOM      3  C2  UNL d   1       0.315  -1.256   0.415  0.00  0.00     0.034 A 
ATOM      4  C3  UNL d   1       0.120   0.058  -0.025  0.00  0.00     0.017 A 
ATOM      5  C4  UNL d   1       1.171   0.979   0.052  0.00  0.00     0.017 A 
ATOM      6  C5  UNL d   1       2.409   0.580   0.567  0.00  0.00     0.034 A 
ATOM      7 Cl   UNL d   1       1.008   2.619  -0.471  0.00  0.00    -0.070 Cl
ATOM      8 Cl1  UNL d   1      -1.436   0.475  -0.649  0.00  0.00    -0.070 Cl
ENDROOT
TORSDOF 0
ENDMDL
