MODEL 1
REMARK minimizedAffinity -2.35912323
REMARK minimizedRMSD -1
REMARK  0 active torsions:
REMARK  status: ('A' for Active; 'I' for Inactive)
ROOT
ATOM      1  C   UNL d   1      -2.944  -1.324  -1.846  0.00  0.00     0.020 A 
ATOM      2  C1  UNL d   1      -2.773   0.027  -2.145  0.00  0.00     0.020 A 
ATOM      3  C2  UNL d   1      -1.781   0.765  -1.496  0.00  0.00     0.034 A 
ATOM      4  C3  UNL d   1      -0.956   0.153  -0.545  0.00  0.00     0.017 A 
ATOM      5  C4  UNL d   1      -1.128  -1.203  -0.246  0.00  0.00     0.017 A 
ATOM      6  C5  UNL d   1      -2.123  -1.938  -0.899  0.00  0.00     0.034 A 
ATOM      7 Cl   UNL d   1      -0.149  -2.028   0.915  0.00  0.00    -0.070 Cl
ATOM      8 Cl1  UNL d   1       0.250   1.127   0.218  0.00  0.00    -0.070 Cl
ENDROOT
TORSDOF 0
ENDMDL
