MODEL 1
REMARK minimizedAffinity -0.575080574
REMARK minimizedRMSD -1
REMARK  0 active torsions:
REMARK  status: ('A' for Active; 'I' for Inactive)
ROOT
ATOM      1  C   UNL d   1       0.032   1.350  -1.332  0.00  0.00     0.020 A 
ATOM      2  C1  UNL d   1      -0.846   0.266  -1.332  0.00  0.00     0.020 A 
ATOM      3  C2  UNL d   1      -0.720  -0.734  -0.366  0.00  0.00     0.034 A 
ATOM      4  C3  UNL d   1       0.285  -0.653   0.605  0.00  0.00     0.017 A 
ATOM      5  C4  UNL d   1       1.165   0.435   0.605  0.00  0.00     0.017 A 
ATOM      6  C5  UNL d   1       1.035   1.434  -0.365  0.00  0.00     0.034 A 
ATOM      7 Cl   UNL d   1       2.430   0.605   1.770  0.00  0.00    -0.070 Cl
ATOM      8 Cl1  UNL d   1       0.382  -1.925   1.770  0.00  0.00    -0.070 Cl
ENDROOT
TORSDOF 0
ENDMDL
