MODEL 1
REMARK minimizedAffinity -4.85603714
REMARK minimizedRMSD -1
REMARK  0 active torsions:
REMARK  status: ('A' for Active; 'I' for Inactive)
ROOT
ATOM      1  C   UNL d   1       3.067  -1.562   1.394  0.00  0.00     0.020 A 
ATOM      2  C1  UNL d   1       2.484  -2.580   2.147  0.00  0.00     0.020 A 
ATOM      3  C2  UNL d   1       1.096  -2.736   2.155  0.00  0.00     0.034 A 
ATOM      4  C3  UNL d   1       0.287  -1.873   1.408  0.00  0.00     0.017 A 
ATOM      5  C4  UNL d   1       0.873  -0.851   0.652  0.00  0.00     0.017 A 
ATOM      6  C5  UNL d   1       2.263  -0.699   0.648  0.00  0.00     0.034 A 
ATOM      7 Cl   UNL d   1      -0.060   0.254  -0.295  0.00  0.00    -0.070 Cl
ATOM      8 Cl1  UNL d   1      -1.422  -2.124   1.463  0.00  0.00    -0.070 Cl
ENDROOT
TORSDOF 0
ENDMDL
