MODEL 1
REMARK minimizedAffinity -4.58170509
REMARK minimizedRMSD -1
REMARK  0 active torsions:
REMARK  status: ('A' for Active; 'I' for Inactive)
ROOT
ATOM      1  C   UNL d   1       2.303  -2.191   1.430  0.00  0.00     0.020 A 
ATOM      2  C1  UNL d   1       3.207  -1.178   1.746  0.00  0.00     0.020 A 
ATOM      3  C2  UNL d   1       2.999   0.118   1.268  0.00  0.00     0.034 A 
ATOM      4  C3  UNL d   1       1.884   0.403   0.471  0.00  0.00     0.017 A 
ATOM      5  C4  UNL d   1       0.977  -0.615   0.154  0.00  0.00     0.017 A 
ATOM      6  C5  UNL d   1       1.191  -1.910   0.636  0.00  0.00     0.034 A 
ATOM      7 Cl   UNL d   1      -0.422  -0.339  -0.823  0.00  0.00    -0.070 Cl
ATOM      8 Cl1  UNL d   1       1.689   2.027  -0.085  0.00  0.00    -0.070 Cl
ENDROOT
TORSDOF 0
ENDMDL
