MODEL 1
REMARK minimizedAffinity -2.04463768
REMARK minimizedRMSD -1
REMARK  0 active torsions:
REMARK  status: ('A' for Active; 'I' for Inactive)
ROOT
ATOM      1  C   UNL d   1       1.526   0.796   0.657  0.00  0.00     0.020 A 
ATOM      2  C1  UNL d   1       1.132   1.599  -0.413  0.00  0.00     0.020 A 
ATOM      3  C2  UNL d   1      -0.105   1.387  -1.026  0.00  0.00     0.034 A 
ATOM      4  C3  UNL d   1      -0.951   0.369  -0.571  0.00  0.00     0.017 A 
ATOM      5  C4  UNL d   1      -0.554  -0.436   0.502  0.00  0.00     0.017 A 
ATOM      6  C5  UNL d   1       0.685  -0.219   1.113  0.00  0.00     0.034 A 
ATOM      7 Cl   UNL d   1      -1.544  -1.711   1.120  0.00  0.00    -0.070 Cl
ATOM      8 Cl1  UNL d   1      -2.465   0.163  -1.377  0.00  0.00    -0.070 Cl
ENDROOT
TORSDOF 0
ENDMDL
