MODEL 1
REMARK minimizedAffinity 9.3958149
REMARK minimizedRMSD -1
REMARK  0 active torsions:
REMARK  status: ('A' for Active; 'I' for Inactive)
ROOT
ATOM      1  C2' OXE d   1       0.771   5.498  -3.335  0.00  0.00     0.078 C 
ATOM      2  C1' OXE d   1      -1.903   5.822  -2.542  0.00  0.00     0.078 C 
ATOM      3  C1  OXE d   1      -0.995   5.019  -1.644  0.00  0.00    -0.078 A 
ATOM      4  C2  OXE d   1       0.300   4.827  -2.063  0.00  0.00    -0.078 A 
ATOM      5  C3  OXE d   1       1.194   4.141  -1.246  0.00  0.00     0.003 A 
ATOM      6  C4  OXE d   1       0.748   3.515  -0.076  0.00  0.00    -0.002 A 
ATOM      7  C5  OXE d   1      -0.576   3.665   0.349  0.00  0.00    -0.002 A 
ATOM      8  C6  OXE d   1      -1.448   4.448  -0.400  0.00  0.00     0.003 A 
ENDROOT
TORSDOF 0
ENDMDL
