MODEL 1
REMARK minimizedAffinity 3.93135238
REMARK minimizedRMSD -1
REMARK  0 active torsions:
REMARK  status: ('A' for Active; 'I' for Inactive)
ROOT
ATOM      1  C2' OXE d   1       0.295   5.975  -3.082  0.00  0.00     0.078 C 
ATOM      2  C1' OXE d   1      -2.230   5.038  -2.290  0.00  0.00     0.078 C 
ATOM      3  C1  OXE d   1      -1.044   4.675  -1.432  0.00  0.00    -0.078 A 
ATOM      4  C2  OXE d   1       0.194   5.099  -1.852  0.00  0.00    -0.078 A 
ATOM      5  C3  OXE d   1       1.314   4.838  -1.069  0.00  0.00     0.003 A 
ATOM      6  C4  OXE d   1       1.214   4.018   0.062  0.00  0.00    -0.002 A 
ATOM      7  C5  OXE d   1      -0.032   3.543   0.486  0.00  0.00    -0.002 A 
ATOM      8  C6  OXE d   1      -1.174   3.897  -0.225  0.00  0.00     0.003 A 
ENDROOT
TORSDOF 0
ENDMDL
