MODEL 1
REMARK minimizedAffinity 10.3356667
REMARK minimizedRMSD -1
REMARK  0 active torsions:
REMARK  status: ('A' for Active; 'I' for Inactive)
ROOT
ATOM      1  C2' OXE d   1       5.278  -5.523  -0.429  0.00  0.00     0.078 C 
ATOM      2  C1' OXE d   1       5.901  -2.900  -1.211  0.00  0.00     0.078 C 
ATOM      3  C1  OXE d   1       5.319  -3.825  -2.251  0.00  0.00    -0.078 A 
ATOM      4  C2  OXE d   1       5.061  -5.120  -1.872  0.00  0.00    -0.078 A 
ATOM      5  C3  OXE d   1       4.473  -5.999  -2.777  0.00  0.00     0.003 A 
ATOM      6  C4  OXE d   1       4.285  -5.621  -4.112  0.00  0.00    -0.002 A 
ATOM      7  C5  OXE d   1       4.578  -4.319  -4.529  0.00  0.00    -0.002 A 
ATOM      8  C6  OXE d   1       5.055  -3.398  -3.603  0.00  0.00     0.003 A 
ENDROOT
TORSDOF 0
ENDMDL
