MODEL 1
REMARK minimizedAffinity 11.5643873
REMARK minimizedRMSD -1
REMARK  0 active torsions:
REMARK  status: ('A' for Active; 'I' for Inactive)
ROOT
ATOM      1  C2' OXE d   1       2.545  -2.211  -0.373  0.00  0.00     0.078 C 
ATOM      2  C1' OXE d   1       1.035  -4.552  -0.720  0.00  0.00     0.078 C 
ATOM      3  C1  OXE d   1       2.538  -4.680  -0.707  0.00  0.00    -0.078 A 
ATOM      4  C2  OXE d   1       3.270  -3.523  -0.583  0.00  0.00    -0.078 A 
ATOM      5  C3  OXE d   1       4.658  -3.590  -0.511  0.00  0.00     0.003 A 
ATOM      6  C4  OXE d   1       5.321  -4.806  -0.716  0.00  0.00    -0.002 A 
ATOM      7  C5  OXE d   1       4.595  -5.991  -0.884  0.00  0.00    -0.002 A 
ATOM      8  C6  OXE d   1       3.206  -5.951  -0.839  0.00  0.00     0.003 A 
ENDROOT
TORSDOF 0
ENDMDL
