MODEL 1
REMARK minimizedAffinity 5.83529949
REMARK minimizedRMSD -1
REMARK  0 active torsions:
REMARK  status: ('A' for Active; 'I' for Inactive)
ROOT
ATOM      1  C2' OXE d   1       2.094   5.156  -0.199  0.00  0.00     0.078 C 
ATOM      2  C1' OXE d   1       0.455   2.912   0.200  0.00  0.00     0.078 C 
ATOM      3  C1  OXE d   1       0.098   3.853  -0.923  0.00  0.00    -0.078 A 
ATOM      4  C2  OXE d   1       0.878   4.973  -1.082  0.00  0.00    -0.078 A 
ATOM      5  C3  OXE d   1       0.625   5.845  -2.137  0.00  0.00     0.003 A 
ATOM      6  C4  OXE d   1      -0.507   5.674  -2.942  0.00  0.00    -0.002 A 
ATOM      7  C5  OXE d   1      -1.338   4.561  -2.772  0.00  0.00    -0.002 A 
ATOM      8  C6  OXE d   1      -1.025   3.620  -1.797  0.00  0.00     0.003 A 
ENDROOT
TORSDOF 0
ENDMDL
