MODEL 1
REMARK minimizedAffinity 14.8383942
REMARK minimizedRMSD -1
REMARK  0 active torsions:
REMARK  status: ('A' for Active; 'I' for Inactive)
ROOT
ATOM      1  C2' OXE d   1       0.033   2.377  -0.041  0.00  0.00     0.078 C 
ATOM      2  C1' OXE d   1       1.633   4.684  -0.072  0.00  0.00     0.078 C 
ATOM      3  C1  OXE d   1       0.261   4.770  -0.694  0.00  0.00    -0.078 A 
ATOM      4  C2  OXE d   1      -0.496   3.623  -0.716  0.00  0.00    -0.078 A 
ATOM      5  C3  OXE d   1      -1.790   3.661  -1.229  0.00  0.00     0.003 A 
ATOM      6  C4  OXE d   1      -2.268   4.816  -1.861  0.00  0.00    -0.002 A 
ATOM      7  C5  OXE d   1      -1.497   5.983  -1.885  0.00  0.00    -0.002 A 
ATOM      8  C6  OXE d   1      -0.250   5.989  -1.270  0.00  0.00     0.003 A 
ENDROOT
TORSDOF 0
ENDMDL
