MODEL 1
REMARK minimizedAffinity 7.79663038
REMARK minimizedRMSD -1
REMARK  0 active torsions:
REMARK  status: ('A' for Active; 'I' for Inactive)
ROOT
ATOM      1  C2' OXE d   1       3.055  -5.951  -1.338  0.00  0.00     0.078 C 
ATOM      2  C1' OXE d   1       5.603  -4.798  -1.086  0.00  0.00     0.078 C 
ATOM      3  C1  OXE d   1       5.111  -5.122  -2.475  0.00  0.00    -0.078 A 
ATOM      4  C2  OXE d   1       3.883  -5.729  -2.585  0.00  0.00    -0.078 A 
ATOM      5  C3  OXE d   1       3.359  -5.999  -3.846  0.00  0.00     0.003 A 
ATOM      6  C4  OXE d   1       4.136  -5.800  -4.994  0.00  0.00    -0.002 A 
ATOM      7  C5  OXE d   1       5.405  -5.220  -4.901  0.00  0.00    -0.002 A 
ATOM      8  C6  OXE d   1       5.889  -4.837  -3.655  0.00  0.00     0.003 A 
ENDROOT
TORSDOF 0
ENDMDL
