MODEL 1
REMARK minimizedAffinity 4.93593502
REMARK minimizedRMSD -1
REMARK  0 active torsions:
REMARK  status: ('A' for Active; 'I' for Inactive)
ROOT
ATOM      1  C2' OXE d   1       1.784  -2.551   5.999  0.00  0.00     0.078 C 
ATOM      2  C1' OXE d   1      -1.008  -2.259   6.000  0.00  0.00     0.078 C 
ATOM      3  C1  OXE d   1      -0.210  -1.388   5.062  0.00  0.00    -0.078 A 
ATOM      4  C2  OXE d   1       1.159  -1.505   5.102  0.00  0.00    -0.078 A 
ATOM      5  C3  OXE d   1       1.940  -0.764   4.219  0.00  0.00     0.003 A 
ATOM      6  C4  OXE d   1       1.355   0.209   3.400  0.00  0.00    -0.002 A 
ATOM      7  C5  OXE d   1      -0.034   0.372   3.373  0.00  0.00    -0.002 A 
ATOM      8  C6  OXE d   1      -0.832  -0.446   4.165  0.00  0.00     0.003 A 
ENDROOT
TORSDOF 0
ENDMDL
