MODEL 1
REMARK minimizedAffinity 12.8634949
REMARK minimizedRMSD -1
REMARK  0 active torsions:
REMARK  status: ('A' for Active; 'I' for Inactive)
ROOT
ATOM      1  C2' OXE d   1      -0.919   5.353  -0.069  0.00  0.00     0.078 C 
ATOM      2  C1' OXE d   1      -0.038   4.409  -2.562  0.00  0.00     0.078 C 
ATOM      3  C1  OXE d   1      -0.225   3.402  -1.455  0.00  0.00    -0.078 A 
ATOM      4  C2  OXE d   1      -0.611   3.879  -0.225  0.00  0.00    -0.078 A 
ATOM      5  C3  OXE d   1      -0.851   2.986   0.816  0.00  0.00     0.003 A 
ATOM      6  C4  OXE d   1      -0.555   1.626   0.666  0.00  0.00    -0.002 A 
ATOM      7  C5  OXE d   1      -0.122   1.126  -0.567  0.00  0.00    -0.002 A 
ATOM      8  C6  OXE d   1       0.007   1.992  -1.647  0.00  0.00     0.003 A 
ENDROOT
TORSDOF 0
ENDMDL
