MODEL 1
REMARK minimizedAffinity 2.44865179
REMARK minimizedRMSD -1
REMARK  2 active torsions:
REMARK  status: ('A' for Active; 'I' for Inactive)
REMARK    1  A    between atoms: C1_2  and  C2_3 
REMARK    2  A    between atoms: C2_3  and  C3_4 
ROOT
ATOM      1  C3  UNL d   1       0.994   2.501   1.764  0.00  0.00    -0.075 A 
ATOM      2  C4  UNL d   1       1.397   1.709   2.849  0.00  0.00     0.002 A 
ATOM      3  C5  UNL d   1       1.825   2.302   4.037  0.00  0.00     0.002 A 
ATOM      4  C6  UNL d   1       1.866   3.690   4.152  0.00  0.00    -0.004 A 
ATOM      5  C7  UNL d   1       1.484   4.486   3.074  0.00  0.00     0.002 A 
ATOM      6  C8  UNL d   1       1.050   3.895   1.886  0.00  0.00     0.002 A 
ENDROOT
BRANCH   1   7
ATOM      7  C2  UNL d   1       0.501   1.865   0.486  0.00  0.00     0.056 C 
BRANCH   7   8
ATOM      8  C1  UNL d   1       1.029   0.446   0.250  0.00  0.00     0.007 C 
ATOM      9  C   UNL d   1      -0.004  -0.635   0.539  0.00  0.00     0.009 C 
ENDBRANCH   7   8
ENDBRANCH   1   7
TORSDOF 2
ENDMDL
