MODEL 1
REMARK minimizedAffinity 8.2635603
REMARK minimizedRMSD -1
REMARK  2 active torsions:
REMARK  status: ('A' for Active; 'I' for Inactive)
REMARK    1  A    between atoms: C1_2  and  C2_3 
REMARK    2  A    between atoms: C2_3  and  C3_4 
ROOT
ATOM      1  C3  UNL d   1      -4.371   2.119  -3.834  0.00  0.00    -0.075 A 
ATOM      2  C4  UNL d   1      -4.366   3.436  -4.318  0.00  0.00     0.002 A 
ATOM      3  C5  UNL d   1      -5.180   3.798  -5.392  0.00  0.00     0.002 A 
ATOM      4  C6  UNL d   1      -6.000   2.850  -6.000  0.00  0.00    -0.004 A 
ATOM      5  C7  UNL d   1      -6.000   1.536  -5.538  0.00  0.00     0.002 A 
ATOM      6  C8  UNL d   1      -5.190   1.171  -4.461  0.00  0.00     0.002 A 
ENDROOT
BRANCH   1   7
ATOM      7  C2  UNL d   1      -3.514   1.728  -2.654  0.00  0.00     0.056 C 
BRANCH   7   8
ATOM      8  C1  UNL d   1      -2.070   2.233  -2.736  0.00  0.00     0.007 C 
ATOM      9  C   UNL d   1      -1.249   1.909  -1.495  0.00  0.00     0.009 C 
ENDBRANCH   7   8
ENDBRANCH   1   7
TORSDOF 2
ENDMDL
