MODEL 1
REMARK minimizedAffinity 0.215160012
REMARK minimizedRMSD -1
REMARK  2 active torsions:
REMARK  status: ('A' for Active; 'I' for Inactive)
REMARK    1  A    between atoms: C1_2  and  C2_3 
REMARK    2  A    between atoms: C2_3  and  C3_4 
ROOT
ATOM      1  C3  UNL d   1      -4.309   3.402  -5.271  0.00  0.00    -0.075 A 
ATOM      2  C4  UNL d   1      -5.212   2.613  -5.999  0.00  0.00     0.002 A 
ATOM      3  C5  UNL d   1      -5.984   1.645  -5.357  0.00  0.00     0.002 A 
ATOM      4  C6  UNL d   1      -5.857   1.445  -3.985  0.00  0.00    -0.004 A 
ATOM      5  C7  UNL d   1      -4.952   2.212  -3.254  0.00  0.00     0.002 A 
ATOM      6  C8  UNL d   1      -4.181   3.185  -3.893  0.00  0.00     0.002 A 
ENDROOT
BRANCH   1   7
ATOM      7  C2  UNL d   1      -3.492   4.472  -5.954  0.00  0.00     0.056 C 
BRANCH   7   8
ATOM      8  C1  UNL d   1      -2.033   4.535  -5.489  0.00  0.00     0.007 C 
ATOM      9  C   UNL d   1      -1.311   5.794  -5.950  0.00  0.00     0.009 C 
ENDBRANCH   7   8
ENDBRANCH   1   7
TORSDOF 2
ENDMDL
