MODEL 1
REMARK minimizedAffinity -1.40456069
REMARK minimizedRMSD -1
REMARK  2 active torsions:
REMARK  status: ('A' for Active; 'I' for Inactive)
REMARK    1  A    between atoms: C1_2  and  C2_3 
REMARK    2  A    between atoms: C2_3  and  C3_4 
ROOT
ATOM      1  C3  UNL d   1      -4.127   4.186  -5.178  0.00  0.00    -0.075 A 
ATOM      2  C4  UNL d   1      -4.017   3.725  -3.858  0.00  0.00     0.002 A 
ATOM      3  C5  UNL d   1      -4.882   2.741  -3.378  0.00  0.00     0.002 A 
ATOM      4  C6  UNL d   1      -5.871   2.214  -4.205  0.00  0.00    -0.004 A 
ATOM      5  C7  UNL d   1      -6.000   2.677  -5.513  0.00  0.00     0.002 A 
ATOM      6  C8  UNL d   1      -5.133   3.659  -5.998  0.00  0.00     0.002 A 
ENDROOT
BRANCH   1   7
ATOM      7  C2  UNL d   1      -3.175   5.230  -5.713  0.00  0.00     0.056 C 
BRANCH   7   8
ATOM      8  C1  UNL d   1      -1.808   5.241  -5.021  0.00  0.00     0.007 C 
ATOM      9  C   UNL d   1      -0.641   5.145  -5.994  0.00  0.00     0.009 C 
ENDBRANCH   7   8
ENDBRANCH   1   7
TORSDOF 2
ENDMDL
