MODEL 1
REMARK minimizedAffinity -0.226492137
REMARK minimizedRMSD -1
REMARK  2 active torsions:
REMARK  status: ('A' for Active; 'I' for Inactive)
REMARK    1  A    between atoms: C1_2  and  C2_3 
REMARK    2  A    between atoms: C2_3  and  C3_4 
ROOT
ATOM      1  C3  UNL d   1      -4.606   3.299  -4.784  0.00  0.00    -0.075 A 
ATOM      2  C4  UNL d   1      -4.302   4.122  -5.878  0.00  0.00     0.002 A 
ATOM      3  C5  UNL d   1      -3.040   4.705  -5.997  0.00  0.00     0.002 A 
ATOM      4  C6  UNL d   1      -2.072   4.482  -5.021  0.00  0.00    -0.004 A 
ATOM      5  C7  UNL d   1      -2.368   3.680  -3.921  0.00  0.00     0.002 A 
ATOM      6  C8  UNL d   1      -3.628   3.092  -3.802  0.00  0.00     0.002 A 
ENDROOT
BRANCH   1   7
ATOM      7  C2  UNL d   1      -5.960   2.641  -4.664  0.00  0.00     0.056 C 
BRANCH   7   8
ATOM      8  C1  UNL d   1      -5.996   1.194  -5.166  0.00  0.00     0.007 C 
ATOM      9  C   UNL d   1      -5.999   0.168  -4.041  0.00  0.00     0.009 C 
ENDBRANCH   7   8
ENDBRANCH   1   7
TORSDOF 2
ENDMDL
