MODEL 1
REMARK minimizedAffinity 4.98337221
REMARK minimizedRMSD -1
REMARK  2 active torsions:
REMARK  status: ('A' for Active; 'I' for Inactive)
REMARK    1  A    between atoms: C1_2  and  C2_3 
REMARK    2  A    between atoms: C2_3  and  C3_4 
ROOT
ATOM      1  C3  UNL d   1      -3.577   3.746  -3.741  0.00  0.00    -0.075 A 
ATOM      2  C4  UNL d   1      -4.796   3.738  -3.048  0.00  0.00     0.002 A 
ATOM      3  C5  UNL d   1      -6.000   3.917  -3.731  0.00  0.00     0.002 A 
ATOM      4  C6  UNL d   1      -6.000   4.115  -5.110  0.00  0.00    -0.004 A 
ATOM      5  C7  UNL d   1      -4.793   4.142  -5.806  0.00  0.00     0.002 A 
ATOM      6  C8  UNL d   1      -3.587   3.959  -5.126  0.00  0.00     0.002 A 
ENDROOT
BRANCH   1   7
ATOM      7  C2  UNL d   1      -2.273   3.524  -3.013  0.00  0.00     0.056 C 
BRANCH   7   8
ATOM      8  C1  UNL d   1      -2.396   2.634  -1.772  0.00  0.00     0.007 C 
ATOM      9  C   UNL d   1      -1.049   2.232  -1.186  0.00  0.00     0.009 C 
ENDBRANCH   7   8
ENDBRANCH   1   7
TORSDOF 2
ENDMDL
