MODEL 1
REMARK minimizedAffinity 1.53146935
REMARK minimizedRMSD -1
REMARK  2 active torsions:
REMARK  status: ('A' for Active; 'I' for Inactive)
REMARK    1  A    between atoms: C1_2  and  C2_3 
REMARK    2  A    between atoms: C2_3  and  C3_4 
ROOT
ATOM      1  C3  UNL d   1       0.541   0.285   2.512  0.00  0.00    -0.075 A 
ATOM      2  C4  UNL d   1       0.375   1.573   3.042  0.00  0.00     0.002 A 
ATOM      3  C5  UNL d   1       0.224   2.672   2.197  0.00  0.00     0.002 A 
ATOM      4  C6  UNL d   1       0.247   2.500   0.814  0.00  0.00    -0.004 A 
ATOM      5  C7  UNL d   1       0.427   1.228   0.277  0.00  0.00     0.002 A 
ATOM      6  C8  UNL d   1       0.575   0.125   1.121  0.00  0.00     0.002 A 
ENDROOT
BRANCH   1   7
ATOM      7  C2  UNL d   1       0.676  -0.913   3.422  0.00  0.00     0.056 C 
BRANCH   7   8
ATOM      8  C1  UNL d   1       2.093  -1.492   3.485  0.00  0.00     0.007 C 
ATOM      9  C   UNL d   1       2.350  -2.314   4.741  0.00  0.00     0.009 C 
ENDBRANCH   7   8
ENDBRANCH   1   7
TORSDOF 2
ENDMDL
