MODEL 1
REMARK minimizedAffinity 0.456408739
REMARK minimizedRMSD -1
REMARK  2 active torsions:
REMARK  status: ('A' for Active; 'I' for Inactive)
REMARK    1  A    between atoms: C1_2  and  C2_3 
REMARK    2  A    between atoms: C2_3  and  C3_4 
ROOT
ATOM      1  C3  UNL d   1      -4.130   3.409  -5.402  0.00  0.00    -0.075 A 
ATOM      2  C4  UNL d   1      -5.044   3.702  -4.380  0.00  0.00     0.002 A 
ATOM      3  C5  UNL d   1      -5.959   2.741  -3.949  0.00  0.00     0.002 A 
ATOM      4  C6  UNL d   1      -5.977   1.479  -4.540  0.00  0.00    -0.004 A 
ATOM      5  C7  UNL d   1      -5.085   1.182  -5.567  0.00  0.00     0.002 A 
ATOM      6  C8  UNL d   1      -4.166   2.141  -5.997  0.00  0.00     0.002 A 
ENDROOT
BRANCH   1   7
ATOM      7  C2  UNL d   1      -3.119   4.436  -5.852  0.00  0.00     0.056 C 
BRANCH   7   8
ATOM      8  C1  UNL d   1      -1.915   4.579  -4.914  0.00  0.00     0.007 C 
ATOM      9  C   UNL d   1      -1.011   5.750  -5.273  0.00  0.00     0.009 C 
ENDBRANCH   7   8
ENDBRANCH   1   7
TORSDOF 2
ENDMDL
