MODEL 1
REMARK minimizedAffinity 3.81750035
REMARK minimizedRMSD -1
REMARK  2 active torsions:
REMARK  status: ('A' for Active; 'I' for Inactive)
REMARK    1  A    between atoms: C1_2  and  C2_3 
REMARK    2  A    between atoms: C2_3  and  C3_4 
ROOT
ATOM      1  C3  UNL d   1      -4.196   3.319  -5.252  0.00  0.00    -0.075 A 
ATOM      2  C4  UNL d   1      -3.463   2.891  -4.136  0.00  0.00     0.002 A 
ATOM      3  C5  UNL d   1      -2.291   3.549  -3.763  0.00  0.00     0.002 A 
ATOM      4  C6  UNL d   1      -1.831   4.635  -4.506  0.00  0.00    -0.004 A 
ATOM      5  C7  UNL d   1      -2.542   5.058  -5.626  0.00  0.00     0.002 A 
ATOM      6  C8  UNL d   1      -3.718   4.405  -5.999  0.00  0.00     0.002 A 
ENDROOT
BRANCH   1   7
ATOM      7  C2  UNL d   1      -5.481   2.630  -5.643  0.00  0.00     0.056 C 
BRANCH   7   8
ATOM      8  C1  UNL d   1      -5.991   1.626  -4.605  0.00  0.00     0.007 C 
ATOM      9  C   UNL d   1      -4.903   0.698  -4.081  0.00  0.00     0.009 C 
ENDBRANCH   7   8
ENDBRANCH   1   7
TORSDOF 2
ENDMDL
