MODEL 1
REMARK minimizedAffinity -1.30089223
REMARK minimizedRMSD -1
REMARK  2 active torsions:
REMARK  status: ('A' for Active; 'I' for Inactive)
REMARK    1  A    between atoms: C1_2  and  C2_3 
REMARK    2  A    between atoms: C2_3  and  C3_4 
ROOT
ATOM      1  C3  UNL d   1      -3.430   3.566  -4.879  0.00  0.00    -0.075 A 
ATOM      2  C4  UNL d   1      -3.899   2.312  -4.463  0.00  0.00     0.002 A 
ATOM      3  C5  UNL d   1      -5.175   1.877  -4.825  0.00  0.00     0.002 A 
ATOM      4  C6  UNL d   1      -6.000   2.694  -5.595  0.00  0.00    -0.004 A 
ATOM      5  C7  UNL d   1      -5.550   3.949  -6.000  0.00  0.00     0.002 A 
ATOM      6  C8  UNL d   1      -4.273   4.384  -5.644  0.00  0.00     0.002 A 
ENDROOT
BRANCH   1   7
ATOM      7  C2  UNL d   1      -2.039   4.030  -4.517  0.00  0.00     0.056 C 
BRANCH   7   8
ATOM      8  C1  UNL d   1      -1.565   5.256  -5.304  0.00  0.00     0.007 C 
ATOM      9  C   UNL d   1      -0.123   5.143  -5.780  0.00  0.00     0.009 C 
ENDBRANCH   7   8
ENDBRANCH   1   7
TORSDOF 2
ENDMDL
