MODEL 1
REMARK minimizedAffinity -2.84072709
REMARK minimizedRMSD -1
REMARK  2 active torsions:
REMARK  status: ('A' for Active; 'I' for Inactive)
REMARK    1  A    between atoms: C1_2  and  C2_3 
REMARK    2  A    between atoms: C2_3  and  C3_4 
ROOT
ATOM      1  C3  UNL d   1      -3.575   3.869  -4.385  0.00  0.00    -0.075 A 
ATOM      2  C4  UNL d   1      -3.853   4.775  -5.419  0.00  0.00     0.002 A 
ATOM      3  C5  UNL d   1      -2.829   5.523  -6.000  0.00  0.00     0.002 A 
ATOM      4  C6  UNL d   1      -1.518   5.383  -5.549  0.00  0.00    -0.004 A 
ATOM      5  C7  UNL d   1      -1.233   4.498  -4.511  0.00  0.00     0.002 A 
ATOM      6  C8  UNL d   1      -2.255   3.745  -3.931  0.00  0.00     0.002 A 
ENDROOT
BRANCH   1   7
ATOM      7  C2  UNL d   1      -4.674   3.035  -3.772  0.00  0.00     0.056 C 
BRANCH   7   8
ATOM      8  C1  UNL d   1      -4.930   1.709  -4.497  0.00  0.00     0.007 C 
ATOM      9  C   UNL d   1      -5.194   1.882  -5.987  0.00  0.00     0.009 C 
ENDBRANCH   7   8
ENDBRANCH   1   7
TORSDOF 2
ENDMDL
