MODEL 1
REMARK minimizedAffinity 2.43061733
REMARK minimizedRMSD -1
REMARK  2 active torsions:
REMARK  status: ('A' for Active; 'I' for Inactive)
REMARK    1  A    between atoms: C1_2  and  C2_3 
REMARK    2  A    between atoms: C2_3  and  C3_4 
ROOT
ATOM      1  C3  UNL d   1      -3.571   3.584  -5.273  0.00  0.00    -0.075 A 
ATOM      2  C4  UNL d   1      -4.793   3.824  -5.919  0.00  0.00     0.002 A 
ATOM      3  C5  UNL d   1      -5.999   3.664  -5.236  0.00  0.00     0.002 A 
ATOM      4  C6  UNL d   1      -6.000   3.253  -3.905  0.00  0.00    -0.004 A 
ATOM      5  C7  UNL d   1      -4.793   2.995  -3.258  0.00  0.00     0.002 A 
ATOM      6  C8  UNL d   1      -3.585   3.159  -3.938  0.00  0.00     0.002 A 
ENDROOT
BRANCH   1   7
ATOM      7  C2  UNL d   1      -2.262   3.783  -5.998  0.00  0.00     0.056 C 
BRANCH   7   8
ATOM      8  C1  UNL d   1      -1.764   5.232  -5.999  0.00  0.00     0.007 C 
ATOM      9  C   UNL d   1      -1.079   5.634  -4.700  0.00  0.00     0.009 C 
ENDBRANCH   7   8
ENDBRANCH   1   7
TORSDOF 2
ENDMDL
