MODEL 1
REMARK minimizedAffinity 2.33966851
REMARK minimizedRMSD -1
REMARK  2 active torsions:
REMARK  status: ('A' for Active; 'I' for Inactive)
REMARK    1  A    between atoms: C1_2  and  C2_3 
REMARK    2  A    between atoms: C2_3  and  C3_4 
ROOT
ATOM      1  C3  UNL d   1      -3.667   2.915  -4.461  0.00  0.00    -0.075 A 
ATOM      2  C4  UNL d   1      -3.874   4.069  -5.231  0.00  0.00     0.002 A 
ATOM      3  C5  UNL d   1      -5.035   4.214  -5.992  0.00  0.00     0.002 A 
ATOM      4  C6  UNL d   1      -5.997   3.206  -6.000  0.00  0.00    -0.004 A 
ATOM      5  C7  UNL d   1      -5.794   2.049  -5.252  0.00  0.00     0.002 A 
ATOM      6  C8  UNL d   1      -4.635   1.903  -4.487  0.00  0.00     0.002 A 
ENDROOT
BRANCH   1   7
ATOM      7  C2  UNL d   1      -2.426   2.765  -3.614  0.00  0.00     0.056 C 
BRANCH   7   8
ATOM      8  C1  UNL d   1      -2.708   2.370  -2.160  0.00  0.00     0.007 C 
ATOM      9  C   UNL d   1      -1.458   1.952  -1.398  0.00  0.00     0.009 C 
ENDBRANCH   7   8
ENDBRANCH   1   7
TORSDOF 2
ENDMDL
