MODEL 1
REMARK minimizedAffinity 6.97538519
REMARK minimizedRMSD -1
REMARK  2 active torsions:
REMARK  status: ('A' for Active; 'I' for Inactive)
REMARK    1  A    between atoms: C1_2  and  C2_3 
REMARK    2  A    between atoms: C2_3  and  C3_4 
ROOT
ATOM      1  C3  UNL d   1       0.899   4.024   1.592  0.00  0.00    -0.075 A 
ATOM      2  C4  UNL d   1       0.474   3.221   0.524  0.00  0.00     0.002 A 
ATOM      3  C5  UNL d   1       0.331   1.843   0.688  0.00  0.00     0.002 A 
ATOM      4  C6  UNL d   1       0.620   1.250   1.915  0.00  0.00    -0.004 A 
ATOM      5  C7  UNL d   1       1.058   2.036   2.978  0.00  0.00     0.002 A 
ATOM      6  C8  UNL d   1       1.198   3.416   2.819  0.00  0.00     0.002 A 
ENDROOT
BRANCH   1   7
ATOM      7  C2  UNL d   1       1.028   5.520   1.431  0.00  0.00     0.056 C 
BRANCH   7   8
ATOM      8  C1  UNL d   1       0.986   5.996  -0.025  0.00  0.00     0.007 C 
ATOM      9  C   UNL d   1       2.353   5.999  -0.696  0.00  0.00     0.009 C 
ENDBRANCH   7   8
ENDBRANCH   1   7
TORSDOF 2
ENDMDL
