MODEL 1
REMARK minimizedAffinity 6.42040253
REMARK minimizedRMSD -1
REMARK  2 active torsions:
REMARK  status: ('A' for Active; 'I' for Inactive)
REMARK    1  A    between atoms: C1_2  and  C2_3 
REMARK    2  A    between atoms: C2_3  and  C3_4 
ROOT
ATOM      1  C3  UNL d   1      -3.894   3.204  -4.307  0.00  0.00    -0.075 A 
ATOM      2  C4  UNL d   1      -4.279   1.856  -4.304  0.00  0.00     0.002 A 
ATOM      3  C5  UNL d   1      -5.294   1.406  -5.149  0.00  0.00     0.002 A 
ATOM      4  C6  UNL d   1      -5.943   2.299  -5.999  0.00  0.00    -0.004 A 
ATOM      5  C7  UNL d   1      -5.580   3.644  -5.999  0.00  0.00     0.002 A 
ATOM      6  C8  UNL d   1      -4.562   4.096  -5.157  0.00  0.00     0.002 A 
ENDROOT
BRANCH   1   7
ATOM      7  C2  UNL d   1      -2.776   3.691  -3.417  0.00  0.00     0.056 C 
BRANCH   7   8
ATOM      8  C1  UNL d   1      -1.702   4.501  -4.150  0.00  0.00     0.007 C 
ATOM      9  C   UNL d   1      -1.805   6.000  -3.900  0.00  0.00     0.009 C 
ENDBRANCH   7   8
ENDBRANCH   1   7
TORSDOF 2
ENDMDL
