MODEL 1
REMARK minimizedAffinity -5.17126703
REMARK minimizedRMSD -1
REMARK  1 active torsions:
REMARK  status: ('A' for Active; 'I' for Inactive)
REMARK    1  A    between atoms: C1_2  and  C2_3 
ROOT
ATOM      1  C2  UNL d   1      -1.995  -0.621   0.177  0.00  0.00    -0.077 A 
ATOM      2  C3  UNL d   1      -0.655  -0.907   0.477  0.00  0.00     0.002 A 
ATOM      3  C4  UNL d   1       0.338  -0.729  -0.488  0.00  0.00     0.002 A 
ATOM      4  C5  UNL d   1       0.003  -0.260  -1.757  0.00  0.00    -0.004 A 
ATOM      5  C6  UNL d   1      -1.326   0.026  -2.065  0.00  0.00     0.002 A 
ATOM      6  C7  UNL d   1      -2.321  -0.153  -1.103  0.00  0.00     0.002 A 
ENDROOT
BRANCH   1   7
ATOM      7  C1  UNL d   1      -3.061  -0.765   1.231  0.00  0.00     0.055 C 
ATOM      8  C   UNL d   1      -2.507  -1.409   2.494  0.00  0.00     0.019 C 
ENDBRANCH   1   7
TORSDOF 1
ENDMDL
