MODEL 1
REMARK minimizedAffinity 0.556292832
REMARK minimizedRMSD -1
REMARK  1 active torsions:
REMARK  status: ('A' for Active; 'I' for Inactive)
REMARK    1  A    between atoms: C1_2  and  C2_3 
ROOT
ATOM      1  C2  UNL d   1       0.072  -0.467  -0.085  0.00  0.00    -0.077 A 
ATOM      2  C3  UNL d   1       0.398   0.722  -0.753  0.00  0.00     0.002 A 
ATOM      3  C4  UNL d   1      -0.356   1.145  -1.849  0.00  0.00     0.002 A 
ATOM      4  C5  UNL d   1      -1.443   0.389  -2.283  0.00  0.00    -0.004 A 
ATOM      5  C6  UNL d   1      -1.774  -0.796  -1.626  0.00  0.00     0.002 A 
ATOM      6  C7  UNL d   1      -1.020  -1.221  -0.532  0.00  0.00     0.002 A 
ENDROOT
BRANCH   1   7
ATOM      7  C1  UNL d   1       0.855  -0.900   1.127  0.00  0.00     0.055 C 
ATOM      8  C   UNL d   1       0.170  -2.054   1.845  0.00  0.00     0.019 C 
ENDBRANCH   1   7
TORSDOF 1
ENDMDL
