MODEL 1
REMARK minimizedAffinity -1.17656362
REMARK minimizedRMSD -1
REMARK  1 active torsions:
REMARK  status: ('A' for Active; 'I' for Inactive)
REMARK    1  A    between atoms: C1_2  and  C2_3 
ROOT
ATOM      1  C2  UNL d   1       0.804   0.632  -0.013  0.00  0.00    -0.077 A 
ATOM      2  C3  UNL d   1       0.480  -0.541   0.683  0.00  0.00     0.002 A 
ATOM      3  C4  UNL d   1      -0.608  -1.321   0.285  0.00  0.00     0.002 A 
ATOM      4  C5  UNL d   1      -1.377  -0.938  -0.812  0.00  0.00    -0.004 A 
ATOM      5  C6  UNL d   1      -1.064   0.228  -1.509  0.00  0.00     0.002 A 
ATOM      6  C7  UNL d   1       0.022   1.009  -1.112  0.00  0.00     0.002 A 
ENDROOT
BRANCH   1   7
ATOM      7  C1  UNL d   1       2.006   1.448   0.385  0.00  0.00     0.055 C 
ATOM      8  C   UNL d   1       1.791   2.132   1.727  0.00  0.00     0.019 C 
ENDBRANCH   1   7
TORSDOF 1
ENDMDL
