MODEL 1
REMARK minimizedAffinity -3.80718422
REMARK minimizedRMSD -1
REMARK  1 active torsions:
REMARK  status: ('A' for Active; 'I' for Inactive)
REMARK    1  A    between atoms: C1_2  and  C2_3 
ROOT
ATOM      1  C2  UNL d   1      -5.361   4.913   3.333  0.00  0.00    -0.077 A 
ATOM      2  C3  UNL d   1      -4.238   5.678   3.676  0.00  0.00     0.002 A 
ATOM      3  C4  UNL d   1      -3.761   5.684   4.988  0.00  0.00     0.002 A 
ATOM      4  C5  UNL d   1      -4.399   4.923   5.966  0.00  0.00    -0.004 A 
ATOM      5  C6  UNL d   1      -5.518   4.161   5.635  0.00  0.00     0.002 A 
ATOM      6  C7  UNL d   1      -5.997   4.155   4.324  0.00  0.00     0.002 A 
ENDROOT
BRANCH   1   7
ATOM      7  C1  UNL d   1      -5.847   4.866   1.907  0.00  0.00     0.055 C 
ATOM      8  C   UNL d   1      -4.742   5.248   0.933  0.00  0.00     0.019 C 
ENDBRANCH   1   7
TORSDOF 1
ENDMDL
