MODEL 1
REMARK minimizedAffinity 3.74839163
REMARK minimizedRMSD -1
REMARK  1 active torsions:
REMARK  status: ('A' for Active; 'I' for Inactive)
REMARK    1  A    between atoms: C1_2  and  C2_3 
ROOT
ATOM      1  C2  UNL d   1      -1.022  -1.569   1.150  0.00  0.00    -0.077 A 
ATOM      2  C3  UNL d   1      -1.039  -1.618  -0.251  0.00  0.00     0.002 A 
ATOM      3  C4  UNL d   1      -2.201  -1.296  -0.955  0.00  0.00     0.002 A 
ATOM      4  C5  UNL d   1      -3.353  -0.920  -0.267  0.00  0.00    -0.004 A 
ATOM      5  C6  UNL d   1      -3.347  -0.870   1.126  0.00  0.00     0.002 A 
ATOM      6  C7  UNL d   1      -2.187  -1.193   1.832  0.00  0.00     0.002 A 
ENDROOT
BRANCH   1   7
ATOM      7  C1  UNL d   1       0.244  -1.868   1.909  0.00  0.00     0.055 C 
ATOM      8  C   UNL d   1       1.437  -1.144   1.303  0.00  0.00     0.019 C 
ENDBRANCH   1   7
TORSDOF 1
ENDMDL
