MODEL 1
REMARK minimizedAffinity 1.92347133
REMARK minimizedRMSD -1
REMARK  1 active torsions:
REMARK  status: ('A' for Active; 'I' for Inactive)
REMARK    1  A    between atoms: C1_2  and  C2_3 
ROOT
ATOM      1  C2  UNL d   1      -0.551  -1.231   0.520  0.00  0.00    -0.077 A 
ATOM      2  C3  UNL d   1      -1.936  -1.245   0.299  0.00  0.00     0.002 A 
ATOM      3  C4  UNL d   1      -2.461  -0.804  -0.917  0.00  0.00     0.002 A 
ATOM      4  C5  UNL d   1      -1.610  -0.351  -1.923  0.00  0.00    -0.004 A 
ATOM      5  C6  UNL d   1      -0.232  -0.331  -1.712  0.00  0.00     0.002 A 
ATOM      6  C7  UNL d   1       0.295  -0.770  -0.497  0.00  0.00     0.002 A 
ENDROOT
BRANCH   1   7
ATOM      7  C1  UNL d   1       0.021  -1.751   1.812  0.00  0.00     0.055 C 
ATOM      8  C   UNL d   1       1.509  -1.449   1.921  0.00  0.00     0.019 C 
ENDBRANCH   1   7
TORSDOF 1
ENDMDL
