MODEL 1
REMARK minimizedAffinity 1.51522923
REMARK minimizedRMSD -1
REMARK  1 active torsions:
REMARK  status: ('A' for Active; 'I' for Inactive)
REMARK    1  A    between atoms: C1_2  and  C2_3 
ROOT
ATOM      1  C2  UNL d   1       4.837   2.137  -0.019  0.00  0.00    -0.077 A 
ATOM      2  C3  UNL d   1       4.898   2.250   1.377  0.00  0.00     0.002 A 
ATOM      3  C4  UNL d   1       3.803   2.736   2.094  0.00  0.00     0.002 A 
ATOM      4  C5  UNL d   1       2.639   3.107   1.425  0.00  0.00    -0.004 A 
ATOM      5  C6  UNL d   1       2.569   3.000   0.037  0.00  0.00     0.002 A 
ATOM      6  C7  UNL d   1       3.663   2.516  -0.682  0.00  0.00     0.002 A 
ENDROOT
BRANCH   1   7
ATOM      7  C1  UNL d   1       5.999   1.567  -0.791  0.00  0.00     0.055 C 
ATOM      8  C   UNL d   1       6.000   0.046  -0.748  0.00  0.00     0.019 C 
ENDBRANCH   1   7
TORSDOF 1
ENDMDL
