MODEL 1
REMARK minimizedAffinity 0.770624399
REMARK minimizedRMSD -1
REMARK  1 active torsions:
REMARK  status: ('A' for Active; 'I' for Inactive)
REMARK    1  A    between atoms: C1_2  and  C2_3 
ROOT
ATOM      1  C2  UNL d   1       0.992   0.725   2.592  0.00  0.00    -0.077 A 
ATOM      2  C3  UNL d   1       1.936  -0.286   2.366  0.00  0.00     0.002 A 
ATOM      3  C4  UNL d   1       1.526  -1.560   1.972  0.00  0.00     0.002 A 
ATOM      4  C5  UNL d   1       0.171  -1.835   1.796  0.00  0.00    -0.004 A 
ATOM      5  C6  UNL d   1      -0.776  -0.836   2.020  0.00  0.00     0.002 A 
ATOM      6  C7  UNL d   1      -0.368   0.438   2.415  0.00  0.00     0.002 A 
ENDROOT
BRANCH   1   7
ATOM      7  C1  UNL d   1       1.436   2.114   2.970  0.00  0.00     0.055 C 
ATOM      8  C   UNL d   1       2.498   2.636   2.013  0.00  0.00     0.019 C 
ENDBRANCH   1   7
TORSDOF 1
ENDMDL
