MODEL 1
REMARK minimizedAffinity -0.480643928
REMARK minimizedRMSD -1
REMARK  1 active torsions:
REMARK  status: ('A' for Active; 'I' for Inactive)
REMARK    1  A    between atoms: C1_2  and  C2_3 
ROOT
ATOM      1  C2  UNL d   1      -3.688  -1.441   0.162  0.00  0.00    -0.077 A 
ATOM      2  C3  UNL d   1      -2.433  -1.893  -0.269  0.00  0.00     0.002 A 
ATOM      3  C4  UNL d   1      -1.640  -1.094  -1.095  0.00  0.00     0.002 A 
ATOM      4  C5  UNL d   1      -2.091   0.162  -1.493  0.00  0.00    -0.004 A 
ATOM      5  C6  UNL d   1      -3.339   0.620  -1.071  0.00  0.00     0.002 A 
ATOM      6  C7  UNL d   1      -4.133  -0.178  -0.247  0.00  0.00     0.002 A 
ENDROOT
BRANCH   1   7
ATOM      7  C1  UNL d   1      -4.523  -2.281   1.093  0.00  0.00     0.055 C 
ATOM      8  C   UNL d   1      -6.000  -1.930   0.980  0.00  0.00     0.019 C 
ENDBRANCH   1   7
TORSDOF 1
ENDMDL
