MODEL 1
REMARK minimizedAffinity 1.75151789
REMARK minimizedRMSD -1
REMARK  1 active torsions:
REMARK  status: ('A' for Active; 'I' for Inactive)
REMARK    1  A    between atoms: C1_2  and  C2_3 
ROOT
ATOM      1  C2  UNL d   1      -0.819   1.473  -3.311  0.00  0.00    -0.077 A 
ATOM      2  C3  UNL d   1      -2.134   1.906  -3.085  0.00  0.00     0.002 A 
ATOM      3  C4  UNL d   1      -3.009   1.135  -2.317  0.00  0.00     0.002 A 
ATOM      4  C5  UNL d   1      -2.578  -0.070  -1.766  0.00  0.00    -0.004 A 
ATOM      5  C6  UNL d   1      -1.273  -0.510  -1.987  0.00  0.00     0.002 A 
ATOM      6  C7  UNL d   1      -0.398   0.259  -2.755  0.00  0.00     0.002 A 
ENDROOT
BRANCH   1   7
ATOM      7  C1  UNL d   1       0.141   2.327  -4.098  0.00  0.00     0.055 C 
ATOM      8  C   UNL d   1       0.842   1.518  -5.180  0.00  0.00     0.019 C 
ENDBRANCH   1   7
TORSDOF 1
ENDMDL
