MODEL 1
REMARK minimizedAffinity 3.3680644
REMARK minimizedRMSD -1
REMARK  1 active torsions:
REMARK  status: ('A' for Active; 'I' for Inactive)
REMARK    1  A    between atoms: C1_2  and  C2_3 
ROOT
ATOM      1  C2  UNL d   1      -0.482   0.292  -2.430  0.00  0.00    -0.077 A 
ATOM      2  C3  UNL d   1      -0.467  -0.900  -1.693  0.00  0.00     0.002 A 
ATOM      3  C4  UNL d   1      -1.568  -1.264  -0.915  0.00  0.00     0.002 A 
ATOM      4  C5  UNL d   1      -2.693  -0.444  -0.871  0.00  0.00    -0.004 A 
ATOM      5  C6  UNL d   1      -2.717   0.745  -1.599  0.00  0.00     0.002 A 
ATOM      6  C7  UNL d   1      -1.617   1.111  -2.376  0.00  0.00     0.002 A 
ENDROOT
BRANCH   1   7
ATOM      7  C1  UNL d   1       0.685   0.662  -3.308  0.00  0.00     0.055 C 
ATOM      8  C   UNL d   1       0.496   2.038  -3.928  0.00  0.00     0.019 C 
ENDBRANCH   1   7
TORSDOF 1
ENDMDL
