MODEL 1
REMARK minimizedAffinity 6.34033108
REMARK minimizedRMSD -1
REMARK  1 active torsions:
REMARK  status: ('A' for Active; 'I' for Inactive)
REMARK    1  A    between atoms: C1_2  and  C2_3 
ROOT
ATOM      1  C2  UNL d   1      -1.087  -1.096   0.629  0.00  0.00    -0.077 A 
ATOM      2  C3  UNL d   1      -1.367  -0.676   1.937  0.00  0.00     0.002 A 
ATOM      3  C4  UNL d   1      -0.329  -0.363   2.816  0.00  0.00     0.002 A 
ATOM      4  C5  UNL d   1       0.996  -0.464   2.396  0.00  0.00    -0.004 A 
ATOM      5  C6  UNL d   1       1.285  -0.883   1.098  0.00  0.00     0.002 A 
ATOM      6  C7  UNL d   1       0.248  -1.196   0.218  0.00  0.00     0.002 A 
ENDROOT
BRANCH   1   7
ATOM      7  C1  UNL d   1      -2.207  -1.385  -0.336  0.00  0.00     0.055 C 
ATOM      8  C   UNL d   1      -2.278  -0.333  -1.433  0.00  0.00     0.019 C 
ENDBRANCH   1   7
TORSDOF 1
ENDMDL
