MODEL 1
REMARK minimizedAffinity 8.23445892
REMARK minimizedRMSD -1
REMARK  1 active torsions:
REMARK  status: ('A' for Active; 'I' for Inactive)
REMARK    1  A    between atoms: C1_2  and  C2_3 
ROOT
ATOM      1  C2  UNL d   1       5.306  -2.327   3.525  0.00  0.00    -0.073 A 
ATOM      2  C3  UNL d   1       5.941  -3.226   4.389  0.00  0.00    -0.002 A 
ATOM      3  C4  UNL d   1       5.369  -3.543   5.621  0.00  0.00     0.004 A 
ATOM      4  C5  UNL d   1       4.155  -2.971   6.000  0.00  0.00    -0.004 A 
ATOM      5  C6  UNL d   1       3.498  -2.080   5.145  0.00  0.00    -0.075 A 
ATOM      6  C7  UNL d   1       2.192  -1.454   5.538  0.00  0.00     0.076 C 
ATOM      7  C8  UNL d   1       4.081  -1.764   3.910  0.00  0.00     0.001 A 
ENDROOT
BRANCH   1   8
ATOM      8  C1  UNL d   1       5.916  -1.986   2.190  0.00  0.00     0.053 C 
ATOM      9  C   UNL d   1       5.282  -2.775   1.055  0.00  0.00     0.018 C 
ENDBRANCH   1   8
TORSDOF 1
ENDMDL
