MODEL 1
REMARK minimizedAffinity 10.26441
REMARK minimizedRMSD -1
REMARK  1 active torsions:
REMARK  status: ('A' for Active; 'I' for Inactive)
REMARK    1  A    between atoms: C1_2  and  C2_3 
ROOT
ATOM      1  C2  UNL d   1      -4.908   2.252   0.386  0.00  0.00    -0.073 A 
ATOM      2  C3  UNL d   1      -3.680   2.068   1.033  0.00  0.00    -0.002 A 
ATOM      3  C4  UNL d   1      -3.199   3.033   1.918  0.00  0.00     0.004 A 
ATOM      4  C5  UNL d   1      -3.941   4.186   2.172  0.00  0.00    -0.004 A 
ATOM      5  C6  UNL d   1      -5.176   4.382   1.544  0.00  0.00    -0.075 A 
ATOM      6  C7  UNL d   1      -5.986   5.619   1.804  0.00  0.00     0.076 C 
ATOM      7  C8  UNL d   1      -5.651   3.410   0.654  0.00  0.00     0.001 A 
ENDROOT
BRANCH   1   8
ATOM      8  C1  UNL d   1      -5.435   1.210  -0.566  0.00  0.00     0.053 C 
ATOM      9  C   UNL d   1      -4.424   0.863  -1.648  0.00  0.00     0.018 C 
ENDBRANCH   1   8
TORSDOF 1
ENDMDL
