MODEL 1
REMARK minimizedAffinity 15.361824
REMARK minimizedRMSD -1
REMARK  1 active torsions:
REMARK  status: ('A' for Active; 'I' for Inactive)
REMARK    1  A    between atoms: C1_2  and  C2_3 
ROOT
ATOM      1  C2  UNL d   1       1.461   5.191  -0.889  0.00  0.00    -0.073 A 
ATOM      2  C3  UNL d   1       1.799   4.115  -0.060  0.00  0.00    -0.002 A 
ATOM      3  C4  UNL d   1       0.802   3.378   0.581  0.00  0.00     0.004 A 
ATOM      4  C5  UNL d   1      -0.541   3.705   0.395  0.00  0.00    -0.004 A 
ATOM      5  C6  UNL d   1      -0.900   4.769  -0.439  0.00  0.00    -0.075 A 
ATOM      6  C7  UNL d   1      -2.340   5.134  -0.648  0.00  0.00     0.076 C 
ATOM      7  C8  UNL d   1       0.107   5.505  -1.077  0.00  0.00     0.001 A 
ENDROOT
BRANCH   1   8
ATOM      8  C1  UNL d   1       2.534   5.985  -1.588  0.00  0.00     0.053 C 
ATOM      9  C   UNL d   1       2.350   5.985  -3.098  0.00  0.00     0.018 C 
ENDBRANCH   1   8
TORSDOF 1
ENDMDL
