MODEL 1
REMARK minimizedAffinity 12.4859924
REMARK minimizedRMSD -1
REMARK  1 active torsions:
REMARK  status: ('A' for Active; 'I' for Inactive)
REMARK    1  A    between atoms: C1_2  and  C2_3 
ROOT
ATOM      1  C2  UNL d   1       1.208   5.034  -0.923  0.00  0.00    -0.073 A 
ATOM      2  C3  UNL d   1      -0.159   5.258  -1.126  0.00  0.00    -0.002 A 
ATOM      3  C4  UNL d   1      -1.103   4.367  -0.614  0.00  0.00     0.004 A 
ATOM      4  C5  UNL d   1      -0.692   3.249   0.112  0.00  0.00    -0.004 A 
ATOM      5  C6  UNL d   1       0.669   3.015   0.336  0.00  0.00    -0.075 A 
ATOM      6  C7  UNL d   1       1.128   1.816   1.113  0.00  0.00     0.076 C 
ATOM      7  C8  UNL d   1       1.611   3.912  -0.184  0.00  0.00     0.001 A 
ENDROOT
BRANCH   1   8
ATOM      8  C1  UNL d   1       2.230   5.996  -1.469  0.00  0.00     0.053 C 
ATOM      9  C   UNL d   1       2.255   6.000  -2.990  0.00  0.00     0.018 C 
ENDBRANCH   1   8
TORSDOF 1
ENDMDL
