MODEL 1
REMARK minimizedAffinity 10.5458479
REMARK minimizedRMSD -1
REMARK  1 active torsions:
REMARK  status: ('A' for Active; 'I' for Inactive)
REMARK    1  A    between atoms: C1_2  and  C2_3 
ROOT
ATOM      1  C2  UNL d   1      -1.053   3.288  -0.361  0.00  0.00    -0.073 A 
ATOM      2  C3  UNL d   1      -0.285   2.333   0.314  0.00  0.00    -0.002 A 
ATOM      3  C4  UNL d   1       1.095   2.500   0.442  0.00  0.00     0.004 A 
ATOM      4  C5  UNL d   1       1.719   3.625  -0.097  0.00  0.00    -0.004 A 
ATOM      5  C6  UNL d   1       0.967   4.596  -0.765  0.00  0.00    -0.075 A 
ATOM      6  C7  UNL d   1       1.623   5.811  -1.352  0.00  0.00     0.076 C 
ATOM      7  C8  UNL d   1      -0.418   4.420  -0.891  0.00  0.00     0.001 A 
ENDROOT
BRANCH   1   8
ATOM      8  C1  UNL d   1      -2.544   3.116  -0.496  0.00  0.00     0.053 C 
ATOM      9  C   UNL d   1      -3.217   2.905   0.851  0.00  0.00     0.018 C 
ENDBRANCH   1   8
TORSDOF 1
ENDMDL
