MODEL 1
REMARK minimizedAffinity 11.0503473
REMARK minimizedRMSD -1
REMARK  1 active torsions:
REMARK  status: ('A' for Active; 'I' for Inactive)
REMARK    1  A    between atoms: C1_2  and  C2_3 
ROOT
ATOM      1  C2  UNL d   1      -2.478   3.159   1.004  0.00  0.00    -0.073 A 
ATOM      2  C3  UNL d   1      -3.263   2.168   0.405  0.00  0.00    -0.002 A 
ATOM      3  C4  UNL d   1      -4.652   2.298   0.365  0.00  0.00     0.004 A 
ATOM      4  C5  UNL d   1      -5.269   3.421   0.915  0.00  0.00    -0.004 A 
ATOM      5  C6  UNL d   1      -4.500   4.429   1.507  0.00  0.00    -0.075 A 
ATOM      6  C7  UNL d   1      -5.148   5.643   2.105  0.00  0.00     0.076 C 
ATOM      7  C8  UNL d   1      -3.106   4.290   1.546  0.00  0.00     0.001 A 
ENDROOT
BRANCH   1   8
ATOM      8  C1  UNL d   1      -0.977   3.026   1.044  0.00  0.00     0.053 C 
ATOM      9  C   UNL d   1      -0.363   3.074  -0.346  0.00  0.00     0.018 C 
ENDBRANCH   1   8
TORSDOF 1
ENDMDL
