MODEL 1
REMARK minimizedAffinity 1.85594583
REMARK minimizedRMSD -1
REMARK  1 active torsions:
REMARK  status: ('A' for Active; 'I' for Inactive)
REMARK    1  A    between atoms: C1_2  and  C2_3 
ROOT
ATOM      1  C2  UNL d   1      -0.986   5.321  -1.511  0.00  0.00    -0.073 A 
ATOM      2  C3  UNL d   1       0.205   6.000  -1.793  0.00  0.00    -0.002 A 
ATOM      3  C4  UNL d   1       1.436   5.433  -1.458  0.00  0.00     0.004 A 
ATOM      4  C5  UNL d   1       1.488   4.182  -0.845  0.00  0.00    -0.004 A 
ATOM      5  C6  UNL d   1       0.310   3.482  -0.566  0.00  0.00    -0.075 A 
ATOM      6  C7  UNL d   1       0.349   2.136   0.095  0.00  0.00     0.076 C 
ATOM      7  C8  UNL d   1      -0.922   4.059  -0.903  0.00  0.00     0.001 A 
ENDROOT
BRANCH   1   8
ATOM      8  C1  UNL d   1      -2.316   5.926  -1.877  0.00  0.00     0.053 C 
ATOM      9  C   UNL d   1      -2.918   5.276  -3.114  0.00  0.00     0.018 C 
ENDBRANCH   1   8
TORSDOF 1
ENDMDL
