MODEL 1
REMARK minimizedAffinity 6.14786863
REMARK minimizedRMSD -1
REMARK  1 active torsions:
REMARK  status: ('A' for Active; 'I' for Inactive)
REMARK    1  A    between atoms: C1_2  and  C2_3 
ROOT
ATOM      1  C2  UNL d   1      -0.530   1.733  -0.461  0.00  0.00    -0.073 A 
ATOM      2  C3  UNL d   1       0.128   1.434  -1.659  0.00  0.00    -0.002 A 
ATOM      3  C4  UNL d   1       0.914   0.286  -1.765  0.00  0.00     0.004 A 
ATOM      4  C5  UNL d   1       1.044  -0.578  -0.678  0.00  0.00    -0.004 A 
ATOM      5  C6  UNL d   1       0.384  -0.303   0.525  0.00  0.00    -0.075 A 
ATOM      6  C7  UNL d   1       0.516  -1.221   1.704  0.00  0.00     0.076 C 
ATOM      7  C8  UNL d   1      -0.400   0.854   0.624  0.00  0.00     0.001 A 
ENDROOT
BRANCH   1   8
ATOM      8  C1  UNL d   1      -1.385   2.969  -0.344  0.00  0.00     0.053 C 
ATOM      9  C   UNL d   1      -2.687   2.694   0.391  0.00  0.00     0.018 C 
ENDBRANCH   1   8
TORSDOF 1
ENDMDL
