MODEL 1
REMARK minimizedAffinity 13.2834234
REMARK minimizedRMSD -1
REMARK  1 active torsions:
REMARK  status: ('A' for Active; 'I' for Inactive)
REMARK    1  A    between atoms: C1_2  and  C2_3 
ROOT
ATOM      1  C2  UNL d   1       1.845  -1.999   0.901  0.00  0.00    -0.073 A 
ATOM      2  C3  UNL d   1       1.467  -1.114   1.917  0.00  0.00    -0.002 A 
ATOM      3  C4  UNL d   1       2.407  -0.660   2.843  0.00  0.00     0.004 A 
ATOM      4  C5  UNL d   1       3.734  -1.079   2.759  0.00  0.00    -0.004 A 
ATOM      5  C6  UNL d   1       4.135  -1.953   1.743  0.00  0.00    -0.075 A 
ATOM      6  C7  UNL d   1       5.559  -2.415   1.640  0.00  0.00     0.076 C 
ATOM      7  C8  UNL d   1       3.184  -2.407   0.819  0.00  0.00     0.001 A 
ENDROOT
BRANCH   1   8
ATOM      8  C1  UNL d   1       0.835  -2.487  -0.105  0.00  0.00     0.053 C 
ATOM      9  C   UNL d   1       0.765  -4.005  -0.151  0.00  0.00     0.018 C 
ENDBRANCH   1   8
TORSDOF 1
ENDMDL
