MODEL 1
REMARK minimizedAffinity -1.87417686
REMARK minimizedRMSD -1
REMARK  0 active torsions:
REMARK  status: ('A' for Active; 'I' for Inactive)
ROOT
ATOM      1  C1  DEN d   1       1.031   4.003   0.168  0.00  0.00     0.130 A 
ATOM      2  C2  DEN d   1       1.856   4.228   1.352  0.00  0.00    -0.031 A 
ATOM      3  C3  DEN d   1       1.926   2.962   2.108  0.00  0.00     0.027 A 
ATOM      4  C4  DEN d   1       0.846   0.684   1.561  0.00  0.00     0.027 A 
ATOM      5  C5  DEN d   1       0.046   0.007   0.668  0.00  0.00    -0.003 A 
ATOM      6  C6  DEN d   1      -0.506   0.618  -0.427  0.00  0.00     0.001 A 
ATOM      7  C7  DEN d   1      -0.228   1.935  -0.681  0.00  0.00     0.017 A 
ATOM      8  C8  DEN d   1       0.573   2.626   0.218  0.00  0.00    -0.094 A 
ATOM      9  C9  DEN d   1       1.131   1.987   1.313  0.00  0.00    -0.072 A 
ENDROOT
TORSDOF 0
ENDMDL
