MODEL 1
REMARK minimizedAffinity -3.09883571
REMARK minimizedRMSD -1
REMARK  0 active torsions:
REMARK  status: ('A' for Active; 'I' for Inactive)
ROOT
ATOM      1  C1  DEN d   1      -1.677   4.795   1.848  0.00  0.00     0.130 A 
ATOM      2  C2  DEN d   1      -1.235   5.744   2.867  0.00  0.00    -0.031 A 
ATOM      3  C3  DEN d   1       0.232   5.631   2.990  0.00  0.00     0.027 A 
ATOM      4  C4  DEN d   1       1.855   4.090   1.707  0.00  0.00     0.027 A 
ATOM      5  C5  DEN d   1       1.945   3.102   0.752  0.00  0.00    -0.003 A 
ATOM      6  C6  DEN d   1       0.841   2.589   0.124  0.00  0.00     0.001 A 
ATOM      7  C7  DEN d   1      -0.399   3.095   0.413  0.00  0.00     0.017 A 
ATOM      8  C8  DEN d   1      -0.499   4.086   1.380  0.00  0.00    -0.094 A 
ATOM      9  C9  DEN d   1       0.630   4.599   1.995  0.00  0.00    -0.072 A 
ENDROOT
TORSDOF 0
ENDMDL
