MODEL 1
REMARK minimizedAffinity -3.59972191
REMARK minimizedRMSD -1
REMARK  0 active torsions:
REMARK  status: ('A' for Active; 'I' for Inactive)
ROOT
ATOM      1  C1  DEN d   1      -1.179   0.411   2.454  0.00  0.00     0.130 A 
ATOM      2  C2  DEN d   1      -1.738  -0.650   3.286  0.00  0.00    -0.031 A 
ATOM      3  C3  DEN d   1      -1.625  -1.921   2.542  0.00  0.00     0.027 A 
ATOM      4  C4  DEN d   1      -0.642  -2.346   0.196  0.00  0.00     0.027 A 
ATOM      5  C5  DEN d   1      -0.059  -1.751  -0.901  0.00  0.00    -0.003 A 
ATOM      6  C6  DEN d   1       0.159  -0.401  -0.970  0.00  0.00     0.001 A 
ATOM      7  C7  DEN d   1      -0.168   0.395   0.096  0.00  0.00     0.017 A 
ATOM      8  C8  DEN d   1      -0.763  -0.196   1.203  0.00  0.00    -0.094 A 
ATOM      9  C9  DEN d   1      -0.964  -1.565   1.258  0.00  0.00    -0.072 A 
ENDROOT
TORSDOF 0
ENDMDL
