MODEL 1
REMARK minimizedAffinity -5.10083437
REMARK minimizedRMSD -1
REMARK  0 active torsions:
REMARK  status: ('A' for Active; 'I' for Inactive)
ROOT
ATOM      1  C1  DEN d   1       0.191   0.818  -1.189  0.00  0.00     0.130 A 
ATOM      2  C2  DEN d   1      -0.150   1.207   0.177  0.00  0.00    -0.031 A 
ATOM      3  C3  DEN d   1      -0.638   0.006   0.885  0.00  0.00     0.027 A 
ATOM      4  C4  DEN d   1      -0.891  -2.405   0.006  0.00  0.00     0.027 A 
ATOM      5  C5  DEN d   1      -0.740  -3.221  -1.094  0.00  0.00    -0.003 A 
ATOM      6  C6  DEN d   1      -0.304  -2.744  -2.302  0.00  0.00     0.001 A 
ATOM      7  C7  DEN d   1       0.040  -1.424  -2.427  0.00  0.00     0.017 A 
ATOM      8  C8  DEN d   1      -0.117  -0.594  -1.325  0.00  0.00    -0.094 A 
ATOM      9  C9  DEN d   1      -0.548  -1.097  -0.109  0.00  0.00    -0.072 A 
ENDROOT
TORSDOF 0
ENDMDL
