MODEL 1
REMARK minimizedAffinity -1.53165615
REMARK minimizedRMSD -1
REMARK  0 active torsions:
REMARK  status: ('A' for Active; 'I' for Inactive)
ROOT
ATOM      1  C1  DEN d   1       1.064  -1.294  -1.347  0.00  0.00     0.130 A 
ATOM      2  C2  DEN d   1       0.600  -2.481  -0.635  0.00  0.00    -0.031 A 
ATOM      3  C3  DEN d   1      -0.194  -2.034   0.528  0.00  0.00     0.027 A 
ATOM      4  C4  DEN d   1      -0.750   0.367   1.287  0.00  0.00     0.027 A 
ATOM      5  C5  DEN d   1      -0.567   1.703   1.007  0.00  0.00    -0.003 A 
ATOM      6  C6  DEN d   1       0.194   2.131  -0.049  0.00  0.00     0.001 A 
ATOM      7  C7  DEN d   1       0.764   1.213  -0.890  0.00  0.00     0.017 A 
ATOM      8  C8  DEN d   1       0.590  -0.136  -0.611  0.00  0.00    -0.094 A 
ATOM      9  C9  DEN d   1      -0.193  -0.548   0.454  0.00  0.00    -0.072 A 
ENDROOT
TORSDOF 0
ENDMDL
