MODEL 1
REMARK minimizedAffinity -2.70950603
REMARK minimizedRMSD -1
REMARK  0 active torsions:
REMARK  status: ('A' for Active; 'I' for Inactive)
ROOT
ATOM      1  C1  DEN d   1       1.102  -2.424  -0.210  0.00  0.00     0.130 A 
ATOM      2  C2  DEN d   1       0.324  -3.402   0.545  0.00  0.00    -0.031 A 
ATOM      3  C3  DEN d   1      -0.737  -2.677   1.273  0.00  0.00     0.027 A 
ATOM      4  C4  DEN d   1      -1.251  -0.150   1.299  0.00  0.00     0.027 A 
ATOM      5  C5  DEN d   1      -0.857   1.081   0.822  0.00  0.00    -0.003 A 
ATOM      6  C6  DEN d   1       0.230   1.232   0.001  0.00  0.00     0.001 A 
ATOM      7  C7  DEN d   1       0.933   0.129  -0.404  0.00  0.00     0.017 A 
ATOM      8  C8  DEN d   1       0.546  -1.115   0.079  0.00  0.00    -0.094 A 
ATOM      9  C9  DEN d   1      -0.562  -1.248   0.897  0.00  0.00    -0.072 A 
ENDROOT
TORSDOF 0
ENDMDL
