MODEL 1
REMARK minimizedAffinity -2.2536273
REMARK minimizedRMSD -1
REMARK  0 active torsions:
REMARK  status: ('A' for Active; 'I' for Inactive)
ROOT
ATOM      1  C1  DEN d   1       0.171   3.401   0.599  0.00  0.00     0.130 A 
ATOM      2  C2  DEN d   1       1.494   3.811   0.137  0.00  0.00    -0.031 A 
ATOM      3  C3  DEN d   1       2.209   2.606  -0.328  0.00  0.00     0.027 A 
ATOM      4  C4  DEN d   1       1.398   0.158  -0.381  0.00  0.00     0.027 A 
ATOM      5  C5  DEN d   1       0.350  -0.684  -0.081  0.00  0.00    -0.003 A 
ATOM      6  C6  DEN d   1      -0.808  -0.233   0.494  0.00  0.00     0.001 A 
ATOM      7  C7  DEN d   1      -0.964   1.105   0.745  0.00  0.00     0.017 A 
ATOM      8  C8  DEN d   1       0.091   1.959   0.452  0.00  0.00    -0.094 A 
ATOM      9  C9  DEN d   1       1.249   1.485  -0.140  0.00  0.00    -0.072 A 
ENDROOT
TORSDOF 0
ENDMDL
