MODEL 1
REMARK minimizedAffinity -2.39345288
REMARK minimizedRMSD -1
REMARK  0 active torsions:
REMARK  status: ('A' for Active; 'I' for Inactive)
ROOT
ATOM      1  C1  DEN d   1       1.205  -2.227   0.017  0.00  0.00     0.130 A 
ATOM      2  C2  DEN d   1       0.248  -3.212   0.516  0.00  0.00    -0.031 A 
ATOM      3  C3  DEN d   1      -0.931  -2.484   1.026  0.00  0.00     0.027 A 
ATOM      4  C4  DEN d   1      -1.369   0.057   1.087  0.00  0.00     0.027 A 
ATOM      5  C5  DEN d   1      -0.843   1.294   0.787  0.00  0.00    -0.003 A 
ATOM      6  C6  DEN d   1       0.406   1.445   0.245  0.00  0.00     0.001 A 
ATOM      7  C7  DEN d   1       1.153   0.337  -0.055  0.00  0.00     0.017 A 
ATOM      8  C8  DEN d   1       0.633  -0.913   0.251  0.00  0.00    -0.094 A 
ATOM      9  C9  DEN d   1      -0.637  -1.046   0.787  0.00  0.00    -0.072 A 
ENDROOT
TORSDOF 0
ENDMDL
