MODEL 1
REMARK minimizedAffinity -6.08890724
REMARK minimizedRMSD -1
REMARK  0 active torsions:
REMARK  status: ('A' for Active; 'I' for Inactive)
ROOT
ATOM      1  C1  DEN d   1       0.367  -1.662  -2.333  0.00  0.00     0.130 A 
ATOM      2  C2  DEN d   1       0.274  -3.119  -2.292  0.00  0.00    -0.031 A 
ATOM      3  C3  DEN d   1      -0.182  -3.509  -0.943  0.00  0.00     0.027 A 
ATOM      4  C4  DEN d   1      -0.756  -2.008   1.074  0.00  0.00     0.027 A 
ATOM      5  C5  DEN d   1      -0.818  -0.707   1.523  0.00  0.00    -0.003 A 
ATOM      6  C6  DEN d   1      -0.461   0.355   0.736  0.00  0.00     0.001 A 
ATOM      7  C7  DEN d   1      -0.067   0.139  -0.558  0.00  0.00     0.017 A 
ATOM      8  C8  DEN d   1       0.006  -1.170  -1.016  0.00  0.00    -0.094 A 
ATOM      9  C9  DEN d   1      -0.372  -2.229  -0.209  0.00  0.00    -0.072 A 
ENDROOT
TORSDOF 0
ENDMDL
