MODEL 1
REMARK minimizedAffinity -5.06903267
REMARK minimizedRMSD -1
REMARK  0 active torsions:
REMARK  status: ('A' for Active; 'I' for Inactive)
ROOT
ATOM      1  C1  DEN d   1      -0.509  -0.248   1.344  0.00  0.00     0.130 A 
ATOM      2  C2  DEN d   1      -0.198   0.845   0.427  0.00  0.00    -0.031 A 
ATOM      3  C3  DEN d   1       0.100   0.262  -0.896  0.00  0.00     0.027 A 
ATOM      4  C4  DEN d   1       0.104  -2.216  -1.613  0.00  0.00     0.027 A 
ATOM      5  C5  DEN d   1      -0.086  -3.510  -1.181  0.00  0.00    -0.003 A 
ATOM      6  C6  DEN d   1      -0.394  -3.807   0.120  0.00  0.00     0.001 A 
ATOM      7  C7  DEN d   1      -0.567  -2.794   1.026  0.00  0.00     0.017 A 
ATOM      8  C8  DEN d   1      -0.369  -1.487   0.599  0.00  0.00    -0.094 A 
ATOM      9  C9  DEN d   1      -0.070  -1.206  -0.723  0.00  0.00    -0.072 A 
ENDROOT
TORSDOF 0
ENDMDL
