MODEL 1
REMARK minimizedAffinity -5.96332788
REMARK minimizedRMSD -1
REMARK  0 active torsions:
REMARK  status: ('A' for Active; 'I' for Inactive)
ROOT
ATOM      1  C1  DEN d   1      -0.923  -0.389   1.530  0.00  0.00     0.130 A 
ATOM      2  C2  DEN d   1      -0.273   0.801   0.987  0.00  0.00    -0.031 A 
ATOM      3  C3  DEN d   1       0.362   0.430  -0.293  0.00  0.00     0.027 A 
ATOM      4  C4  DEN d   1       0.398  -1.858  -1.484  0.00  0.00     0.027 A 
ATOM      5  C5  DEN d   1      -0.007  -3.172  -1.403  0.00  0.00    -0.003 A 
ATOM      6  C6  DEN d   1      -0.711  -3.654  -0.331  0.00  0.00     0.001 A 
ATOM      7  C7  DEN d   1      -1.070  -2.806   0.682  0.00  0.00     0.017 A 
ATOM      8  C8  DEN d   1      -0.659  -1.481   0.611  0.00  0.00    -0.094 A 
ATOM      9  C9  DEN d   1       0.041  -1.010  -0.486  0.00  0.00    -0.072 A 
ENDROOT
TORSDOF 0
ENDMDL
