MODEL 1
REMARK minimizedAffinity -5.10019016
REMARK minimizedRMSD -1
REMARK  0 active torsions:
REMARK  status: ('A' for Active; 'I' for Inactive)
ROOT
ATOM      1  C1  DEN d   1      -0.194  -3.548  -1.595  0.00  0.00     0.130 A 
ATOM      2  C2  DEN d   1       0.331  -2.966  -2.827  0.00  0.00    -0.031 A 
ATOM      3  C3  DEN d   1       0.584  -1.532  -2.583  0.00  0.00     0.027 A 
ATOM      4  C4  DEN d   1       0.221  -0.164  -0.427  0.00  0.00     0.027 A 
ATOM      5  C5  DEN d   1      -0.218  -0.220   0.878  0.00  0.00    -0.003 A 
ATOM      6  C6  DEN d   1      -0.707  -1.372   1.434  0.00  0.00     0.001 A 
ATOM      7  C7  DEN d   1      -0.728  -2.527   0.698  0.00  0.00     0.017 A 
ATOM      8  C8  DEN d   1      -0.294  -2.476  -0.621  0.00  0.00    -0.094 A 
ATOM      9  C9  DEN d   1       0.209  -1.305  -1.161  0.00  0.00    -0.072 A 
ENDROOT
TORSDOF 0
ENDMDL
