MODEL 1
REMARK minimizedAffinity -2.61920238
REMARK minimizedRMSD -1
REMARK  0 active torsions:
REMARK  status: ('A' for Active; 'I' for Inactive)
ROOT
ATOM      1  C1  DEN d   1      -0.688  -3.234  -1.846  0.00  0.00     0.130 A 
ATOM      2  C2  DEN d   1      -0.226  -2.422  -2.969  0.00  0.00    -0.031 A 
ATOM      3  C3  DEN d   1       0.064  -1.066  -2.464  0.00  0.00     0.027 A 
ATOM      4  C4  DEN d   1      -0.150  -0.149  -0.062  0.00  0.00     0.027 A 
ATOM      5  C5  DEN d   1      -0.512  -0.459   1.230  0.00  0.00    -0.003 A 
ATOM      6  C6  DEN d   1      -0.987  -1.696   1.578  0.00  0.00     0.001 A 
ATOM      7  C7  DEN d   1      -1.069  -2.683   0.631  0.00  0.00     0.017 A 
ATOM      8  C8  DEN d   1      -0.713  -2.375  -0.676  0.00  0.00    -0.094 A 
ATOM      9  C9  DEN d   1      -0.224  -1.122  -1.005  0.00  0.00    -0.072 A 
ENDROOT
TORSDOF 0
ENDMDL
