MODEL 1
REMARK minimizedAffinity -2.89281559
REMARK minimizedRMSD -1
REMARK  0 active torsions:
REMARK  status: ('A' for Active; 'I' for Inactive)
ROOT
ATOM      1  C1  DEN d   1       0.595   2.111   0.837  0.00  0.00     0.130 A 
ATOM      2  C2  DEN d   1       0.504   2.588  -0.540  0.00  0.00    -0.031 A 
ATOM      3  C3  DEN d   1       0.001   1.480  -1.376  0.00  0.00     0.027 A 
ATOM      4  C4  DEN d   1      -0.647  -0.916  -0.674  0.00  0.00     0.027 A 
ATOM      5  C5  DEN d   1      -0.728  -1.792   0.386  0.00  0.00    -0.003 A 
ATOM      6  C6  DEN d   1      -0.345  -1.442   1.653  0.00  0.00     0.001 A 
ATOM      7  C7  DEN d   1       0.095  -0.169   1.902  0.00  0.00     0.017 A 
ATOM      8  C8  DEN d   1       0.186   0.718   0.838  0.00  0.00    -0.094 A 
ATOM      9  C9  DEN d   1      -0.217   0.348  -0.434  0.00  0.00    -0.072 A 
ENDROOT
TORSDOF 0
ENDMDL
