MODEL 1
REMARK minimizedAffinity -1.63752067
REMARK minimizedRMSD -1
REMARK  1 active torsions:
REMARK  status: ('A' for Active; 'I' for Inactive)
REMARK    1  A    between atoms: C1_2  and  C2_3 
ROOT
ATOM      1  C2  UNL d   1       1.294   0.013  -0.452  0.00  0.00    -0.077 A 
ATOM      2  C3  UNL d   1       0.283  -0.817   0.053  0.00  0.00     0.002 A 
ATOM      3  C4  UNL d   1      -0.976  -0.294   0.353  0.00  0.00     0.002 A 
ATOM      4  C5  UNL d   1      -1.237   1.059   0.148  0.00  0.00    -0.004 A 
ATOM      5  C6  UNL d   1      -0.237   1.893  -0.351  0.00  0.00     0.002 A 
ATOM      6  C7  UNL d   1       1.022   1.372  -0.651  0.00  0.00     0.002 A 
ENDROOT
BRANCH   1   7
ATOM      7  C1  UNL d   1       2.638  -0.560  -0.823  0.00  0.00     0.055 C 
ATOM      8  C   UNL d   1       2.494  -1.737  -1.776  0.00  0.00     0.019 C 
ENDBRANCH   1   7
TORSDOF 1
ENDMDL
