MODEL 1
REMARK minimizedAffinity -3.18808532
REMARK minimizedRMSD -1
REMARK  1 active torsions:
REMARK  status: ('A' for Active; 'I' for Inactive)
REMARK    1  A    between atoms: C1_2  and  C2_3 
ROOT
ATOM      1  C2  UNL d   1       0.093   0.206   0.017  0.00  0.00    -0.077 A 
ATOM      2  C3  UNL d   1       0.167  -1.186  -0.133  0.00  0.00     0.002 A 
ATOM      3  C4  UNL d   1       1.299  -1.777  -0.698  0.00  0.00     0.002 A 
ATOM      4  C5  UNL d   1       2.367  -0.984  -1.113  0.00  0.00    -0.004 A 
ATOM      5  C6  UNL d   1       2.302   0.402  -0.970  0.00  0.00     0.002 A 
ATOM      6  C7  UNL d   1       1.171   0.994  -0.407  0.00  0.00     0.002 A 
ENDROOT
BRANCH   1   7
ATOM      7  C1  UNL d   1      -1.106   0.841   0.671  0.00  0.00     0.055 C 
ATOM      8  C   UNL d   1      -1.464   0.138   1.972  0.00  0.00     0.019 C 
ENDBRANCH   1   7
TORSDOF 1
ENDMDL
