MODEL 1
REMARK minimizedAffinity -4.21788979
REMARK minimizedRMSD -1
REMARK  1 active torsions:
REMARK  status: ('A' for Active; 'I' for Inactive)
REMARK    1  A    between atoms: C1_2  and  C2_3 
ROOT
ATOM      1  C2  UNL d   1       1.162  -0.191  -0.727  0.00  0.00    -0.077 A 
ATOM      2  C3  UNL d   1       1.074   1.198  -0.894  0.00  0.00     0.002 A 
ATOM      3  C4  UNL d   1      -0.085   1.882  -0.522  0.00  0.00     0.002 A 
ATOM      4  C5  UNL d   1      -1.162   1.186   0.023  0.00  0.00    -0.004 A 
ATOM      5  C6  UNL d   1      -1.084  -0.195   0.192  0.00  0.00     0.002 A 
ATOM      6  C7  UNL d   1       0.073  -0.881  -0.180  0.00  0.00     0.002 A 
ENDROOT
BRANCH   1   7
ATOM      7  C1  UNL d   1       2.430  -0.924  -1.082  0.00  0.00     0.055 C 
ATOM      8  C   UNL d   1       3.660  -0.088  -0.763  0.00  0.00     0.019 C 
ENDBRANCH   1   7
TORSDOF 1
ENDMDL
