MODEL 1
REMARK minimizedAffinity -2.48015952
REMARK minimizedRMSD -1
REMARK  1 active torsions:
REMARK  status: ('A' for Active; 'I' for Inactive)
REMARK    1  A    between atoms: C1_2  and  C2_3 
ROOT
ATOM      1  C2  UNL d   1       5.826   0.458   4.747  0.00  0.00    -0.077 A 
ATOM      2  C3  UNL d   1       5.674  -0.213   5.968  0.00  0.00     0.002 A 
ATOM      3  C4  UNL d   1       5.568  -1.605   6.000  0.00  0.00     0.002 A 
ATOM      4  C5  UNL d   1       5.617  -2.337   4.815  0.00  0.00    -0.004 A 
ATOM      5  C6  UNL d   1       5.766  -1.678   3.596  0.00  0.00     0.002 A 
ATOM      6  C7  UNL d   1       5.871  -0.287   3.561  0.00  0.00     0.002 A 
ENDROOT
BRANCH   1   7
ATOM      7  C1  UNL d   1       5.991   1.955   4.714  0.00  0.00     0.055 C 
ATOM      8  C   UNL d   1       5.487   2.595   6.000  0.00  0.00     0.019 C 
ENDBRANCH   1   7
TORSDOF 1
ENDMDL
