MODEL 1
REMARK minimizedAffinity -4.69374418
REMARK minimizedRMSD -1
REMARK  1 active torsions:
REMARK  status: ('A' for Active; 'I' for Inactive)
REMARK    1  A    between atoms: C1_2  and  C2_3 
ROOT
ATOM      1  C2  UNL d   1       0.101   0.100   0.182  0.00  0.00    -0.077 A 
ATOM      2  C3  UNL d   1       1.148   0.931  -0.240  0.00  0.00     0.002 A 
ATOM      3  C4  UNL d   1       2.401   0.392  -0.539  0.00  0.00     0.002 A 
ATOM      4  C5  UNL d   1       2.617  -0.979  -0.421  0.00  0.00    -0.004 A 
ATOM      5  C6  UNL d   1       1.583  -1.814   0.000  0.00  0.00     0.002 A 
ATOM      6  C7  UNL d   1       0.330  -1.276   0.300  0.00  0.00     0.002 A 
ENDROOT
BRANCH   1   7
ATOM      7  C1  UNL d   1      -1.265   0.673   0.457  0.00  0.00     0.055 C 
ATOM      8  C   UNL d   1      -1.450   0.978   1.937  0.00  0.00     0.019 C 
ENDBRANCH   1   7
TORSDOF 1
ENDMDL
