MODEL 1
REMARK minimizedAffinity -3.30875683
REMARK minimizedRMSD -1
REMARK  1 active torsions:
REMARK  status: ('A' for Active; 'I' for Inactive)
REMARK    1  A    between atoms: C1_2  and  C2_3 
ROOT
ATOM      1  C2  UNL d   1       1.198  -0.731  -0.693  0.00  0.00    -0.077 A 
ATOM      2  C3  UNL d   1       0.099  -1.452  -0.207  0.00  0.00     0.002 A 
ATOM      3  C4  UNL d   1      -1.002  -0.783   0.331  0.00  0.00     0.002 A 
ATOM      4  C5  UNL d   1      -1.016   0.609   0.385  0.00  0.00    -0.004 A 
ATOM      5  C6  UNL d   1       0.074   1.335  -0.094  0.00  0.00     0.002 A 
ATOM      6  C7  UNL d   1       1.176   0.668  -0.632  0.00  0.00     0.002 A 
ENDROOT
BRANCH   1   7
ATOM      7  C1  UNL d   1       2.365  -1.449  -1.320  0.00  0.00     0.055 C 
ATOM      8  C   UNL d   1       3.615  -0.581  -1.317  0.00  0.00     0.019 C 
ENDBRANCH   1   7
TORSDOF 1
ENDMDL
