MODEL 1
REMARK minimizedAffinity -4.71955824
REMARK minimizedRMSD -1
REMARK  1 active torsions:
REMARK  status: ('A' for Active; 'I' for Inactive)
REMARK    1  A    between atoms: C1_2  and  C2_3 
ROOT
ATOM      1  C2  UNL d   1       0.114  -0.371   0.129  0.00  0.00    -0.077 A 
ATOM      2  C3  UNL d   1       0.865   0.695  -0.385  0.00  0.00     0.002 A 
ATOM      3  C4  UNL d   1       2.016   0.450  -1.137  0.00  0.00     0.002 A 
ATOM      4  C5  UNL d   1       2.422  -0.859  -1.385  0.00  0.00    -0.004 A 
ATOM      5  C6  UNL d   1       1.683  -1.926  -0.877  0.00  0.00     0.002 A 
ATOM      6  C7  UNL d   1       0.533  -1.683  -0.124  0.00  0.00     0.002 A 
ENDROOT
BRANCH   1   7
ATOM      7  C1  UNL d   1      -1.154  -0.110   0.899  0.00  0.00     0.055 C 
ATOM      8  C   UNL d   1      -0.897   0.785   2.103  0.00  0.00     0.019 C 
ENDBRANCH   1   7
TORSDOF 1
ENDMDL
