MODEL 1
REMARK minimizedAffinity -1.193681
REMARK minimizedRMSD -1
REMARK  1 active torsions:
REMARK  status: ('A' for Active; 'I' for Inactive)
REMARK    1  A    between atoms: C1_2  and  C2_3 
ROOT
ATOM      1  C2  UNL d   1       1.167  -0.869  -0.729  0.00  0.00    -0.077 A 
ATOM      2  C3  UNL d   1       0.877   0.493  -0.893  0.00  0.00     0.002 A 
ATOM      3  C4  UNL d   1      -0.195   1.073  -0.213  0.00  0.00     0.002 A 
ATOM      4  C5  UNL d   1      -0.984   0.301   0.637  0.00  0.00    -0.004 A 
ATOM      5  C6  UNL d   1      -0.705  -1.055   0.805  0.00  0.00     0.002 A 
ATOM      6  C7  UNL d   1       0.366  -1.637   0.126  0.00  0.00     0.002 A 
ENDROOT
BRANCH   1   7
ATOM      7  C1  UNL d   1       2.353  -1.486  -1.423  0.00  0.00     0.055 C 
ATOM      8  C   UNL d   1       1.920  -2.560  -2.410  0.00  0.00     0.019 C 
ENDBRANCH   1   7
TORSDOF 1
ENDMDL
