MODEL 1
REMARK minimizedAffinity -5.71061563
REMARK minimizedRMSD -1
REMARK  1 active torsions:
REMARK  status: ('A' for Active; 'I' for Inactive)
REMARK    1  A    between atoms: C1_2  and  C2_3 
ROOT
ATOM      1  C2  UNL d   1      -0.144  -0.024  -0.005  0.00  0.00    -0.077 A 
ATOM      2  C3  UNL d   1       0.684   1.033  -0.407  0.00  0.00     0.002 A 
ATOM      3  C4  UNL d   1       1.929   0.776  -0.983  0.00  0.00     0.002 A 
ATOM      4  C5  UNL d   1       2.357  -0.538  -1.165  0.00  0.00    -0.004 A 
ATOM      5  C6  UNL d   1       1.542  -1.596  -0.766  0.00  0.00     0.002 A 
ATOM      6  C7  UNL d   1       0.297  -1.341  -0.189  0.00  0.00     0.002 A 
ENDROOT
BRANCH   1   7
ATOM      7  C1  UNL d   1      -1.508   0.250   0.571  0.00  0.00     0.055 C 
ATOM      8  C   UNL d   1      -1.411   1.010   1.886  0.00  0.00     0.019 C 
ENDBRANCH   1   7
TORSDOF 1
ENDMDL
