MODEL 1
REMARK minimizedAffinity -3.29783678
REMARK minimizedRMSD -1
REMARK  1 active torsions:
REMARK  status: ('A' for Active; 'I' for Inactive)
REMARK    1  A    between atoms: C1_2  and  C2_3 
ROOT
ATOM      1  C2  UNL d   1      -0.294  -0.417  -0.059  0.00  0.00    -0.077 A 
ATOM      2  C3  UNL d   1       0.387  -1.583   0.318  0.00  0.00     0.002 A 
ATOM      3  C4  UNL d   1       1.694  -1.808  -0.117  0.00  0.00     0.002 A 
ATOM      4  C5  UNL d   1       2.333  -0.871  -0.926  0.00  0.00    -0.004 A 
ATOM      5  C6  UNL d   1       1.663   0.291  -1.308  0.00  0.00     0.002 A 
ATOM      6  C7  UNL d   1       0.356   0.517  -0.875  0.00  0.00     0.002 A 
ENDROOT
BRANCH   1   7
ATOM      7  C1  UNL d   1      -1.687  -0.148   0.450  0.00  0.00     0.055 C 
ATOM      8  C   UNL d   1      -1.658   0.547   1.803  0.00  0.00     0.019 C 
ENDBRANCH   1   7
TORSDOF 1
ENDMDL
