MODEL 1
REMARK minimizedAffinity -4.58613443
REMARK minimizedRMSD -1
REMARK  1 active torsions:
REMARK  status: ('A' for Active; 'I' for Inactive)
REMARK    1  A    between atoms: C1_2  and  C2_3 
ROOT
ATOM      1  C2  UNL d   1      -0.946   0.756   0.619  0.00  0.00    -0.077 A 
ATOM      2  C3  UNL d   1      -1.023   1.661   1.687  0.00  0.00     0.002 A 
ATOM      3  C4  UNL d   1      -2.127   1.654   2.541  0.00  0.00     0.002 A 
ATOM      4  C5  UNL d   1      -3.161   0.743   2.338  0.00  0.00    -0.004 A 
ATOM      5  C6  UNL d   1      -3.096  -0.160   1.278  0.00  0.00     0.002 A 
ATOM      6  C7  UNL d   1      -1.993  -0.154   0.422  0.00  0.00     0.002 A 
ENDROOT
BRANCH   1   7
ATOM      7  C1  UNL d   1       0.267   0.729  -0.274  0.00  0.00     0.055 C 
ATOM      8  C   UNL d   1       0.211   1.835  -1.317  0.00  0.00     0.019 C 
ENDBRANCH   1   7
TORSDOF 1
ENDMDL
