MODEL 1
REMARK minimizedAffinity -5.7169776
REMARK minimizedRMSD -1
REMARK  0 active torsions:
REMARK  status: ('A' for Active; 'I' for Inactive)
ROOT
ATOM      1  N1  IND d   1       0.813  -0.402  -0.226  0.00  0.00    -0.196 N 
ATOM      2  C2  IND d   1      -0.380  -0.621  -0.858  0.00  0.00     0.054 A 
ATOM      3  C3  IND d   1      -1.410  -0.322  -0.035  0.00  0.00    -0.031 A 
ATOM      4  C4  IND d   1      -1.369   0.639   2.353  0.00  0.00     0.051 A 
ATOM      5  C5  IND d   1      -0.514   0.973   3.366  0.00  0.00    -0.031 A 
ATOM      6  C6  IND d   1       0.855   0.866   3.229  0.00  0.00     0.015 A 
ATOM      7  C7  IND d   1       1.422   0.430   2.065  0.00  0.00    -0.016 A 
ATOM      8  C8  IND d   1       0.557   0.084   1.037  0.00  0.00    -0.047 A 
ATOM      9  C9  IND d   1      -0.835   0.150   1.185  0.00  0.00    -0.096 A 
ATOM     10  HN1 IND d   1       1.592  -0.543  -0.562  0.00  0.00     0.298 HD
ENDROOT
TORSDOF 0
ENDMDL
