MODEL 1
REMARK minimizedAffinity -2.2429049
REMARK minimizedRMSD -1
REMARK  0 active torsions:
REMARK  status: ('A' for Active; 'I' for Inactive)
ROOT
ATOM      1  N1  IND d   1      -1.568   0.570   2.536  0.00  0.00    -0.196 N 
ATOM      2  C2  IND d   1      -0.784   1.295   3.390  0.00  0.00     0.054 A 
ATOM      3  C3  IND d   1       0.468   1.412   2.894  0.00  0.00    -0.031 A 
ATOM      4  C4  IND d   1       1.424   0.582   0.653  0.00  0.00     0.051 A 
ATOM      5  C5  IND d   1       1.101  -0.162  -0.447  0.00  0.00    -0.031 A 
ATOM      6  C6  IND d   1      -0.155  -0.709  -0.613  0.00  0.00     0.015 A 
ATOM      7  C7  IND d   1      -1.142  -0.522   0.313  0.00  0.00    -0.016 A 
ATOM      8  C8  IND d   1      -0.815   0.227   1.434  0.00  0.00    -0.047 A 
ATOM      9  C9  IND d   1       0.471   0.749   1.629  0.00  0.00    -0.096 A 
ATOM     10  HN1 IND d   1      -2.392   0.362   2.666  0.00  0.00     0.298 HD
ENDROOT
TORSDOF 0
ENDMDL
