MODEL 1
REMARK minimizedAffinity -4.28773022
REMARK minimizedRMSD -1
REMARK  0 active torsions:
REMARK  status: ('A' for Active; 'I' for Inactive)
ROOT
ATOM      1  N1  IND d   1       1.052  -0.639  -0.584  0.00  0.00    -0.196 N 
ATOM      2  C2  IND d   1      -0.055  -0.738  -1.380  0.00  0.00     0.054 A 
ATOM      3  C3  IND d   1      -1.146  -0.277  -0.728  0.00  0.00    -0.031 A 
ATOM      4  C4  IND d   1      -1.328   0.782   1.612  0.00  0.00     0.051 A 
ATOM      5  C5  IND d   1      -0.592   1.054   2.731  0.00  0.00    -0.031 A 
ATOM      6  C6  IND d   1       0.757   0.772   2.803  0.00  0.00     0.015 A 
ATOM      7  C7  IND d   1       1.426   0.216   1.749  0.00  0.00    -0.016 A 
ATOM      8  C8  IND d   1       0.681  -0.068   0.614  0.00  0.00    -0.047 A 
ATOM      9  C9  IND d   1      -0.697   0.176   0.550  0.00  0.00    -0.096 A 
ATOM     10  HN1 IND d   1       1.846  -0.891  -0.795  0.00  0.00     0.298 HD
ENDROOT
TORSDOF 0
ENDMDL
