MODEL 1
REMARK minimizedAffinity 0.0342017822
REMARK minimizedRMSD -1
REMARK  0 active torsions:
REMARK  status: ('A' for Active; 'I' for Inactive)
ROOT
ATOM      1  N1  IND d   1      -2.444   0.395   0.773  0.00  0.00    -0.196 N 
ATOM      2  C2  IND d   1      -2.232  -0.742   0.045  0.00  0.00     0.054 A 
ATOM      3  C3  IND d   1      -0.927  -1.092   0.088  0.00  0.00    -0.031 A 
ATOM      4  C4  IND d   1       1.018   0.000   1.374  0.00  0.00     0.051 A 
ATOM      5  C5  IND d   1       1.323   1.084   2.148  0.00  0.00    -0.031 A 
ATOM      6  C6  IND d   1       0.368   2.011   2.514  0.00  0.00     0.015 A 
ATOM      7  C7  IND d   1      -0.935   1.881   2.126  0.00  0.00    -0.016 A 
ATOM      8  C8  IND d   1      -1.247   0.786   1.333  0.00  0.00    -0.047 A 
ATOM      9  C9  IND d   1      -0.274  -0.135   0.924  0.00  0.00    -0.096 A 
ATOM     10  HN1 IND d   1      -3.197   0.799   0.865  0.00  0.00     0.298 HD
ENDROOT
TORSDOF 0
ENDMDL
