MODEL 1
REMARK minimizedAffinity -4.47249508
REMARK minimizedRMSD -1
REMARK  0 active torsions:
REMARK  status: ('A' for Active; 'I' for Inactive)
ROOT
ATOM      1  N1  IND d   1       0.251  -0.697  -0.786  0.00  0.00    -0.196 N 
ATOM      2  C2  IND d   1      -0.524  -1.823  -0.755  0.00  0.00     0.054 A 
ATOM      3  C3  IND d   1      -1.362  -1.788   0.305  0.00  0.00    -0.031 A 
ATOM      4  C4  IND d   1      -1.702   0.064   2.061  0.00  0.00     0.051 A 
ATOM      5  C5  IND d   1      -1.199   1.268   2.468  0.00  0.00    -0.031 A 
ATOM      6  C6  IND d   1      -0.167   1.892   1.796  0.00  0.00     0.015 A 
ATOM      7  C7  IND d   1       0.394   1.338   0.681  0.00  0.00    -0.016 A 
ATOM      8  C8  IND d   1      -0.110   0.113   0.268  0.00  0.00    -0.047 A 
ATOM      9  C9  IND d   1      -1.128  -0.546   0.971  0.00  0.00    -0.096 A 
ATOM     10  HN1 IND d   1       0.862  -0.525  -1.366  0.00  0.00     0.298 HD
ENDROOT
TORSDOF 0
ENDMDL
