MODEL 1
REMARK minimizedAffinity -4.4593029
REMARK minimizedRMSD -1
REMARK  0 active torsions:
REMARK  status: ('A' for Active; 'I' for Inactive)
ROOT
ATOM      1  N1  IND d   1       0.440  -0.872  -0.214  0.00  0.00    -0.196 N 
ATOM      2  C2  IND d   1      -0.813  -0.736  -0.743  0.00  0.00     0.054 A 
ATOM      3  C3  IND d   1      -1.582   0.032   0.061  0.00  0.00    -0.031 A 
ATOM      4  C4  IND d   1      -0.959   1.252   2.241  0.00  0.00     0.051 A 
ATOM      5  C5  IND d   1       0.060   1.398   3.140  0.00  0.00    -0.031 A 
ATOM      6  C6  IND d   1       1.283   0.784   2.962  0.00  0.00     0.015 A 
ATOM      7  C7  IND d   1       1.538   0.008   1.867  0.00  0.00    -0.016 A 
ATOM      8  C8  IND d   1       0.503  -0.149   0.956  0.00  0.00    -0.047 A 
ATOM      9  C9  IND d   1      -0.754   0.437   1.153  0.00  0.00    -0.096 A 
ATOM     10  HN1 IND d   1       1.081  -1.333  -0.556  0.00  0.00     0.298 HD
ENDROOT
TORSDOF 0
ENDMDL
