MODEL 1
REMARK minimizedAffinity -4.65390301
REMARK minimizedRMSD -1
REMARK  0 active torsions:
REMARK  status: ('A' for Active; 'I' for Inactive)
ROOT
ATOM      1  N1  IND d   1       0.539   0.235  -0.567  0.00  0.00    -0.196 N 
ATOM      2  C2  IND d   1      -0.100  -0.893  -1.000  0.00  0.00     0.054 A 
ATOM      3  C3  IND d   1      -1.016  -1.294  -0.090  0.00  0.00    -0.031 A 
ATOM      4  C4  IND d   1      -1.705  -0.192   2.132  0.00  0.00     0.051 A 
ATOM      5  C5  IND d   1      -1.378   0.837   2.971  0.00  0.00    -0.031 A 
ATOM      6  C6  IND d   1      -0.377   1.737   2.666  0.00  0.00     0.015 A 
ATOM      7  C7  IND d   1       0.329   1.648   1.500  0.00  0.00    -0.016 A 
ATOM      8  C8  IND d   1       0.005   0.601   0.649  0.00  0.00    -0.047 A 
ATOM      9  C9  IND d   1      -0.980  -0.340   0.973  0.00  0.00    -0.096 A 
ATOM     10  HN1 IND d   1       1.168   0.647  -0.984  0.00  0.00     0.298 HD
ENDROOT
TORSDOF 0
ENDMDL
