MODEL 1
REMARK minimizedAffinity -5.43965054
REMARK minimizedRMSD -1
REMARK  0 active torsions:
REMARK  status: ('A' for Active; 'I' for Inactive)
ROOT
ATOM      1  N1  IND d   1      -0.515  -1.242  -0.500  0.00  0.00    -0.196 N 
ATOM      2  C2  IND d   1       0.732  -1.776  -0.666  0.00  0.00     0.054 A 
ATOM      3  C3  IND d   1       1.562  -1.344   0.309  0.00  0.00    -0.031 A 
ATOM      4  C4  IND d   1       1.061   0.163   2.335  0.00  0.00     0.051 A 
ATOM      5  C5  IND d   1       0.072   0.924   2.893  0.00  0.00    -0.031 A 
ATOM      6  C6  IND d   1      -1.189   1.002   2.338  0.00  0.00     0.015 A 
ATOM      7  C7  IND d   1      -1.514   0.308   1.207  0.00  0.00    -0.016 A 
ATOM      8  C8  IND d   1      -0.510  -0.460   0.634  0.00  0.00    -0.047 A 
ATOM      9  C9  IND d   1       0.784  -0.509   1.168  0.00  0.00    -0.096 A 
ATOM     10  HN1 IND d   1      -1.190  -1.373  -1.017  0.00  0.00     0.298 HD
ENDROOT
TORSDOF 0
ENDMDL
