MODEL 1
REMARK minimizedAffinity -4.15659428
REMARK minimizedRMSD -1
REMARK  0 active torsions:
REMARK  status: ('A' for Active; 'I' for Inactive)
ROOT
ATOM      1  N1  IND d   1       0.732   0.896  -1.243  0.00  0.00    -0.196 N 
ATOM      2  C2  IND d   1       0.282  -0.327  -0.830  0.00  0.00     0.054 A 
ATOM      3  C3  IND d   1      -0.133  -1.057  -1.889  0.00  0.00    -0.031 A 
ATOM      4  C4  IND d   1      -0.069  -0.484  -4.398  0.00  0.00     0.051 A 
ATOM      5  C5  IND d   1       0.222   0.533  -5.263  0.00  0.00    -0.031 A 
ATOM      6  C6  IND d   1       0.712   1.746  -4.824  0.00  0.00     0.015 A 
ATOM      7  C7  IND d   1       0.939   1.985  -3.499  0.00  0.00    -0.016 A 
ATOM      8  C8  IND d   1       0.637   0.958  -2.616  0.00  0.00    -0.047 A 
ATOM      9  C9  IND d   1       0.100  -0.261  -3.052  0.00  0.00    -0.096 A 
ATOM     10  HN1 IND d   1       1.025   1.522  -0.732  0.00  0.00     0.298 HD
ENDROOT
TORSDOF 0
ENDMDL
