MODEL 1
REMARK minimizedAffinity -2.85025311
REMARK minimizedRMSD -1
REMARK  0 active torsions:
REMARK  status: ('A' for Active; 'I' for Inactive)
ROOT
ATOM      1  C   UNL d   1      -2.177   1.247   3.363  0.00  0.00    -0.002 A 
ATOM      2  C1  UNL d   1      -2.790   0.037   3.071  0.00  0.00     0.010 A 
ATOM      3  C2  UNL d   1      -2.391  -0.712   1.963  0.00  0.00     0.041 A 
ATOM      4  C3  UNL d   1      -1.353  -0.221   1.146  0.00  0.00    -0.075 A 
ATOM      5  S   UNL d   1      -0.697  -0.968  -0.263  0.00  0.00     0.015 SA
ATOM      6  C4  UNL d   1       0.413   0.302  -0.510  0.00  0.00     0.022 A 
ATOM      7  C5  UNL d   1       0.299   1.280   0.449  0.00  0.00     0.026 A 
ATOM      8  C6  UNL d   1      -0.720   0.995   1.420  0.00  0.00    -0.082 A 
ATOM      9  C7  UNL d   1      -1.149   1.731   2.550  0.00  0.00     0.045 A 
ENDROOT
TORSDOF 0
ENDMDL
