MODEL 1
REMARK minimizedAffinity 7.40908909
REMARK minimizedRMSD -1
REMARK  0 active torsions:
REMARK  status: ('A' for Active; 'I' for Inactive)
ROOT
ATOM      1  C   UNL d   1      -3.866  -1.660   2.688  0.00  0.00    -0.002 A 
ATOM      2  C1  UNL d   1      -2.832  -1.533   3.605  0.00  0.00     0.010 A 
ATOM      3  C2  UNL d   1      -1.552  -1.166   3.185  0.00  0.00     0.041 A 
ATOM      4  C3  UNL d   1      -1.327  -0.926   1.815  0.00  0.00    -0.075 A 
ATOM      5  S   UNL d   1       0.159  -0.465   1.072  0.00  0.00     0.015 SA
ATOM      6  C4  UNL d   1      -0.544  -0.426  -0.480  0.00  0.00     0.022 A 
ATOM      7  C5  UNL d   1      -1.879  -0.754  -0.450  0.00  0.00     0.026 A 
ATOM      8  C6  UNL d   1      -2.352  -1.047   0.873  0.00  0.00    -0.082 A 
ATOM      9  C7  UNL d   1      -3.639  -1.421   1.330  0.00  0.00     0.045 A 
ENDROOT
TORSDOF 0
ENDMDL
