MODEL 1
REMARK minimizedAffinity 1.09793329
REMARK minimizedRMSD -1
REMARK  0 active torsions:
REMARK  status: ('A' for Active; 'I' for Inactive)
ROOT
ATOM      1  C   UNL d   1      -2.896  -1.401   3.031  0.00  0.00    -0.002 A 
ATOM      2  C1  UNL d   1      -2.847  -0.411   4.002  0.00  0.00     0.010 A 
ATOM      3  C2  UNL d   1      -2.418   0.878   3.681  0.00  0.00     0.041 A 
ATOM      4  C3  UNL d   1      -2.037   1.159   2.354  0.00  0.00    -0.075 A 
ATOM      5  S   UNL d   1      -1.479   2.666   1.730  0.00  0.00     0.015 SA
ATOM      6  C4  UNL d   1      -1.293   2.031   0.159  0.00  0.00     0.022 A 
ATOM      7  C5  UNL d   1      -1.643   0.703   0.095  0.00  0.00     0.026 A 
ATOM      8  C6  UNL d   1      -2.078   0.179   1.359  0.00  0.00    -0.082 A 
ATOM      9  C7  UNL d   1      -2.517  -1.119   1.716  0.00  0.00     0.045 A 
ENDROOT
TORSDOF 0
ENDMDL
