MODEL 1
REMARK minimizedAffinity -3.24689484
REMARK minimizedRMSD -1
REMARK  0 active torsions:
REMARK  status: ('A' for Active; 'I' for Inactive)
ROOT
ATOM      1  C   UNL d   1       3.236  -1.128  -1.600  0.00  0.00    -0.002 A 
ATOM      2  C1  UNL d   1       3.398   0.238  -1.422  0.00  0.00     0.010 A 
ATOM      3  C2  UNL d   1       2.359   1.015  -0.904  0.00  0.00     0.041 A 
ATOM      4  C3  UNL d   1       1.144   0.388  -0.563  0.00  0.00    -0.075 A 
ATOM      5  S   UNL d   1      -0.265   1.137   0.088  0.00  0.00     0.015 SA
ATOM      6  C4  UNL d   1      -1.115  -0.339   0.145  0.00  0.00     0.022 A 
ATOM      7  C5  UNL d   1      -0.357  -1.389  -0.318  0.00  0.00     0.026 A 
ATOM      8  C6  UNL d   1       0.958  -0.987  -0.733  0.00  0.00    -0.082 A 
ATOM      9  C7  UNL d   1       2.030  -1.746  -1.262  0.00  0.00     0.045 A 
ENDROOT
TORSDOF 0
ENDMDL
