MODEL 1
REMARK minimizedAffinity -0.941569269
REMARK minimizedRMSD -1
REMARK  0 active torsions:
REMARK  status: ('A' for Active; 'I' for Inactive)
ROOT
ATOM      1  C   UNL d   1      -0.394  -0.202  -0.496  0.00  0.00    -0.002 A 
ATOM      2  C1  UNL d   1      -0.701   1.149  -0.430  0.00  0.00     0.010 A 
ATOM      3  C2  UNL d   1      -1.512   1.644   0.593  0.00  0.00     0.041 A 
ATOM      4  C3  UNL d   1      -2.011   0.750   1.560  0.00  0.00    -0.075 A 
ATOM      5  S   UNL d   1      -3.022   1.129   2.904  0.00  0.00     0.015 SA
ATOM      6  C4  UNL d   1      -3.068  -0.493   3.423  0.00  0.00     0.022 A 
ATOM      7  C5  UNL d   1      -2.337  -1.318   2.602  0.00  0.00     0.026 A 
ATOM      8  C6  UNL d   1      -1.715  -0.616   1.515  0.00  0.00    -0.082 A 
ATOM      9  C7  UNL d   1      -0.891  -1.087   0.465  0.00  0.00     0.045 A 
ENDROOT
TORSDOF 0
ENDMDL
