MODEL 1
REMARK minimizedAffinity 10.5969334
REMARK minimizedRMSD -1
REMARK  0 active torsions:
REMARK  status: ('A' for Active; 'I' for Inactive)
ROOT
ATOM      1  C   UNL d   1      -1.131   3.168   3.474  0.00  0.00    -0.002 A 
ATOM      2  C1  UNL d   1      -1.090   2.573   4.727  0.00  0.00     0.010 A 
ATOM      3  C2  UNL d   1      -1.302   1.200   4.869  0.00  0.00     0.041 A 
ATOM      4  C3  UNL d   1      -1.556   0.428   3.719  0.00  0.00    -0.075 A 
ATOM      5  S   UNL d   1      -1.844  -1.271   3.650  0.00  0.00     0.015 SA
ATOM      6  C4  UNL d   1      -2.027  -1.247   1.956  0.00  0.00     0.022 A 
ATOM      7  C5  UNL d   1      -1.876   0.018   1.439  0.00  0.00     0.026 A 
ATOM      8  C6  UNL d   1      -1.602   1.004   2.446  0.00  0.00    -0.082 A 
ATOM      9  C7  UNL d   1      -1.384   2.398   2.335  0.00  0.00     0.045 A 
ENDROOT
TORSDOF 0
ENDMDL
