MODEL 1
REMARK minimizedAffinity -4.48206615
REMARK minimizedRMSD -1
REMARK  0 active torsions:
REMARK  status: ('A' for Active; 'I' for Inactive)
ROOT
ATOM      1  C   UNL d   1       2.929  -0.268  -2.213  0.00  0.00    -0.002 A 
ATOM      2  C1  UNL d   1       2.503   1.052  -2.248  0.00  0.00     0.010 A 
ATOM      3  C2  UNL d   1       1.404   1.464  -1.492  0.00  0.00     0.041 A 
ATOM      4  C3  UNL d   1       0.735   0.518  -0.691  0.00  0.00    -0.075 A 
ATOM      5  S   UNL d   1      -0.635   0.794   0.319  0.00  0.00     0.015 SA
ATOM      6  C4  UNL d   1      -0.686  -0.834   0.822  0.00  0.00     0.022 A 
ATOM      7  C5  UNL d   1       0.310  -1.584   0.242  0.00  0.00     0.026 A 
ATOM      8  C6  UNL d   1       1.146  -0.817  -0.639  0.00  0.00    -0.082 A 
ATOM      9  C7  UNL d   1       2.263  -1.204  -1.418  0.00  0.00     0.045 A 
ENDROOT
TORSDOF 0
ENDMDL
