MODEL 1
REMARK minimizedAffinity 3.28699803
REMARK minimizedRMSD -1
REMARK  0 active torsions:
REMARK  status: ('A' for Active; 'I' for Inactive)
ROOT
ATOM      1  C   UNL d   1       0.074  -1.638  -0.017  0.00  0.00    -0.002 A 
ATOM      2  C1  UNL d   1       1.024  -2.200  -0.858  0.00  0.00     0.010 A 
ATOM      3  C2  UNL d   1       1.487  -1.502  -1.975  0.00  0.00     0.041 A 
ATOM      4  C3  UNL d   1       0.974  -0.216  -2.235  0.00  0.00    -0.075 A 
ATOM      5  S   UNL d   1       1.393   0.825  -3.544  0.00  0.00     0.015 SA
ATOM      6  C4  UNL d   1       0.321   2.041  -3.017  0.00  0.00     0.022 A 
ATOM      7  C5  UNL d   1      -0.349   1.678  -1.873  0.00  0.00     0.026 A 
ATOM      8  C6  UNL d   1       0.017   0.372  -1.403  0.00  0.00    -0.082 A 
ATOM      9  C7  UNL d   1      -0.432  -0.362  -0.278  0.00  0.00     0.045 A 
ENDROOT
TORSDOF 0
ENDMDL
