MODEL 1
REMARK minimizedAffinity -1.7182914
REMARK minimizedRMSD -1
REMARK  0 active torsions:
REMARK  status: ('A' for Active; 'I' for Inactive)
ROOT
ATOM      1  C   UNL d   1       2.239  -0.330   1.846  0.00  0.00     0.023 A 
ATOM      2  C1  UNL d   1       1.566   0.890   1.766  0.00  0.00     0.003 A 
ATOM      3  C2  UNL d   1       0.450   1.020   0.937  0.00  0.00     0.048 A 
ATOM      4  C3  UNL d   1       0.011  -0.073   0.192  0.00  0.00     0.023 A 
ATOM      5  C4  UNL d   1       0.680  -1.296   0.269  0.00  0.00     0.048 A 
ATOM      6  C5  UNL d   1       1.796  -1.421   1.098  0.00  0.00     0.003 A 
ATOM      7  I   UNL d   1      -1.650   0.118  -1.043  0.00  0.00    -0.146 I 
ENDROOT
TORSDOF 0
ENDMDL
