MODEL 1
REMARK minimizedAffinity -3.8140254
REMARK minimizedRMSD -1
REMARK  0 active torsions:
REMARK  status: ('A' for Active; 'I' for Inactive)
ROOT
ATOM      1  C   UNL d   1       2.333   1.203   0.761  0.00  0.00     0.023 A 
ATOM      2  C1  UNL d   1       2.889   0.102   1.412  0.00  0.00     0.003 A 
ATOM      3  C2  UNL d   1       2.128  -1.053   1.607  0.00  0.00     0.048 A 
ATOM      4  C3  UNL d   1       0.813  -1.101   1.147  0.00  0.00     0.023 A 
ATOM      5  C4  UNL d   1       0.253  -0.002   0.494  0.00  0.00     0.048 A 
ATOM      6  C5  UNL d   1       1.017   1.151   0.302  0.00  0.00     0.003 A 
ATOM      7  I   UNL d   1      -0.321  -2.819   1.436  0.00  0.00    -0.146 I 
ENDROOT
TORSDOF 0
ENDMDL
