MODEL 1
REMARK minimizedAffinity 7.47528219
REMARK minimizedRMSD -1
REMARK  0 active torsions:
REMARK  status: ('A' for Active; 'I' for Inactive)
ROOT
ATOM      1  C   UNL d   1       3.001   1.934   4.042  0.00  0.00     0.023 A 
ATOM      2  C1  UNL d   1       2.874   0.551   3.906  0.00  0.00     0.003 A 
ATOM      3  C2  UNL d   1       2.304   0.011   2.752  0.00  0.00     0.048 A 
ATOM      4  C3  UNL d   1       1.864   0.859   1.736  0.00  0.00     0.023 A 
ATOM      5  C4  UNL d   1       1.990   2.243   1.867  0.00  0.00     0.048 A 
ATOM      6  C5  UNL d   1       2.559   2.778   3.023  0.00  0.00     0.003 A 
ATOM      7  I   UNL d   1       1.016   0.057   0.016  0.00  0.00    -0.146 I 
ENDROOT
TORSDOF 0
ENDMDL
