MODEL 1
REMARK minimizedAffinity 6.61811686
REMARK minimizedRMSD -1
REMARK  0 active torsions:
REMARK  status: ('A' for Active; 'I' for Inactive)
ROOT
ATOM      1  C   UNL d   1       0.459   1.491  -0.308  0.00  0.00     0.023 A 
ATOM      2  C1  UNL d   1       1.513   2.229   0.232  0.00  0.00     0.003 A 
ATOM      3  C2  UNL d   1       2.190   1.759   1.359  0.00  0.00     0.048 A 
ATOM      4  C3  UNL d   1       1.809   0.549   1.940  0.00  0.00     0.023 A 
ATOM      5  C4  UNL d   1       0.756  -0.192   1.402  0.00  0.00     0.048 A 
ATOM      6  C5  UNL d   1       0.081   0.282   0.276  0.00  0.00     0.003 A 
ATOM      7  I   UNL d   1       2.816  -0.153   3.617  0.00  0.00    -0.146 I 
ENDROOT
TORSDOF 0
ENDMDL
