MODEL 1
REMARK minimizedAffinity 8.01791954
REMARK minimizedRMSD -1
REMARK  0 active torsions:
REMARK  status: ('A' for Active; 'I' for Inactive)
ROOT
ATOM      1  C   UNL d   1       0.358  -2.518   2.102  0.00  0.00     0.023 A 
ATOM      2  C1  UNL d   1       0.124  -1.541   1.134  0.00  0.00     0.003 A 
ATOM      3  C2  UNL d   1       0.746  -0.295   1.233  0.00  0.00     0.048 A 
ATOM      4  C3  UNL d   1       1.603  -0.033   2.301  0.00  0.00     0.023 A 
ATOM      5  C4  UNL d   1       1.842  -1.008   3.272  0.00  0.00     0.048 A 
ATOM      6  C5  UNL d   1       1.216  -2.252   3.169  0.00  0.00     0.003 A 
ATOM      7  I   UNL d   1       2.532   1.820   2.450  0.00  0.00    -0.146 I 
ENDROOT
TORSDOF 0
ENDMDL
