MODEL 1
REMARK minimizedAffinity 11.5524817
REMARK minimizedRMSD -1
REMARK  0 active torsions:
REMARK  status: ('A' for Active; 'I' for Inactive)
ROOT
ATOM      1  C   UNL d   1      -5.995   5.621  -2.518  0.00  0.00     0.023 A 
ATOM      2  C1  UNL d   1      -5.996   4.270  -2.865  0.00  0.00     0.003 A 
ATOM      3  C2  UNL d   1      -5.997   3.292  -1.868  0.00  0.00     0.048 A 
ATOM      4  C3  UNL d   1      -5.998   3.672  -0.526  0.00  0.00     0.023 A 
ATOM      5  C4  UNL d   1      -5.998   5.023  -0.175  0.00  0.00     0.048 A 
ATOM      6  C5  UNL d   1      -5.997   5.997  -1.175  0.00  0.00     0.003 A 
ATOM      7  I   UNL d   1      -5.999   2.218   0.959  0.00  0.00    -0.146 I 
ENDROOT
TORSDOF 0
ENDMDL
