MODEL 1
REMARK minimizedAffinity 10.3637114
REMARK minimizedRMSD -1
REMARK  0 active torsions:
REMARK  status: ('A' for Active; 'I' for Inactive)
ROOT
ATOM      1  C   UNL d   1       5.771   0.309  -6.000  0.00  0.00     0.023 A 
ATOM      2  C1  UNL d   1       4.670   1.129  -5.754  0.00  0.00     0.003 A 
ATOM      3  C2  UNL d   1       3.794   0.829  -4.709  0.00  0.00     0.048 A 
ATOM      4  C3  UNL d   1       4.026  -0.291  -3.912  0.00  0.00     0.023 A 
ATOM      5  C4  UNL d   1       5.128  -1.114  -4.153  0.00  0.00     0.048 A 
ATOM      6  C5  UNL d   1       6.000  -0.811  -5.200  0.00  0.00     0.003 A 
ATOM      7  I   UNL d   1       2.724  -0.739  -2.354  0.00  0.00    -0.146 I 
ENDROOT
TORSDOF 0
ENDMDL
