MODEL 1
REMARK minimizedAffinity -3.39152169
REMARK minimizedRMSD -1
REMARK  0 active torsions:
REMARK  status: ('A' for Active; 'I' for Inactive)
ROOT
ATOM      1  C   UNL d   1       1.101  -0.089   0.651  0.00  0.00     0.023 A 
ATOM      2  C1  UNL d   1       2.211   0.611   1.125  0.00  0.00     0.003 A 
ATOM      3  C2  UNL d   1       2.953   0.104   2.194  0.00  0.00     0.048 A 
ATOM      4  C3  UNL d   1       2.581  -1.104   2.783  0.00  0.00     0.023 A 
ATOM      5  C4  UNL d   1       1.472  -1.808   2.311  0.00  0.00     0.048 A 
ATOM      6  C5  UNL d   1       0.732  -1.297   1.243  0.00  0.00     0.003 A 
ATOM      7  I   UNL d   1       3.684  -1.860   4.373  0.00  0.00    -0.146 I 
ENDROOT
TORSDOF 0
ENDMDL
