MODEL 1
REMARK minimizedAffinity 6.22085094
REMARK minimizedRMSD -1
REMARK  0 active torsions:
REMARK  status: ('A' for Active; 'I' for Inactive)
ROOT
ATOM      1  C   UNL d   1       0.678   2.799   0.249  0.00  0.00     0.023 A 
ATOM      2  C1  UNL d   1      -0.543   2.125   0.256  0.00  0.00     0.003 A 
ATOM      3  C2  UNL d   1      -0.571   0.729   0.236  0.00  0.00     0.048 A 
ATOM      4  C3  UNL d   1       0.626   0.014   0.209  0.00  0.00     0.023 A 
ATOM      5  C4  UNL d   1       1.850   0.685   0.203  0.00  0.00     0.048 A 
ATOM      6  C5  UNL d   1       1.873   2.081   0.222  0.00  0.00     0.003 A 
ATOM      7  I   UNL d   1       0.588  -2.064   0.179  0.00  0.00    -0.146 I 
ENDROOT
TORSDOF 0
ENDMDL
