MODEL 1
REMARK minimizedAffinity 11.3399429
REMARK minimizedRMSD -1
REMARK  0 active torsions:
REMARK  status: ('A' for Active; 'I' for Inactive)
ROOT
ATOM      1  C   UNL d   1      -1.577  -3.532  -2.592  0.00  0.00     0.023 A 
ATOM      2  C1  UNL d   1      -2.247  -2.619  -1.777  0.00  0.00     0.003 A 
ATOM      3  C2  UNL d   1      -1.660  -2.180  -0.588  0.00  0.00     0.048 A 
ATOM      4  C3  UNL d   1      -0.402  -2.658  -0.221  0.00  0.00     0.023 A 
ATOM      5  C4  UNL d   1       0.272  -3.571  -1.034  0.00  0.00     0.048 A 
ATOM      6  C5  UNL d   1      -0.319  -4.007  -2.221  0.00  0.00     0.003 A 
ATOM      7  I   UNL d   1       0.474  -2.007   1.548  0.00  0.00    -0.146 I 
ENDROOT
TORSDOF 0
ENDMDL
