MODEL 1
REMARK minimizedAffinity 4.09888077
REMARK minimizedRMSD -1
REMARK  0 active torsions:
REMARK  status: ('A' for Active; 'I' for Inactive)
ROOT
ATOM      1  C   UNL d   1       1.216   3.584  -5.487  0.00  0.00     0.172 C 
ATOM      2  N   UNL d   1       0.226   3.183  -4.514  0.00  0.00    -0.070 N 
ATOM      3  C1  UNL d   1      -0.043   1.896  -4.132  0.00  0.00    -0.004 A 
ATOM      4  C2  UNL d   1      -1.047   1.937  -3.190  0.00  0.00    -0.047 A 
ATOM      5  C3  UNL d   1      -1.395   3.295  -3.000  0.00  0.00    -0.047 A 
ATOM      6  C4  UNL d   1      -0.592   4.045  -3.832  0.00  0.00    -0.004 A 
ENDROOT
TORSDOF 0
ENDMDL
