MODEL 1
REMARK minimizedAffinity 5.20880222
REMARK minimizedRMSD -1
REMARK  0 active torsions:
REMARK  status: ('A' for Active; 'I' for Inactive)
ROOT
ATOM      1  C   UNL d   1      -2.927   2.527  -3.353  0.00  0.00     0.172 C 
ATOM      2  N   UNL d   1      -1.693   3.269  -3.469  0.00  0.00    -0.070 N 
ATOM      3  C1  UNL d   1      -0.891   3.651  -2.427  0.00  0.00    -0.004 A 
ATOM      4  C2  UNL d   1       0.184   4.335  -2.951  0.00  0.00    -0.047 A 
ATOM      5  C3  UNL d   1       0.022   4.367  -4.356  0.00  0.00    -0.047 A 
ATOM      6  C4  UNL d   1      -1.149   3.700  -4.650  0.00  0.00    -0.004 A 
ENDROOT
TORSDOF 0
ENDMDL
