MODEL 1
REMARK minimizedAffinity -1.52507663
REMARK minimizedRMSD -1
REMARK  0 active torsions:
REMARK  status: ('A' for Active; 'I' for Inactive)
ROOT
ATOM      1  C   UNL d   1       0.543  -1.599   1.169  0.00  0.00     0.172 C 
ATOM      2  N   UNL d   1       0.264  -0.685   0.085  0.00  0.00    -0.070 N 
ATOM      3  C1  UNL d   1      -0.604   0.372   0.136  0.00  0.00    -0.004 A 
ATOM      4  C2  UNL d   1      -0.586   0.993  -1.094  0.00  0.00    -0.047 A 
ATOM      5  C3  UNL d   1       0.324   0.283  -1.913  0.00  0.00    -0.047 A 
ATOM      6  C4  UNL d   1       0.836  -0.751  -1.158  0.00  0.00    -0.004 A 
ENDROOT
TORSDOF 0
ENDMDL
