MODEL 1
REMARK minimizedAffinity 3.57066751
REMARK minimizedRMSD -1
REMARK  0 active torsions:
REMARK  status: ('A' for Active; 'I' for Inactive)
ROOT
ATOM      1  C   UNL d   1       4.373   1.919  -1.477  0.00  0.00     0.172 C 
ATOM      2  N   UNL d   1       3.241   2.638  -0.942  0.00  0.00    -0.070 N 
ATOM      3  C1  UNL d   1       3.283   3.543   0.085  0.00  0.00    -0.004 A 
ATOM      4  C2  UNL d   1       2.002   4.005   0.293  0.00  0.00    -0.047 A 
ATOM      5  C3  UNL d   1       1.160   3.355  -0.640  0.00  0.00    -0.047 A 
ATOM      6  C4  UNL d   1       1.953   2.514  -1.392  0.00  0.00    -0.004 A 
ENDROOT
TORSDOF 0
ENDMDL
