MODEL 1
REMARK minimizedAffinity 3.79699039
REMARK minimizedRMSD -1
REMARK  0 active torsions:
REMARK  status: ('A' for Active; 'I' for Inactive)
ROOT
ATOM      1  C   UNL d   1       2.185  -5.891  -2.443  0.00  0.00     0.172 C 
ATOM      2  N   UNL d   1       2.199  -5.932  -3.887  0.00  0.00    -0.070 N 
ATOM      3  C1  UNL d   1       3.320  -5.946  -4.674  0.00  0.00    -0.004 A 
ATOM      4  C2  UNL d   1       2.911  -5.986  -5.989  0.00  0.00    -0.047 A 
ATOM      5  C3  UNL d   1       1.496  -5.995  -5.993  0.00  0.00    -0.047 A 
ATOM      6  C4  UNL d   1       1.082  -5.961  -4.678  0.00  0.00    -0.004 A 
ENDROOT
TORSDOF 0
ENDMDL
