MODEL 1
REMARK minimizedAffinity -2.31280184
REMARK minimizedRMSD -1
REMARK  0 active torsions:
REMARK  status: ('A' for Active; 'I' for Inactive)
ROOT
ATOM      1  C   UNL d   1       2.560  -6.000  -5.153  0.00  0.00     0.172 C 
ATOM      2  N   UNL d   1       3.831  -5.350  -4.940  0.00  0.00    -0.070 N 
ATOM      3  C1  UNL d   1       5.034  -5.983  -4.772  0.00  0.00    -0.004 A 
ATOM      4  C2  UNL d   1       6.000  -5.016  -4.597  0.00  0.00    -0.047 A 
ATOM      5  C3  UNL d   1       5.356  -3.758  -4.662  0.00  0.00    -0.047 A 
ATOM      6  C4  UNL d   1       4.014  -3.994  -4.875  0.00  0.00    -0.004 A 
ENDROOT
TORSDOF 0
ENDMDL
