MODEL 1
REMARK minimizedAffinity 1.54903781
REMARK minimizedRMSD -1
REMARK  0 active torsions:
REMARK  status: ('A' for Active; 'I' for Inactive)
ROOT
ATOM      1  C   UNL d   1      -5.419  -5.994   0.379  0.00  0.00     0.172 C 
ATOM      2  N   UNL d   1      -5.254  -5.568   1.748  0.00  0.00    -0.070 N 
ATOM      3  C1  UNL d   1      -5.999  -5.999   2.814  0.00  0.00    -0.004 A 
ATOM      4  C2  UNL d   1      -5.532  -5.360   3.942  0.00  0.00    -0.047 A 
ATOM      5  C3  UNL d   1      -4.470  -4.514   3.540  0.00  0.00    -0.047 A 
ATOM      6  C4  UNL d   1      -4.319  -4.663   2.178  0.00  0.00    -0.004 A 
ENDROOT
TORSDOF 0
ENDMDL
