MODEL 1
REMARK minimizedAffinity -2.68582225
REMARK minimizedRMSD -1
REMARK  0 active torsions:
REMARK  status: ('A' for Active; 'I' for Inactive)
ROOT
ATOM      1  C   UNL d   1       5.614  -1.359  -4.084  0.00  0.00     0.172 C 
ATOM      2  N   UNL d   1       5.459  -2.678  -4.652  0.00  0.00    -0.070 N 
ATOM      3  C1  UNL d   1       4.758  -2.980  -5.789  0.00  0.00    -0.004 A 
ATOM      4  C2  UNL d   1       4.852  -4.339  -5.994  0.00  0.00    -0.047 A 
ATOM      5  C3  UNL d   1       5.635  -4.873  -4.943  0.00  0.00    -0.047 A 
ATOM      6  C4  UNL d   1       5.998  -3.822  -4.127  0.00  0.00    -0.004 A 
ENDROOT
TORSDOF 0
ENDMDL
