MODEL 1
REMARK minimizedAffinity 0.0408506244
REMARK minimizedRMSD -1
REMARK  0 active torsions:
REMARK  status: ('A' for Active; 'I' for Inactive)
ROOT
ATOM      1  C   UNL d   1       2.409   2.004  -0.759  0.00  0.00     0.172 C 
ATOM      2  N   UNL d   1       1.358   1.097  -0.360  0.00  0.00    -0.070 N 
ATOM      3  C1  UNL d   1       0.041   1.430  -0.184  0.00  0.00    -0.004 A 
ATOM      4  C2  UNL d   1      -0.634   0.290   0.195  0.00  0.00    -0.047 A 
ATOM      5  C3  UNL d   1       0.309  -0.763   0.251  0.00  0.00    -0.047 A 
ATOM      6  C4  UNL d   1       1.534  -0.236  -0.097  0.00  0.00    -0.004 A 
ENDROOT
TORSDOF 0
ENDMDL
