MODEL 1
REMARK minimizedAffinity 8.76359749
REMARK minimizedRMSD -1
REMARK  0 active torsions:
REMARK  status: ('A' for Active; 'I' for Inactive)
ROOT
ATOM      1  C   UNL d   1      -2.418   2.184  -3.539  0.00  0.00     0.172 C 
ATOM      2  N   UNL d   1      -1.390   3.180  -3.352  0.00  0.00    -0.070 N 
ATOM      3  C1  UNL d   1      -0.826   3.941  -4.341  0.00  0.00    -0.004 A 
ATOM      4  C2  UNL d   1       0.109   4.768  -3.756  0.00  0.00    -0.047 A 
ATOM      5  C3  UNL d   1       0.108   4.493  -2.368  0.00  0.00    -0.047 A 
ATOM      6  C4  UNL d   1      -0.829   3.507  -2.145  0.00  0.00    -0.004 A 
ENDROOT
TORSDOF 0
ENDMDL
