MODEL 1
REMARK minimizedAffinity 4.82864714
REMARK minimizedRMSD -1
REMARK  0 active torsions:
REMARK  status: ('A' for Active; 'I' for Inactive)
ROOT
ATOM      1  C   UNL d   1      -5.468   0.501   0.237  0.00  0.00     0.172 C 
ATOM      2  N   UNL d   1      -4.302   1.337   0.074  0.00  0.00    -0.070 N 
ATOM      3  C1  UNL d   1      -3.099   1.160   0.703  0.00  0.00    -0.004 A 
ATOM      4  C2  UNL d   1      -2.251   2.161   0.281  0.00  0.00    -0.047 A 
ATOM      5  C3  UNL d   1      -2.969   2.968  -0.633  0.00  0.00    -0.047 A 
ATOM      6  C4  UNL d   1      -4.236   2.435  -0.743  0.00  0.00    -0.004 A 
ENDROOT
TORSDOF 0
ENDMDL
