MODEL 1
REMARK minimizedAffinity 0.891212881
REMARK minimizedRMSD -1
REMARK  0 active torsions:
REMARK  status: ('A' for Active; 'I' for Inactive)
ROOT
ATOM      1  C   UNL d   1      -5.863  -5.999  -0.074  0.00  0.00     0.172 C 
ATOM      2  N   UNL d   1      -5.300  -5.471  -1.295  0.00  0.00    -0.070 N 
ATOM      3  C1  UNL d   1      -5.469  -6.000  -2.546  0.00  0.00    -0.004 A 
ATOM      4  C2  UNL d   1      -4.777  -5.208  -3.436  0.00  0.00    -0.047 A 
ATOM      5  C3  UNL d   1      -4.169  -4.168  -2.694  0.00  0.00    -0.047 A 
ATOM      6  C4  UNL d   1      -4.510  -4.355  -1.371  0.00  0.00    -0.004 A 
ENDROOT
TORSDOF 0
ENDMDL
