MODEL 1
REMARK minimizedAffinity 6.04258204
REMARK minimizedRMSD -1
REMARK  0 active torsions:
REMARK  status: ('A' for Active; 'I' for Inactive)
ROOT
ATOM      1  C   UNL d   1       0.968   3.378  -0.828  0.00  0.00     0.172 C 
ATOM      2  N   UNL d   1       1.855   2.245  -0.943  0.00  0.00    -0.070 N 
ATOM      3  C1  UNL d   1       1.668   1.022  -0.356  0.00  0.00    -0.004 A 
ATOM      4  C2  UNL d   1       2.731   0.218  -0.707  0.00  0.00    -0.047 A 
ATOM      5  C3  UNL d   1       3.587   0.985  -1.533  0.00  0.00    -0.047 A 
ATOM      6  C4  UNL d   1       3.021   2.236  -1.662  0.00  0.00    -0.004 A 
ENDROOT
TORSDOF 0
ENDMDL
