MODEL 1
REMARK minimizedAffinity -0.358827412
REMARK minimizedRMSD -1
REMARK  0 active torsions:
REMARK  status: ('A' for Active; 'I' for Inactive)
ROOT
ATOM      1  C   UNL d   1       5.962  -2.772  -4.144  0.00  0.00     0.172 C 
ATOM      2  N   UNL d   1       5.440  -4.054  -4.556  0.00  0.00    -0.070 N 
ATOM      3  C1  UNL d   1       6.000  -4.880  -5.494  0.00  0.00    -0.004 A 
ATOM      4  C2  UNL d   1       5.204  -6.000  -5.599  0.00  0.00    -0.047 A 
ATOM      5  C3  UNL d   1       4.127  -5.841  -4.694  0.00  0.00    -0.047 A 
ATOM      6  C4  UNL d   1       4.298  -4.628  -4.062  0.00  0.00    -0.004 A 
ENDROOT
TORSDOF 0
ENDMDL
