MODEL 1
REMARK minimizedAffinity 2.36263895
REMARK minimizedRMSD -1
REMARK  0 active torsions:
REMARK  status: ('A' for Active; 'I' for Inactive)
ROOT
ATOM      1  C   UNL d   1      -0.651   3.024  -2.796  0.00  0.00     0.172 C 
ATOM      2  N   UNL d   1       0.548   3.151  -2.001  0.00  0.00    -0.070 N 
ATOM      3  C1  UNL d   1       1.271   2.113  -1.476  0.00  0.00    -0.004 A 
ATOM      4  C2  UNL d   1       2.338   2.648  -0.786  0.00  0.00    -0.047 A 
ATOM      5  C3  UNL d   1       2.253   4.055  -0.900  0.00  0.00    -0.047 A 
ATOM      6  C4  UNL d   1       1.136   4.340  -1.657  0.00  0.00    -0.004 A 
ENDROOT
TORSDOF 0
ENDMDL
