MODEL 1
REMARK minimizedAffinity 0.604001701
REMARK minimizedRMSD -1
REMARK  0 active torsions:
REMARK  status: ('A' for Active; 'I' for Inactive)
ROOT
ATOM      1  C   UNL d   1       2.669  -5.999  -3.934  0.00  0.00     0.172 C 
ATOM      2  N   UNL d   1       3.897  -5.359  -4.342  0.00  0.00    -0.070 N 
ATOM      3  C1  UNL d   1       5.068  -6.000  -4.647  0.00  0.00    -0.004 A 
ATOM      4  C2  UNL d   1       5.998  -5.041  -4.989  0.00  0.00    -0.047 A 
ATOM      5  C3  UNL d   1       5.363  -3.781  -4.885  0.00  0.00    -0.047 A 
ATOM      6  C4  UNL d   1       4.064  -4.007  -4.483  0.00  0.00    -0.004 A 
ENDROOT
TORSDOF 0
ENDMDL
