MODEL 1
REMARK minimizedAffinity 7.78928947
REMARK minimizedRMSD -1
REMARK  0 active torsions:
REMARK  status: ('A' for Active; 'I' for Inactive)
ROOT
ATOM      1  C   UNL d   1       1.185  -0.545   2.016  0.00  0.00     0.172 C 
ATOM      2  N   UNL d   1       2.553  -0.113   1.847  0.00  0.00    -0.070 N 
ATOM      3  C1  UNL d   1       3.565  -0.296   2.751  0.00  0.00    -0.004 A 
ATOM      4  C2  UNL d   1       4.710   0.256   2.219  0.00  0.00    -0.047 A 
ATOM      5  C3  UNL d   1       4.375   0.791   0.953  0.00  0.00    -0.047 A 
ATOM      6  C4  UNL d   1       3.033   0.548   0.747  0.00  0.00    -0.004 A 
ENDROOT
TORSDOF 0
ENDMDL
