MODEL 1
REMARK minimizedAffinity 0.231655881
REMARK minimizedRMSD -1
REMARK  0 active torsions:
REMARK  status: ('A' for Active; 'I' for Inactive)
ROOT
ATOM      1  C   UNL d   1      -3.751  -3.375  -0.457  0.00  0.00     0.172 C 
ATOM      2  N   UNL d   1      -4.365  -4.228  -1.448  0.00  0.00    -0.070 N 
ATOM      3  C1  UNL d   1      -4.693  -5.546  -1.274  0.00  0.00    -0.004 A 
ATOM      4  C2  UNL d   1      -5.255  -5.999  -2.448  0.00  0.00    -0.047 A 
ATOM      5  C3  UNL d   1      -5.264  -4.916  -3.359  0.00  0.00    -0.047 A 
ATOM      6  C4  UNL d   1      -4.707  -3.832  -2.714  0.00  0.00    -0.004 A 
ENDROOT
TORSDOF 0
ENDMDL
