MODEL 1
REMARK minimizedAffinity 6.95409584
REMARK minimizedRMSD -1
REMARK  0 active torsions:
REMARK  status: ('A' for Active; 'I' for Inactive)
ROOT
ATOM      1  C1  DEN d   1       0.734  -0.010   3.013  0.00  0.00     0.130 A 
ATOM      2  C2  DEN d   1       0.333   0.846   1.900  0.00  0.00    -0.031 A 
ATOM      3  C3  DEN d   1       0.759   0.193   0.645  0.00  0.00     0.027 A 
ATOM      4  C4  DEN d   1       1.989  -2.050   0.321  0.00  0.00     0.027 A 
ATOM      5  C5  DEN d   1       2.548  -3.128   0.971  0.00  0.00    -0.003 A 
ATOM      6  C6  DEN d   1       2.573  -3.225   2.337  0.00  0.00     0.001 A 
ATOM      7  C7  DEN d   1       1.986  -2.247   3.097  0.00  0.00     0.017 A 
ATOM      8  C8  DEN d   1       1.427  -1.154   2.449  0.00  0.00    -0.094 A 
ATOM      9  C9  DEN d   1       1.401  -1.081   1.066  0.00  0.00    -0.072 A 
ENDROOT
TORSDOF 0
ENDMDL
