MODEL 1
REMARK minimizedAffinity -2.59464335
REMARK minimizedRMSD -1
REMARK  0 active torsions:
REMARK  status: ('A' for Active; 'I' for Inactive)
ROOT
ATOM      1  C1  DEN d   1      -3.064  -0.366  -1.279  0.00  0.00     0.130 A 
ATOM      2  C2  DEN d   1      -3.054  -0.067  -2.708  0.00  0.00    -0.031 A 
ATOM      3  C3  DEN d   1      -2.879  -1.338  -3.439  0.00  0.00     0.027 A 
ATOM      4  C4  DEN d   1      -2.629  -3.728  -2.502  0.00  0.00     0.027 A 
ATOM      5  C5  DEN d   1      -2.565  -4.481  -1.350  0.00  0.00    -0.003 A 
ATOM      6  C6  DEN d   1      -2.628  -3.916  -0.104  0.00  0.00     0.001 A 
ATOM      7  C7  DEN d   1      -2.804  -2.563   0.020  0.00  0.00     0.017 A 
ATOM      8  C8  DEN d   1      -2.862  -1.796  -1.136  0.00  0.00    -0.094 A 
ATOM      9  C9  DEN d   1      -2.809  -2.387  -2.387  0.00  0.00    -0.072 A 
ENDROOT
TORSDOF 0
ENDMDL
