MODEL 1
REMARK minimizedAffinity 11.4514189
REMARK minimizedRMSD -1
REMARK  0 active torsions:
REMARK  status: ('A' for Active; 'I' for Inactive)
ROOT
ATOM      1  C1  DEN d   1      -3.287  -3.553  -1.438  0.00  0.00     0.130 A 
ATOM      2  C2  DEN d   1      -2.614  -4.420  -0.475  0.00  0.00    -0.031 A 
ATOM      3  C3  DEN d   1      -2.009  -3.565   0.565  0.00  0.00     0.027 A 
ATOM      4  C4  DEN d   1      -2.052  -0.995   0.780  0.00  0.00     0.027 A 
ATOM      5  C5  DEN d   1      -2.491   0.173   0.196  0.00  0.00    -0.003 A 
ATOM      6  C6  DEN d   1      -3.190   0.183  -0.982  0.00  0.00     0.001 A 
ATOM      7  C7  DEN d   1      -3.511  -1.001  -1.590  0.00  0.00     0.017 A 
ATOM      8  C8  DEN d   1      -3.066  -2.183  -1.012  0.00  0.00    -0.094 A 
ATOM      9  C9  DEN d   1      -2.371  -2.172   0.185  0.00  0.00    -0.072 A 
ENDROOT
TORSDOF 0
ENDMDL
