MODEL 1
REMARK minimizedAffinity 10.2755594
REMARK minimizedRMSD -1
REMARK  0 active torsions:
REMARK  status: ('A' for Active; 'I' for Inactive)
ROOT
ATOM      1  C1  DEN d   1       0.751  -1.128   5.584  0.00  0.00     0.130 A 
ATOM      2  C2  DEN d   1       1.320  -2.407   5.999  0.00  0.00    -0.031 A 
ATOM      3  C3  DEN d   1       1.868  -3.074   4.801  0.00  0.00     0.027 A 
ATOM      4  C4  DEN d   1       1.895  -2.252   2.356  0.00  0.00     0.027 A 
ATOM      5  C5  DEN d   1       1.519  -1.232   1.511  0.00  0.00    -0.003 A 
ATOM      6  C6  DEN d   1       0.837  -0.130   1.955  0.00  0.00     0.001 A 
ATOM      7  C7  DEN d   1       0.548  -0.001   3.288  0.00  0.00     0.017 A 
ATOM      8  C8  DEN d   1       0.917  -1.030   4.145  0.00  0.00    -0.094 A 
ATOM      9  C9  DEN d   1       1.617  -2.130   3.679  0.00  0.00    -0.072 A 
ENDROOT
TORSDOF 0
ENDMDL
