MODEL 1
REMARK minimizedAffinity 11.1786661
REMARK minimizedRMSD -1
REMARK  0 active torsions:
REMARK  status: ('A' for Active; 'I' for Inactive)
ROOT
ATOM      1  C1  DEN d   1      -1.242  -3.321   0.629  0.00  0.00     0.130 A 
ATOM      2  C2  DEN d   1      -2.637  -3.452   0.216  0.00  0.00    -0.031 A 
ATOM      3  C3  DEN d   1      -3.205  -2.095   0.090  0.00  0.00     0.027 A 
ATOM      4  C4  DEN d   1      -2.064   0.185   0.487  0.00  0.00     0.027 A 
ATOM      5  C5  DEN d   1      -0.892   0.803   0.860  0.00  0.00    -0.003 A 
ATOM      6  C6  DEN d   1       0.227   0.096   1.212  0.00  0.00     0.001 A 
ATOM      7  C7  DEN d   1       0.211  -1.273   1.155  0.00  0.00     0.017 A 
ATOM      8  C8  DEN d   1      -0.970  -1.904   0.787  0.00  0.00    -0.094 A 
ATOM      9  C9  DEN d   1      -2.087  -1.171   0.422  0.00  0.00    -0.072 A 
ENDROOT
TORSDOF 0
ENDMDL
