MODEL 1
REMARK minimizedAffinity 8.93101501
REMARK minimizedRMSD -1
REMARK  0 active torsions:
REMARK  status: ('A' for Active; 'I' for Inactive)
ROOT
ATOM      1  C1  DEN d   1       0.769   1.409   1.504  0.00  0.00     0.130 A 
ATOM      2  C2  DEN d   1      -0.352   2.223   1.043  0.00  0.00    -0.031 A 
ATOM      3  C3  DEN d   1      -1.468   1.316   0.708  0.00  0.00     0.027 A 
ATOM      4  C4  DEN d   1      -1.571  -1.256   0.864  0.00  0.00     0.027 A 
ATOM      5  C5  DEN d   1      -0.861  -2.390   1.190  0.00  0.00    -0.003 A 
ATOM      6  C6  DEN d   1       0.443  -2.341   1.608  0.00  0.00     0.001 A 
ATOM      7  C7  DEN d   1       1.063  -1.128   1.753  0.00  0.00     0.017 A 
ATOM      8  C8  DEN d   1       0.355   0.019   1.420  0.00  0.00    -0.094 A 
ATOM      9  C9  DEN d   1      -0.966  -0.051   1.011  0.00  0.00    -0.072 A 
ENDROOT
TORSDOF 0
ENDMDL
