MODEL 1
REMARK minimizedAffinity 9.73234749
REMARK minimizedRMSD -1
REMARK  0 active torsions:
REMARK  status: ('A' for Active; 'I' for Inactive)
ROOT
ATOM      1  C1  DEN d   1       0.972  -0.235   2.245  0.00  0.00     0.130 A 
ATOM      2  C2  DEN d   1       1.447  -0.812   0.990  0.00  0.00    -0.031 A 
ATOM      3  C3  DEN d   1       2.147  -2.074   1.304  0.00  0.00     0.027 A 
ATOM      4  C4  DEN d   1       2.535  -3.187   3.599  0.00  0.00     0.027 A 
ATOM      5  C5  DEN d   1       2.327  -3.065   4.955  0.00  0.00    -0.003 A 
ATOM      6  C6  DEN d   1       1.687  -1.984   5.501  0.00  0.00     0.001 A 
ATOM      7  C7  DEN d   1       1.194  -1.002   4.683  0.00  0.00     0.017 A 
ATOM      8  C8  DEN d   1       1.406  -1.114   3.315  0.00  0.00    -0.094 A 
ATOM      9  C9  DEN d   1       2.044  -2.221   2.781  0.00  0.00    -0.072 A 
ENDROOT
TORSDOF 0
ENDMDL
