MODEL 1
REMARK minimizedAffinity 8.79090309
REMARK minimizedRMSD -1
REMARK  0 active torsions:
REMARK  status: ('A' for Active; 'I' for Inactive)
ROOT
ATOM      1  C1  DEN d   1       2.591  -3.022   2.045  0.00  0.00     0.130 A 
ATOM      2  C2  DEN d   1       2.018  -1.837   1.414  0.00  0.00    -0.031 A 
ATOM      3  C3  DEN d   1       1.369  -1.028   2.465  0.00  0.00     0.027 A 
ATOM      4  C4  DEN d   1       1.202  -1.491   4.997  0.00  0.00     0.027 A 
ATOM      5  C5  DEN d   1       1.526  -2.377   6.000  0.00  0.00    -0.003 A 
ATOM      6  C6  DEN d   1       2.193  -3.548   5.752  0.00  0.00     0.001 A 
ATOM      7  C7  DEN d   1       2.597  -3.842   4.476  0.00  0.00     0.017 A 
ATOM      8  C8  DEN d   1       2.267  -2.956   3.459  0.00  0.00    -0.094 A 
ATOM      9  C9  DEN d   1       1.604  -1.772   3.732  0.00  0.00    -0.072 A 
ENDROOT
TORSDOF 0
ENDMDL
