MODEL 1
REMARK minimizedAffinity 1.68203723
REMARK minimizedRMSD -1
REMARK  0 active torsions:
REMARK  status: ('A' for Active; 'I' for Inactive)
ROOT
ATOM      1  C1  DEN d   1       4.964  -4.427  -3.860  0.00  0.00     0.130 A 
ATOM      2  C2  DEN d   1       5.508  -5.220  -4.959  0.00  0.00    -0.031 A 
ATOM      3  C3  DEN d   1       6.000  -4.289  -5.994  0.00  0.00     0.027 A 
ATOM      4  C4  DEN d   1       5.978  -1.710  -6.000  0.00  0.00     0.027 A 
ATOM      5  C5  DEN d   1       5.607  -0.589  -5.290  0.00  0.00    -0.003 A 
ATOM      6  C6  DEN d   1       4.971  -0.668  -4.080  0.00  0.00     0.001 A 
ATOM      7  C7  DEN d   1       4.726  -1.895  -3.521  0.00  0.00     0.017 A 
ATOM      8  C8  DEN d   1       5.090  -3.030  -4.234  0.00  0.00    -0.094 A 
ATOM      9  C9  DEN d   1       5.743  -2.928  -5.450  0.00  0.00    -0.072 A 
ENDROOT
TORSDOF 0
ENDMDL
