MODEL 1
REMARK minimizedAffinity 16.2331161
REMARK minimizedRMSD -1
REMARK  0 active torsions:
REMARK  status: ('A' for Active; 'I' for Inactive)
ROOT
ATOM      1  C1  DEN d   1       1.899  -0.730   0.831  0.00  0.00     0.130 A 
ATOM      2  C2  DEN d   1       2.089  -2.152   0.560  0.00  0.00    -0.031 A 
ATOM      3  C3  DEN d   1       1.906  -2.888   1.827  0.00  0.00     0.027 A 
ATOM      4  C4  DEN d   1       1.345  -1.968   4.170  0.00  0.00     0.027 A 
ATOM      5  C5  DEN d   1       1.101  -0.824   4.899  0.00  0.00    -0.003 A 
ATOM      6  C6  DEN d   1       1.140   0.423   4.334  0.00  0.00     0.001 A 
ATOM      7  C7  DEN d   1       1.384   0.553   2.992  0.00  0.00     0.017 A 
ATOM      8  C8  DEN d   1       1.638  -0.594   2.253  0.00  0.00    -0.094 A 
ATOM      9  C9  DEN d   1       1.582  -1.847   2.840  0.00  0.00    -0.072 A 
ENDROOT
TORSDOF 0
ENDMDL
