MODEL 1
REMARK minimizedAffinity 4.0958643
REMARK minimizedRMSD -1
REMARK  0 active torsions:
REMARK  status: ('A' for Active; 'I' for Inactive)
ROOT
ATOM      1  C1  DEN d   1       2.466  -1.727   1.977  0.00  0.00     0.130 A 
ATOM      2  C2  DEN d   1       2.017  -0.450   1.428  0.00  0.00    -0.031 A 
ATOM      3  C3  DEN d   1       1.319   0.287   2.500  0.00  0.00     0.027 A 
ATOM      4  C4  DEN d   1       0.897  -0.417   4.945  0.00  0.00     0.027 A 
ATOM      5  C5  DEN d   1       1.080  -1.419   5.872  0.00  0.00    -0.003 A 
ATOM      6  C6  DEN d   1       1.703  -2.598   5.559  0.00  0.00     0.001 A 
ATOM      7  C7  DEN d   1       2.206  -2.787   4.299  0.00  0.00     0.017 A 
ATOM      8  C8  DEN d   1       2.018  -1.784   3.357  0.00  0.00    -0.094 A 
ATOM      9  C9  DEN d   1       1.397  -0.594   3.696  0.00  0.00    -0.072 A 
ENDROOT
TORSDOF 0
ENDMDL
