MODEL 1
REMARK minimizedAffinity -2.00430179
REMARK minimizedRMSD -1
REMARK  1 active torsions:
REMARK  status: ('A' for Active; 'I' for Inactive)
REMARK    1  A    between atoms: C1_2  and  C2_3 
ROOT
ATOM      1  C2  UNL d   1      -0.202  -1.376   2.418  0.00  0.00    -0.073 A 
ATOM      2  C3  UNL d   1       1.049  -1.064   2.963  0.00  0.00    -0.002 A 
ATOM      3  C4  UNL d   1       1.860  -0.103   2.360  0.00  0.00     0.004 A 
ATOM      4  C5  UNL d   1       1.428   0.561   1.212  0.00  0.00    -0.004 A 
ATOM      5  C6  UNL d   1       0.176   0.272   0.659  0.00  0.00    -0.075 A 
ATOM      6  C7  UNL d   1      -0.303   0.976  -0.577  0.00  0.00     0.076 C 
ATOM      7  C8  UNL d   1      -0.632  -0.697   1.269  0.00  0.00     0.001 A 
ENDROOT
BRANCH   1   8
ATOM      8  C1  UNL d   1      -1.085  -2.409   3.069  0.00  0.00     0.053 C 
ATOM      9  C   UNL d   1      -0.537  -3.817   2.898  0.00  0.00     0.018 C 
ENDBRANCH   1   8
TORSDOF 1
ENDMDL
