MODEL 1
REMARK minimizedAffinity -3.4543097
REMARK minimizedRMSD -1
REMARK  1 active torsions:
REMARK  status: ('A' for Active; 'I' for Inactive)
REMARK    1  A    between atoms: C1_2  and  C2_3 
ROOT
ATOM      1  C2  UNL d   1       1.631  -0.543   0.113  0.00  0.00    -0.073 A 
ATOM      2  C3  UNL d   1       0.322  -0.061   0.219  0.00  0.00    -0.002 A 
ATOM      3  C4  UNL d   1      -0.351  -0.113   1.441  0.00  0.00     0.004 A 
ATOM      4  C5  UNL d   1       0.279  -0.640   2.567  0.00  0.00    -0.004 A 
ATOM      5  C6  UNL d   1       1.591  -1.116   2.484  0.00  0.00    -0.075 A 
ATOM      6  C7  UNL d   1       2.283  -1.689   3.686  0.00  0.00     0.076 C 
ATOM      7  C8  UNL d   1       2.260  -1.063   1.253  0.00  0.00     0.001 A 
ENDROOT
BRANCH   1   8
ATOM      8  C1  UNL d   1       2.364  -0.482  -1.203  0.00  0.00     0.053 C 
ATOM      9  C   UNL d   1       1.548  -1.079  -2.338  0.00  0.00     0.018 C 
ENDBRANCH   1   8
TORSDOF 1
ENDMDL
