MODEL 1
REMARK minimizedAffinity -0.917545021
REMARK minimizedRMSD -1
REMARK  1 active torsions:
REMARK  status: ('A' for Active; 'I' for Inactive)
REMARK    1  A    between atoms: C1_2  and  C2_3 
ROOT
ATOM      1  C2  UNL d   1      -0.352   0.501  -1.150  0.00  0.00    -0.073 A 
ATOM      2  C3  UNL d   1       0.698  -0.099  -1.855  0.00  0.00    -0.002 A 
ATOM      3  C4  UNL d   1       1.585  -0.957  -1.204  0.00  0.00     0.004 A 
ATOM      4  C5  UNL d   1       1.428  -1.229   0.155  0.00  0.00    -0.004 A 
ATOM      5  C6  UNL d   1       0.379  -0.649   0.874  0.00  0.00    -0.075 A 
ATOM      6  C7  UNL d   1       0.198  -0.930   2.337  0.00  0.00     0.076 C 
ATOM      7  C8  UNL d   1      -0.506   0.214   0.214  0.00  0.00     0.001 A 
ENDROOT
BRANCH   1   8
ATOM      8  C1  UNL d   1      -1.316   1.424  -1.850  0.00  0.00     0.053 C 
ATOM      9  C   UNL d   1      -0.604   2.582  -2.531  0.00  0.00     0.018 C 
ENDBRANCH   1   8
TORSDOF 1
ENDMDL
