MODEL 1
REMARK minimizedAffinity 1.60813832
REMARK minimizedRMSD -1
REMARK  1 active torsions:
REMARK  status: ('A' for Active; 'I' for Inactive)
REMARK    1  A    between atoms: C1_2  and  C2_3 
ROOT
ATOM      1  C2  UNL d   1       0.313   1.209   0.058  0.00  0.00    -0.073 A 
ATOM      2  C3  UNL d   1       1.404   0.366  -0.184  0.00  0.00    -0.002 A 
ATOM      3  C4  UNL d   1       1.244  -1.020  -0.157  0.00  0.00     0.004 A 
ATOM      4  C5  UNL d   1      -0.008  -1.577   0.104  0.00  0.00    -0.004 A 
ATOM      5  C6  UNL d   1      -1.113  -0.751   0.337  0.00  0.00    -0.075 A 
ATOM      6  C7  UNL d   1      -2.466  -1.334   0.621  0.00  0.00     0.076 C 
ATOM      7  C8  UNL d   1      -0.943   0.640   0.311  0.00  0.00     0.001 A 
ENDROOT
BRANCH   1   8
ATOM      8  C1  UNL d   1       0.480   2.706   0.024  0.00  0.00     0.053 C 
ATOM      9  C   UNL d   1       0.278   3.271  -1.373  0.00  0.00     0.018 C 
ENDBRANCH   1   8
TORSDOF 1
ENDMDL
