MODEL 1
REMARK minimizedAffinity -3.32835579
REMARK minimizedRMSD -1
REMARK  1 active torsions:
REMARK  status: ('A' for Active; 'I' for Inactive)
REMARK    1  A    between atoms: C1_2  and  C2_3 
ROOT
ATOM      1  C2  UNL d   1       0.039   0.262  -0.448  0.00  0.00    -0.073 A 
ATOM      2  C3  UNL d   1      -0.090   0.927   0.776  0.00  0.00    -0.002 A 
ATOM      3  C4  UNL d   1      -0.503   2.260   0.814  0.00  0.00     0.004 A 
ATOM      4  C5  UNL d   1      -0.796   2.938  -0.369  0.00  0.00    -0.004 A 
ATOM      5  C6  UNL d   1      -0.684   2.286  -1.602  0.00  0.00    -0.075 A 
ATOM      6  C7  UNL d   1      -0.994   3.002  -2.884  0.00  0.00     0.076 C 
ATOM      7  C8  UNL d   1      -0.267   0.949  -1.632  0.00  0.00     0.001 A 
ENDROOT
BRANCH   1   8
ATOM      8  C1  UNL d   1       0.478  -1.179  -0.493  0.00  0.00     0.053 C 
ATOM      9  C   UNL d   1       1.882  -1.330  -1.059  0.00  0.00     0.018 C 
ENDBRANCH   1   8
TORSDOF 1
ENDMDL
