MODEL 1
REMARK minimizedAffinity -4.66489553
REMARK minimizedRMSD -1
REMARK  1 active torsions:
REMARK  status: ('A' for Active; 'I' for Inactive)
REMARK    1  A    between atoms: C1_2  and  C2_3 
ROOT
ATOM      1  C2  UNL d   1       0.698  -0.225   1.218  0.00  0.00    -0.073 A 
ATOM      2  C3  UNL d   1      -0.664   0.080   1.115  0.00  0.00    -0.002 A 
ATOM      3  C4  UNL d   1      -1.308   0.018  -0.121  0.00  0.00     0.004 A 
ATOM      4  C5  UNL d   1      -0.601  -0.355  -1.264  0.00  0.00    -0.004 A 
ATOM      5  C6  UNL d   1       0.758  -0.675  -1.179  0.00  0.00    -0.075 A 
ATOM      6  C7  UNL d   1       1.534  -1.075  -2.399  0.00  0.00     0.076 C 
ATOM      7  C8  UNL d   1       1.399  -0.608   0.065  0.00  0.00     0.001 A 
ENDROOT
BRANCH   1   8
ATOM      8  C1  UNL d   1       1.397  -0.166   2.552  0.00  0.00     0.053 C 
ATOM      9  C   UNL d   1       1.327  -1.493   3.291  0.00  0.00     0.018 C 
ENDBRANCH   1   8
TORSDOF 1
ENDMDL
