MODEL 1
REMARK minimizedAffinity -0.974364102
REMARK minimizedRMSD -1
REMARK  1 active torsions:
REMARK  status: ('A' for Active; 'I' for Inactive)
REMARK    1  A    between atoms: C1_2  and  C2_3 
ROOT
ATOM      1  C2  UNL d   1      -0.109   1.328  -1.240  0.00  0.00    -0.073 A 
ATOM      2  C3  UNL d   1       0.127   0.414  -2.272  0.00  0.00    -0.002 A 
ATOM      3  C4  UNL d   1       0.720  -0.820  -2.000  0.00  0.00     0.004 A 
ATOM      4  C5  UNL d   1       1.076  -1.154  -0.693  0.00  0.00    -0.004 A 
ATOM      5  C6  UNL d   1       0.837  -0.259   0.354  0.00  0.00    -0.075 A 
ATOM      6  C7  UNL d   1       1.216  -0.603   1.765  0.00  0.00     0.076 C 
ATOM      7  C8  UNL d   1       0.244   0.979   0.072  0.00  0.00     0.001 A 
ENDROOT
BRANCH   1   8
ATOM      8  C1  UNL d   1      -0.755   2.659  -1.528  0.00  0.00     0.053 C 
ATOM      9  C   UNL d   1      -0.113   3.358  -2.716  0.00  0.00     0.018 C 
ENDBRANCH   1   8
TORSDOF 1
ENDMDL
