MODEL 1
REMARK minimizedAffinity 3.91460776
REMARK minimizedRMSD -1
REMARK  1 active torsions:
REMARK  status: ('A' for Active; 'I' for Inactive)
REMARK    1  A    between atoms: C1_2  and  C2_3 
ROOT
ATOM      1  C2  UNL d   1       0.474  -0.558  -0.332  0.00  0.00    -0.073 A 
ATOM      2  C3  UNL d   1       1.543   0.067  -0.985  0.00  0.00    -0.002 A 
ATOM      3  C4  UNL d   1       2.829   0.010  -0.445  0.00  0.00     0.004 A 
ATOM      4  C5  UNL d   1       3.060  -0.677   0.746  0.00  0.00    -0.004 A 
ATOM      5  C6  UNL d   1       2.007  -1.318   1.407  0.00  0.00    -0.075 A 
ATOM      6  C7  UNL d   1       2.240  -2.059   2.691  0.00  0.00     0.076 C 
ATOM      7  C8  UNL d   1       0.719  -1.254   0.860  0.00  0.00     0.001 A 
ENDROOT
BRANCH   1   8
ATOM      8  C1  UNL d   1      -0.915  -0.505  -0.914  0.00  0.00     0.053 C 
ATOM      9  C   UNL d   1      -1.987  -0.594   0.160  0.00  0.00     0.018 C 
ENDBRANCH   1   8
TORSDOF 1
ENDMDL
