MODEL 1
REMARK minimizedAffinity -2.32464051
REMARK minimizedRMSD -1
REMARK  1 active torsions:
REMARK  status: ('A' for Active; 'I' for Inactive)
REMARK    1  A    between atoms: C1_2  and  C2_3 
ROOT
ATOM      1  C2  UNL d   1      -2.193   3.338   3.946  0.00  0.00    -0.073 A 
ATOM      2  C3  UNL d   1      -2.375   2.997   2.601  0.00  0.00    -0.002 A 
ATOM      3  C4  UNL d   1      -3.418   2.151   2.224  0.00  0.00     0.004 A 
ATOM      4  C5  UNL d   1      -4.293   1.644   3.184  0.00  0.00    -0.004 A 
ATOM      5  C6  UNL d   1      -4.135   1.983   4.532  0.00  0.00    -0.075 A 
ATOM      6  C7  UNL d   1      -5.066   1.444   5.578  0.00  0.00     0.076 C 
ATOM      7  C8  UNL d   1      -3.083   2.831   4.904  0.00  0.00     0.001 A 
ENDROOT
BRANCH   1   8
ATOM      8  C1  UNL d   1      -1.071   4.256   4.358  0.00  0.00     0.053 C 
ATOM      9  C   UNL d   1       0.281   3.758   3.873  0.00  0.00     0.018 C 
ENDBRANCH   1   8
TORSDOF 1
ENDMDL
