MODEL 1
REMARK minimizedAffinity 2.95981836
REMARK minimizedRMSD -1
REMARK  0 active torsions:
REMARK  status: ('A' for Active; 'I' for Inactive)
ROOT
ATOM      1  C   UNL d   1       1.507  -1.422   3.779  0.00  0.00     0.077 C 
ATOM      2  C1  UNL d   1       1.560  -0.896   2.376  0.00  0.00    -0.074 A 
ATOM      3  C2  UNL d   1       0.402  -0.814   1.595  0.00  0.00    -0.005 A 
ATOM      4  C3  UNL d   1       0.464  -0.313   0.295  0.00  0.00     0.006 A 
ATOM      5  C4  UNL d   1       1.683   0.110  -0.237  0.00  0.00    -0.005 A 
ATOM      6  C5  UNL d   1       2.851   0.036   0.528  0.00  0.00    -0.074 A 
ATOM      7  C6  UNL d   1       4.167   0.495  -0.025  0.00  0.00     0.077 C 
ATOM      8  C7  UNL d   1       2.779  -0.462   1.837  0.00  0.00    -0.001 A 
ENDROOT
TORSDOF 0
ENDMDL
