MODEL 1
REMARK minimizedAffinity 3.92164612
REMARK minimizedRMSD -1
REMARK  0 active torsions:
REMARK  status: ('A' for Active; 'I' for Inactive)
ROOT
ATOM      1  C   UNL d   1       3.038  -0.752   4.198  0.00  0.00     0.077 C 
ATOM      2  C1  UNL d   1       2.199  -1.129   3.013  0.00  0.00    -0.074 A 
ATOM      3  C2  UNL d   1       1.754  -2.443   2.835  0.00  0.00    -0.005 A 
ATOM      4  C3  UNL d   1       0.967  -2.776   1.733  0.00  0.00     0.006 A 
ATOM      5  C4  UNL d   1       0.617  -1.800   0.799  0.00  0.00    -0.005 A 
ATOM      6  C5  UNL d   1       1.051  -0.481   0.961  0.00  0.00    -0.074 A 
ATOM      7  C6  UNL d   1       0.676   0.582  -0.028  0.00  0.00     0.077 C 
ATOM      8  C7  UNL d   1       1.836  -0.152   2.075  0.00  0.00    -0.001 A 
ENDROOT
TORSDOF 0
ENDMDL
