MODEL 1
REMARK minimizedAffinity 2.50758982
REMARK minimizedRMSD -1
REMARK  0 active torsions:
REMARK  status: ('A' for Active; 'I' for Inactive)
ROOT
ATOM      1  C   UNL d   1       1.704  -1.810   3.111  0.00  0.00     0.077 C 
ATOM      2  C1  UNL d   1       1.684  -0.923   1.902  0.00  0.00    -0.074 A 
ATOM      3  C2  UNL d   1       0.499  -0.314   1.477  0.00  0.00    -0.005 A 
ATOM      4  C3  UNL d   1       0.497   0.516   0.356  0.00  0.00     0.006 A 
ATOM      5  C4  UNL d   1       1.678   0.743  -0.352  0.00  0.00    -0.005 A 
ATOM      6  C5  UNL d   1       2.873   0.143   0.058  0.00  0.00    -0.074 A 
ATOM      7  C6  UNL d   1       4.153   0.385  -0.685  0.00  0.00     0.077 C 
ATOM      8  C7  UNL d   1       2.868  -0.684   1.190  0.00  0.00    -0.001 A 
ENDROOT
TORSDOF 0
ENDMDL
