MODEL 1
REMARK minimizedAffinity 6.18383884
REMARK minimizedRMSD -1
REMARK  0 active torsions:
REMARK  status: ('A' for Active; 'I' for Inactive)
ROOT
ATOM      1  C   UNL d   1       3.157   0.623   0.169  0.00  0.00     0.077 C 
ATOM      2  C1  UNL d   1       2.041  -0.122   0.838  0.00  0.00    -0.074 A 
ATOM      3  C2  UNL d   1       2.304  -1.076   1.826  0.00  0.00    -0.005 A 
ATOM      4  C3  UNL d   1       1.255  -1.754   2.446  0.00  0.00     0.006 A 
ATOM      5  C4  UNL d   1      -0.066  -1.485   2.086  0.00  0.00    -0.005 A 
ATOM      6  C5  UNL d   1      -0.349  -0.533   1.101  0.00  0.00    -0.074 A 
ATOM      7  C6  UNL d   1      -1.763  -0.225   0.709  0.00  0.00     0.077 C 
ATOM      8  C7  UNL d   1       0.711   0.149   0.487  0.00  0.00    -0.001 A 
ENDROOT
TORSDOF 0
ENDMDL
