MODEL 1
REMARK minimizedAffinity 3.17281961
REMARK minimizedRMSD -1
REMARK  0 active torsions:
REMARK  status: ('A' for Active; 'I' for Inactive)
ROOT
ATOM      1  C   UNL d   1       1.030   1.155   0.093  0.00  0.00     0.077 C 
ATOM      2  C1  UNL d   1       1.073  -0.125   0.874  0.00  0.00    -0.074 A 
ATOM      3  C2  UNL d   1       0.637  -1.327   0.309  0.00  0.00    -0.005 A 
ATOM      4  C3  UNL d   1       0.692  -2.511   1.044  0.00  0.00     0.006 A 
ATOM      5  C4  UNL d   1       1.184  -2.505   2.350  0.00  0.00    -0.005 A 
ATOM      6  C5  UNL d   1       1.626  -1.313   2.932  0.00  0.00    -0.074 A 
ATOM      7  C6  UNL d   1       2.167  -1.290   4.330  0.00  0.00     0.077 C 
ATOM      8  C7  UNL d   1       1.574  -0.128   2.184  0.00  0.00    -0.001 A 
ENDROOT
TORSDOF 0
ENDMDL
