MODEL 1
REMARK minimizedAffinity -0.298041999
REMARK minimizedRMSD -1
REMARK  0 active torsions:
REMARK  status: ('A' for Active; 'I' for Inactive)
ROOT
ATOM      1  C   UNL d   1      -1.075  -5.988  -5.881  0.00  0.00     0.077 C 
ATOM      2  C1  UNL d   1      -1.139  -5.997  -4.383  0.00  0.00    -0.074 A 
ATOM      3  C2  UNL d   1       0.028  -5.992  -3.613  0.00  0.00    -0.005 A 
ATOM      4  C3  UNL d   1      -0.047  -5.991  -2.220  0.00  0.00     0.006 A 
ATOM      5  C4  UNL d   1      -1.289  -5.995  -1.584  0.00  0.00    -0.005 A 
ATOM      6  C5  UNL d   1      -2.467  -5.999  -2.337  0.00  0.00    -0.074 A 
ATOM      7  C6  UNL d   1      -3.810  -5.993  -1.669  0.00  0.00     0.077 C 
ATOM      8  C7  UNL d   1      -2.383  -5.993  -3.736  0.00  0.00    -0.001 A 
ENDROOT
TORSDOF 0
ENDMDL
