MODEL 1
REMARK minimizedAffinity 2.61357903
REMARK minimizedRMSD -1
REMARK  0 active torsions:
REMARK  status: ('A' for Active; 'I' for Inactive)
ROOT
ATOM      1  C   UNL d   1      -5.999   2.028  -1.126  0.00  0.00     0.077 C 
ATOM      2  C1  UNL d   1      -5.433   0.639  -1.174  0.00  0.00    -0.074 A 
ATOM      3  C2  UNL d   1      -5.713  -0.214  -2.246  0.00  0.00    -0.005 A 
ATOM      4  C3  UNL d   1      -5.173  -1.499  -2.282  0.00  0.00     0.006 A 
ATOM      5  C4  UNL d   1      -4.347  -1.943  -1.248  0.00  0.00    -0.005 A 
ATOM      6  C5  UNL d   1      -4.055  -1.104  -0.168  0.00  0.00    -0.074 A 
ATOM      7  C6  UNL d   1      -3.163  -1.562   0.946  0.00  0.00     0.077 C 
ATOM      8  C7  UNL d   1      -4.597   0.189  -0.143  0.00  0.00    -0.001 A 
ENDROOT
TORSDOF 0
ENDMDL
