MODEL 1
REMARK minimizedAffinity -0.755730629
REMARK minimizedRMSD -1
REMARK  0 active torsions:
REMARK  status: ('A' for Active; 'I' for Inactive)
ROOT
ATOM      1  C   UNL d   1      -4.202  -5.997  -3.747  0.00  0.00     0.077 C 
ATOM      2  C1  UNL d   1      -2.745  -5.990  -3.392  0.00  0.00    -0.074 A 
ATOM      3  C2  UNL d   1      -2.331  -5.996  -2.056  0.00  0.00    -0.005 A 
ATOM      4  C3  UNL d   1      -0.973  -5.999  -1.740  0.00  0.00     0.006 A 
ATOM      5  C4  UNL d   1      -0.016  -5.996  -2.756  0.00  0.00    -0.005 A 
ATOM      6  C5  UNL d   1      -0.410  -5.991  -4.097  0.00  0.00    -0.074 A 
ATOM      7  C6  UNL d   1       0.605  -5.998  -5.201  0.00  0.00     0.077 C 
ATOM      8  C7  UNL d   1      -1.778  -5.995  -4.406  0.00  0.00    -0.001 A 
ENDROOT
TORSDOF 0
ENDMDL
