MODEL 1
REMARK minimizedAffinity 4.12653112
REMARK minimizedRMSD -1
REMARK  0 active torsions:
REMARK  status: ('A' for Active; 'I' for Inactive)
ROOT
ATOM      1  C   UNL d   1       1.773  -5.909  -2.559  0.00  0.00     0.077 C 
ATOM      2  C1  UNL d   1       0.518  -5.933  -3.380  0.00  0.00    -0.074 A 
ATOM      3  C2  UNL d   1       0.573  -5.960  -4.777  0.00  0.00    -0.005 A 
ATOM      4  C3  UNL d   1      -0.603  -5.993  -5.527  0.00  0.00     0.006 A 
ATOM      5  C4  UNL d   1      -1.844  -5.999  -4.888  0.00  0.00    -0.005 A 
ATOM      6  C5  UNL d   1      -1.918  -5.973  -3.492  0.00  0.00    -0.074 A 
ATOM      7  C6  UNL d   1      -3.244  -5.989  -2.789  0.00  0.00     0.077 C 
ATOM      8  C7  UNL d   1      -0.732  -5.947  -2.745  0.00  0.00    -0.001 A 
ENDROOT
TORSDOF 0
ENDMDL
