MODEL 1
REMARK minimizedAffinity 1.94029248
REMARK minimizedRMSD -1
REMARK  0 active torsions:
REMARK  status: ('A' for Active; 'I' for Inactive)
ROOT
ATOM      1  C   UNL d   1      -2.620   0.259   0.174  0.00  0.00     0.077 C 
ATOM      2  C1  UNL d   1      -1.212  -0.203   0.408  0.00  0.00    -0.074 A 
ATOM      3  C2  UNL d   1      -0.153   0.710   0.445  0.00  0.00    -0.005 A 
ATOM      4  C3  UNL d   1       1.150   0.266   0.672  0.00  0.00     0.006 A 
ATOM      5  C4  UNL d   1       1.406  -1.092   0.864  0.00  0.00    -0.005 A 
ATOM      6  C5  UNL d   1       0.360  -2.019   0.831  0.00  0.00    -0.074 A 
ATOM      7  C6  UNL d   1       0.616  -3.481   1.045  0.00  0.00     0.077 C 
ATOM      8  C7  UNL d   1      -0.948  -1.565   0.609  0.00  0.00    -0.001 A 
ENDROOT
TORSDOF 0
ENDMDL
