MODEL 1
REMARK minimizedAffinity 3.25527716
REMARK minimizedRMSD -1
REMARK  0 active torsions:
REMARK  status: ('A' for Active; 'I' for Inactive)
ROOT
ATOM      1  C   UNL d   1       3.259  -5.965  -3.725  0.00  0.00     0.077 C 
ATOM      2  C1  UNL d   1       1.837  -5.968  -4.203  0.00  0.00    -0.074 A 
ATOM      3  C2  UNL d   1       1.538  -5.977  -5.569  0.00  0.00    -0.005 A 
ATOM      4  C3  UNL d   1       0.211  -5.989  -5.998  0.00  0.00     0.006 A 
ATOM      5  C4  UNL d   1      -0.829  -5.993  -5.067  0.00  0.00    -0.005 A 
ATOM      6  C5  UNL d   1      -0.549  -5.985  -3.697  0.00  0.00    -0.074 A 
ATOM      7  C6  UNL d   1      -1.654  -5.999  -2.683  0.00  0.00     0.077 C 
ATOM      8  C7  UNL d   1       0.788  -5.980  -3.273  0.00  0.00    -0.001 A 
ENDROOT
TORSDOF 0
ENDMDL
