MODEL 1
REMARK minimizedAffinity 1.5902288
REMARK minimizedRMSD -1
REMARK  0 active torsions:
REMARK  status: ('A' for Active; 'I' for Inactive)
ROOT
ATOM      1  C   UNL d   1       1.447  -6.000  -5.997  0.00  0.00     0.077 C 
ATOM      2  C1  UNL d   1       0.268  -5.990  -5.071  0.00  0.00    -0.074 A 
ATOM      3  C2  UNL d   1      -1.039  -5.999  -5.570  0.00  0.00    -0.005 A 
ATOM      4  C3  UNL d   1      -2.126  -5.999  -4.697  0.00  0.00     0.006 A 
ATOM      5  C4  UNL d   1      -1.918  -5.991  -3.317  0.00  0.00    -0.005 A 
ATOM      6  C5  UNL d   1      -0.619  -5.983  -2.799  0.00  0.00    -0.074 A 
ATOM      7  C6  UNL d   1      -0.379  -5.984  -1.318  0.00  0.00     0.077 C 
ATOM      8  C7  UNL d   1       0.468  -5.990  -3.683  0.00  0.00    -0.001 A 
ENDROOT
TORSDOF 0
ENDMDL
