MODEL 1
REMARK minimizedAffinity 0.73416692
REMARK minimizedRMSD -1
REMARK  0 active torsions:
REMARK  status: ('A' for Active; 'I' for Inactive)
ROOT
ATOM      1  C   UNL d   1      -0.355  -5.992  -5.656  0.00  0.00     0.077 C 
ATOM      2  C1  UNL d   1      -0.960  -5.999  -4.284  0.00  0.00    -0.074 A 
ATOM      3  C2  UNL d   1      -0.153  -5.993  -3.142  0.00  0.00    -0.005 A 
ATOM      4  C3  UNL d   1      -0.731  -5.990  -1.873  0.00  0.00     0.006 A 
ATOM      5  C4  UNL d   1      -2.119  -5.993  -1.732  0.00  0.00    -0.005 A 
ATOM      6  C5  UNL d   1      -2.942  -5.998  -2.863  0.00  0.00    -0.074 A 
ATOM      7  C6  UNL d   1      -4.436  -5.992  -2.730  0.00  0.00     0.077 C 
ATOM      8  C7  UNL d   1      -2.354  -5.994  -4.135  0.00  0.00    -0.001 A 
ENDROOT
TORSDOF 0
ENDMDL
