MODEL 1
REMARK minimizedAffinity 0.465292513
REMARK minimizedRMSD -1
REMARK  0 active torsions:
REMARK  status: ('A' for Active; 'I' for Inactive)
ROOT
ATOM      1  C   UNL d   1       1.312  -5.962  -4.012  0.00  0.00     0.077 C 
ATOM      2  C1  UNL d   1      -0.188  -5.969  -4.003  0.00  0.00    -0.074 A 
ATOM      3  C2  UNL d   1      -0.915  -5.984  -5.198  0.00  0.00    -0.005 A 
ATOM      4  C3  UNL d   1      -2.309  -5.999  -5.173  0.00  0.00     0.006 A 
ATOM      5  C4  UNL d   1      -2.990  -6.000  -3.955  0.00  0.00    -0.005 A 
ATOM      6  C5  UNL d   1      -2.281  -5.986  -2.750  0.00  0.00    -0.074 A 
ATOM      7  C6  UNL d   1      -2.997  -5.996  -1.432  0.00  0.00     0.077 C 
ATOM      8  C7  UNL d   1      -0.880  -5.977  -2.783  0.00  0.00    -0.001 A 
ENDROOT
TORSDOF 0
ENDMDL
