MODEL 1
REMARK minimizedAffinity 6.1206727
REMARK minimizedRMSD -1
REMARK  0 active torsions:
REMARK  status: ('A' for Active; 'I' for Inactive)
ROOT
ATOM      1  C   UNL d   1       2.533  -0.225   0.731  0.00  0.00     0.077 C 
ATOM      2  C1  UNL d   1       2.044  -1.308   1.646  0.00  0.00    -0.074 A 
ATOM      3  C2  UNL d   1       1.832  -2.607   1.173  0.00  0.00    -0.005 A 
ATOM      4  C3  UNL d   1       1.386  -3.607   2.038  0.00  0.00     0.006 A 
ATOM      5  C4  UNL d   1       1.147  -3.318   3.382  0.00  0.00    -0.005 A 
ATOM      6  C5  UNL d   1       1.354  -2.025   3.873  0.00  0.00    -0.074 A 
ATOM      7  C6  UNL d   1       1.112  -1.700   5.317  0.00  0.00     0.077 C 
ATOM      8  C7  UNL d   1       1.809  -1.028   3.000  0.00  0.00    -0.001 A 
ENDROOT
TORSDOF 0
ENDMDL
