MODEL 1
REMARK minimizedAffinity 0.506806552
REMARK minimizedRMSD -1
REMARK  0 active torsions:
REMARK  status: ('A' for Active; 'I' for Inactive)
ROOT
ATOM      1  C   UNL d   1      -2.538  -5.999  -2.358  0.00  0.00     0.077 C 
ATOM      2  C1  UNL d   1      -1.682  -5.986  -3.589  0.00  0.00    -0.074 A 
ATOM      3  C2  UNL d   1      -2.256  -5.944  -4.864  0.00  0.00    -0.005 A 
ATOM      4  C3  UNL d   1      -1.447  -5.922  -6.000  0.00  0.00     0.006 A 
ATOM      5  C4  UNL d   1      -0.057  -5.942  -5.873  0.00  0.00    -0.005 A 
ATOM      6  C5  UNL d   1       0.535  -5.983  -4.607  0.00  0.00    -0.074 A 
ATOM      7  C6  UNL d   1       2.027  -5.994  -4.452  0.00  0.00     0.077 C 
ATOM      8  C7  UNL d   1      -0.285  -5.997  -3.470  0.00  0.00    -0.001 A 
ENDROOT
TORSDOF 0
ENDMDL
