MODEL 1
REMARK minimizedAffinity -2.73224998
REMARK minimizedRMSD -1
REMARK  0 active torsions:
REMARK  status: ('A' for Active; 'I' for Inactive)
ROOT
ATOM      1  C   UNL d   1       5.168  -3.063   5.594  0.00  0.00     0.020 A 
ATOM      2  C1  UNL d   1       5.167  -4.454   5.681  0.00  0.00     0.020 A 
ATOM      3  C2  UNL d   1       5.426  -5.225   4.546  0.00  0.00     0.034 A 
ATOM      4  C3  UNL d   1       5.687  -4.605   3.318  0.00  0.00     0.017 A 
ATOM      5  C4  UNL d   1       5.687  -3.208   3.232  0.00  0.00     0.017 A 
ATOM      6  C5  UNL d   1       5.427  -2.441   4.372  0.00  0.00     0.034 A 
ATOM      7 Cl   UNL d   1       6.000  -2.371   1.753  0.00  0.00    -0.070 Cl
ATOM      8 Cl1  UNL d   1       5.999  -5.620   1.956  0.00  0.00    -0.070 Cl
ENDROOT
TORSDOF 0
ENDMDL
