MODEL 1
REMARK minimizedAffinity -1.0697037
REMARK minimizedRMSD -1
REMARK  0 active torsions:
REMARK  status: ('A' for Active; 'I' for Inactive)
ROOT
ATOM      1  C   UNL d   1       5.999  -4.446   2.343  0.00  0.00     0.020 A 
ATOM      2  C1  UNL d   1       6.000  -3.052   2.388  0.00  0.00     0.020 A 
ATOM      3  C2  UNL d   1       5.535  -2.390   3.526  0.00  0.00     0.034 A 
ATOM      4  C3  UNL d   1       5.068  -3.121   4.624  0.00  0.00     0.017 A 
ATOM      5  C4  UNL d   1       5.068  -4.520   4.578  0.00  0.00     0.017 A 
ATOM      6  C5  UNL d   1       5.534  -5.178   3.436  0.00  0.00     0.034 A 
ATOM      7 Cl   UNL d   1       4.507  -5.491   5.894  0.00  0.00    -0.070 Cl
ATOM      8 Cl1  UNL d   1       4.508  -2.237   5.999  0.00  0.00    -0.070 Cl
ENDROOT
TORSDOF 0
ENDMDL
