MODEL 1
REMARK minimizedAffinity -2.9262538
REMARK minimizedRMSD -1
REMARK  0 active torsions:
REMARK  status: ('A' for Active; 'I' for Inactive)
ROOT
ATOM      1  C   UNL d   1       5.619  -2.039   4.903  0.00  0.00     0.020 A 
ATOM      2  C1  UNL d   1       5.621  -1.882   3.517  0.00  0.00     0.020 A 
ATOM      3  C2  UNL d   1       5.739  -2.999   2.688  0.00  0.00     0.034 A 
ATOM      4  C3  UNL d   1       5.857  -4.279   3.243  0.00  0.00     0.017 A 
ATOM      5  C4  UNL d   1       5.855  -4.435   4.634  0.00  0.00     0.017 A 
ATOM      6  C5  UNL d   1       5.736  -3.313   5.460  0.00  0.00     0.034 A 
ATOM      7 Cl   UNL d   1       5.996  -5.982   5.392  0.00  0.00    -0.070 Cl
ATOM      8 Cl1  UNL d   1       6.000  -5.615   2.158  0.00  0.00    -0.070 Cl
ENDROOT
TORSDOF 0
ENDMDL
