MODEL 1
REMARK minimizedAffinity -3.17797112
REMARK minimizedRMSD -1
REMARK  0 active torsions:
REMARK  status: ('A' for Active; 'I' for Inactive)
ROOT
ATOM      1  C   UNL d   1       6.000  -2.971   1.714  0.00  0.00     0.020 A 
ATOM      2  C1  UNL d   1       5.999  -4.365   1.668  0.00  0.00     0.020 A 
ATOM      3  C2  UNL d   1       5.996  -5.102   2.854  0.00  0.00     0.034 A 
ATOM      4  C3  UNL d   1       5.995  -4.446   4.090  0.00  0.00     0.017 A 
ATOM      5  C4  UNL d   1       5.996  -3.048   4.135  0.00  0.00     0.017 A 
ATOM      6  C5  UNL d   1       5.999  -2.314   2.945  0.00  0.00     0.034 A 
ATOM      7 Cl   UNL d   1       5.995  -2.168   5.623  0.00  0.00    -0.070 Cl
ATOM      8 Cl1  UNL d   1       5.992  -5.422   5.517  0.00  0.00    -0.070 Cl
ENDROOT
TORSDOF 0
ENDMDL
