MODEL 1
REMARK minimizedAffinity -3.46289039
REMARK minimizedRMSD -1
REMARK  0 active torsions:
REMARK  status: ('A' for Active; 'I' for Inactive)
ROOT
ATOM      1  C   UNL d   1       5.999  -2.840   2.000  0.00  0.00     0.020 A 
ATOM      2  C1  UNL d   1       5.999  -4.228   1.875  0.00  0.00     0.020 A 
ATOM      3  C2  UNL d   1       5.625  -5.027   2.957  0.00  0.00     0.034 A 
ATOM      4  C3  UNL d   1       5.250  -4.438   4.170  0.00  0.00     0.017 A 
ATOM      5  C4  UNL d   1       5.250  -3.044   4.295  0.00  0.00     0.017 A 
ATOM      6  C5  UNL d   1       5.626  -2.249   3.207  0.00  0.00     0.034 A 
ATOM      7 Cl   UNL d   1       4.799  -2.244   5.759  0.00  0.00    -0.070 Cl
ATOM      8 Cl1  UNL d   1       4.799  -5.487   5.467  0.00  0.00    -0.070 Cl
ENDROOT
TORSDOF 0
ENDMDL
