MODEL 1
REMARK minimizedAffinity -3.31773043
REMARK minimizedRMSD -1
REMARK  0 active torsions:
REMARK  status: ('A' for Active; 'I' for Inactive)
ROOT
ATOM      1  C   UNL d   1       5.055  -2.867   5.993  0.00  0.00     0.020 A 
ATOM      2  C1  UNL d   1       5.040  -4.256   5.867  0.00  0.00     0.020 A 
ATOM      3  C2  UNL d   1       5.325  -4.848   4.635  0.00  0.00     0.034 A 
ATOM      4  C3  UNL d   1       5.624  -4.052   3.524  0.00  0.00     0.017 A 
ATOM      5  C4  UNL d   1       5.639  -2.659   3.651  0.00  0.00     0.017 A 
ATOM      6  C5  UNL d   1       5.354  -2.070   4.887  0.00  0.00     0.034 A 
ATOM      7 Cl   UNL d   1       6.000  -1.611   2.325  0.00  0.00    -0.070 Cl
ATOM      8 Cl1  UNL d   1       5.966  -4.853   2.031  0.00  0.00    -0.070 Cl
ENDROOT
TORSDOF 0
ENDMDL
