MODEL 1
REMARK minimizedAffinity 2.01774144
REMARK minimizedRMSD -1
REMARK  0 active torsions:
REMARK  status: ('A' for Active; 'I' for Inactive)
ROOT
ATOM      1  C   UNL d   1       5.989  -5.271   1.063  0.00  0.00     0.020 A 
ATOM      2  C1  UNL d   1       5.996  -3.939   0.650  0.00  0.00     0.020 A 
ATOM      3  C2  UNL d   1       5.990  -2.914   1.598  0.00  0.00     0.034 A 
ATOM      4  C3  UNL d   1       5.977  -3.218   2.964  0.00  0.00     0.017 A 
ATOM      5  C4  UNL d   1       5.969  -4.555   3.378  0.00  0.00     0.017 A 
ATOM      6  C5  UNL d   1       5.976  -5.578   2.425  0.00  0.00     0.034 A 
ATOM      7 Cl   UNL d   1       5.953  -5.009   5.046  0.00  0.00    -0.070 Cl
ATOM      8 Cl1  UNL d   1       5.970  -1.900   4.081  0.00  0.00    -0.070 Cl
ENDROOT
TORSDOF 0
ENDMDL
