MODEL 1
REMARK minimizedAffinity -2.57107401
REMARK minimizedRMSD -1
REMARK  0 active torsions:
REMARK  status: ('A' for Active; 'I' for Inactive)
ROOT
ATOM      1  C   UNL d   1       5.818  -2.190   4.365  0.00  0.00     0.020 A 
ATOM      2  C1  UNL d   1       5.063  -2.189   5.537  0.00  0.00     0.020 A 
ATOM      3  C2  UNL d   1       4.491  -3.376   5.999  0.00  0.00     0.034 A 
ATOM      4  C3  UNL d   1       4.671  -4.568   5.288  0.00  0.00     0.017 A 
ATOM      5  C4  UNL d   1       5.428  -4.568   4.112  0.00  0.00     0.017 A 
ATOM      6  C5  UNL d   1       6.000  -3.376   3.654  0.00  0.00     0.034 A 
ATOM      7 Cl   UNL d   1       5.695  -5.999   3.180  0.00  0.00    -0.070 Cl
ATOM      8 Cl1  UNL d   1       3.934  -5.999   5.918  0.00  0.00    -0.070 Cl
ENDROOT
TORSDOF 0
ENDMDL
