MODEL 1
REMARK minimizedAffinity -2.15723538
REMARK minimizedRMSD -1
REMARK  0 active torsions:
REMARK  status: ('A' for Active; 'I' for Inactive)
ROOT
ATOM      1  C   UNL d   1       5.966  -3.243   2.113  0.00  0.00     0.020 A 
ATOM      2  C1  UNL d   1       5.998  -4.637   2.108  0.00  0.00     0.020 A 
ATOM      3  C2  UNL d   1       5.998  -5.340   3.315  0.00  0.00     0.034 A 
ATOM      4  C3  UNL d   1       5.966  -4.648   4.532  0.00  0.00     0.017 A 
ATOM      5  C4  UNL d   1       5.935  -3.249   4.535  0.00  0.00     0.017 A 
ATOM      6  C5  UNL d   1       5.935  -2.551   3.324  0.00  0.00     0.034 A 
ATOM      7 Cl   UNL d   1       5.895  -2.326   5.996  0.00  0.00    -0.070 Cl
ATOM      8 Cl1  UNL d   1       5.968  -5.581   5.986  0.00  0.00    -0.070 Cl
ENDROOT
TORSDOF 0
ENDMDL
