MODEL 1
REMARK minimizedAffinity -3.04185462
REMARK minimizedRMSD -1
REMARK  0 active torsions:
REMARK  status: ('A' for Active; 'I' for Inactive)
ROOT
ATOM      1  C   UNL d   1       5.522  -2.112   4.911  0.00  0.00     0.020 A 
ATOM      2  C1  UNL d   1       5.903  -2.079   3.570  0.00  0.00     0.020 A 
ATOM      3  C2  UNL d   1       5.999  -3.266   2.842  0.00  0.00     0.034 A 
ATOM      4  C3  UNL d   1       5.715  -4.492   3.454  0.00  0.00     0.017 A 
ATOM      5  C4  UNL d   1       5.333  -4.525   4.800  0.00  0.00     0.017 A 
ATOM      6  C5  UNL d   1       5.238  -3.333   5.524  0.00  0.00     0.034 A 
ATOM      7 Cl   UNL d   1       4.966  -5.999   5.624  0.00  0.00    -0.070 Cl
ATOM      8 Cl1  UNL d   1       5.854  -5.922   2.493  0.00  0.00    -0.070 Cl
ENDROOT
TORSDOF 0
ENDMDL
