MODEL 1
REMARK minimizedAffinity -1.41940868
REMARK minimizedRMSD -1
REMARK  0 active torsions:
REMARK  status: ('A' for Active; 'I' for Inactive)
ROOT
ATOM      1  C   UNL d   1       5.947  -5.015   2.112  0.00  0.00     0.020 A 
ATOM      2  C1  UNL d   1       5.988  -3.621   2.117  0.00  0.00     0.020 A 
ATOM      3  C2  UNL d   1       5.973  -2.927   3.328  0.00  0.00     0.034 A 
ATOM      4  C3  UNL d   1       5.916  -3.625   4.540  0.00  0.00     0.017 A 
ATOM      5  C4  UNL d   1       5.875  -5.024   4.534  0.00  0.00     0.017 A 
ATOM      6  C5  UNL d   1       5.891  -5.715   3.318  0.00  0.00     0.034 A 
ATOM      7 Cl   UNL d   1       5.805  -5.956   5.988  0.00  0.00    -0.070 Cl
ATOM      8 Cl1  UNL d   1       5.901  -2.702   6.000  0.00  0.00    -0.070 Cl
ENDROOT
TORSDOF 0
ENDMDL
