MODEL 1
REMARK minimizedAffinity -2.03103065
REMARK minimizedRMSD -1
REMARK  0 active torsions:
REMARK  status: ('A' for Active; 'I' for Inactive)
ROOT
ATOM      1  C   UNL d   1       5.249  -4.505   5.640  0.00  0.00     0.020 A 
ATOM      2  C1  UNL d   1       5.243  -3.137   5.910  0.00  0.00     0.020 A 
ATOM      3  C2  UNL d   1       5.473  -2.221   4.881  0.00  0.00     0.034 A 
ATOM      4  C3  UNL d   1       5.709  -2.672   3.577  0.00  0.00     0.017 A 
ATOM      5  C4  UNL d   1       5.715  -4.045   3.307  0.00  0.00     0.017 A 
ATOM      6  C5  UNL d   1       5.485  -4.958   4.341  0.00  0.00     0.034 A 
ATOM      7 Cl   UNL d   1       6.000  -4.677   1.724  0.00  0.00    -0.070 Cl
ATOM      8 Cl1  UNL d   1       5.985  -1.483   2.354  0.00  0.00    -0.070 Cl
ENDROOT
TORSDOF 0
ENDMDL
