MODEL 1
REMARK minimizedAffinity -3.35405254
REMARK minimizedRMSD -1
REMARK  0 active torsions:
REMARK  status: ('A' for Active; 'I' for Inactive)
ROOT
ATOM      1  C   UNL d   1       5.976  -5.023   2.199  0.00  0.00     0.020 A 
ATOM      2  C1  UNL d   1       5.999  -3.629   2.193  0.00  0.00     0.020 A 
ATOM      3  C2  UNL d   1       5.760  -2.921   3.373  0.00  0.00     0.034 A 
ATOM      4  C3  UNL d   1       5.497  -3.608   4.564  0.00  0.00     0.017 A 
ATOM      5  C4  UNL d   1       5.474  -5.007   4.569  0.00  0.00     0.017 A 
ATOM      6  C5  UNL d   1       5.714  -5.711   3.385  0.00  0.00     0.034 A 
ATOM      7 Cl   UNL d   1       5.157  -5.924   6.000  0.00  0.00    -0.070 Cl
ATOM      8 Cl1  UNL d   1       5.211  -2.669   5.986  0.00  0.00    -0.070 Cl
ENDROOT
TORSDOF 0
ENDMDL
