MODEL 1
REMARK minimizedAffinity -3.90355492
REMARK minimizedRMSD -1
REMARK  0 active torsions:
REMARK  status: ('A' for Active; 'I' for Inactive)
ROOT
ATOM      1  C   UNL d   1       4.769  -3.954   5.728  0.00  0.00     0.020 A 
ATOM      2  C1  UNL d   1       4.771  -2.605   5.378  0.00  0.00     0.020 A 
ATOM      3  C2  UNL d   1       5.154  -2.217   4.092  0.00  0.00     0.034 A 
ATOM      4  C3  UNL d   1       5.538  -3.181   3.151  0.00  0.00     0.017 A 
ATOM      5  C4  UNL d   1       5.536  -4.535   3.504  0.00  0.00     0.017 A 
ATOM      6  C5  UNL d   1       5.151  -4.917   4.793  0.00  0.00     0.034 A 
ATOM      7 Cl   UNL d   1       5.996  -5.781   2.398  0.00  0.00    -0.070 Cl
ATOM      8 Cl1  UNL d   1       5.999  -2.630   1.580  0.00  0.00    -0.070 Cl
ENDROOT
TORSDOF 0
ENDMDL
