MODEL 1
REMARK minimizedAffinity -1.59890592
REMARK minimizedRMSD -1
REMARK  0 active torsions:
REMARK  status: ('A' for Active; 'I' for Inactive)
ROOT
ATOM      1  C   UNL d   1       5.728  -2.127   4.090  0.00  0.00     0.020 A 
ATOM      2  C1  UNL d   1       5.048  -2.126   5.308  0.00  0.00     0.020 A 
ATOM      3  C2  UNL d   1       4.639  -3.332   5.879  0.00  0.00     0.034 A 
ATOM      4  C3  UNL d   1       4.909  -4.544   5.234  0.00  0.00     0.017 A 
ATOM      5  C4  UNL d   1       5.592  -4.544   4.013  0.00  0.00     0.017 A 
ATOM      6  C5  UNL d   1       6.000  -3.333   3.445  0.00  0.00     0.034 A 
ATOM      7 Cl   UNL d   1       5.962  -6.000   3.157  0.00  0.00    -0.070 Cl
ATOM      8 Cl1  UNL d   1       4.374  -5.998   5.999  0.00  0.00    -0.070 Cl
ENDROOT
TORSDOF 0
ENDMDL
