MODEL 1
REMARK minimizedAffinity -3.01755953
REMARK minimizedRMSD -1
REMARK  0 active torsions:
REMARK  status: ('A' for Active; 'I' for Inactive)
ROOT
ATOM      1  C   UNL d   1       5.986  -4.133   2.381  0.00  0.00     0.020 A 
ATOM      2  C1  UNL d   1       5.207  -2.978   2.422  0.00  0.00     0.020 A 
ATOM      3  C2  UNL d   1       4.428  -2.701   3.547  0.00  0.00     0.034 A 
ATOM      4  C3  UNL d   1       4.425  -3.581   4.636  0.00  0.00     0.017 A 
ATOM      5  C4  UNL d   1       5.207  -4.741   4.593  0.00  0.00     0.017 A 
ATOM      6  C5  UNL d   1       5.986  -5.013   3.464  0.00  0.00     0.034 A 
ATOM      7 Cl   UNL d   1       5.256  -5.874   5.897  0.00  0.00    -0.070 Cl
ATOM      8 Cl1  UNL d   1       3.438  -3.175   5.994  0.00  0.00    -0.070 Cl
ENDROOT
TORSDOF 0
ENDMDL
