MODEL 1
REMARK minimizedAffinity -1.16266775
REMARK minimizedRMSD -1
REMARK  0 active torsions:
REMARK  status: ('A' for Active; 'I' for Inactive)
ROOT
ATOM      1  C   UNL d   1       5.243  -2.404   5.989  0.00  0.00     0.020 A 
ATOM      2  C1  UNL d   1       5.972  -2.033   4.860  0.00  0.00     0.020 A 
ATOM      3  C2  UNL d   1       6.000  -2.867   3.741  0.00  0.00     0.034 A 
ATOM      4  C3  UNL d   1       5.297  -4.078   3.748  0.00  0.00     0.017 A 
ATOM      5  C4  UNL d   1       4.566  -4.450   4.882  0.00  0.00     0.017 A 
ATOM      6  C5  UNL d   1       4.542  -3.611   6.000  0.00  0.00     0.034 A 
ATOM      7 Cl   UNL d   1       3.674  -5.928   4.965  0.00  0.00    -0.070 Cl
ATOM      8 Cl1  UNL d   1       5.375  -5.060   2.329  0.00  0.00    -0.070 Cl
ENDROOT
TORSDOF 0
ENDMDL
