MODEL 1
REMARK minimizedAffinity -3.54812598
REMARK minimizedRMSD -1
REMARK  0 active torsions:
REMARK  status: ('A' for Active; 'I' for Inactive)
ROOT
ATOM      1  C   UNL d   1       6.000  -5.138   1.950  0.00  0.00     0.020 A 
ATOM      2  C1  UNL d   1       5.842  -3.876   1.379  0.00  0.00     0.020 A 
ATOM      3  C2  UNL d   1       5.626  -2.763   2.194  0.00  0.00     0.034 A 
ATOM      4  C3  UNL d   1       5.566  -2.910   3.585  0.00  0.00     0.017 A 
ATOM      5  C4  UNL d   1       5.725  -4.177   4.157  0.00  0.00     0.017 A 
ATOM      6  C5  UNL d   1       5.941  -5.288   3.336  0.00  0.00     0.034 A 
ATOM      7 Cl   UNL d   1       5.664  -4.437   5.864  0.00  0.00    -0.070 Cl
ATOM      8 Cl1  UNL d   1       5.296  -1.490   4.532  0.00  0.00    -0.070 Cl
ENDROOT
TORSDOF 0
ENDMDL
