MODEL 1
REMARK minimizedAffinity -4.0965209
REMARK minimizedRMSD -1
REMARK  0 active torsions:
REMARK  status: ('A' for Active; 'I' for Inactive)
ROOT
ATOM      1  C4' PXY d   1      -2.116   0.778  -0.311  0.00  0.00     0.077 C 
ATOM      2  C1' PXY d   1       3.113  -1.271   1.061  0.00  0.00     0.077 C 
ATOM      3  C1  PXY d   1       1.740  -0.743   0.692  0.00  0.00    -0.082 A 
ATOM      4  C2  PXY d   1       1.436   0.520   0.945  0.00  0.00     0.003 A 
ATOM      5  C3  PXY d   1       0.188   1.005   0.647  0.00  0.00     0.003 A 
ATOM      6  C4  PXY d   1      -0.739   0.204   0.036  0.00  0.00    -0.082 A 
ATOM      7  C5  PXY d   1      -0.432  -1.082  -0.235  0.00  0.00     0.003 A 
ATOM      8  C6  PXY d   1       0.826  -1.567   0.113  0.00  0.00     0.003 A 
ENDROOT
TORSDOF 0
ENDMDL
