MODEL 1
REMARK minimizedAffinity -4.84200287
REMARK minimizedRMSD -1
REMARK  0 active torsions:
REMARK  status: ('A' for Active; 'I' for Inactive)
ROOT
ATOM      1  C4' PXY d   1       3.411   1.422   0.552  0.00  0.00     0.077 C 
ATOM      2  C1' PXY d   1      -0.860  -2.383  -0.286  0.00  0.00     0.077 C 
ATOM      3  C1  PXY d   1       0.268  -1.395  -0.062  0.00  0.00    -0.082 A 
ATOM      4  C2  PXY d   1      -0.011  -0.114   0.120  0.00  0.00     0.003 A 
ATOM      5  C3  PXY d   1       0.998   0.798   0.292  0.00  0.00     0.003 A 
ATOM      6  C4  PXY d   1       2.304   0.387   0.332  0.00  0.00    -0.082 A 
ATOM      7  C5  PXY d   1       2.596  -0.919   0.158  0.00  0.00     0.003 A 
ATOM      8  C6  PXY d   1       1.559  -1.823  -0.057  0.00  0.00     0.003 A 
ENDROOT
TORSDOF 0
ENDMDL
