MODEL 1
REMARK minimizedAffinity -2.4196136
REMARK minimizedRMSD -1
REMARK  0 active torsions:
REMARK  status: ('A' for Active; 'I' for Inactive)
ROOT
ATOM      1  C4' PXY d   1      -1.599   1.070  -0.445  0.00  0.00     0.077 C 
ATOM      2  C1' PXY d   1       3.195  -1.817   1.005  0.00  0.00     0.077 C 
ATOM      3  C1  PXY d   1       1.939  -1.052   0.635  0.00  0.00    -0.082 A 
ATOM      4  C2  PXY d   1       0.998  -1.646  -0.080  0.00  0.00     0.003 A 
ATOM      5  C3  PXY d   1      -0.129  -0.959  -0.450  0.00  0.00     0.003 A 
ATOM      6  C4  PXY d   1      -0.319   0.334  -0.040  0.00  0.00    -0.082 A 
ATOM      7  C5  PXY d   1       0.632   0.944   0.698  0.00  0.00     0.003 A 
ATOM      8  C6  PXY d   1       1.788   0.242   1.029  0.00  0.00     0.003 A 
ENDROOT
TORSDOF 0
ENDMDL
