MODEL 1
REMARK minimizedAffinity -4.74475098
REMARK minimizedRMSD -1
REMARK  0 active torsions:
REMARK  status: ('A' for Active; 'I' for Inactive)
ROOT
ATOM      1  C4' PXY d   1       2.479  -1.799   0.936  0.00  0.00     0.077 C 
ATOM      2  C1' PXY d   1      -2.156   1.115  -0.920  0.00  0.00     0.077 C 
ATOM      3  C1  PXY d   1      -0.946   0.340  -0.436  0.00  0.00    -0.082 A 
ATOM      4  C2  PXY d   1      -0.114   0.899   0.427  0.00  0.00     0.003 A 
ATOM      5  C3  PXY d   1       1.002   0.224   0.851  0.00  0.00     0.003 A 
ATOM      6  C4  PXY d   1       1.240  -1.057   0.427  0.00  0.00    -0.082 A 
ATOM      7  C5  PXY d   1       0.389  -1.638  -0.445  0.00  0.00     0.003 A 
ATOM      8  C6  PXY d   1      -0.716  -0.920  -0.895  0.00  0.00     0.003 A 
ENDROOT
TORSDOF 0
ENDMDL
