MODEL 1
REMARK minimizedAffinity -4.79946995
REMARK minimizedRMSD -1
REMARK  0 active torsions:
REMARK  status: ('A' for Active; 'I' for Inactive)
ROOT
ATOM      1  C4' PXY d   1       3.667  -1.610   0.604  0.00  0.00     0.077 C 
ATOM      2  C1' PXY d   1      -1.583   0.454  -0.659  0.00  0.00     0.077 C 
ATOM      3  C1  PXY d   1      -0.200  -0.076  -0.333  0.00  0.00    -0.082 A 
ATOM      4  C2  PXY d   1      -0.016  -1.379  -0.195  0.00  0.00     0.003 A 
ATOM      5  C3  PXY d   1       1.221  -1.874   0.131  0.00  0.00     0.003 A 
ATOM      6  C4  PXY d   1       2.291  -1.030   0.265  0.00  0.00    -0.082 A 
ATOM      7  C5  PXY d   1       2.113   0.299   0.116  0.00  0.00     0.003 A 
ATOM      8  C6  PXY d   1       0.841   0.785  -0.174  0.00  0.00     0.003 A 
ENDROOT
TORSDOF 0
ENDMDL
