MODEL 1
REMARK minimizedAffinity -4.98794699
REMARK minimizedRMSD -1
REMARK  0 active torsions:
REMARK  status: ('A' for Active; 'I' for Inactive)
ROOT
ATOM      1  C4' PXY d   1      -1.590   0.403  -0.802  0.00  0.00     0.077 C 
ATOM      2  C1' PXY d   1       3.594  -0.988   1.344  0.00  0.00     0.077 C 
ATOM      3  C1  PXY d   1       2.235  -0.634   0.774  0.00  0.00    -0.082 A 
ATOM      4  C2  PXY d   1       1.838   0.628   0.765  0.00  0.00     0.003 A 
ATOM      5  C3  PXY d   1       0.599   0.962   0.282  0.00  0.00     0.003 A 
ATOM      6  C4  PXY d   1      -0.221   0.000  -0.245  0.00  0.00    -0.082 A 
ATOM      7  C5  PXY d   1       0.181  -1.288  -0.249  0.00  0.00     0.003 A 
ATOM      8  C6  PXY d   1       1.426  -1.611   0.283  0.00  0.00     0.003 A 
ENDROOT
TORSDOF 0
ENDMDL
