MODEL 1
REMARK minimizedAffinity -3.79488564
REMARK minimizedRMSD -1
REMARK  0 active torsions:
REMARK  status: ('A' for Active; 'I' for Inactive)
ROOT
ATOM      1  C4' PXY d   1       3.804   1.910   0.073  0.00  0.00     0.077 C 
ATOM      2  C1' PXY d   1      -0.079  -2.363  -0.206  0.00  0.00     0.077 C 
ATOM      3  C1  PXY d   1       0.948  -1.250  -0.128  0.00  0.00    -0.082 A 
ATOM      4  C2  PXY d   1       0.546   0.006  -0.027  0.00  0.00     0.003 A 
ATOM      5  C3  PXY d   1       1.461   1.026   0.012  0.00  0.00     0.003 A 
ATOM      6  C4  PXY d   1       2.803   0.755   0.001  0.00  0.00    -0.082 A 
ATOM      7  C5  PXY d   1       3.221  -0.525  -0.090  0.00  0.00     0.003 A 
ATOM      8  C6  PXY d   1       2.276  -1.544  -0.171  0.00  0.00     0.003 A 
ENDROOT
TORSDOF 0
ENDMDL
