MODEL 1
REMARK minimizedAffinity 0.221725568
REMARK minimizedRMSD -1
REMARK  0 active torsions:
REMARK  status: ('A' for Active; 'I' for Inactive)
ROOT
ATOM      1  C4' PXY d   1      -2.122   1.448  -0.029  0.00  0.00     0.077 C 
ATOM      2  C1' PXY d   1       3.123  -0.959  -0.372  0.00  0.00     0.077 C 
ATOM      3  C1  PXY d   1       1.752  -0.318  -0.274  0.00  0.00    -0.082 A 
ATOM      4  C2  PXY d   1       0.671  -1.056  -0.465  0.00  0.00     0.003 A 
ATOM      5  C3  PXY d   1      -0.576  -0.486  -0.412  0.00  0.00     0.003 A 
ATOM      6  C4  PXY d   1      -0.718   0.841  -0.109  0.00  0.00    -0.082 A 
ATOM      7  C5  PXY d   1       0.380   1.598   0.098  0.00  0.00     0.003 A 
ATOM      8  C6  PXY d   1       1.638   1.010  -0.001  0.00  0.00     0.003 A 
ENDROOT
TORSDOF 0
ENDMDL
