MODEL 1
REMARK minimizedAffinity 4.57563305
REMARK minimizedRMSD -1
REMARK  1 active torsions:
REMARK  status: ('A' for Active; 'I' for Inactive)
REMARK    1  A    between atoms: C1_2  and  C2_3 
ROOT
ATOM      1  C2  UNL d   1      -5.553  -1.223   3.125  0.00  0.00    -0.076 A 
ATOM      2  C3  UNL d   1      -5.144  -1.202   1.781  0.00  0.00     0.004 A 
ATOM      3  C4  UNL d   1      -4.746  -0.014   1.170  0.00  0.00    -0.003 A 
ATOM      4  C5  UNL d   1      -4.750   1.173   1.895  0.00  0.00     0.000 A 
ATOM      5  C6  UNL d   1      -5.135   1.167   3.235  0.00  0.00     0.000 A 
ATOM      6  C7  UNL d   1      -5.524  -0.025   3.870  0.00  0.00    -0.073 A 
ATOM      7  C8  UNL d   1      -5.936   0.028   5.316  0.00  0.00     0.078 C 
ENDROOT
BRANCH   1   8
ATOM      8  C1  UNL d   1      -6.000  -2.537   3.726  0.00  0.00     0.053 C 
ATOM      9  C   UNL d   1      -5.934  -3.685   2.730  0.00  0.00     0.018 C 
ENDBRANCH   1   8
TORSDOF 1
ENDMDL
