MODEL 1
REMARK minimizedAffinity 0.456854075
REMARK minimizedRMSD -1
REMARK  1 active torsions:
REMARK  status: ('A' for Active; 'I' for Inactive)
REMARK    1  A    between atoms: C1_2  and  C2_3 
ROOT
ATOM      1  C2  UNL d   1      -1.045   0.899   0.442  0.00  0.00    -0.076 A 
ATOM      2  C3  UNL d   1      -1.905   1.850   1.017  0.00  0.00     0.004 A 
ATOM      3  C4  UNL d   1      -1.646   2.381   2.279  0.00  0.00    -0.003 A 
ATOM      4  C5  UNL d   1      -0.523   1.969   2.988  0.00  0.00     0.000 A 
ATOM      5  C6  UNL d   1       0.351   1.039   2.425  0.00  0.00     0.000 A 
ATOM      6  C7  UNL d   1       0.114   0.506   1.147  0.00  0.00    -0.073 A 
ATOM      7  C8  UNL d   1       1.086  -0.498   0.591  0.00  0.00     0.078 C 
ENDROOT
BRANCH   1   8
ATOM      8  C1  UNL d   1      -1.391   0.338  -0.919  0.00  0.00     0.053 C 
ATOM      9  C   UNL d   1      -1.042   1.294  -2.049  0.00  0.00     0.018 C 
ENDBRANCH   1   8
TORSDOF 1
ENDMDL
