MODEL 1
REMARK minimizedAffinity -3.126019
REMARK minimizedRMSD -1
REMARK  1 active torsions:
REMARK  status: ('A' for Active; 'I' for Inactive)
REMARK    1  A    between atoms: C1_2  and  C2_3 
ROOT
ATOM      1  C2  UNL d   1      -0.130   0.241  -0.380  0.00  0.00    -0.076 A 
ATOM      2  C3  UNL d   1      -0.092  -0.192   0.957  0.00  0.00     0.004 A 
ATOM      3  C4  UNL d   1      -0.574   0.615   1.986  0.00  0.00    -0.003 A 
ATOM      4  C5  UNL d   1      -1.104   1.867   1.695  0.00  0.00     0.000 A 
ATOM      5  C6  UNL d   1      -1.166   2.305   0.372  0.00  0.00     0.000 A 
ATOM      6  C7  UNL d   1      -0.699   1.497  -0.679  0.00  0.00    -0.073 A 
ATOM      7  C8  UNL d   1      -0.784   2.022  -2.086  0.00  0.00     0.078 C 
ENDROOT
BRANCH   1   8
ATOM      8  C1  UNL d   1       0.433  -0.666  -1.451  0.00  0.00     0.053 C 
ATOM      9  C   UNL d   1       0.188  -2.138  -1.156  0.00  0.00     0.018 C 
ENDBRANCH   1   8
TORSDOF 1
ENDMDL
