MODEL 1
REMARK minimizedAffinity -2.07556009
REMARK minimizedRMSD -1
REMARK  1 active torsions:
REMARK  status: ('A' for Active; 'I' for Inactive)
REMARK    1  A    between atoms: C1_2  and  C2_3 
ROOT
ATOM      1  C2  UNL d   1       0.546   1.505   1.874  0.00  0.00    -0.076 A 
ATOM      2  C3  UNL d   1       1.308   0.437   1.369  0.00  0.00     0.004 A 
ATOM      3  C4  UNL d   1       0.727  -0.538   0.559  0.00  0.00    -0.003 A 
ATOM      4  C5  UNL d   1      -0.624  -0.460   0.241  0.00  0.00     0.000 A 
ATOM      5  C6  UNL d   1      -1.391   0.602   0.719  0.00  0.00     0.000 A 
ATOM      6  C7  UNL d   1      -0.817   1.602   1.523  0.00  0.00    -0.073 A 
ATOM      7  C8  UNL d   1      -1.692   2.722   2.016  0.00  0.00     0.078 C 
ENDROOT
BRANCH   1   8
ATOM      8  C1  UNL d   1       1.224   2.518   2.769  0.00  0.00     0.053 C 
ATOM      9  C   UNL d   1       1.725   3.731   2.002  0.00  0.00     0.018 C 
ENDBRANCH   1   8
TORSDOF 1
ENDMDL
