MODEL 1
REMARK minimizedAffinity -0.824961841
REMARK minimizedRMSD -1
REMARK  1 active torsions:
REMARK  status: ('A' for Active; 'I' for Inactive)
REMARK    1  A    between atoms: C1_2  and  C2_3 
ROOT
ATOM      1  C2  UNL d   1      -0.150   1.068   0.715  0.00  0.00    -0.076 A 
ATOM      2  C3  UNL d   1      -0.523   1.487  -0.574  0.00  0.00     0.004 A 
ATOM      3  C4  UNL d   1      -0.074   0.810  -1.706  0.00  0.00    -0.003 A 
ATOM      4  C5  UNL d   1       0.754  -0.299  -1.568  0.00  0.00     0.000 A 
ATOM      5  C6  UNL d   1       1.120  -0.739  -0.297  0.00  0.00     0.000 A 
ATOM      6  C7  UNL d   1       0.663  -0.077   0.856  0.00  0.00    -0.073 A 
ATOM      7  C8  UNL d   1       1.094  -0.592   2.202  0.00  0.00     0.078 C 
ENDROOT
BRANCH   1   8
ATOM      8  C1  UNL d   1      -0.645   1.858   1.906  0.00  0.00     0.053 C 
ATOM      9  C   UNL d   1      -0.104   3.279   1.927  0.00  0.00     0.018 C 
ENDBRANCH   1   8
TORSDOF 1
ENDMDL
