MODEL 1
REMARK minimizedAffinity -3.51490235
REMARK minimizedRMSD -1
REMARK  1 active torsions:
REMARK  status: ('A' for Active; 'I' for Inactive)
REMARK    1  A    between atoms: C1_2  and  C2_3 
ROOT
ATOM      1  C2  UNL d   1      -0.336   0.087  -0.378  0.00  0.00    -0.076 A 
ATOM      2  C3  UNL d   1      -1.019   1.090  -1.088  0.00  0.00     0.004 A 
ATOM      3  C4  UNL d   1      -1.549   2.200  -0.432  0.00  0.00    -0.003 A 
ATOM      4  C5  UNL d   1      -1.405   2.324   0.946  0.00  0.00     0.000 A 
ATOM      5  C6  UNL d   1      -0.715   1.348   1.664  0.00  0.00     0.000 A 
ATOM      6  C7  UNL d   1      -0.160   0.231   1.015  0.00  0.00    -0.073 A 
ATOM      7  C8  UNL d   1       0.568  -0.794   1.839  0.00  0.00     0.078 C 
ENDROOT
BRANCH   1   8
ATOM      8  C1  UNL d   1       0.194  -1.107  -1.140  0.00  0.00     0.053 C 
ATOM      9  C   UNL d   1      -0.837  -2.218  -1.272  0.00  0.00     0.018 C 
ENDBRANCH   1   8
TORSDOF 1
ENDMDL
