MODEL 1
REMARK minimizedAffinity -2.33643746
REMARK minimizedRMSD -1
REMARK  1 active torsions:
REMARK  status: ('A' for Active; 'I' for Inactive)
REMARK    1  A    between atoms: C1_2  and  C2_3 
ROOT
ATOM      1  C2  UNL d   1      -0.311  -1.755  -0.685  0.00  0.00    -0.076 A 
ATOM      2  C3  UNL d   1      -0.686  -2.103   0.624  0.00  0.00     0.004 A 
ATOM      3  C4  UNL d   1      -0.494  -1.219   1.685  0.00  0.00    -0.003 A 
ATOM      4  C5  UNL d   1       0.075   0.028   1.453  0.00  0.00     0.000 A 
ATOM      5  C6  UNL d   1       0.437   0.397   0.158  0.00  0.00     0.000 A 
ATOM      6  C7  UNL d   1       0.236  -0.476  -0.925  0.00  0.00    -0.073 A 
ATOM      7  C8  UNL d   1       0.651  -0.028  -2.299  0.00  0.00     0.078 C 
ENDROOT
BRANCH   1   8
ATOM      8  C1  UNL d   1      -0.518  -2.765  -1.791  0.00  0.00     0.053 C 
ATOM      9  C   UNL d   1      -0.567  -4.194  -1.273  0.00  0.00     0.018 C 
ENDBRANCH   1   8
TORSDOF 1
ENDMDL
