MODEL 1
REMARK minimizedAffinity 0.115935609
REMARK minimizedRMSD -1
REMARK  0 active torsions:
REMARK  status: ('A' for Active; 'I' for Inactive)
ROOT
ATOM      1  C1  BNZ d   1       4.506   0.733   3.049  0.00  0.00     0.000 A 
ATOM      2  C2  BNZ d   1       5.255  -0.175   3.749  0.00  0.00     0.000 A 
ATOM      3  C3  BNZ d   1       5.987   0.212   4.837  0.00  0.00     0.000 A 
ATOM      4  C4  BNZ d   1       6.000   1.511   5.198  0.00  0.00     0.000 A 
ATOM      5  C5  BNZ d   1       5.257   2.440   4.497  0.00  0.00     0.000 A 
ATOM      6  C6  BNZ d   1       4.491   2.040   3.426  0.00  0.00     0.000 A 
ENDROOT
TORSDOF 0
ENDMDL
