MODEL 1
REMARK minimizedAffinity 0.373584926
REMARK minimizedRMSD -1
REMARK  0 active torsions:
REMARK  status: ('A' for Active; 'I' for Inactive)
ROOT
ATOM      1  C1  BNZ d   1       3.623   2.016  -6.000  0.00  0.00     0.000 A 
ATOM      2  C2  BNZ d   1       4.809   1.334  -5.948  0.00  0.00     0.000 A 
ATOM      3  C3  BNZ d   1       5.996   2.002  -5.831  0.00  0.00     0.000 A 
ATOM      4  C4  BNZ d   1       5.998   3.350  -5.806  0.00  0.00     0.000 A 
ATOM      5  C5  BNZ d   1       4.811   4.053  -5.867  0.00  0.00     0.000 A 
ATOM      6  C6  BNZ d   1       3.616   3.376  -5.946  0.00  0.00     0.000 A 
ENDROOT
TORSDOF 0
ENDMDL
