MODEL 1
REMARK minimizedAffinity 0.573601365
REMARK minimizedRMSD -1
REMARK  0 active torsions:
REMARK  status: ('A' for Active; 'I' for Inactive)
ROOT
ATOM      1  C1  BNZ d   1       4.774   0.179   3.386  0.00  0.00     0.000 A 
ATOM      2  C2  BNZ d   1       4.179   1.061   2.523  0.00  0.00     0.000 A 
ATOM      3  C3  BNZ d   1       4.312   2.410   2.699  0.00  0.00     0.000 A 
ATOM      4  C4  BNZ d   1       5.005   2.875   3.759  0.00  0.00     0.000 A 
ATOM      5  C5  BNZ d   1       5.603   1.998   4.643  0.00  0.00     0.000 A 
ATOM      6  C6  BNZ d   1       5.499   0.641   4.440  0.00  0.00     0.000 A 
ENDROOT
TORSDOF 0
ENDMDL
