MODEL 1
REMARK minimizedAffinity -0.798896432
REMARK minimizedRMSD -1
REMARK  0 active torsions:
REMARK  status: ('A' for Active; 'I' for Inactive)
ROOT
ATOM      1  C1  BNZ d   1      -4.993  -0.981   0.711  0.00  0.00     0.000 A 
ATOM      2  C2  BNZ d   1      -5.001  -1.112   2.074  0.00  0.00     0.000 A 
ATOM      3  C3  BNZ d   1      -3.847  -1.374   2.759  0.00  0.00     0.000 A 
ATOM      4  C4  BNZ d   1      -2.696  -1.544   2.078  0.00  0.00     0.000 A 
ATOM      5  C5  BNZ d   1      -2.673  -1.424   0.702  0.00  0.00     0.000 A 
ATOM      6  C6  BNZ d   1      -3.829  -1.122   0.020  0.00  0.00     0.000 A 
ENDROOT
TORSDOF 0
ENDMDL
