MODEL 1
REMARK minimizedAffinity 2.63995004
REMARK minimizedRMSD -1
REMARK  0 active torsions:
REMARK  status: ('A' for Active; 'I' for Inactive)
ROOT
ATOM      1  C1  BNZ d   1      -3.846   3.381  -0.601  0.00  0.00     0.000 A 
ATOM      2  C2  BNZ d   1      -3.212   2.186  -0.811  0.00  0.00     0.000 A 
ATOM      3  C3  BNZ d   1      -1.879   2.045  -0.544  0.00  0.00     0.000 A 
ATOM      4  C4  BNZ d   1      -1.174   3.108  -0.108  0.00  0.00     0.000 A 
ATOM      5  C5  BNZ d   1      -1.797   4.323   0.099  0.00  0.00     0.000 A 
ATOM      6  C6  BNZ d   1      -3.147   4.451  -0.133  0.00  0.00     0.000 A 
ENDROOT
TORSDOF 0
ENDMDL
