MODEL 1
REMARK minimizedAffinity 1.22105861
REMARK minimizedRMSD -1
REMARK  0 active torsions:
REMARK  status: ('A' for Active; 'I' for Inactive)
ROOT
ATOM      1  C1  BNZ d   1      -4.500  -1.790   3.033  0.00  0.00     0.000 A 
ATOM      2  C2  BNZ d   1      -3.724  -1.261   4.030  0.00  0.00     0.000 A 
ATOM      3  C3  BNZ d   1      -2.763  -0.331   3.750  0.00  0.00     0.000 A 
ATOM      4  C4  BNZ d   1      -2.552   0.041   2.471  0.00  0.00     0.000 A 
ATOM      5  C5  BNZ d   1      -3.320  -0.490   1.454  0.00  0.00     0.000 A 
ATOM      6  C6  BNZ d   1      -4.313  -1.397   1.744  0.00  0.00     0.000 A 
ENDROOT
TORSDOF 0
ENDMDL
