MODEL 1
REMARK minimizedAffinity -1.5806464
REMARK minimizedRMSD -1
REMARK  0 active torsions:
REMARK  status: ('A' for Active; 'I' for Inactive)
ROOT
ATOM      1  C1  BNZ d   1       3.804   2.135  -5.998  0.00  0.00     0.000 A 
ATOM      2  C2  BNZ d   1       3.832   0.981  -5.262  0.00  0.00     0.000 A 
ATOM      3  C3  BNZ d   1       4.923   0.661  -4.504  0.00  0.00     0.000 A 
ATOM      4  C4  BNZ d   1       6.000   1.473  -4.515  0.00  0.00     0.000 A 
ATOM      5  C5  BNZ d   1       5.991   2.635  -5.259  0.00  0.00     0.000 A 
ATOM      6  C6  BNZ d   1       4.875   2.975  -5.990  0.00  0.00     0.000 A 
ENDROOT
TORSDOF 0
ENDMDL
