MODEL 1
REMARK minimizedAffinity 1.74993372
REMARK minimizedRMSD -1
REMARK  0 active torsions:
REMARK  status: ('A' for Active; 'I' for Inactive)
ROOT
ATOM      1  C1  BNZ d   1       6.000   0.743   5.627  0.00  0.00     0.000 A 
ATOM      2  C2  BNZ d   1       5.697   1.920   4.994  0.00  0.00     0.000 A 
ATOM      3  C3  BNZ d   1       5.155   1.921   3.740  0.00  0.00     0.000 A 
ATOM      4  C4  BNZ d   1       4.954   0.749   3.103  0.00  0.00     0.000 A 
ATOM      5  C5  BNZ d   1       5.263  -0.445   3.724  0.00  0.00     0.000 A 
ATOM      6  C6  BNZ d   1       5.772  -0.444   5.002  0.00  0.00     0.000 A 
ENDROOT
TORSDOF 0
ENDMDL
