MODEL 1
REMARK minimizedAffinity -4.86090469
REMARK minimizedRMSD -1
REMARK  0 active torsions:
REMARK  status: ('A' for Active; 'I' for Inactive)
ROOT
ATOM      1  C1  BNZ d   1      -4.029   3.447   4.003  0.00  0.00     0.000 A 
ATOM      2  C2  BNZ d   1      -3.794   2.117   3.783  0.00  0.00     0.000 A 
ATOM      3  C3  BNZ d   1      -3.269   1.686   2.596  0.00  0.00     0.000 A 
ATOM      4  C4  BNZ d   1      -3.018   2.580   1.618  0.00  0.00     0.000 A 
ATOM      5  C5  BNZ d   1      -3.259   3.924   1.822  0.00  0.00     0.000 A 
ATOM      6  C6  BNZ d   1      -3.751   4.359   3.032  0.00  0.00     0.000 A 
ENDROOT
TORSDOF 0
ENDMDL
