MODEL 1
REMARK minimizedAffinity -1.53595054
REMARK minimizedRMSD -1
REMARK  0 active torsions:
REMARK  status: ('A' for Active; 'I' for Inactive)
ROOT
ATOM      1  C1  BNZ d   1       4.502   0.937   2.803  0.00  0.00     0.000 A 
ATOM      2  C2  BNZ d   1       4.505   2.295   2.623  0.00  0.00     0.000 A 
ATOM      3  C3  BNZ d   1       5.271   3.104   3.415  0.00  0.00     0.000 A 
ATOM      4  C4  BNZ d   1       6.000   2.560   4.410  0.00  0.00     0.000 A 
ATOM      5  C5  BNZ d   1       6.000   1.194   4.611  0.00  0.00     0.000 A 
ATOM      6  C6  BNZ d   1       5.258   0.379   3.786  0.00  0.00     0.000 A 
ENDROOT
TORSDOF 0
ENDMDL
