MODEL 1
REMARK minimizedAffinity -1.93743277
REMARK minimizedRMSD -1
REMARK  0 active torsions:
REMARK  status: ('A' for Active; 'I' for Inactive)
ROOT
ATOM      1  C1  BNZ d   1       3.852   1.738  -5.093  0.00  0.00     0.000 A 
ATOM      2  C2  BNZ d   1       4.873   1.843  -6.000  0.00  0.00     0.000 A 
ATOM      3  C3  BNZ d   1       5.907   0.949  -5.996  0.00  0.00     0.000 A 
ATOM      4  C4  BNZ d   1       5.940  -0.023  -5.062  0.00  0.00     0.000 A 
ATOM      5  C5  BNZ d   1       4.923  -0.137  -4.135  0.00  0.00     0.000 A 
ATOM      6  C6  BNZ d   1       3.864   0.741  -4.166  0.00  0.00     0.000 A 
ENDROOT
TORSDOF 0
ENDMDL
