MODEL 1
REMARK minimizedAffinity 3.36550784
REMARK minimizedRMSD -1
REMARK  0 active torsions:
REMARK  status: ('A' for Active; 'I' for Inactive)
ROOT
ATOM      1  C1  BNZ d   1       0.113   1.791  -1.824  0.00  0.00     0.000 A 
ATOM      2  C2  BNZ d   1      -0.210   0.550  -1.344  0.00  0.00     0.000 A 
ATOM      3  C3  BNZ d   1       0.125  -0.578  -2.040  0.00  0.00     0.000 A 
ATOM      4  C4  BNZ d   1       0.746  -0.463  -3.231  0.00  0.00     0.000 A 
ATOM      5  C5  BNZ d   1       1.071   0.782  -3.732  0.00  0.00     0.000 A 
ATOM      6  C6  BNZ d   1       0.767   1.914  -3.011  0.00  0.00     0.000 A 
ENDROOT
TORSDOF 0
ENDMDL
