MODEL 1
REMARK minimizedAffinity 3.06084323
REMARK minimizedRMSD -1
REMARK  0 active torsions:
REMARK  status: ('A' for Active; 'I' for Inactive)
ROOT
ATOM      1  C1  BNZ d   1       5.129   0.214   3.356  0.00  0.00     0.000 A 
ATOM      2  C2  BNZ d   1       4.300   0.996   2.596  0.00  0.00     0.000 A 
ATOM      3  C3  BNZ d   1       4.331   2.358   2.702  0.00  0.00     0.000 A 
ATOM      4  C4  BNZ d   1       5.161   2.935   3.595  0.00  0.00     0.000 A 
ATOM      5  C5  BNZ d   1       5.996   2.160   4.375  0.00  0.00     0.000 A 
ATOM      6  C6  BNZ d   1       5.990   0.791   4.238  0.00  0.00     0.000 A 
ENDROOT
TORSDOF 0
ENDMDL
