MODEL 1
REMARK minimizedAffinity 0.204965919
REMARK minimizedRMSD -1
REMARK  0 active torsions:
REMARK  status: ('A' for Active; 'I' for Inactive)
ROOT
ATOM      1  C1  BNZ d   1       5.999   1.167   4.134  0.00  0.00     0.000 A 
ATOM      2  C2  BNZ d   1       5.162   0.402   3.366  0.00  0.00     0.000 A 
ATOM      3  C3  BNZ d   1       4.328   0.981   2.451  0.00  0.00     0.000 A 
ATOM      4  C4  BNZ d   1       4.303   2.324   2.333  0.00  0.00     0.000 A 
ATOM      5  C5  BNZ d   1       5.134   3.109   3.106  0.00  0.00     0.000 A 
ATOM      6  C6  BNZ d   1       6.000   2.521   3.999  0.00  0.00     0.000 A 
ENDROOT
TORSDOF 0
ENDMDL
