MODEL 1
REMARK minimizedAffinity 2.09971952
REMARK minimizedRMSD -1
REMARK  0 active torsions:
REMARK  status: ('A' for Active; 'I' for Inactive)
ROOT
ATOM      1  C1  BNZ d   1      -3.845   3.608   0.296  0.00  0.00     0.000 A 
ATOM      2  C2  BNZ d   1      -4.113   2.266   0.236  0.00  0.00     0.000 A 
ATOM      3  C3  BNZ d   1      -3.138   1.373  -0.111  0.00  0.00     0.000 A 
ATOM      4  C4  BNZ d   1      -1.910   1.824  -0.436  0.00  0.00     0.000 A 
ATOM      5  C5  BNZ d   1      -1.627   3.175  -0.390  0.00  0.00     0.000 A 
ATOM      6  C6  BNZ d   1      -2.599   4.068  -0.002  0.00  0.00     0.000 A 
ENDROOT
TORSDOF 0
ENDMDL
