MODEL 1
REMARK minimizedAffinity -3.65971494
REMARK minimizedRMSD -1
REMARK  1 active torsions:
REMARK  status: ('A' for Active; 'I' for Inactive)
REMARK    1  A    between atoms: C1_2  and  C2_3 
ROOT
ATOM      1  C2  UNL d   1       1.483  -2.302   1.964  0.00  0.00    -0.077 A 
ATOM      2  C3  UNL d   1       2.570  -3.025   1.455  0.00  0.00     0.002 A 
ATOM      3  C4  UNL d   1       3.785  -2.387   1.199  0.00  0.00     0.002 A 
ATOM      4  C5  UNL d   1       3.926  -1.024   1.453  0.00  0.00    -0.004 A 
ATOM      5  C6  UNL d   1       2.849  -0.296   1.957  0.00  0.00     0.002 A 
ATOM      6  C7  UNL d   1       1.633  -0.931   2.212  0.00  0.00     0.002 A 
ENDROOT
BRANCH   1   7
ATOM      7  C1  UNL d   1       0.186  -2.998   2.286  0.00  0.00     0.055 C 
ATOM      8  C   UNL d   1      -0.987  -2.341   1.574  0.00  0.00     0.019 C 
ENDBRANCH   1   7
TORSDOF 1
ENDMDL
