MODEL 1
REMARK minimizedAffinity -4.23106146
REMARK minimizedRMSD -1
REMARK  1 active torsions:
REMARK  status: ('A' for Active; 'I' for Inactive)
REMARK    1  A    between atoms: C1_2  and  C2_3 
ROOT
ATOM      1  C2  UNL d   1       2.509  -0.608   2.442  0.00  0.00    -0.077 A 
ATOM      2  C3  UNL d   1       2.547   0.690   1.913  0.00  0.00     0.002 A 
ATOM      3  C4  UNL d   1       3.358   0.981   0.815  0.00  0.00     0.002 A 
ATOM      4  C5  UNL d   1       4.133  -0.020   0.233  0.00  0.00    -0.004 A 
ATOM      5  C6  UNL d   1       4.103  -1.313   0.753  0.00  0.00     0.002 A 
ATOM      6  C7  UNL d   1       3.294  -1.607   1.852  0.00  0.00     0.002 A 
ENDROOT
BRANCH   1   7
ATOM      7  C1  UNL d   1       1.598  -0.936   3.596  0.00  0.00     0.055 C 
ATOM      8  C   UNL d   1       1.533   0.211   4.593  0.00  0.00     0.019 C 
ENDBRANCH   1   7
TORSDOF 1
ENDMDL
