MODEL 1
REMARK minimizedAffinity 6.68756914
REMARK minimizedRMSD -1
REMARK  1 active torsions:
REMARK  status: ('A' for Active; 'I' for Inactive)
REMARK    1  A    between atoms: C1_2  and  C2_3 
ROOT
ATOM      1  C2  UNL d   1       1.693   3.115   0.219  0.00  0.00    -0.077 A 
ATOM      2  C3  UNL d   1       2.884   2.606  -0.317  0.00  0.00     0.002 A 
ATOM      3  C4  UNL d   1       3.507   1.501   0.267  0.00  0.00     0.002 A 
ATOM      4  C5  UNL d   1       2.944   0.894   1.387  0.00  0.00    -0.004 A 
ATOM      5  C6  UNL d   1       1.760   1.394   1.929  0.00  0.00     0.002 A 
ATOM      6  C7  UNL d   1       1.137   2.499   1.347  0.00  0.00     0.002 A 
ENDROOT
BRANCH   1   7
ATOM      7  C1  UNL d   1       0.994   4.276  -0.439  0.00  0.00     0.055 C 
ATOM      8  C   UNL d   1       1.993   5.289  -0.980  0.00  0.00     0.019 C 
ENDBRANCH   1   7
TORSDOF 1
ENDMDL
