MODEL 1
REMARK minimizedAffinity 5.62740183
REMARK minimizedRMSD -1
REMARK  1 active torsions:
REMARK  status: ('A' for Active; 'I' for Inactive)
REMARK    1  A    between atoms: C1_2  and  C2_3 
ROOT
ATOM      1  C2  UNL d   1       2.470  -0.871   1.768  0.00  0.00    -0.077 A 
ATOM      2  C3  UNL d   1       1.894   0.175   2.504  0.00  0.00     0.002 A 
ATOM      3  C4  UNL d   1       2.308   1.492   2.301  0.00  0.00     0.002 A 
ATOM      4  C5  UNL d   1       3.295   1.778   1.361  0.00  0.00    -0.004 A 
ATOM      5  C6  UNL d   1       3.876   0.745   0.625  0.00  0.00     0.002 A 
ATOM      6  C7  UNL d   1       3.464  -0.573   0.827  0.00  0.00     0.002 A 
ENDROOT
BRANCH   1   7
ATOM      7  C1  UNL d   1       1.990  -2.287   1.950  0.00  0.00     0.055 C 
ATOM      8  C   UNL d   1       0.470  -2.363   1.934  0.00  0.00     0.019 C 
ENDBRANCH   1   7
TORSDOF 1
ENDMDL
