MODEL 1
REMARK minimizedAffinity 3.45271683
REMARK minimizedRMSD -1
REMARK  1 active torsions:
REMARK  status: ('A' for Active; 'I' for Inactive)
REMARK    1  A    between atoms: C1_2  and  C2_3 
ROOT
ATOM      1  C2  UNL d   1       1.310  -1.800   1.737  0.00  0.00    -0.077 A 
ATOM      2  C3  UNL d   1       1.468  -0.422   1.944  0.00  0.00     0.002 A 
ATOM      3  C4  UNL d   1       2.705   0.188   1.724  0.00  0.00     0.002 A 
ATOM      4  C5  UNL d   1       3.790  -0.571   1.292  0.00  0.00    -0.004 A 
ATOM      5  C6  UNL d   1       3.644  -1.942   1.085  0.00  0.00     0.002 A 
ATOM      6  C7  UNL d   1       2.409  -2.553   1.306  0.00  0.00     0.002 A 
ENDROOT
BRANCH   1   7
ATOM      7  C1  UNL d   1      -0.035  -2.451   1.926  0.00  0.00     0.055 C 
ATOM      8  C   UNL d   1      -1.140  -1.643   1.260  0.00  0.00     0.019 C 
ENDBRANCH   1   7
TORSDOF 1
ENDMDL
