MODEL 1
REMARK minimizedAffinity -1.2044282
REMARK minimizedRMSD -1
REMARK  1 active torsions:
REMARK  status: ('A' for Active; 'I' for Inactive)
REMARK    1  A    between atoms: C3_4  and  O_7 
ROOT
ATOM      1  C   UNL d   1       2.184  -5.999  -3.947  0.00  0.00    -0.033 A 
ATOM      2  C1  UNL d   1       2.308  -6.000  -5.338  0.00  0.00     0.039 A 
ATOM      3  C2  UNL d   1       3.561  -5.822  -5.929  0.00  0.00    -0.080 A 
ATOM      4  C3  UNL d   1       4.679  -5.646  -5.119  0.00  0.00     0.150 A 
ATOM      5  C4  UNL d   1       4.564  -5.647  -3.733  0.00  0.00    -0.007 A 
ATOM      6  C5  UNL d   1       3.312  -5.824  -3.145  0.00  0.00     0.039 A 
ENDROOT
BRANCH   4   7
ATOM      7  O   UNL d   1       5.922  -5.464  -5.650  0.00  0.00    -0.526 OA
ATOM      8  H5  UNL d   1       5.844  -5.457  -6.619  0.00  0.00     0.418 HD
ENDBRANCH   4   7
TORSDOF 1
ENDMDL
