MODEL 1
REMARK minimizedAffinity 7.19187307
REMARK minimizedRMSD -1
REMARK  1 active torsions:
REMARK  status: ('A' for Active; 'I' for Inactive)
REMARK    1  A    between atoms: C3_4  and  O_7 
ROOT
ATOM      1  C   UNL d   1       2.985   0.989   1.459  0.00  0.00    -0.033 A 
ATOM      2  C1  UNL d   1       1.727   1.518   1.755  0.00  0.00     0.039 A 
ATOM      3  C2  UNL d   1       1.190   2.531   0.958  0.00  0.00    -0.080 A 
ATOM      4  C3  UNL d   1       1.918   3.004  -0.130  0.00  0.00     0.150 A 
ATOM      5  C4  UNL d   1       3.170   2.478  -0.432  0.00  0.00    -0.007 A 
ATOM      6  C5  UNL d   1       3.706   1.467   0.365  0.00  0.00     0.039 A 
ENDROOT
BRANCH   4   7
ATOM      7  O   UNL d   1       1.437   3.995  -0.933  0.00  0.00    -0.526 OA
ATOM      8  H5  UNL d   1       0.576   4.281  -0.587  0.00  0.00     0.418 HD
ENDBRANCH   4   7
TORSDOF 1
ENDMDL
