MODEL 1
REMARK minimizedAffinity 3.96857119
REMARK minimizedRMSD -1
REMARK  1 active torsions:
REMARK  status: ('A' for Active; 'I' for Inactive)
REMARK    1  A    between atoms: C3_4  and  O_7 
ROOT
ATOM      1  C   UNL d   1      -2.554   1.202  -1.915  0.00  0.00    -0.033 A 
ATOM      2  C1  UNL d   1      -3.497   1.267  -2.943  0.00  0.00     0.039 A 
ATOM      3  C2  UNL d   1      -3.851   0.111  -3.641  0.00  0.00    -0.080 A 
ATOM      4  C3  UNL d   1      -3.258  -1.101  -3.302  0.00  0.00     0.150 A 
ATOM      5  C4  UNL d   1      -2.321  -1.174  -2.276  0.00  0.00    -0.007 A 
ATOM      6  C5  UNL d   1      -1.967  -0.018  -1.581  0.00  0.00     0.039 A 
ENDROOT
BRANCH   4   7
ATOM      7  O   UNL d   1      -3.568  -2.255  -3.958  0.00  0.00    -0.526 OA
ATOM      8  H5  UNL d   1      -4.208  -2.047  -4.660  0.00  0.00     0.418 HD
ENDBRANCH   4   7
TORSDOF 1
ENDMDL
