MODEL 1
REMARK minimizedAffinity 0.713074625
REMARK minimizedRMSD -1
REMARK  1 active torsions:
REMARK  status: ('A' for Active; 'I' for Inactive)
REMARK    1  A    between atoms: C3_4  and  O_7 
ROOT
ATOM      1  C   UNL d   1       1.382  -5.814   0.766  0.00  0.00    -0.033 A 
ATOM      2  C1  UNL d   1       1.160  -6.000  -0.600  0.00  0.00     0.039 A 
ATOM      3  C2  UNL d   1       2.235  -6.000  -1.491  0.00  0.00    -0.080 A 
ATOM      4  C3  UNL d   1       3.526  -5.814  -1.003  0.00  0.00     0.150 A 
ATOM      5  C4  UNL d   1       3.755  -5.633   0.356  0.00  0.00    -0.007 A 
ATOM      6  C5  UNL d   1       2.680  -5.632   1.244  0.00  0.00     0.039 A 
ENDROOT
BRANCH   4   7
ATOM      7  O   UNL d   1       4.607  -5.802  -1.835  0.00  0.00    -0.526 OA
ATOM      8  H5  UNL d   1       4.294  -5.910  -2.748  0.00  0.00     0.418 HD
ENDBRANCH   4   7
TORSDOF 1
ENDMDL
