MODEL 1
REMARK minimizedAffinity 0.315190017
REMARK minimizedRMSD -1
REMARK  1 active torsions:
REMARK  status: ('A' for Active; 'I' for Inactive)
REMARK    1  A    between atoms: C3_4  and  O_7 
ROOT
ATOM      1  C   UNL d   1       2.148  -5.814   0.516  0.00  0.00    -0.033 A 
ATOM      2  C1  UNL d   1       3.531  -6.000   0.563  0.00  0.00     0.039 A 
ATOM      3  C2  UNL d   1       4.278  -5.999  -0.616  0.00  0.00    -0.080 A 
ATOM      4  C3  UNL d   1       3.631  -5.811  -1.835  0.00  0.00     0.150 A 
ATOM      5  C4  UNL d   1       2.254  -5.621  -1.889  0.00  0.00    -0.007 A 
ATOM      6  C5  UNL d   1       1.510  -5.623  -0.710  0.00  0.00     0.039 A 
ENDROOT
BRANCH   4   7
ATOM      7  O   UNL d   1       4.317  -5.807  -3.013  0.00  0.00    -0.526 OA
ATOM      8  H5  UNL d   1       5.255  -5.978  -2.823  0.00  0.00     0.418 HD
ENDBRANCH   4   7
TORSDOF 1
ENDMDL
