MODEL 1
REMARK minimizedAffinity 4.48027372
REMARK minimizedRMSD -1
REMARK  1 active torsions:
REMARK  status: ('A' for Active; 'I' for Inactive)
REMARK    1  A    between atoms: C3_4  and  O_7 
ROOT
ATOM      1  C   UNL d   1       1.058  -0.393  -0.454  0.00  0.00    -0.033 A 
ATOM      2  C1  UNL d   1       0.018  -0.083   0.426  0.00  0.00     0.039 A 
ATOM      3  C2  UNL d   1      -0.150   1.228   0.876  0.00  0.00    -0.080 A 
ATOM      4  C3  UNL d   1       0.726   2.218   0.440  0.00  0.00     0.150 A 
ATOM      5  C4  UNL d   1       1.762   1.917  -0.439  0.00  0.00    -0.007 A 
ATOM      6  C5  UNL d   1       1.929   0.608  -0.887  0.00  0.00     0.039 A 
ENDROOT
BRANCH   4   7
ATOM      7  O   UNL d   1       0.605   3.511   0.856  0.00  0.00    -0.526 OA
ATOM      8  H5  UNL d   1      -0.136   3.564   1.483  0.00  0.00     0.418 HD
ENDBRANCH   4   7
TORSDOF 1
ENDMDL
