MODEL 1
REMARK minimizedAffinity -3.19634533
REMARK minimizedRMSD -1
REMARK  1 active torsions:
REMARK  status: ('A' for Active; 'I' for Inactive)
REMARK    1  A    between atoms: C3_4  and  O_7 
ROOT
ATOM      1  C   UNL d   1       5.338   0.942  -4.497  0.00  0.00    -0.033 A 
ATOM      2  C1  UNL d   1       5.180   0.026  -3.455  0.00  0.00     0.039 A 
ATOM      3  C2  UNL d   1       5.400  -1.334  -3.680  0.00  0.00    -0.080 A 
ATOM      4  C3  UNL d   1       5.778  -1.765  -4.949  0.00  0.00     0.150 A 
ATOM      5  C4  UNL d   1       5.941  -0.857  -5.991  0.00  0.00    -0.007 A 
ATOM      6  C5  UNL d   1       5.720   0.501  -5.764  0.00  0.00     0.039 A 
ENDROOT
BRANCH   4   7
ATOM      7  O   UNL d   1       5.999  -3.083  -5.218  0.00  0.00    -0.526 OA
ATOM      8  H5  UNL d   1       5.821  -3.595  -4.413  0.00  0.00     0.418 HD
ENDBRANCH   4   7
TORSDOF 1
ENDMDL
