MODEL 1
REMARK minimizedAffinity -2.78876686
REMARK minimizedRMSD -1
REMARK  1 active torsions:
REMARK  status: ('A' for Active; 'I' for Inactive)
REMARK    1  A    between atoms: C3_4  and  O_7 
ROOT
ATOM      1  C   UNL d   1       5.633  -0.997  -5.999  0.00  0.00    -0.033 A 
ATOM      2  C1  UNL d   1       5.229   0.186  -5.376  0.00  0.00     0.039 A 
ATOM      3  C2  UNL d   1       4.858   0.177  -4.030  0.00  0.00    -0.080 A 
ATOM      4  C3  UNL d   1       4.896  -1.020  -3.319  0.00  0.00     0.150 A 
ATOM      5  C4  UNL d   1       5.301  -2.201  -3.932  0.00  0.00    -0.007 A 
ATOM      6  C5  UNL d   1       5.670  -2.190  -5.276  0.00  0.00     0.039 A 
ENDROOT
BRANCH   4   7
ATOM      7  O   UNL d   1       4.538  -1.079  -2.005  0.00  0.00    -0.526 OA
ATOM      8  H5  UNL d   1       4.254  -0.193  -1.723  0.00  0.00     0.418 HD
ENDBRANCH   4   7
TORSDOF 1
ENDMDL
