MODEL 1
REMARK minimizedAffinity 9.67863464
REMARK minimizedRMSD -1
REMARK  3 active torsions:
REMARK  status: ('A' for Active; 'I' for Inactive)
REMARK    1  A    between atoms: C3'_2  and  C2'_3 
REMARK    2  A    between atoms: C2'_3  and  C1'_4 
REMARK    3  A    between atoms: C1'_4  and  C1_5 
ROOT
ATOM      1  C1  N4B d   1      -4.807   0.227   1.188  0.00  0.00    -0.075 A 
ATOM      2  C2  N4B d   1      -6.000   0.979   1.118  0.00  0.00     0.002 A 
ATOM      3  C3  N4B d   1      -5.986   2.318   1.424  0.00  0.00     0.002 A 
ATOM      4  C4  N4B d   1      -4.800   2.919   1.819  0.00  0.00    -0.004 A 
ATOM      5  C5  N4B d   1      -3.647   2.191   1.860  0.00  0.00     0.002 A 
ATOM      6  C6  N4B d   1      -3.646   0.845   1.551  0.00  0.00     0.002 A 
ENDROOT
BRANCH   1   7
ATOM      7  C1' N4B d   1      -4.790  -1.258   0.947  0.00  0.00     0.057 C 
BRANCH   7   8
ATOM      8  C2' N4B d   1      -5.953  -1.901   1.696  0.00  0.00     0.009 C 
BRANCH   8   9
ATOM      9  C3' N4B d   1      -5.580  -2.263   3.123  0.00  0.00     0.004 C 
ATOM     10  C4' N4B d   1      -5.915  -3.683   3.468  0.00  0.00     0.003 C 
ENDBRANCH   8   9
ENDBRANCH   7   8
ENDBRANCH   1   7
TORSDOF 3
ENDMDL
