MODEL 1
REMARK minimizedAffinity 9.83803177
REMARK minimizedRMSD -1
REMARK  3 active torsions:
REMARK  status: ('A' for Active; 'I' for Inactive)
REMARK    1  A    between atoms: C3'_2  and  C2'_3 
REMARK    2  A    between atoms: C2'_3  and  C1'_4 
REMARK    3  A    between atoms: C1'_4  and  C1_5 
ROOT
ATOM      1  C1  N4B d   1      -2.526   1.439   1.845  0.00  0.00    -0.075 A 
ATOM      2  C2  N4B d   1      -2.061   2.606   2.490  0.00  0.00     0.002 A 
ATOM      3  C3  N4B d   1      -0.811   2.624   3.060  0.00  0.00     0.002 A 
ATOM      4  C4  N4B d   1      -0.021   1.486   3.014  0.00  0.00    -0.004 A 
ATOM      5  C5  N4B d   1      -0.467   0.371   2.367  0.00  0.00     0.002 A 
ATOM      6  C6  N4B d   1      -1.720   0.340   1.786  0.00  0.00     0.002 A 
ENDROOT
BRANCH   1   7
ATOM      7  C1' N4B d   1      -3.919   1.344   1.283  0.00  0.00     0.057 C 
BRANCH   7   8
ATOM      8  C2' N4B d   1      -3.910   0.406   0.080  0.00  0.00     0.009 C 
BRANCH   8   9
ATOM      9  C3' N4B d   1      -4.706  -0.861   0.343  0.00  0.00     0.004 C 
ATOM     10  C4' N4B d   1      -3.986  -2.101  -0.097  0.00  0.00     0.003 C 
ENDBRANCH   8   9
ENDBRANCH   7   8
ENDBRANCH   1   7
TORSDOF 3
ENDMDL
