MODEL 1
REMARK minimizedAffinity 3.99082494
REMARK minimizedRMSD -1
REMARK  3 active torsions:
REMARK  status: ('A' for Active; 'I' for Inactive)
REMARK    1  A    between atoms: C3'_2  and  C2'_3 
REMARK    2  A    between atoms: C2'_3  and  C1'_4 
REMARK    3  A    between atoms: C1'_4  and  C1_5 
ROOT
ATOM      1  C1  N4B d   1       5.908  -2.956   4.363  0.00  0.00    -0.075 A 
ATOM      2  C2  N4B d   1       5.897  -3.942   3.352  0.00  0.00     0.002 A 
ATOM      3  C3  N4B d   1       5.932  -5.273   3.691  0.00  0.00     0.002 A 
ATOM      4  C4  N4B d   1       5.998  -5.639   5.027  0.00  0.00    -0.004 A 
ATOM      5  C5  N4B d   1       5.982  -4.681   5.998  0.00  0.00     0.002 A 
ATOM      6  C6  N4B d   1       5.943  -3.340   5.672  0.00  0.00     0.002 A 
ENDROOT
BRANCH   1   7
ATOM      7  C1' N4B d   1       5.957  -1.488   4.039  0.00  0.00     0.057 C 
BRANCH   7   8
ATOM      8  C2' N4B d   1       5.006  -1.198   2.882  0.00  0.00     0.009 C 
BRANCH   8   9
ATOM      9  C3' N4B d   1       5.485  -0.035   2.030  0.00  0.00     0.004 C 
ATOM     10  C4' N4B d   1       4.409   0.518   1.144  0.00  0.00     0.003 C 
ENDBRANCH   8   9
ENDBRANCH   7   8
ENDBRANCH   1   7
TORSDOF 3
ENDMDL
