MODEL 1
REMARK minimizedAffinity 6.92101288
REMARK minimizedRMSD -1
REMARK  3 active torsions:
REMARK  status: ('A' for Active; 'I' for Inactive)
REMARK    1  A    between atoms: C3'_2  and  C2'_3 
REMARK    2  A    between atoms: C2'_3  and  C1'_4 
REMARK    3  A    between atoms: C1'_4  and  C1_5 
ROOT
ATOM      1  C1  N4B d   1      -2.473  -1.505  -5.982  0.00  0.00    -0.075 A 
ATOM      2  C2  N4B d   1      -2.230  -2.896  -5.990  0.00  0.00     0.002 A 
ATOM      3  C3  N4B d   1      -3.283  -3.777  -6.000  0.00  0.00     0.002 A 
ATOM      4  C4  N4B d   1      -4.583  -3.293  -5.981  0.00  0.00    -0.004 A 
ATOM      5  C5  N4B d   1      -4.809  -1.948  -5.999  0.00  0.00     0.002 A 
ATOM      6  C6  N4B d   1      -3.760  -1.051  -5.994  0.00  0.00     0.002 A 
ENDROOT
BRANCH   1   7
ATOM      7  C1' N4B d   1      -1.354  -0.504  -5.885  0.00  0.00     0.057 C 
BRANCH   7   8
ATOM      8  C2' N4B d   1      -0.288  -1.035  -4.931  0.00  0.00     0.009 C 
BRANCH   8   9
ATOM      9  C3' N4B d   1       0.725   0.034  -4.559  0.00  0.00     0.004 C 
ATOM     10  C4' N4B d   1       1.513  -0.315  -3.332  0.00  0.00     0.003 C 
ENDBRANCH   8   9
ENDBRANCH   7   8
ENDBRANCH   1   7
TORSDOF 3
ENDMDL
