MODEL 1
REMARK minimizedAffinity 3.70474505
REMARK minimizedRMSD -1
REMARK  3 active torsions:
REMARK  status: ('A' for Active; 'I' for Inactive)
REMARK    1  A    between atoms: C3'_2  and  C2'_3 
REMARK    2  A    between atoms: C2'_3  and  C1'_4 
REMARK    3  A    between atoms: C1'_4  and  C1_5 
ROOT
ATOM      1  C1  N4B d   1      -3.950  -1.535  -5.987  0.00  0.00    -0.075 A 
ATOM      2  C2  N4B d   1      -3.227  -0.322  -5.989  0.00  0.00     0.002 A 
ATOM      3  C3  N4B d   1      -1.854  -0.340  -5.981  0.00  0.00     0.002 A 
ATOM      4  C4  N4B d   1      -1.185  -1.555  -5.953  0.00  0.00    -0.004 A 
ATOM      5  C5  N4B d   1      -1.890  -2.722  -5.977  0.00  0.00     0.002 A 
ATOM      6  C6  N4B d   1      -3.270  -2.719  -5.988  0.00  0.00     0.002 A 
ENDROOT
BRANCH   1   7
ATOM      7  C1' N4B d   1      -5.452  -1.565  -5.908  0.00  0.00     0.057 C 
BRANCH   7   8
ATOM      8  C2' N4B d   1      -5.892  -2.862  -5.236  0.00  0.00     0.009 C 
BRANCH   8   9
ATOM      9  C3' N4B d   1      -5.978  -2.719  -3.726  0.00  0.00     0.004 C 
ATOM     10  C4' N4B d   1      -5.918  -4.037  -3.013  0.00  0.00     0.003 C 
ENDBRANCH   8   9
ENDBRANCH   7   8
ENDBRANCH   1   7
TORSDOF 3
ENDMDL
