MODEL 1
REMARK minimizedAffinity 2.78645587
REMARK minimizedRMSD -1
REMARK  3 active torsions:
REMARK  status: ('A' for Active; 'I' for Inactive)
REMARK    1  A    between atoms: C3'_2  and  C2'_3 
REMARK    2  A    between atoms: C2'_3  and  C1'_4 
REMARK    3  A    between atoms: C1'_4  and  C1_5 
ROOT
ATOM      1  C1  N4B d   1      -2.706  -2.402  -5.934  0.00  0.00    -0.075 A 
ATOM      2  C2  N4B d   1      -3.702  -1.401  -5.909  0.00  0.00     0.002 A 
ATOM      3  C3  N4B d   1      -5.029  -1.751  -5.929  0.00  0.00     0.002 A 
ATOM      4  C4  N4B d   1      -5.384  -3.091  -5.994  0.00  0.00    -0.004 A 
ATOM      5  C5  N4B d   1      -4.417  -4.053  -5.992  0.00  0.00     0.002 A 
ATOM      6  C6  N4B d   1      -3.079  -3.715  -5.968  0.00  0.00     0.002 A 
ENDROOT
BRANCH   1   7
ATOM      7  C1' N4B d   1      -1.242  -2.065  -5.999  0.00  0.00     0.057 C 
BRANCH   7   8
ATOM      8  C2' N4B d   1      -0.910  -1.059  -4.901  0.00  0.00     0.009 C 
BRANCH   8   9
ATOM      9  C3' N4B d   1       0.571  -0.722  -4.868  0.00  0.00     0.004 C 
ATOM     10  C4' N4B d   1       1.081  -0.484  -3.478  0.00  0.00     0.003 C 
ENDBRANCH   8   9
ENDBRANCH   7   8
ENDBRANCH   1   7
TORSDOF 3
ENDMDL
