MODEL 1
REMARK minimizedAffinity 7.15779686
REMARK minimizedRMSD -1
REMARK  3 active torsions:
REMARK  status: ('A' for Active; 'I' for Inactive)
REMARK    1  A    between atoms: C3'_2  and  C2'_3 
REMARK    2  A    between atoms: C2'_3  and  C1'_4 
REMARK    3  A    between atoms: C1'_4  and  C1_5 
ROOT
ATOM      1  C1  N4B d   1       3.201   1.974  -4.087  0.00  0.00    -0.075 A 
ATOM      2  C2  N4B d   1       3.002   2.258  -2.718  0.00  0.00     0.002 A 
ATOM      3  C3  N4B d   1       2.567   1.271  -1.868  0.00  0.00     0.002 A 
ATOM      4  C4  N4B d   1       2.307   0.003  -2.366  0.00  0.00    -0.004 A 
ATOM      5  C5  N4B d   1       2.525  -0.270  -3.684  0.00  0.00     0.002 A 
ATOM      6  C6  N4B d   1       2.966   0.711  -4.549  0.00  0.00     0.002 A 
ENDROOT
BRANCH   1   7
ATOM      7  C1' N4B d   1       3.593   3.042  -5.071  0.00  0.00     0.057 C 
BRANCH   7   8
ATOM      8  C2' N4B d   1       4.673   2.495  -6.000  0.00  0.00     0.009 C 
BRANCH   8   9
ATOM      9  C3' N4B d   1       5.995   3.221  -5.823  0.00  0.00     0.004 C 
ATOM     10  C4' N4B d   1       5.986   4.171  -4.663  0.00  0.00     0.003 C 
ENDBRANCH   8   9
ENDBRANCH   7   8
ENDBRANCH   1   7
TORSDOF 3
ENDMDL
