MODEL 1
REMARK minimizedAffinity 4.92379189
REMARK minimizedRMSD -1
REMARK  3 active torsions:
REMARK  status: ('A' for Active; 'I' for Inactive)
REMARK    1  A    between atoms: C3'_2  and  C2'_3 
REMARK    2  A    between atoms: C2'_3  and  C1'_4 
REMARK    3  A    between atoms: C1'_4  and  C1_5 
ROOT
ATOM      1  C1  N4B d   1      -4.976   1.785   4.858  0.00  0.00    -0.075 A 
ATOM      2  C2  N4B d   1      -4.877   0.960   6.000  0.00  0.00     0.002 A 
ATOM      3  C3  N4B d   1      -4.226  -0.246   5.921  0.00  0.00     0.002 A 
ATOM      4  C4  N4B d   1      -3.684  -0.655   4.712  0.00  0.00    -0.004 A 
ATOM      5  C5  N4B d   1      -3.761   0.159   3.620  0.00  0.00     0.002 A 
ATOM      6  C6  N4B d   1      -4.409   1.376   3.685  0.00  0.00     0.002 A 
ENDROOT
BRANCH   1   7
ATOM      7  C1' N4B d   1      -5.752   3.073   4.873  0.00  0.00     0.057 C 
BRANCH   7   8
ATOM      8  C2' N4B d   1      -5.229   3.960   5.999  0.00  0.00     0.009 C 
BRANCH   8   9
ATOM      9  C3' N4B d   1      -5.377   5.437   5.675  0.00  0.00     0.004 C 
ATOM     10  C4' N4B d   1      -4.179   6.000   4.971  0.00  0.00     0.003 C 
ENDBRANCH   8   9
ENDBRANCH   7   8
ENDBRANCH   1   7
TORSDOF 3
ENDMDL
