MODEL 1
REMARK minimizedAffinity 3.92910743
REMARK minimizedRMSD -1
REMARK  3 active torsions:
REMARK  status: ('A' for Active; 'I' for Inactive)
REMARK    1  A    between atoms: C3'_2  and  C2'_3 
REMARK    2  A    between atoms: C2'_3  and  C1'_4 
REMARK    3  A    between atoms: C1'_4  and  C1_5 
ROOT
ATOM      1  C1  N4B d   1      -4.913  -0.986   0.847  0.00  0.00    -0.075 A 
ATOM      2  C2  N4B d   1      -5.890  -0.115   1.377  0.00  0.00     0.002 A 
ATOM      3  C3  N4B d   1      -5.530   1.137   1.812  0.00  0.00     0.002 A 
ATOM      4  C4  N4B d   1      -4.202   1.530   1.745  0.00  0.00    -0.004 A 
ATOM      5  C5  N4B d   1      -3.269   0.692   1.209  0.00  0.00     0.002 A 
ATOM      6  C6  N4B d   1      -3.617  -0.567   0.763  0.00  0.00     0.002 A 
ENDROOT
BRANCH   1   7
ATOM      7  C1' N4B d   1      -5.244  -2.395   0.437  0.00  0.00     0.057 C 
BRANCH   7   8
ATOM      8  C2' N4B d   1      -5.895  -2.376  -0.943  0.00  0.00     0.009 C 
BRANCH   8   9
ATOM      9  C3' N4B d   1      -5.269  -3.394  -1.880  0.00  0.00     0.004 C 
ATOM     10  C4' N4B d   1      -5.999  -3.507  -3.186  0.00  0.00     0.003 C 
ENDBRANCH   8   9
ENDBRANCH   7   8
ENDBRANCH   1   7
TORSDOF 3
ENDMDL
