MODEL 1
REMARK minimizedAffinity 8.67635155
REMARK minimizedRMSD -1
REMARK  3 active torsions:
REMARK  status: ('A' for Active; 'I' for Inactive)
REMARK    1  A    between atoms: C3'_2  and  C2'_3 
REMARK    2  A    between atoms: C2'_3  and  C1'_4 
REMARK    3  A    between atoms: C1'_4  and  C1_5 
ROOT
ATOM      1  C1  N4B d   1      -3.965   0.381   3.350  0.00  0.00    -0.075 A 
ATOM      2  C2  N4B d   1      -4.540   1.302   2.447  0.00  0.00     0.002 A 
ATOM      3  C3  N4B d   1      -3.773   1.860   1.453  0.00  0.00     0.002 A 
ATOM      4  C4  N4B d   1      -2.430   1.528   1.356  0.00  0.00    -0.004 A 
ATOM      5  C5  N4B d   1      -1.888   0.619   2.216  0.00  0.00     0.002 A 
ATOM      6  C6  N4B d   1      -2.648   0.047   3.216  0.00  0.00     0.002 A 
ENDROOT
BRANCH   1   7
ATOM      7  C1' N4B d   1      -4.742  -0.189   4.504  0.00  0.00     0.057 C 
BRANCH   7   8
ATOM      8  C2' N4B d   1      -3.822  -0.310   5.716  0.00  0.00     0.009 C 
BRANCH   8   9
ATOM      9  C3' N4B d   1      -3.426  -1.752   5.987  0.00  0.00     0.004 C 
ATOM     10  C4' N4B d   1      -4.600  -2.685   5.996  0.00  0.00     0.003 C 
ENDBRANCH   8   9
ENDBRANCH   7   8
ENDBRANCH   1   7
TORSDOF 3
ENDMDL
