MODEL 1
REMARK minimizedAffinity 14.4398918
REMARK minimizedRMSD -1
REMARK  3 active torsions:
REMARK  status: ('A' for Active; 'I' for Inactive)
REMARK    1  A    between atoms: C3'_2  and  C2'_3 
REMARK    2  A    between atoms: C2'_3  and  C1'_4 
REMARK    3  A    between atoms: C1'_4  and  C1_5 
ROOT
ATOM      1  C1  N4B d   1      -4.397   0.903   2.685  0.00  0.00    -0.075 A 
ATOM      2  C2  N4B d   1      -3.121   0.366   2.401  0.00  0.00     0.002 A 
ATOM      3  C3  N4B d   1      -2.779   0.055   1.108  0.00  0.00     0.002 A 
ATOM      4  C4  N4B d   1      -3.698   0.253   0.089  0.00  0.00    -0.004 A 
ATOM      5  C5  N4B d   1      -4.919   0.796   0.368  0.00  0.00     0.002 A 
ATOM      6  C6  N4B d   1      -5.275   1.117   1.662  0.00  0.00     0.002 A 
ENDROOT
BRANCH   1   7
ATOM      7  C1' N4B d   1      -4.847   1.178   4.093  0.00  0.00     0.057 C 
BRANCH   7   8
ATOM      8  C2' N4B d   1      -5.151  -0.145   4.789  0.00  0.00     0.009 C 
BRANCH   8   9
ATOM      9  C3' N4B d   1      -4.255  -0.373   5.994  0.00  0.00     0.004 C 
ATOM     10  C4' N4B d   1      -3.618  -1.731   5.996  0.00  0.00     0.003 C 
ENDBRANCH   8   9
ENDBRANCH   7   8
ENDBRANCH   1   7
TORSDOF 3
ENDMDL
