MODEL 1
REMARK minimizedAffinity 2.49324536
REMARK minimizedRMSD -1
REMARK  3 active torsions:
REMARK  status: ('A' for Active; 'I' for Inactive)
REMARK    1  A    between atoms: C3'_2  and  C2'_3 
REMARK    2  A    between atoms: C2'_3  and  C1'_4 
REMARK    3  A    between atoms: C1'_4  and  C1_5 
ROOT
ATOM      1  C1  N4B d   1      -5.411   1.963   4.034  0.00  0.00    -0.075 A 
ATOM      2  C2  N4B d   1      -4.514   1.601   3.006  0.00  0.00     0.002 A 
ATOM      3  C3  N4B d   1      -3.976   0.337   2.977  0.00  0.00     0.002 A 
ATOM      4  C4  N4B d   1      -4.305  -0.571   3.972  0.00  0.00    -0.004 A 
ATOM      5  C5  N4B d   1      -5.192  -0.222   4.947  0.00  0.00     0.002 A 
ATOM      6  C6  N4B d   1      -5.743   1.043   4.987  0.00  0.00     0.002 A 
ENDROOT
BRANCH   1   7
ATOM      7  C1' N4B d   1      -5.958   3.359   4.156  0.00  0.00     0.057 C 
BRANCH   7   8
ATOM      8  C2' N4B d   1      -5.413   4.001   5.429  0.00  0.00     0.009 C 
BRANCH   8   9
ATOM      9  C3' N4B d   1      -5.342   5.514   5.317  0.00  0.00     0.004 C 
ATOM     10  C4' N4B d   1      -4.600   5.972   4.096  0.00  0.00     0.003 C 
ENDBRANCH   8   9
ENDBRANCH   7   8
ENDBRANCH   1   7
TORSDOF 3
ENDMDL
