MODEL 1
REMARK minimizedAffinity 3.33433199
REMARK minimizedRMSD -1
REMARK  3 active torsions:
REMARK  status: ('A' for Active; 'I' for Inactive)
REMARK    1  A    between atoms: C3'_2  and  C2'_3 
REMARK    2  A    between atoms: C2'_3  and  C1'_4 
REMARK    3  A    between atoms: C1'_4  and  C1_5 
ROOT
ATOM      1  C1  N4B d   1      -1.878  -1.436  -5.706  0.00  0.00    -0.075 A 
ATOM      2  C2  N4B d   1      -3.024  -0.612  -5.647  0.00  0.00     0.002 A 
ATOM      3  C3  N4B d   1      -4.275  -1.166  -5.768  0.00  0.00     0.002 A 
ATOM      4  C4  N4B d   1      -4.403  -2.533  -5.967  0.00  0.00    -0.004 A 
ATOM      5  C5  N4B d   1      -3.293  -3.325  -5.997  0.00  0.00     0.002 A 
ATOM      6  C6  N4B d   1      -2.030  -2.782  -5.873  0.00  0.00     0.002 A 
ENDROOT
BRANCH   1   7
ATOM      7  C1' N4B d   1      -0.487  -0.865  -5.665  0.00  0.00     0.057 C 
BRANCH   7   8
ATOM      8  C2' N4B d   1       0.080  -1.029  -4.259  0.00  0.00     0.009 C 
BRANCH   8   9
ATOM      9  C3' N4B d   1       1.250  -0.093  -4.005  0.00  0.00     0.004 C 
ATOM     10  C4' N4B d   1       1.271   0.442  -2.604  0.00  0.00     0.003 C 
ENDBRANCH   8   9
ENDBRANCH   7   8
ENDBRANCH   1   7
TORSDOF 3
ENDMDL
