MODEL 1
REMARK minimizedAffinity 7.43914652
REMARK minimizedRMSD -1
REMARK  3 active torsions:
REMARK  status: ('A' for Active; 'I' for Inactive)
REMARK    1  A    between atoms: C3'_2  and  C2'_3 
REMARK    2  A    between atoms: C2'_3  and  C1'_4 
REMARK    3  A    between atoms: C1'_4  and  C1_5 
ROOT
ATOM      1  C1  N4B d   1      -2.377   0.733   1.690  0.00  0.00    -0.075 A 
ATOM      2  C2  N4B d   1      -2.270  -0.556   2.258  0.00  0.00     0.002 A 
ATOM      3  C3  N4B d   1      -1.076  -0.974   2.791  0.00  0.00     0.002 A 
ATOM      4  C4  N4B d   1       0.025  -0.132   2.752  0.00  0.00    -0.004 A 
ATOM      5  C5  N4B d   1      -0.093   1.121   2.225  0.00  0.00     0.002 A 
ATOM      6  C6  N4B d   1      -1.289   1.556   1.689  0.00  0.00     0.002 A 
ENDROOT
BRANCH   1   7
ATOM      7  C1' N4B d   1      -3.638   1.202   1.018  0.00  0.00     0.057 C 
BRANCH   7   8
ATOM      8  C2' N4B d   1      -3.960   0.272  -0.148  0.00  0.00     0.009 C 
BRANCH   8   9
ATOM      9  C3' N4B d   1      -4.463  -1.081   0.326  0.00  0.00     0.004 C 
ATOM     10  C4' N4B d   1      -5.867  -1.366  -0.116  0.00  0.00     0.003 C 
ENDBRANCH   8   9
ENDBRANCH   7   8
ENDBRANCH   1   7
TORSDOF 3
ENDMDL
