MODEL 1
REMARK minimizedAffinity 8.2838459
REMARK minimizedRMSD -1
REMARK  3 active torsions:
REMARK  status: ('A' for Active; 'I' for Inactive)
REMARK    1  A    between atoms: C3'_2  and  C2'_3 
REMARK    2  A    between atoms: C2'_3  and  C1'_4 
REMARK    3  A    between atoms: C1'_4  and  C1_5 
ROOT
ATOM      1  C1  N4B d   1       3.607  -5.289   2.529  0.00  0.00    -0.075 A 
ATOM      2  C2  N4B d   1       3.765  -3.908   2.277  0.00  0.00     0.002 A 
ATOM      3  C3  N4B d   1       4.959  -3.292   2.557  0.00  0.00     0.002 A 
ATOM      4  C4  N4B d   1       6.000  -4.028   3.104  0.00  0.00    -0.004 A 
ATOM      5  C5  N4B d   1       5.847  -5.366   3.321  0.00  0.00     0.002 A 
ATOM      6  C6  N4B d   1       4.653  -6.000   3.041  0.00  0.00     0.002 A 
ENDROOT
BRANCH   1   7
ATOM      7  C1' N4B d   1       2.292  -5.989   2.320  0.00  0.00     0.057 C 
BRANCH   7   8
ATOM      8  C2' N4B d   1       1.154  -5.003   2.569  0.00  0.00     0.009 C 
BRANCH   8   9
ATOM      9  C3' N4B d   1       0.087  -5.081   1.491  0.00  0.00     0.004 C 
ATOM     10  C4' N4B d   1      -0.089  -3.788   0.753  0.00  0.00     0.003 C 
ENDBRANCH   8   9
ENDBRANCH   7   8
ENDBRANCH   1   7
TORSDOF 3
ENDMDL
