MODEL 1
REMARK minimizedAffinity 2.04841995
REMARK minimizedRMSD -1
REMARK  1 active torsions:
REMARK  status: ('A' for Active; 'I' for Inactive)
REMARK    1  A    between atoms: C1_2  and  C2_3 
ROOT
ATOM      1  C2  UNL d   1      -1.850  -1.254  -1.181  0.00  0.00    -0.076 A 
ATOM      2  C3  UNL d   1      -2.461  -1.416  -2.437  0.00  0.00     0.004 A 
ATOM      3  C4  UNL d   1      -3.347  -0.461  -2.932  0.00  0.00    -0.003 A 
ATOM      4  C5  UNL d   1      -3.637   0.673  -2.180  0.00  0.00     0.000 A 
ATOM      5  C6  UNL d   1      -3.026   0.858  -0.940  0.00  0.00     0.000 A 
ATOM      6  C7  UNL d   1      -2.118  -0.087  -0.433  0.00  0.00    -0.073 A 
ATOM      7  C8  UNL d   1      -1.494   0.160   0.913  0.00  0.00     0.078 C 
ENDROOT
BRANCH   1   8
ATOM      8  C1  UNL d   1      -0.919  -2.336  -0.684  0.00  0.00     0.053 C 
ATOM      9  C   UNL d   1       0.546  -1.987  -0.896  0.00  0.00     0.018 C 
ENDBRANCH   1   8
TORSDOF 1
ENDMDL
