MODEL 1
REMARK minimizedAffinity 2.64297175
REMARK minimizedRMSD -1
REMARK  1 active torsions:
REMARK  status: ('A' for Active; 'I' for Inactive)
REMARK    1  A    between atoms: C1_2  and  C2_3 
ROOT
ATOM      1  C2  UNL d   1       3.647  -0.866   3.772  0.00  0.00    -0.076 A 
ATOM      2  C3  UNL d   1       2.695  -1.062   4.787  0.00  0.00     0.004 A 
ATOM      3  C4  UNL d   1       2.978  -1.864   5.891  0.00  0.00    -0.003 A 
ATOM      4  C5  UNL d   1       4.220  -2.482   5.999  0.00  0.00     0.000 A 
ATOM      5  C6  UNL d   1       5.183  -2.283   5.010  0.00  0.00     0.000 A 
ATOM      6  C7  UNL d   1       4.919  -1.465   3.898  0.00  0.00    -0.073 A 
ATOM      7  C8  UNL d   1       5.992  -1.291   2.859  0.00  0.00     0.078 C 
ENDROOT
BRANCH   1   8
ATOM      8  C1  UNL d   1       3.274  -0.008   2.584  0.00  0.00     0.053 C 
ATOM      9  C   UNL d   1       3.050   1.448   2.964  0.00  0.00     0.018 C 
ENDBRANCH   1   8
TORSDOF 1
ENDMDL
