MODEL 1
REMARK minimizedAffinity 19.8743248
REMARK minimizedRMSD -1
REMARK  1 active torsions:
REMARK  status: ('A' for Active; 'I' for Inactive)
REMARK    1  A    between atoms: C1_2  and  C2_3 
ROOT
ATOM      1  C2  UNL d   1      -5.546   1.477  -3.639  0.00  0.00    -0.076 A 
ATOM      2  C3  UNL d   1      -5.774   2.631  -2.870  0.00  0.00     0.004 A 
ATOM      3  C4  UNL d   1      -5.999   2.545  -1.497  0.00  0.00    -0.003 A 
ATOM      4  C5  UNL d   1      -5.999   1.304  -0.871  0.00  0.00     0.000 A 
ATOM      5  C6  UNL d   1      -5.756   0.150  -1.615  0.00  0.00     0.000 A 
ATOM      6  C7  UNL d   1      -5.512   0.220  -2.997  0.00  0.00    -0.073 A 
ATOM      7  C8  UNL d   1      -5.262  -1.057  -3.752  0.00  0.00     0.078 C 
ENDROOT
BRANCH   1   8
ATOM      8  C1  UNL d   1      -5.335   1.629  -5.128  0.00  0.00     0.053 C 
ATOM      9  C   UNL d   1      -5.043   3.066  -5.532  0.00  0.00     0.018 C 
ENDBRANCH   1   8
TORSDOF 1
ENDMDL
