MODEL 1
REMARK minimizedAffinity 5.1377244
REMARK minimizedRMSD -1
REMARK  1 active torsions:
REMARK  status: ('A' for Active; 'I' for Inactive)
REMARK    1  A    between atoms: C1_2  and  C2_3 
ROOT
ATOM      1  C2  UNL d   1       3.062   1.499   2.772  0.00  0.00    -0.076 A 
ATOM      2  C3  UNL d   1       3.121   0.492   3.752  0.00  0.00     0.004 A 
ATOM      3  C4  UNL d   1       2.404  -0.694   3.606  0.00  0.00    -0.003 A 
ATOM      4  C5  UNL d   1       1.615  -0.893   2.479  0.00  0.00     0.000 A 
ATOM      5  C6  UNL d   1       1.558   0.088   1.489  0.00  0.00     0.000 A 
ATOM      6  C7  UNL d   1       2.288   1.282   1.612  0.00  0.00    -0.073 A 
ATOM      7  C8  UNL d   1       2.185   2.308   0.517  0.00  0.00     0.078 C 
ENDROOT
BRANCH   1   8
ATOM      8  C1  UNL d   1       3.840   2.775   2.997  0.00  0.00     0.053 C 
ATOM      9  C   UNL d   1       3.228   3.647   4.082  0.00  0.00     0.018 C 
ENDBRANCH   1   8
TORSDOF 1
ENDMDL
