MODEL 1
REMARK minimizedAffinity 4.87992239
REMARK minimizedRMSD -1
REMARK  1 active torsions:
REMARK  status: ('A' for Active; 'I' for Inactive)
REMARK    1  A    between atoms: C1_2  and  C2_3 
ROOT
ATOM      1  C2  UNL d   1       2.803  -2.853   3.722  0.00  0.00    -0.076 A 
ATOM      2  C3  UNL d   1       1.516  -2.397   3.390  0.00  0.00     0.004 A 
ATOM      3  C4  UNL d   1       1.286  -1.056   3.085  0.00  0.00    -0.003 A 
ATOM      4  C5  UNL d   1       2.341  -0.150   3.107  0.00  0.00     0.000 A 
ATOM      5  C6  UNL d   1       3.628  -0.589   3.417  0.00  0.00     0.000 A 
ATOM      6  C7  UNL d   1       3.879  -1.940   3.711  0.00  0.00    -0.073 A 
ATOM      7  C8  UNL d   1       5.285  -2.357   4.044  0.00  0.00     0.078 C 
ENDROOT
BRANCH   1   8
ATOM      8  C1  UNL d   1       2.986  -4.313   4.070  0.00  0.00     0.053 C 
ATOM      9  C   UNL d   1       2.628  -4.617   5.517  0.00  0.00     0.018 C 
ENDBRANCH   1   8
TORSDOF 1
ENDMDL
