MODEL 1
REMARK minimizedAffinity 1.03880548
REMARK minimizedRMSD -1
REMARK  1 active torsions:
REMARK  status: ('A' for Active; 'I' for Inactive)
REMARK    1  A    between atoms: C1_2  and  C2_3 
ROOT
ATOM      1  C2  UNL d   1       1.781  -3.695   4.045  0.00  0.00    -0.076 A 
ATOM      2  C3  UNL d   1       1.524  -2.390   4.501  0.00  0.00     0.004 A 
ATOM      3  C4  UNL d   1       1.893  -1.280   3.743  0.00  0.00    -0.003 A 
ATOM      4  C5  UNL d   1       2.524  -1.457   2.517  0.00  0.00     0.000 A 
ATOM      5  C6  UNL d   1       2.771  -2.744   2.041  0.00  0.00     0.000 A 
ATOM      6  C7  UNL d   1       2.390  -3.874   2.785  0.00  0.00    -0.073 A 
ATOM      7  C8  UNL d   1       2.686  -5.239   2.227  0.00  0.00     0.078 C 
ENDROOT
BRANCH   1   8
ATOM      8  C1  UNL d   1       1.382  -4.860   4.923  0.00  0.00     0.053 C 
ATOM      9  C   UNL d   1       0.018  -4.665   5.566  0.00  0.00     0.018 C 
ENDBRANCH   1   8
TORSDOF 1
ENDMDL
