MODEL 1
REMARK minimizedAffinity 9.31352234
REMARK minimizedRMSD -1
REMARK  1 active torsions:
REMARK  status: ('A' for Active; 'I' for Inactive)
REMARK    1  A    between atoms: C1_2  and  C2_3 
ROOT
ATOM      1  C2  UNL d   1       1.303  -1.034   0.551  0.00  0.00    -0.076 A 
ATOM      2  C3  UNL d   1       0.098  -0.536   1.077  0.00  0.00     0.004 A 
ATOM      3  C4  UNL d   1      -1.075  -0.556   0.324  0.00  0.00    -0.003 A 
ATOM      4  C5  UNL d   1      -1.062  -1.074  -0.966  0.00  0.00     0.000 A 
ATOM      5  C6  UNL d   1       0.120  -1.588  -1.497  0.00  0.00     0.000 A 
ATOM      6  C7  UNL d   1       1.308  -1.590  -0.745  0.00  0.00    -0.073 A 
ATOM      7  C8  UNL d   1       2.556  -2.152  -1.370  0.00  0.00     0.078 C 
ENDROOT
BRANCH   1   8
ATOM      8  C1  UNL d   1       2.549  -0.961   1.404  0.00  0.00     0.053 C 
ATOM      9  C   UNL d   1       2.399  -1.707   2.721  0.00  0.00     0.018 C 
ENDBRANCH   1   8
TORSDOF 1
ENDMDL
