MODEL 1
REMARK minimizedAffinity 0.148475856
REMARK minimizedRMSD -1
REMARK  3 active torsions:
REMARK  status: ('A' for Active; 'I' for Inactive)
REMARK    1  A    between atoms: C3'_2  and  C2'_3 
REMARK    2  A    between atoms: C2'_3  and  C1'_4 
REMARK    3  A    between atoms: C1'_4  and  C1_5 
ROOT
ATOM      1  C1  N4B d   1       0.400  -0.881   0.847  0.00  0.00    -0.075 A 
ATOM      2  C2  N4B d   1      -0.928  -0.420   0.716  0.00  0.00     0.002 A 
ATOM      3  C3  N4B d   1      -1.646  -0.069   1.833  0.00  0.00     0.002 A 
ATOM      4  C4  N4B d   1      -1.066  -0.188   3.087  0.00  0.00    -0.004 A 
ATOM      5  C5  N4B d   1       0.226  -0.610   3.202  0.00  0.00     0.002 A 
ATOM      6  C6  N4B d   1       0.961  -0.962   2.088  0.00  0.00     0.002 A 
ENDROOT
BRANCH   1   7
ATOM      7  C1' N4B d   1       1.195  -1.357  -0.338  0.00  0.00     0.057 C 
BRANCH   7   8
ATOM      8  C2' N4B d   1       2.337  -2.245   0.150  0.00  0.00     0.009 C 
BRANCH   8   9
ATOM      9  C3' N4B d   1       1.831  -3.558   0.722  0.00  0.00     0.004 C 
ATOM     10  C4' N4B d   1       2.845  -4.240   1.592  0.00  0.00     0.003 C 
ENDBRANCH   8   9
ENDBRANCH   7   8
ENDBRANCH   1   7
TORSDOF 3
ENDMDL
