MODEL 1
REMARK minimizedAffinity -2.18459249
REMARK minimizedRMSD -1
REMARK  3 active torsions:
REMARK  status: ('A' for Active; 'I' for Inactive)
REMARK    1  A    between atoms: C3'_2  and  C2'_3 
REMARK    2  A    between atoms: C2'_3  and  C1'_4 
REMARK    3  A    between atoms: C1'_4  and  C1_5 
ROOT
ATOM      1  C1  N4B d   1       2.672  -2.192   1.981  0.00  0.00    -0.075 A 
ATOM      2  C2  N4B d   1       1.791  -2.927   1.157  0.00  0.00     0.002 A 
ATOM      3  C3  N4B d   1       0.440  -2.686   1.210  0.00  0.00     0.002 A 
ATOM      4  C4  N4B d   1      -0.053  -1.733   2.089  0.00  0.00    -0.004 A 
ATOM      5  C5  N4B d   1       0.807  -1.010   2.863  0.00  0.00     0.002 A 
ATOM      6  C6  N4B d   1       2.167  -1.238   2.817  0.00  0.00     0.002 A 
ENDROOT
BRANCH   1   7
ATOM      7  C1' N4B d   1       4.148  -2.480   2.021  0.00  0.00     0.057 C 
BRANCH   7   8
ATOM      8  C2' N4B d   1       4.379  -3.816   2.720  0.00  0.00     0.009 C 
BRANCH   8   9
ATOM      9  C3' N4B d   1       4.079  -3.739   4.207  0.00  0.00     0.004 C 
ATOM     10  C4' N4B d   1       4.656  -2.515   4.853  0.00  0.00     0.003 C 
ENDBRANCH   8   9
ENDBRANCH   7   8
ENDBRANCH   1   7
TORSDOF 3
ENDMDL
