MODEL 1
REMARK minimizedAffinity 7.1128521
REMARK minimizedRMSD -1
REMARK  3 active torsions:
REMARK  status: ('A' for Active; 'I' for Inactive)
REMARK    1  A    between atoms: C3'_2  and  C2'_3 
REMARK    2  A    between atoms: C2'_3  and  C1'_4 
REMARK    3  A    between atoms: C1'_4  and  C1_5 
ROOT
ATOM      1  C1  N4B d   1       3.607   0.238  -0.050  0.00  0.00    -0.075 A 
ATOM      2  C2  N4B d   1       3.755   1.639   0.045  0.00  0.00     0.002 A 
ATOM      3  C3  N4B d   1       4.950   2.176   0.459  0.00  0.00     0.002 A 
ATOM      4  C4  N4B d   1       5.999   1.336   0.798  0.00  0.00    -0.004 A 
ATOM      5  C5  N4B d   1       5.856  -0.016   0.679  0.00  0.00     0.002 A 
ATOM      6  C6  N4B d   1       4.662  -0.569   0.261  0.00  0.00     0.002 A 
ENDROOT
BRANCH   1   7
ATOM      7  C1' N4B d   1       2.294  -0.398  -0.415  0.00  0.00     0.057 C 
BRANCH   7   8
ATOM      8  C2' N4B d   1       1.176   0.267   0.382  0.00  0.00     0.009 C 
BRANCH   8   9
ATOM      9  C3' N4B d   1      -0.176  -0.366   0.103  0.00  0.00     0.004 C 
ATOM     10  C4' N4B d   1      -1.285   0.260   0.894  0.00  0.00     0.003 C 
ENDBRANCH   8   9
ENDBRANCH   7   8
ENDBRANCH   1   7
TORSDOF 3
ENDMDL
