MODEL 1
REMARK minimizedAffinity 7.18675995
REMARK minimizedRMSD -1
REMARK  0 active torsions:
REMARK  status: ('A' for Active; 'I' for Inactive)
ROOT
ATOM      1  C   UNL d   1       5.514   3.826   2.229  0.00  0.00     0.077 C 
ATOM      2  C1  UNL d   1       4.754   2.943   3.174  0.00  0.00    -0.074 A 
ATOM      3  C2  UNL d   1       5.238   2.683   4.460  0.00  0.00    -0.005 A 
ATOM      4  C3  UNL d   1       4.515   1.868   5.332  0.00  0.00     0.006 A 
ATOM      5  C4  UNL d   1       3.304   1.306   4.926  0.00  0.00    -0.005 A 
ATOM      6  C5  UNL d   1       2.804   1.556   3.645  0.00  0.00    -0.074 A 
ATOM      7  C6  UNL d   1       1.499   0.968   3.197  0.00  0.00     0.077 C 
ATOM      8  C7  UNL d   1       3.533   2.381   2.777  0.00  0.00    -0.001 A 
ENDROOT
TORSDOF 0
ENDMDL
