MODEL 1
REMARK minimizedAffinity -0.703686774
REMARK minimizedRMSD -1
REMARK  0 active torsions:
REMARK  status: ('A' for Active; 'I' for Inactive)
ROOT
ATOM      1  C   UNL d   1       1.745  -2.189   0.242  0.00  0.00     0.077 C 
ATOM      2  C1  UNL d   1       0.668  -1.480  -0.525  0.00  0.00    -0.074 A 
ATOM      3  C2  UNL d   1       0.305  -0.167  -0.206  0.00  0.00    -0.005 A 
ATOM      4  C3  UNL d   1      -0.691   0.483  -0.934  0.00  0.00     0.006 A 
ATOM      5  C4  UNL d   1      -1.334  -0.171  -1.985  0.00  0.00    -0.005 A 
ATOM      6  C5  UNL d   1      -0.984  -1.484  -2.319  0.00  0.00    -0.074 A 
ATOM      7  C6  UNL d   1      -1.658  -2.198  -3.452  0.00  0.00     0.077 C 
ATOM      8  C7  UNL d   1       0.023  -2.128  -1.587  0.00  0.00    -0.001 A 
ENDROOT
TORSDOF 0
ENDMDL
