MODEL 1
REMARK minimizedAffinity 0.555707991
REMARK minimizedRMSD -1
REMARK  0 active torsions:
REMARK  status: ('A' for Active; 'I' for Inactive)
ROOT
ATOM      1  C   UNL d   1      -0.703   1.252   0.004  0.00  0.00     0.077 C 
ATOM      2  C1  UNL d   1       0.357   0.237  -0.303  0.00  0.00    -0.074 A 
ATOM      3  C2  UNL d   1       0.050  -1.127  -0.367  0.00  0.00    -0.005 A 
ATOM      4  C3  UNL d   1       1.045  -2.058  -0.663  0.00  0.00     0.006 A 
ATOM      5  C4  UNL d   1       2.354  -1.637  -0.899  0.00  0.00    -0.005 A 
ATOM      6  C5  UNL d   1       2.680  -0.278  -0.841  0.00  0.00    -0.074 A 
ATOM      7  C6  UNL d   1       4.080   0.192  -1.101  0.00  0.00     0.077 C 
ATOM      8  C7  UNL d   1       1.673   0.652  -0.549  0.00  0.00    -0.001 A 
ENDROOT
TORSDOF 0
ENDMDL
