MODEL 1
REMARK minimizedAffinity 0.166516185
REMARK minimizedRMSD -1
REMARK  0 active torsions:
REMARK  status: ('A' for Active; 'I' for Inactive)
ROOT
ATOM      1  C   UNL d   1       0.003   0.104  -0.497  0.00  0.00     0.077 C 
ATOM      2  C1  UNL d   1       1.351  -0.510  -0.729  0.00  0.00    -0.074 A 
ATOM      3  C2  UNL d   1       1.514  -1.899  -0.753  0.00  0.00    -0.005 A 
ATOM      4  C3  UNL d   1       2.772  -2.456  -0.979  0.00  0.00     0.006 A 
ATOM      5  C4  UNL d   1       3.879  -1.631  -1.183  0.00  0.00    -0.005 A 
ATOM      6  C5  UNL d   1       3.736  -0.240  -1.164  0.00  0.00    -0.074 A 
ATOM      7  C6  UNL d   1       4.913   0.660  -1.391  0.00  0.00     0.077 C 
ATOM      8  C7  UNL d   1       2.466   0.312  -0.943  0.00  0.00    -0.001 A 
ENDROOT
TORSDOF 0
ENDMDL
