MODEL 1
REMARK minimizedAffinity -1.68330514
REMARK minimizedRMSD -1
REMARK  0 active torsions:
REMARK  status: ('A' for Active; 'I' for Inactive)
ROOT
ATOM      1  C   UNL d   1       3.469  -3.527  -2.906  0.00  0.00     0.077 C 
ATOM      2  C1  UNL d   1       3.251  -2.217  -2.208  0.00  0.00    -0.074 A 
ATOM      3  C2  UNL d   1       4.230  -1.219  -2.230  0.00  0.00    -0.005 A 
ATOM      4  C3  UNL d   1       4.010  -0.002  -1.585  0.00  0.00     0.006 A 
ATOM      5  C4  UNL d   1       2.809   0.228  -0.912  0.00  0.00    -0.005 A 
ATOM      6  C5  UNL d   1       1.818  -0.758  -0.879  0.00  0.00    -0.074 A 
ATOM      7  C6  UNL d   1       0.518  -0.522  -0.169  0.00  0.00     0.077 C 
ATOM      8  C7  UNL d   1       2.045  -1.975  -1.536  0.00  0.00    -0.001 A 
ENDROOT
TORSDOF 0
ENDMDL
