MODEL 1
REMARK minimizedAffinity 0.861896992
REMARK minimizedRMSD -1
REMARK  0 active torsions:
REMARK  status: ('A' for Active; 'I' for Inactive)
ROOT
ATOM      1  C   UNL d   1       3.969  -2.811  -3.073  0.00  0.00     0.077 C 
ATOM      2  C1  UNL d   1       3.585  -1.547  -2.363  0.00  0.00    -0.074 A 
ATOM      3  C2  UNL d   1       4.509  -0.512  -2.189  0.00  0.00    -0.005 A 
ATOM      4  C3  UNL d   1       4.135   0.662  -1.535  0.00  0.00     0.006 A 
ATOM      5  C4  UNL d   1       2.836   0.812  -1.050  0.00  0.00    -0.005 A 
ATOM      6  C5  UNL d   1       1.898  -0.212  -1.215  0.00  0.00    -0.074 A 
ATOM      7  C6  UNL d   1       0.494  -0.062  -0.708  0.00  0.00     0.077 C 
ATOM      8  C7  UNL d   1       2.279  -1.385  -1.880  0.00  0.00    -0.001 A 
ENDROOT
TORSDOF 0
ENDMDL
