MODEL 1
REMARK minimizedAffinity -2.10643625
REMARK minimizedRMSD -1
REMARK  0 active torsions:
REMARK  status: ('A' for Active; 'I' for Inactive)
ROOT
ATOM      1  C   UNL d   1       4.187  -3.092  -3.113  0.00  0.00     0.077 C 
ATOM      2  C1  UNL d   1       3.960  -1.777  -2.429  0.00  0.00    -0.074 A 
ATOM      3  C2  UNL d   1       4.917  -0.759  -2.491  0.00  0.00    -0.005 A 
ATOM      4  C3  UNL d   1       4.687   0.462  -1.858  0.00  0.00     0.006 A 
ATOM      5  C4  UNL d   1       3.500   0.678  -1.156  0.00  0.00    -0.005 A 
ATOM      6  C5  UNL d   1       2.531  -0.328  -1.083  0.00  0.00    -0.074 A 
ATOM      7  C6  UNL d   1       1.246  -0.109  -0.342  0.00  0.00     0.077 C 
ATOM      8  C7  UNL d   1       2.766  -1.550  -1.729  0.00  0.00    -0.001 A 
ENDROOT
TORSDOF 0
ENDMDL
