MODEL 1
REMARK minimizedAffinity 1.02966416
REMARK minimizedRMSD -1
REMARK  0 active torsions:
REMARK  status: ('A' for Active; 'I' for Inactive)
ROOT
ATOM      1  C   UNL d   1       1.773  -1.680  -0.864  0.00  0.00     0.077 C 
ATOM      2  C1  UNL d   1       3.054  -1.332  -1.563  0.00  0.00    -0.074 A 
ATOM      3  C2  UNL d   1       3.483  -2.056  -2.680  0.00  0.00    -0.005 A 
ATOM      4  C3  UNL d   1       4.671  -1.714  -3.326  0.00  0.00     0.006 A 
ATOM      5  C4  UNL d   1       5.441  -0.647  -2.861  0.00  0.00    -0.005 A 
ATOM      6  C5  UNL d   1       5.028   0.089  -1.746  0.00  0.00    -0.074 A 
ATOM      7  C6  UNL d   1       5.839   1.245  -1.241  0.00  0.00     0.077 C 
ATOM      8  C7  UNL d   1       3.829  -0.256  -1.108  0.00  0.00    -0.001 A 
ENDROOT
TORSDOF 0
ENDMDL
