MODEL 1
REMARK minimizedAffinity -4.12129974
REMARK minimizedRMSD -1
REMARK  0 active torsions:
REMARK  status: ('A' for Active; 'I' for Inactive)
ROOT
ATOM      1  C   UNL d   1       0.301  -3.841  -1.497  0.00  0.00     0.077 C 
ATOM      2  C1  UNL d   1       0.814  -2.439  -1.347  0.00  0.00    -0.074 A 
ATOM      3  C2  UNL d   1      -0.064  -1.371  -1.141  0.00  0.00    -0.005 A 
ATOM      4  C3  UNL d   1       0.428  -0.074  -0.994  0.00  0.00     0.006 A 
ATOM      5  C4  UNL d   1       1.801   0.167  -1.052  0.00  0.00    -0.005 A 
ATOM      6  C5  UNL d   1       2.695  -0.889  -1.257  0.00  0.00    -0.074 A 
ATOM      7  C6  UNL d   1       4.174  -0.649  -1.312  0.00  0.00     0.077 C 
ATOM      8  C7  UNL d   1       2.193  -2.190  -1.396  0.00  0.00    -0.001 A 
ENDROOT
TORSDOF 0
ENDMDL
