MODEL 1
REMARK minimizedAffinity 4.21710443
REMARK minimizedRMSD -1
REMARK  0 active torsions:
REMARK  status: ('A' for Active; 'I' for Inactive)
ROOT
ATOM      1  C   UNL d   1       0.926  -3.500  -1.444  0.00  0.00     0.077 C 
ATOM      2  C1  UNL d   1       1.082  -2.026  -1.215  0.00  0.00    -0.074 A 
ATOM      3  C2  UNL d   1      -0.015  -1.235  -0.859  0.00  0.00    -0.005 A 
ATOM      4  C3  UNL d   1       0.147   0.133  -0.640  0.00  0.00     0.006 A 
ATOM      5  C4  UNL d   1       1.405   0.722  -0.774  0.00  0.00    -0.005 A 
ATOM      6  C5  UNL d   1       2.513  -0.054  -1.129  0.00  0.00    -0.074 A 
ATOM      7  C6  UNL d   1       3.874   0.562  -1.268  0.00  0.00     0.077 C 
ATOM      8  C7  UNL d   1       2.343  -1.429  -1.341  0.00  0.00    -0.001 A 
ENDROOT
TORSDOF 0
ENDMDL
