MODEL 1
REMARK minimizedAffinity 0.772091627
REMARK minimizedRMSD -1
REMARK  0 active torsions:
REMARK  status: ('A' for Active; 'I' for Inactive)
ROOT
ATOM      1  C   UNL d   1       4.501   0.620  -1.678  0.00  0.00     0.077 C 
ATOM      2  C1  UNL d   1       3.283  -0.223  -1.442  0.00  0.00    -0.074 A 
ATOM      3  C2  UNL d   1       3.304  -1.600  -1.686  0.00  0.00    -0.005 A 
ATOM      4  C3  UNL d   1       2.167  -2.373  -1.452  0.00  0.00     0.006 A 
ATOM      5  C4  UNL d   1       0.999  -1.777  -0.974  0.00  0.00    -0.005 A 
ATOM      6  C5  UNL d   1       0.959  -0.402  -0.724  0.00  0.00    -0.074 A 
ATOM      7  C6  UNL d   1      -0.285   0.252  -0.201  0.00  0.00     0.077 C 
ATOM      8  C7  UNL d   1       2.109   0.367  -0.954  0.00  0.00    -0.001 A 
ENDROOT
TORSDOF 0
ENDMDL
