MODEL 1
REMARK minimizedAffinity -4.51295233
REMARK minimizedRMSD -1
REMARK  1 active torsions:
REMARK  status: ('A' for Active; 'I' for Inactive)
REMARK    1  A    between atoms: C3_4  and  O_7 
ROOT
ATOM      1  C   UNL d   1       1.342  -2.340   0.014  0.00  0.00    -0.033 A 
ATOM      2  C1  UNL d   1       2.678  -1.952  -0.095  0.00  0.00     0.039 A 
ATOM      3  C2  UNL d   1       3.012  -0.597  -0.148  0.00  0.00    -0.080 A 
ATOM      4  C3  UNL d   1       2.001   0.359  -0.090  0.00  0.00     0.150 A 
ATOM      5  C4  UNL d   1       0.667  -0.021   0.023  0.00  0.00    -0.007 A 
ATOM      6  C5  UNL d   1       0.336  -1.374   0.074  0.00  0.00     0.039 A 
ENDROOT
BRANCH   4   7
ATOM      7  O   UNL d   1       2.277   1.692  -0.143  0.00  0.00    -0.526 OA
ATOM      8  H5  UNL d   1       3.237   1.804  -0.249  0.00  0.00     0.418 HD
ENDBRANCH   4   7
TORSDOF 1
ENDMDL
