MODEL 1
REMARK minimizedAffinity -2.63536644
REMARK minimizedRMSD -1
REMARK  1 active torsions:
REMARK  status: ('A' for Active; 'I' for Inactive)
REMARK    1  A    between atoms: C3_4  and  O_7 
ROOT
ATOM      1  C   UNL d   1      -0.836   1.427  -0.896  0.00  0.00    -0.033 A 
ATOM      2  C1  UNL d   1       0.442   1.590  -0.358  0.00  0.00     0.039 A 
ATOM      3  C2  UNL d   1       1.238   0.473  -0.095  0.00  0.00    -0.080 A 
ATOM      4  C3  UNL d   1       0.746  -0.798  -0.375  0.00  0.00     0.150 A 
ATOM      5  C4  UNL d   1      -0.525  -0.967  -0.916  0.00  0.00    -0.007 A 
ATOM      6  C5  UNL d   1      -1.319   0.149  -1.177  0.00  0.00     0.039 A 
ENDROOT
BRANCH   4   7
ATOM      7  O   UNL d   1       1.484  -1.918  -0.131  0.00  0.00    -0.526 OA
ATOM      8  H5  UNL d   1       2.328  -1.649   0.268  0.00  0.00     0.418 HD
ENDBRANCH   4   7
TORSDOF 1
ENDMDL
