MODEL 1
REMARK minimizedAffinity -4.161098
REMARK minimizedRMSD -1
REMARK  1 active torsions:
REMARK  status: ('A' for Active; 'I' for Inactive)
REMARK    1  A    between atoms: C3_4  and  O_7 
ROOT
ATOM      1  C   UNL d   1       3.330  -0.761  -0.144  0.00  0.00    -0.033 A 
ATOM      2  C1  UNL d   1       3.159   0.614   0.025  0.00  0.00     0.039 A 
ATOM      3  C2  UNL d   1       1.876   1.150   0.148  0.00  0.00    -0.080 A 
ATOM      4  C3  UNL d   1       0.773   0.301   0.102  0.00  0.00     0.150 A 
ATOM      5  C4  UNL d   1       0.937  -1.071  -0.063  0.00  0.00    -0.007 A 
ATOM      6  C5  UNL d   1       2.219  -1.604  -0.186  0.00  0.00     0.039 A 
ENDROOT
BRANCH   4   7
ATOM      7  O   UNL d   1      -0.499   0.778   0.212  0.00  0.00    -0.526 OA
ATOM      8  H5  UNL d   1      -0.459   1.745   0.292  0.00  0.00     0.418 HD
ENDBRANCH   4   7
TORSDOF 1
ENDMDL
