MODEL 1
REMARK minimizedAffinity -3.81197238
REMARK minimizedRMSD -1
REMARK  1 active torsions:
REMARK  status: ('A' for Active; 'I' for Inactive)
REMARK    1  A    between atoms: C3_4  and  O_7 
ROOT
ATOM      1  C   UNL d   1      -2.692   1.767  -0.034  0.00  0.00    -0.033 A 
ATOM      2  C1  UNL d   1      -2.528   1.012   1.129  0.00  0.00     0.039 A 
ATOM      3  C2  UNL d   1      -1.523   0.046   1.201  0.00  0.00    -0.080 A 
ATOM      4  C3  UNL d   1      -0.689  -0.155   0.104  0.00  0.00     0.150 A 
ATOM      5  C4  UNL d   1      -0.844   0.596  -1.056  0.00  0.00    -0.007 A 
ATOM      6  C5  UNL d   1      -1.849   1.560  -1.126  0.00  0.00     0.039 A 
ENDROOT
BRANCH   4   7
ATOM      7  O   UNL d   1       0.304  -1.089   0.125  0.00  0.00    -0.526 OA
ATOM      8  H5  UNL d   1       0.274  -1.551   0.980  0.00  0.00     0.418 HD
ENDBRANCH   4   7
TORSDOF 1
ENDMDL
