MODEL 1
REMARK minimizedAffinity -2.00134683
REMARK minimizedRMSD -1
REMARK  1 active torsions:
REMARK  status: ('A' for Active; 'I' for Inactive)
REMARK    1  A    between atoms: C3_4  and  O_7 
ROOT
ATOM      1  C   UNL d   1      -1.158  -0.359  -0.867  0.00  0.00    -0.033 A 
ATOM      2  C1  UNL d   1      -0.621   0.169   0.309  0.00  0.00     0.039 A 
ATOM      3  C2  UNL d   1       0.715  -0.069   0.636  0.00  0.00    -0.080 A 
ATOM      4  C3  UNL d   1       1.503  -0.834  -0.219  0.00  0.00     0.150 A 
ATOM      5  C4  UNL d   1       0.975  -1.360  -1.394  0.00  0.00    -0.007 A 
ATOM      6  C5  UNL d   1      -0.360  -1.122  -1.719  0.00  0.00     0.039 A 
ENDROOT
BRANCH   4   7
ATOM      7  O   UNL d   1       2.811  -1.097   0.060  0.00  0.00    -0.526 OA
ATOM      8  H5  UNL d   1       3.029  -0.694   0.917  0.00  0.00     0.418 HD
ENDBRANCH   4   7
TORSDOF 1
ENDMDL
