MODEL 1
REMARK minimizedAffinity -2.46308088
REMARK minimizedRMSD -1
REMARK  1 active torsions:
REMARK  status: ('A' for Active; 'I' for Inactive)
REMARK    1  A    between atoms: C3_4  and  O_7 
ROOT
ATOM      1  C   UNL d   1       3.786   0.042  -0.601  0.00  0.00    -0.033 A 
ATOM      2  C1  UNL d   1       3.187   1.278  -0.348  0.00  0.00     0.039 A 
ATOM      3  C2  UNL d   1       1.800   1.370  -0.222  0.00  0.00    -0.080 A 
ATOM      4  C3  UNL d   1       1.024   0.221  -0.349  0.00  0.00     0.150 A 
ATOM      5  C4  UNL d   1       1.614  -1.013  -0.596  0.00  0.00    -0.007 A 
ATOM      6  C5  UNL d   1       3.000  -1.104  -0.723  0.00  0.00     0.039 A 
ENDROOT
BRANCH   4   7
ATOM      7  O   UNL d   1      -0.334   0.263  -0.238  0.00  0.00    -0.526 OA
ATOM      8  H5  UNL d   1      -0.604   1.185  -0.095  0.00  0.00     0.418 HD
ENDBRANCH   4   7
TORSDOF 1
ENDMDL
