MODEL 1
REMARK minimizedAffinity -5.05493212
REMARK minimizedRMSD -1
REMARK  1 active torsions:
REMARK  status: ('A' for Active; 'I' for Inactive)
REMARK    1  A    between atoms: C3_4  and  O_7 
ROOT
ATOM      1  C   UNL d   1       2.480  -0.963   0.945  0.00  0.00    -0.033 A 
ATOM      2  C1  UNL d   1       3.332   0.114   0.691  0.00  0.00     0.039 A 
ATOM      3  C2  UNL d   1       2.819   1.306   0.175  0.00  0.00    -0.080 A 
ATOM      4  C3  UNL d   1       1.454   1.408  -0.081  0.00  0.00     0.150 A 
ATOM      5  C4  UNL d   1       0.599   0.340   0.174  0.00  0.00    -0.007 A 
ATOM      6  C5  UNL d   1       1.114  -0.850   0.688  0.00  0.00     0.039 A 
ENDROOT
BRANCH   4   7
ATOM      7  O   UNL d   1       0.907   2.549  -0.588  0.00  0.00    -0.526 OA
ATOM      8  H5  UNL d   1       1.621   3.190  -0.741  0.00  0.00     0.418 HD
ENDBRANCH   4   7
TORSDOF 1
ENDMDL
