MODEL 1
REMARK minimizedAffinity -2.53238416
REMARK minimizedRMSD -1
REMARK  1 active torsions:
REMARK  status: ('A' for Active; 'I' for Inactive)
REMARK    1  A    between atoms: C3_4  and  O_7 
ROOT
ATOM      1  C   UNL d   1       0.552  -0.536  -0.036  0.00  0.00    -0.033 A 
ATOM      2  C1  UNL d   1       1.761   0.033   0.367  0.00  0.00     0.039 A 
ATOM      3  C2  UNL d   1       1.994   1.395   0.169  0.00  0.00    -0.080 A 
ATOM      4  C3  UNL d   1       1.010   2.177  -0.431  0.00  0.00     0.150 A 
ATOM      5  C4  UNL d   1      -0.199   1.617  -0.832  0.00  0.00    -0.007 A 
ATOM      6  C5  UNL d   1      -0.429   0.256  -0.634  0.00  0.00     0.039 A 
ENDROOT
BRANCH   4   7
ATOM      7  O   UNL d   1       1.194   3.510  -0.650  0.00  0.00    -0.526 OA
ATOM      8  H5  UNL d   1       2.086   3.751  -0.349  0.00  0.00     0.418 HD
ENDBRANCH   4   7
TORSDOF 1
ENDMDL
