MODEL 1
REMARK minimizedAffinity -1.94307864
REMARK minimizedRMSD -1
REMARK  1 active torsions:
REMARK  status: ('A' for Active; 'I' for Inactive)
REMARK    1  A    between atoms: C3_4  and  O_7 
ROOT
ATOM      1  C   UNL d   1      -0.310  -0.939  -1.277  0.00  0.00    -0.033 A 
ATOM      2  C1  UNL d   1       0.945  -1.176  -0.713  0.00  0.00     0.039 A 
ATOM      3  C2  UNL d   1       1.668  -0.125  -0.146  0.00  0.00    -0.080 A 
ATOM      4  C3  UNL d   1       1.124   1.157  -0.148  0.00  0.00     0.150 A 
ATOM      5  C4  UNL d   1      -0.127   1.400  -0.705  0.00  0.00    -0.007 A 
ATOM      6  C5  UNL d   1      -0.847   0.349  -1.272  0.00  0.00     0.039 A 
ENDROOT
BRANCH   4   7
ATOM      7  O   UNL d   1       1.794   2.216   0.390  0.00  0.00    -0.526 OA
ATOM      8  H5  UNL d   1       2.657   1.903   0.711  0.00  0.00     0.418 HD
ENDBRANCH   4   7
TORSDOF 1
ENDMDL
