MODEL 1
REMARK minimizedAffinity -2.34868884
REMARK minimizedRMSD -1
REMARK  1 active torsions:
REMARK  status: ('A' for Active; 'I' for Inactive)
REMARK    1  A    between atoms: C3_4  and  O_7 
ROOT
ATOM      1  C   UNL d   1      -3.762   0.711   0.733  0.00  0.00    -0.033 A 
ATOM      2  C1  UNL d   1      -2.851   0.546   1.778  0.00  0.00     0.039 A 
ATOM      3  C2  UNL d   1      -1.516   0.245   1.501  0.00  0.00    -0.080 A 
ATOM      4  C3  UNL d   1      -1.105   0.113   0.177  0.00  0.00     0.150 A 
ATOM      5  C4  UNL d   1      -2.007   0.280  -0.869  0.00  0.00    -0.007 A 
ATOM      6  C5  UNL d   1      -3.340   0.579  -0.590  0.00  0.00     0.039 A 
ENDROOT
BRANCH   4   7
ATOM      7  O   UNL d   1       0.186  -0.184  -0.143  0.00  0.00    -0.526 OA
ATOM      8  H5  UNL d   1       0.688  -0.299   0.681  0.00  0.00     0.418 HD
ENDBRANCH   4   7
TORSDOF 1
ENDMDL
