MODEL 1
REMARK minimizedAffinity -0.909275234
REMARK minimizedRMSD -1
REMARK  1 active torsions:
REMARK  status: ('A' for Active; 'I' for Inactive)
REMARK    1  A    between atoms: C3_4  and  O_7 
ROOT
ATOM      1  C   UNL d   1       0.214  -1.042  -0.849  0.00  0.00    -0.033 A 
ATOM      2  C1  UNL d   1       1.539  -0.602  -0.875  0.00  0.00     0.039 A 
ATOM      3  C2  UNL d   1       1.828   0.757  -0.742  0.00  0.00    -0.080 A 
ATOM      4  C3  UNL d   1       0.784   1.665  -0.582  0.00  0.00     0.150 A 
ATOM      5  C4  UNL d   1      -0.538   1.233  -0.550  0.00  0.00    -0.007 A 
ATOM      6  C5  UNL d   1      -0.824  -0.124  -0.684  0.00  0.00     0.039 A 
ENDROOT
BRANCH   4   7
ATOM      7  O   UNL d   1       1.017   3.002  -0.452  0.00  0.00    -0.526 OA
ATOM      8  H5  UNL d   1       1.974   3.156  -0.522  0.00  0.00     0.418 HD
ENDBRANCH   4   7
TORSDOF 1
ENDMDL
