MODEL 1
REMARK minimizedAffinity 3.19684982
REMARK minimizedRMSD -1
REMARK  1 active torsions:
REMARK  status: ('A' for Active; 'I' for Inactive)
REMARK    1  A    between atoms: C1_2  and  C2_3 
ROOT
ATOM      1  C2  UNL d   1       0.839  -0.282  -0.432  0.00  0.00    -0.081 A 
ATOM      2  C3  UNL d   1       0.312   1.001  -0.621  0.00  0.00     0.006 A 
ATOM      3  C4  UNL d   1      -0.083   1.773   0.475  0.00  0.00     0.002 A 
ATOM      4  C5  UNL d   1       0.050   1.278   1.777  0.00  0.00    -0.080 A 
ATOM      5  C6  UNL d   1      -0.342   2.108   2.963  0.00  0.00     0.076 C 
ATOM      6  C7  UNL d   1       0.560  -0.011   1.965  0.00  0.00     0.002 A 
ATOM      7  C8  UNL d   1       0.954  -0.783   0.870  0.00  0.00     0.006 A 
ENDROOT
BRANCH   1   8
ATOM      8  C1  UNL d   1       1.326  -1.092  -1.606  0.00  0.00     0.054 C 
ATOM      9  C   UNL d   1       0.997  -2.568  -1.435  0.00  0.00     0.018 C 
ENDBRANCH   1   8
TORSDOF 1
ENDMDL
