MODEL 1
REMARK minimizedAffinity -4.72994614
REMARK minimizedRMSD -1
REMARK  1 active torsions:
REMARK  status: ('A' for Active; 'I' for Inactive)
REMARK    1  A    between atoms: C1_2  and  C2_3 
ROOT
ATOM      1  C2  UNL d   1      -0.884   2.393  -0.151  0.00  0.00    -0.081 A 
ATOM      2  C3  UNL d   1      -0.867   2.588   1.236  0.00  0.00     0.006 A 
ATOM      3  C4  UNL d   1      -0.408   1.581   2.087  0.00  0.00     0.002 A 
ATOM      4  C5  UNL d   1       0.047   0.365   1.567  0.00  0.00    -0.080 A 
ATOM      5  C6  UNL d   1       0.570  -0.714   2.469  0.00  0.00     0.076 C 
ATOM      6  C7  UNL d   1       0.013   0.162   0.184  0.00  0.00     0.002 A 
ATOM      7  C8  UNL d   1      -0.446   1.169  -0.669  0.00  0.00     0.006 A 
ENDROOT
BRANCH   1   8
ATOM      8  C1  UNL d   1      -1.318   3.501  -1.076  0.00  0.00     0.054 C 
ATOM      9  C   UNL d   1      -0.674   3.360  -2.448  0.00  0.00     0.018 C 
ENDBRANCH   1   8
TORSDOF 1
ENDMDL
