MODEL 1
REMARK minimizedAffinity 0.701832533
REMARK minimizedRMSD -1
REMARK  1 active torsions:
REMARK  status: ('A' for Active; 'I' for Inactive)
REMARK    1  A    between atoms: C1_2  and  C2_3 
ROOT
ATOM      1  C2  UNL d   1      -0.847   1.093   0.039  0.00  0.00    -0.081 A 
ATOM      2  C3  UNL d   1      -0.239  -0.047  -0.501  0.00  0.00     0.006 A 
ATOM      3  C4  UNL d   1       0.670  -0.790   0.256  0.00  0.00     0.002 A 
ATOM      4  C5  UNL d   1       0.980  -0.410   1.566  0.00  0.00    -0.080 A 
ATOM      5  C6  UNL d   1       1.932  -1.216   2.400  0.00  0.00     0.076 C 
ATOM      6  C7  UNL d   1       0.387   0.739   2.099  0.00  0.00     0.002 A 
ATOM      7  C8  UNL d   1      -0.522   1.483   1.343  0.00  0.00     0.006 A 
ENDROOT
BRANCH   1   8
ATOM      8  C1  UNL d   1      -1.876   1.860  -0.752  0.00  0.00     0.054 C 
ATOM      9  C   UNL d   1      -1.250   2.545  -1.958  0.00  0.00     0.018 C 
ENDBRANCH   1   8
TORSDOF 1
ENDMDL
