MODEL 1
REMARK minimizedAffinity -3.64372802
REMARK minimizedRMSD -1
REMARK  1 active torsions:
REMARK  status: ('A' for Active; 'I' for Inactive)
REMARK    1  A    between atoms: C1_2  and  C2_3 
ROOT
ATOM      1  C2  UNL d   1      -0.495   1.260   0.684  0.00  0.00    -0.081 A 
ATOM      2  C3  UNL d   1       0.645   0.453   0.581  0.00  0.00     0.006 A 
ATOM      3  C4  UNL d   1       0.569  -0.806  -0.019  0.00  0.00     0.002 A 
ATOM      4  C5  UNL d   1      -0.644  -1.275  -0.534  0.00  0.00    -0.080 A 
ATOM      5  C6  UNL d   1      -0.733  -2.612  -1.209  0.00  0.00     0.076 C 
ATOM      6  C7  UNL d   1      -1.787  -0.476  -0.416  0.00  0.00     0.002 A 
ATOM      7  C8  UNL d   1      -1.712   0.782   0.185  0.00  0.00     0.006 A 
ENDROOT
BRANCH   1   8
ATOM      8  C1  UNL d   1      -0.403   2.645   1.273  0.00  0.00     0.054 C 
ATOM      9  C   UNL d   1      -1.730   3.382   1.164  0.00  0.00     0.018 C 
ENDBRANCH   1   8
TORSDOF 1
ENDMDL
