MODEL 1
REMARK minimizedAffinity 13.2635679
REMARK minimizedRMSD -1
REMARK  1 active torsions:
REMARK  status: ('A' for Active; 'I' for Inactive)
REMARK    1  A    between atoms: C1_2  and  C2_3 
ROOT
ATOM      1  C2  UNL d   1       2.854  -1.896   3.168  0.00  0.00    -0.076 A 
ATOM      2  C3  UNL d   1       1.652  -1.265   2.801  0.00  0.00     0.004 A 
ATOM      3  C4  UNL d   1       1.657  -0.111   2.020  0.00  0.00    -0.003 A 
ATOM      4  C5  UNL d   1       2.864   0.432   1.594  0.00  0.00     0.000 A 
ATOM      5  C6  UNL d   1       4.065  -0.190   1.934  0.00  0.00     0.000 A 
ATOM      6  C7  UNL d   1       4.077  -1.364   2.706  0.00  0.00    -0.073 A 
ATOM      7  C8  UNL d   1       5.401  -1.990   3.049  0.00  0.00     0.078 C 
ENDROOT
BRANCH   1   8
ATOM      8  C1  UNL d   1       2.787  -3.130   4.038  0.00  0.00     0.053 C 
ATOM      9  C   UNL d   1       1.628  -3.088   5.023  0.00  0.00     0.018 C 
ENDBRANCH   1   8
TORSDOF 1
ENDMDL
