MODEL 1
REMARK minimizedAffinity 6.05260944
REMARK minimizedRMSD -1
REMARK  1 active torsions:
REMARK  status: ('A' for Active; 'I' for Inactive)
REMARK    1  A    between atoms: C1_2  and  C2_3 
ROOT
ATOM      1  C2  UNL d   1       1.604  -1.715   0.947  0.00  0.00    -0.076 A 
ATOM      2  C3  UNL d   1       1.444  -0.376   1.346  0.00  0.00     0.004 A 
ATOM      3  C4  UNL d   1       1.789   0.035   2.633  0.00  0.00    -0.003 A 
ATOM      4  C5  UNL d   1       2.300  -0.886   3.541  0.00  0.00     0.000 A 
ATOM      5  C6  UNL d   1       2.482  -2.214   3.157  0.00  0.00     0.000 A 
ATOM      6  C7  UNL d   1       2.155  -2.641   1.858  0.00  0.00    -0.073 A 
ATOM      7  C8  UNL d   1       2.367  -4.087   1.500  0.00  0.00     0.078 C 
ENDROOT
BRANCH   1   8
ATOM      8  C1  UNL d   1       1.188  -2.108  -0.452  0.00  0.00     0.053 C 
ATOM      9  C   UNL d   1      -0.132  -1.477  -0.866  0.00  0.00     0.018 C 
ENDBRANCH   1   8
TORSDOF 1
ENDMDL
