MODEL 1
REMARK minimizedAffinity 4.76597118
REMARK minimizedRMSD -1
REMARK  1 active torsions:
REMARK  status: ('A' for Active; 'I' for Inactive)
REMARK    1  A    between atoms: C1_2  and  C2_3 
ROOT
ATOM      1  C2  UNL d   1       3.730  -2.226   4.860  0.00  0.00    -0.076 A 
ATOM      2  C3  UNL d   1       2.349  -2.053   5.056  0.00  0.00     0.004 A 
ATOM      3  C4  UNL d   1       1.541  -1.528   4.049  0.00  0.00    -0.003 A 
ATOM      4  C5  UNL d   1       2.102  -1.167   2.828  0.00  0.00     0.000 A 
ATOM      5  C6  UNL d   1       3.467  -1.348   2.610  0.00  0.00     0.000 A 
ATOM      6  C7  UNL d   1       4.293  -1.891   3.610  0.00  0.00    -0.073 A 
ATOM      7  C8  UNL d   1       5.760  -2.059   3.322  0.00  0.00     0.078 C 
ENDROOT
BRANCH   1   8
ATOM      8  C1  UNL d   1       4.560  -2.774   5.998  0.00  0.00     0.053 C 
ATOM      9  C   UNL d   1       5.981  -2.230   5.999  0.00  0.00     0.018 C 
ENDBRANCH   1   8
TORSDOF 1
ENDMDL
