MODEL 1
REMARK minimizedAffinity 5.29338551
REMARK minimizedRMSD -1
REMARK  1 active torsions:
REMARK  status: ('A' for Active; 'I' for Inactive)
REMARK    1  A    between atoms: C1_2  and  C2_3 
ROOT
ATOM      1  C2  UNL d   1       3.817  -2.324   4.735  0.00  0.00    -0.076 A 
ATOM      2  C3  UNL d   1       2.479  -1.994   5.014  0.00  0.00     0.004 A 
ATOM      3  C4  UNL d   1       1.681  -1.367   4.059  0.00  0.00    -0.003 A 
ATOM      4  C5  UNL d   1       2.207  -1.060   2.809  0.00  0.00     0.000 A 
ATOM      5  C6  UNL d   1       3.527  -1.395   2.509  0.00  0.00     0.000 A 
ATOM      6  C7  UNL d   1       4.341  -2.042   3.455  0.00  0.00    -0.073 A 
ATOM      7  C8  UNL d   1       5.759  -2.375   3.080  0.00  0.00     0.078 C 
ENDROOT
BRANCH   1   8
ATOM      8  C1  UNL d   1       4.643  -2.978   5.819  0.00  0.00     0.053 C 
ATOM      9  C   UNL d   1       5.999  -2.314   6.000  0.00  0.00     0.018 C 
ENDBRANCH   1   8
TORSDOF 1
ENDMDL
