MODEL 1
REMARK minimizedAffinity 0.175543845
REMARK minimizedRMSD -1
REMARK  1 active torsions:
REMARK  status: ('A' for Active; 'I' for Inactive)
REMARK    1  A    between atoms: C1_2  and  C2_3 
ROOT
ATOM      1  C2  UNL d   1       3.909  -2.294   4.330  0.00  0.00    -0.076 A 
ATOM      2  C3  UNL d   1       2.508  -2.397   4.384  0.00  0.00     0.004 A 
ATOM      3  C4  UNL d   1       1.709  -1.849   3.381  0.00  0.00    -0.003 A 
ATOM      4  C5  UNL d   1       2.299  -1.188   2.309  0.00  0.00     0.000 A 
ATOM      5  C6  UNL d   1       3.688  -1.092   2.231  0.00  0.00     0.000 A 
ATOM      6  C7  UNL d   1       4.508  -1.653   3.225  0.00  0.00    -0.073 A 
ATOM      7  C8  UNL d   1       6.000  -1.514   3.093  0.00  0.00     0.078 C 
ENDROOT
BRANCH   1   8
ATOM      8  C1  UNL d   1       4.722  -2.884   5.460  0.00  0.00     0.053 C 
ATOM      9  C   UNL d   1       5.761  -1.913   6.000  0.00  0.00     0.018 C 
ENDBRANCH   1   8
TORSDOF 1
ENDMDL
