MODEL 1
REMARK minimizedAffinity 5.16283989
REMARK minimizedRMSD -1
REMARK  1 active torsions:
REMARK  status: ('A' for Active; 'I' for Inactive)
REMARK    1  A    between atoms: C1_2  and  C2_3 
ROOT
ATOM      1  C2  UNL d   1       3.313  -2.954   4.562  0.00  0.00    -0.076 A 
ATOM      2  C3  UNL d   1       4.317  -2.254   5.253  0.00  0.00     0.004 A 
ATOM      3  C4  UNL d   1       5.649  -2.659   5.188  0.00  0.00    -0.003 A 
ATOM      4  C5  UNL d   1       5.999  -3.771   4.430  0.00  0.00     0.000 A 
ATOM      5  C6  UNL d   1       5.018  -4.467   3.723  0.00  0.00     0.000 A 
ATOM      6  C7  UNL d   1       3.673  -4.062   3.765  0.00  0.00    -0.073 A 
ATOM      7  C8  UNL d   1       2.657  -4.852   2.989  0.00  0.00     0.078 C 
ENDROOT
BRANCH   1   8
ATOM      8  C1  UNL d   1       1.882  -2.483   4.692  0.00  0.00     0.053 C 
ATOM      9  C   UNL d   1       1.510  -1.451   3.639  0.00  0.00     0.018 C 
ENDBRANCH   1   8
TORSDOF 1
ENDMDL
