MODEL 1
REMARK minimizedAffinity 4.72069216
REMARK minimizedRMSD -1
REMARK  1 active torsions:
REMARK  status: ('A' for Active; 'I' for Inactive)
REMARK    1  A    between atoms: C1_2  and  C2_3 
ROOT
ATOM      1  C2  UNL d   1       2.410  -3.583   3.642  0.00  0.00    -0.076 A 
ATOM      2  C3  UNL d   1       2.060  -2.398   4.313  0.00  0.00     0.004 A 
ATOM      3  C4  UNL d   1       2.049  -1.173   3.648  0.00  0.00    -0.003 A 
ATOM      4  C5  UNL d   1       2.388  -1.114   2.300  0.00  0.00     0.000 A 
ATOM      5  C6  UNL d   1       2.721  -2.281   1.615  0.00  0.00     0.000 A 
ATOM      6  C7  UNL d   1       2.721  -3.527   2.267  0.00  0.00    -0.073 A 
ATOM      7  C8  UNL d   1       3.094  -4.753   1.480  0.00  0.00     0.078 C 
ENDROOT
BRANCH   1   8
ATOM      8  C1  UNL d   1       2.430  -4.878   4.423  0.00  0.00     0.053 C 
ATOM      9  C   UNL d   1       1.051  -5.506   4.544  0.00  0.00     0.018 C 
ENDBRANCH   1   8
TORSDOF 1
ENDMDL
