MODEL 1
REMARK minimizedAffinity -5.07550573
REMARK minimizedRMSD -1
REMARK  1 active torsions:
REMARK  status: ('A' for Active; 'I' for Inactive)
REMARK    1  A    between atoms: C3_4  and  O_7 
ROOT
ATOM      1  C   UNL d   1       1.138  -0.322  -0.516  0.00  0.00    -0.033 A 
ATOM      2  C1  UNL d   1       0.033   0.001   0.273  0.00  0.00     0.039 A 
ATOM      3  C2  UNL d   1       0.080  -0.193   1.655  0.00  0.00    -0.080 A 
ATOM      4  C3  UNL d   1       1.236  -0.709   2.234  0.00  0.00     0.150 A 
ATOM      5  C4  UNL d   1       2.342  -1.029   1.454  0.00  0.00    -0.007 A 
ATOM      6  C5  UNL d   1       2.293  -0.836   0.074  0.00  0.00     0.039 A 
ENDROOT
BRANCH   4   7
ATOM      7  O   UNL d   1       1.327  -0.920   3.578  0.00  0.00    -0.526 OA
ATOM      8  H5  UNL d   1       0.478  -0.680   3.985  0.00  0.00     0.418 HD
ENDBRANCH   4   7
TORSDOF 1
ENDMDL
