MODEL 1
REMARK minimizedAffinity -1.87160826
REMARK minimizedRMSD -1
REMARK  1 active torsions:
REMARK  status: ('A' for Active; 'I' for Inactive)
REMARK    1  A    between atoms: C3_4  and  O_7 
ROOT
ATOM      1  C   UNL d   1       0.374   0.341   0.968  0.00  0.00    -0.033 A 
ATOM      2  C1  UNL d   1       1.271  -0.727   0.914  0.00  0.00     0.039 A 
ATOM      3  C2  UNL d   1       1.567  -1.332  -0.309  0.00  0.00    -0.080 A 
ATOM      4  C3  UNL d   1       0.960  -0.858  -1.469  0.00  0.00     0.150 A 
ATOM      5  C4  UNL d   1       0.069   0.209  -1.424  0.00  0.00    -0.007 A 
ATOM      6  C5  UNL d   1      -0.226   0.810  -0.201  0.00  0.00     0.039 A 
ENDROOT
BRANCH   4   7
ATOM      7  O   UNL d   1       1.214  -1.419  -2.686  0.00  0.00    -0.526 OA
ATOM      8  H5  UNL d   1       1.826  -2.163  -2.560  0.00  0.00     0.418 HD
ENDBRANCH   4   7
TORSDOF 1
ENDMDL
