MODEL 1
REMARK minimizedAffinity 3.12196565
REMARK minimizedRMSD -1
REMARK  1 active torsions:
REMARK  status: ('A' for Active; 'I' for Inactive)
REMARK    1  A    between atoms: C3_4  and  O_7 
ROOT
ATOM      1  C   UNL d   1       2.977  -0.763  -0.100  0.00  0.00    -0.033 A 
ATOM      2  C1  UNL d   1       2.223  -0.722   1.075  0.00  0.00     0.039 A 
ATOM      3  C2  UNL d   1       0.834  -0.591   1.010  0.00  0.00    -0.080 A 
ATOM      4  C3  UNL d   1       0.213  -0.504  -0.233  0.00  0.00     0.150 A 
ATOM      5  C4  UNL d   1       0.958  -0.548  -1.407  0.00  0.00    -0.007 A 
ATOM      6  C5  UNL d   1       2.345  -0.678  -1.340  0.00  0.00     0.039 A 
ENDROOT
BRANCH   4   7
ATOM      7  O   UNL d   1      -1.139  -0.371  -0.346  0.00  0.00    -0.526 OA
ATOM      8  H5  UNL d   1      -1.520  -0.326   0.547  0.00  0.00     0.418 HD
ENDBRANCH   4   7
TORSDOF 1
ENDMDL
