MODEL 1
REMARK minimizedAffinity -3.69751406
REMARK minimizedRMSD -1
REMARK  1 active torsions:
REMARK  status: ('A' for Active; 'I' for Inactive)
REMARK    1  A    between atoms: C1_2  and  C2_3 
ROOT
ATOM      1  C2  UNL d   1       0.415   0.108  -0.963  0.00  0.00    -0.081 A 
ATOM      2  C3  UNL d   1      -0.914   0.273  -0.557  0.00  0.00     0.006 A 
ATOM      3  C4  UNL d   1      -1.211   0.716   0.734  0.00  0.00     0.002 A 
ATOM      4  C5  UNL d   1      -0.184   1.008   1.638  0.00  0.00    -0.080 A 
ATOM      5  C6  UNL d   1      -0.488   1.513   3.017  0.00  0.00     0.076 C 
ATOM      6  C7  UNL d   1       1.144   0.826   1.239  0.00  0.00     0.002 A 
ATOM      7  C8  UNL d   1       1.442   0.383  -0.052  0.00  0.00     0.006 A 
ENDROOT
BRANCH   1   8
ATOM      8  C1  UNL d   1       0.740  -0.307  -2.375  0.00  0.00     0.054 C 
ATOM      9  C   UNL d   1       0.674   0.877  -3.329  0.00  0.00     0.018 C 
ENDBRANCH   1   8
TORSDOF 1
ENDMDL
