MODEL 1
REMARK minimizedAffinity -1.97428203
REMARK minimizedRMSD -1
REMARK  1 active torsions:
REMARK  status: ('A' for Active; 'I' for Inactive)
REMARK    1  A    between atoms: C1_2  and  C2_3 
ROOT
ATOM      1  C2  UNL d   1       0.401  -0.541  -1.479  0.00  0.00    -0.081 A 
ATOM      2  C3  UNL d   1      -0.991  -0.601  -1.339  0.00  0.00     0.006 A 
ATOM      3  C4  UNL d   1      -1.595  -0.276  -0.122  0.00  0.00     0.002 A 
ATOM      4  C5  UNL d   1      -0.819   0.121   0.972  0.00  0.00    -0.080 A 
ATOM      5  C6  UNL d   1      -1.457   0.501   2.275  0.00  0.00     0.076 C 
ATOM      6  C7  UNL d   1       0.573   0.164   0.837  0.00  0.00     0.002 A 
ATOM      7  C8  UNL d   1       1.178  -0.162  -0.379  0.00  0.00     0.006 A 
ENDROOT
BRANCH   1   8
ATOM      8  C1  UNL d   1       1.051  -0.829  -2.809  0.00  0.00     0.054 C 
ATOM      9  C   UNL d   1       1.817   0.382  -3.323  0.00  0.00     0.018 C 
ENDBRANCH   1   8
TORSDOF 1
ENDMDL
