MODEL 1
REMARK minimizedAffinity -2.45928955
REMARK minimizedRMSD -1
REMARK  1 active torsions:
REMARK  status: ('A' for Active; 'I' for Inactive)
REMARK    1  A    between atoms: C1_2  and  C2_3 
ROOT
ATOM      1  C2  UNL d   1       0.431  -0.219  -0.414  0.00  0.00    -0.081 A 
ATOM      2  C3  UNL d   1      -0.931  -0.015  -0.160  0.00  0.00     0.006 A 
ATOM      3  C4  UNL d   1      -1.345   0.602   1.023  0.00  0.00     0.002 A 
ATOM      4  C5  UNL d   1      -0.406   1.032   1.966  0.00  0.00    -0.080 A 
ATOM      5  C6  UNL d   1      -0.837   1.723   3.226  0.00  0.00     0.076 C 
ATOM      6  C7  UNL d   1       0.953   0.813   1.720  0.00  0.00     0.002 A 
ATOM      7  C8  UNL d   1       1.369   0.196   0.538  0.00  0.00     0.006 A 
ENDROOT
BRANCH   1   8
ATOM      8  C1  UNL d   1       0.885  -0.825  -1.718  0.00  0.00     0.054 C 
ATOM      9  C   UNL d   1       1.306   0.249  -2.711  0.00  0.00     0.018 C 
ENDBRANCH   1   8
TORSDOF 1
ENDMDL
