MODEL 1
REMARK minimizedAffinity -4.82349396
REMARK minimizedRMSD -1
REMARK  1 active torsions:
REMARK  status: ('A' for Active; 'I' for Inactive)
REMARK    1  A    between atoms: C1_2  and  C2_3 
ROOT
ATOM      1  C2  UNL d   1       0.228   0.637  -1.531  0.00  0.00    -0.081 A 
ATOM      2  C3  UNL d   1      -0.779   1.573  -1.266  0.00  0.00     0.006 A 
ATOM      3  C4  UNL d   1      -1.187   1.821   0.047  0.00  0.00     0.002 A 
ATOM      4  C5  UNL d   1      -0.590   1.145   1.116  0.00  0.00    -0.080 A 
ATOM      5  C6  UNL d   1      -0.997   1.424   2.532  0.00  0.00     0.076 C 
ATOM      6  C7  UNL d   1       0.404   0.197   0.850  0.00  0.00     0.002 A 
ATOM      7  C8  UNL d   1       0.812  -0.053  -0.462  0.00  0.00     0.006 A 
ENDROOT
BRANCH   1   8
ATOM      8  C1  UNL d   1       0.715   0.413  -2.940  0.00  0.00     0.054 C 
ATOM      9  C   UNL d   1       1.706   1.490  -3.360  0.00  0.00     0.018 C 
ENDBRANCH   1   8
TORSDOF 1
ENDMDL
