MODEL 1
REMARK minimizedAffinity -4.8306675
REMARK minimizedRMSD -1
REMARK  1 active torsions:
REMARK  status: ('A' for Active; 'I' for Inactive)
REMARK    1  A    between atoms: C1_2  and  C2_3 
ROOT
ATOM      1  C2  UNL d   1       0.244  -0.767  -1.324  0.00  0.00    -0.081 A 
ATOM      2  C3  UNL d   1      -0.966  -0.089  -1.129  0.00  0.00     0.006 A 
ATOM      3  C4  UNL d   1      -1.469   0.105   0.159  0.00  0.00     0.002 A 
ATOM      4  C5  UNL d   1      -0.768  -0.368   1.274  0.00  0.00    -0.080 A 
ATOM      5  C6  UNL d   1      -1.282  -0.140   2.664  0.00  0.00     0.076 C 
ATOM      6  C7  UNL d   1       0.431  -1.061   1.078  0.00  0.00     0.002 A 
ATOM      7  C8  UNL d   1       0.935  -1.256  -0.210  0.00  0.00     0.006 A 
ENDROOT
BRANCH   1   8
ATOM      8  C1  UNL d   1       0.821  -0.921  -2.708  0.00  0.00     0.054 C 
ATOM      9  C   UNL d   1       1.429   0.384  -3.203  0.00  0.00     0.018 C 
ENDBRANCH   1   8
TORSDOF 1
ENDMDL
