MODEL 1
REMARK minimizedAffinity -4.14552021
REMARK minimizedRMSD -1
REMARK  1 active torsions:
REMARK  status: ('A' for Active; 'I' for Inactive)
REMARK    1  A    between atoms: C1_2  and  C2_3 
ROOT
ATOM      1  C2  UNL d   1      -0.229   0.283   1.468  0.00  0.00    -0.081 A 
ATOM      2  C3  UNL d   1      -0.988   0.296   0.291  0.00  0.00     0.006 A 
ATOM      3  C4  UNL d   1      -0.498  -0.297  -0.874  0.00  0.00     0.002 A 
ATOM      4  C5  UNL d   1       0.755  -0.921  -0.880  0.00  0.00    -0.080 A 
ATOM      5  C6  UNL d   1       1.280  -1.589  -2.117  0.00  0.00     0.076 C 
ATOM      6  C7  UNL d   1       1.520  -0.919   0.291  0.00  0.00     0.002 A 
ATOM      7  C8  UNL d   1       1.031  -0.325   1.456  0.00  0.00     0.006 A 
ENDROOT
BRANCH   1   8
ATOM      8  C1  UNL d   1      -0.783   0.865   2.744  0.00  0.00     0.054 C 
ATOM      9  C   UNL d   1      -1.860  -0.030   3.339  0.00  0.00     0.018 C 
ENDBRANCH   1   8
TORSDOF 1
ENDMDL
