MODEL 1
REMARK minimizedAffinity -3.49127102
REMARK minimizedRMSD -1
REMARK  1 active torsions:
REMARK  status: ('A' for Active; 'I' for Inactive)
REMARK    1  A    between atoms: C1_2  and  C2_3 
ROOT
ATOM      1  C2  UNL d   1       0.201  -0.805  -1.302  0.00  0.00    -0.081 A 
ATOM      2  C3  UNL d   1      -0.611   0.177  -0.722  0.00  0.00     0.006 A 
ATOM      3  C4  UNL d   1      -0.224   0.808   0.463  0.00  0.00     0.002 A 
ATOM      4  C5  UNL d   1       0.985   0.474   1.082  0.00  0.00    -0.080 A 
ATOM      5  C6  UNL d   1       1.428   1.165   2.338  0.00  0.00     0.076 C 
ATOM      6  C7  UNL d   1       1.789  -0.519   0.512  0.00  0.00     0.002 A 
ATOM      7  C8  UNL d   1       1.401  -1.151  -0.672  0.00  0.00     0.006 A 
ENDROOT
BRANCH   1   8
ATOM      8  C1  UNL d   1      -0.183  -1.441  -2.613  0.00  0.00     0.054 C 
ATOM      9  C   UNL d   1       0.294  -0.607  -3.794  0.00  0.00     0.018 C 
ENDBRANCH   1   8
TORSDOF 1
ENDMDL
