MODEL 1
REMARK minimizedAffinity 1.09506249
REMARK minimizedRMSD -1
REMARK  1 active torsions:
REMARK  status: ('A' for Active; 'I' for Inactive)
REMARK    1  A    between atoms: C1_2  and  C2_3 
ROOT
ATOM      1  C2  UNL d   1      -0.604  -0.328   0.498  0.00  0.00    -0.081 A 
ATOM      2  C3  UNL d   1       0.190  -1.243   1.200  0.00  0.00     0.006 A 
ATOM      3  C4  UNL d   1       1.577  -1.085   1.250  0.00  0.00     0.002 A 
ATOM      4  C5  UNL d   1       2.192  -0.006   0.606  0.00  0.00    -0.080 A 
ATOM      5  C6  UNL d   1       3.677   0.193   0.678  0.00  0.00     0.076 C 
ATOM      6  C7  UNL d   1       1.401   0.898  -0.110  0.00  0.00     0.002 A 
ATOM      7  C8  UNL d   1       0.014   0.740  -0.161  0.00  0.00     0.006 A 
ENDROOT
BRANCH   1   8
ATOM      8  C1  UNL d   1      -2.106  -0.460   0.496  0.00  0.00     0.054 C 
ATOM      9  C   UNL d   1      -2.659  -0.505   1.913  0.00  0.00     0.018 C 
ENDBRANCH   1   8
TORSDOF 1
ENDMDL
