MODEL 1
REMARK minimizedAffinity 6.69773912
REMARK minimizedRMSD -1
REMARK  2 active torsions:
REMARK  status: ('A' for Active; 'I' for Inactive)
REMARK    1  A    between atoms: C1_2  and  C2_3 
REMARK    2  A    between atoms: C2_3  and  C3_4 
ROOT
ATOM      1  C3  UNL d   1       3.042   1.599   3.831  0.00  0.00    -0.075 A 
ATOM      2  C4  UNL d   1       3.798   1.486   5.006  0.00  0.00     0.002 A 
ATOM      3  C5  UNL d   1       4.991   2.195   5.152  0.00  0.00     0.002 A 
ATOM      4  C6  UNL d   1       5.447   3.016   4.123  0.00  0.00    -0.004 A 
ATOM      5  C7  UNL d   1       4.712   3.123   2.944  0.00  0.00     0.002 A 
ATOM      6  C8  UNL d   1       3.516   2.418   2.798  0.00  0.00     0.002 A 
ENDROOT
BRANCH   1   7
ATOM      7  C2  UNL d   1       1.735   0.857   3.679  0.00  0.00     0.056 C 
BRANCH   7   8
ATOM      8  C1  UNL d   1       0.836   1.401   2.564  0.00  0.00     0.007 C 
ATOM      9  C   UNL d   1      -0.240   2.352   3.071  0.00  0.00     0.009 C 
ENDBRANCH   7   8
ENDBRANCH   1   7
TORSDOF 2
ENDMDL
