MODEL 1
REMARK minimizedAffinity 0.880513966
REMARK minimizedRMSD -1
REMARK  2 active torsions:
REMARK  status: ('A' for Active; 'I' for Inactive)
REMARK    1  A    between atoms: C1_2  and  C2_3 
REMARK    2  A    between atoms: C2_3  and  C3_4 
ROOT
ATOM      1  C3  UNL d   1       1.972  -0.178  -1.088  0.00  0.00    -0.075 A 
ATOM      2  C4  UNL d   1       2.681  -1.368  -1.305  0.00  0.00     0.002 A 
ATOM      3  C5  UNL d   1       4.050  -1.338  -1.570  0.00  0.00     0.002 A 
ATOM      4  C6  UNL d   1       4.725  -0.121  -1.631  0.00  0.00    -0.004 A 
ATOM      5  C7  UNL d   1       4.027   1.069  -1.434  0.00  0.00     0.002 A 
ATOM      6  C8  UNL d   1       2.658   1.042  -1.164  0.00  0.00     0.002 A 
ENDROOT
BRANCH   1   7
ATOM      7  C2  UNL d   1       0.495  -0.205  -0.772  0.00  0.00     0.056 C 
BRANCH   7   8
ATOM      8  C1  UNL d   1      -0.404  -0.342  -2.005  0.00  0.00     0.007 C 
ATOM      9  C   UNL d   1      -0.726  -1.789  -2.355  0.00  0.00     0.009 C 
ENDBRANCH   7   8
ENDBRANCH   1   7
TORSDOF 2
ENDMDL
