MODEL 1
REMARK minimizedAffinity -4.8731432
REMARK minimizedRMSD -1
REMARK  2 active torsions:
REMARK  status: ('A' for Active; 'I' for Inactive)
REMARK    1  A    between atoms: C1_2  and  C2_3 
REMARK    2  A    between atoms: C2_3  and  C3_4 
ROOT
ATOM      1  C3  UNL d   1       1.916  -0.725  -1.130  0.00  0.00    -0.075 A 
ATOM      2  C4  UNL d   1       2.273  -2.077  -1.242  0.00  0.00     0.002 A 
ATOM      3  C5  UNL d   1       1.302  -3.050  -1.478  0.00  0.00     0.002 A 
ATOM      4  C6  UNL d   1      -0.038  -2.686  -1.594  0.00  0.00    -0.004 A 
ATOM      5  C7  UNL d   1      -0.407  -1.349  -1.468  0.00  0.00     0.002 A 
ATOM      6  C8  UNL d   1       0.564  -0.373  -1.237  0.00  0.00     0.002 A 
ENDROOT
BRANCH   1   7
ATOM      7  C2  UNL d   1       2.966   0.336  -0.905  0.00  0.00     0.056 C 
BRANCH   7   8
ATOM      8  C1  UNL d   1       4.397  -0.133  -1.188  0.00  0.00     0.007 C 
ATOM      9  C   UNL d   1       4.888   0.243  -2.580  0.00  0.00     0.009 C 
ENDBRANCH   7   8
ENDBRANCH   1   7
TORSDOF 2
ENDMDL
