MODEL 1
REMARK minimizedAffinity -2.65692568
REMARK minimizedRMSD -1
REMARK  2 active torsions:
REMARK  status: ('A' for Active; 'I' for Inactive)
REMARK    1  A    between atoms: C1_2  and  C2_3 
REMARK    2  A    between atoms: C2_3  and  C3_4 
ROOT
ATOM      1  C3  UNL d   1       1.792  -0.215  -0.645  0.00  0.00    -0.075 A 
ATOM      2  C4  UNL d   1       2.067  -1.551  -0.320  0.00  0.00     0.002 A 
ATOM      3  C5  UNL d   1       1.120  -2.547  -0.560  0.00  0.00     0.002 A 
ATOM      4  C6  UNL d   1      -0.115  -2.219  -1.116  0.00  0.00    -0.004 A 
ATOM      5  C7  UNL d   1      -0.405  -0.893  -1.427  0.00  0.00     0.002 A 
ATOM      6  C8  UNL d   1       0.543   0.105  -1.193  0.00  0.00     0.002 A 
ENDROOT
BRANCH   1   7
ATOM      7  C2  UNL d   1       2.824   0.864  -0.416  0.00  0.00     0.056 C 
BRANCH   7   8
ATOM      8  C1  UNL d   1       4.241   0.474  -0.851  0.00  0.00     0.007 C 
ATOM      9  C   UNL d   1       4.950   1.568  -1.638  0.00  0.00     0.009 C 
ENDBRANCH   7   8
ENDBRANCH   1   7
TORSDOF 2
ENDMDL
