MODEL 1
REMARK minimizedAffinity 0.708257437
REMARK minimizedRMSD -1
REMARK  2 active torsions:
REMARK  status: ('A' for Active; 'I' for Inactive)
REMARK    1  A    between atoms: C1_2  and  C2_3 
REMARK    2  A    between atoms: C2_3  and  C3_4 
ROOT
ATOM      1  C3  UNL d   1       2.319  -0.625  -0.837  0.00  0.00    -0.075 A 
ATOM      2  C4  UNL d   1       1.603  -1.729  -1.323  0.00  0.00     0.002 A 
ATOM      3  C5  UNL d   1       0.209  -1.711  -1.355  0.00  0.00     0.002 A 
ATOM      4  C6  UNL d   1      -0.487  -0.597  -0.892  0.00  0.00    -0.004 A 
ATOM      5  C7  UNL d   1       0.213   0.499  -0.392  0.00  0.00     0.002 A 
ATOM      6  C8  UNL d   1       1.608   0.486  -0.363  0.00  0.00     0.002 A 
ENDROOT
BRANCH   1   7
ATOM      7  C2  UNL d   1       3.829  -0.627  -0.828  0.00  0.00     0.056 C 
BRANCH   7   8
ATOM      8  C1  UNL d   1       4.453   0.771  -0.764  0.00  0.00     0.007 C 
ATOM      9  C   UNL d   1       5.197   1.156  -2.036  0.00  0.00     0.009 C 
ENDBRANCH   7   8
ENDBRANCH   1   7
TORSDOF 2
ENDMDL
