MODEL 1
REMARK minimizedAffinity -2.41517925
REMARK minimizedRMSD -1
REMARK  2 active torsions:
REMARK  status: ('A' for Active; 'I' for Inactive)
REMARK    1  A    between atoms: C1_2  and  C2_3 
REMARK    2  A    between atoms: C2_3  and  C3_4 
ROOT
ATOM      1  C3  UNL d   1      -1.482   0.912  -0.359  0.00  0.00    -0.075 A 
ATOM      2  C4  UNL d   1      -0.731  -0.250  -0.588  0.00  0.00     0.002 A 
ATOM      3  C5  UNL d   1       0.563  -0.370  -0.080  0.00  0.00     0.002 A 
ATOM      4  C6  UNL d   1       1.125   0.672   0.653  0.00  0.00    -0.004 A 
ATOM      5  C7  UNL d   1       0.395   1.838   0.874  0.00  0.00     0.002 A 
ATOM      6  C8  UNL d   1      -0.901   1.959   0.370  0.00  0.00     0.002 A 
ENDROOT
BRANCH   1   7
ATOM      7  C2  UNL d   1      -2.893   1.036  -0.880  0.00  0.00     0.056 C 
BRANCH   7   8
ATOM      8  C1  UNL d   1      -3.928   0.247  -0.073  0.00  0.00     0.007 C 
ATOM      9  C   UNL d   1      -4.098   0.761   1.351  0.00  0.00     0.009 C 
ENDBRANCH   7   8
ENDBRANCH   1   7
TORSDOF 2
ENDMDL
