MODEL 1
REMARK minimizedAffinity -3.40486765
REMARK minimizedRMSD -1
REMARK  0 active torsions:
REMARK  status: ('A' for Active; 'I' for Inactive)
ROOT
ATOM      1  N1  IND d   1      -0.396  -0.526  -0.962  0.00  0.00    -0.196 N 
ATOM      2  C2  IND d   1       0.753  -0.832  -1.637  0.00  0.00     0.054 A 
ATOM      3  C3  IND d   1       1.764  -1.057  -0.768  0.00  0.00    -0.031 A 
ATOM      4  C4  IND d   1       1.734  -1.076   1.806  0.00  0.00     0.051 A 
ATOM      5  C5  IND d   1       0.923  -0.819   2.876  0.00  0.00    -0.031 A 
ATOM      6  C6  IND d   1      -0.396  -0.446   2.718  0.00  0.00     0.015 A 
ATOM      7  C7  IND d   1      -0.959  -0.327   1.479  0.00  0.00    -0.016 A 
ATOM      8  C8  IND d   1      -0.137  -0.580   0.390  0.00  0.00    -0.047 A 
ATOM      9  C9  IND d   1       1.214  -0.918   0.543  0.00  0.00    -0.096 A 
ATOM     10  HN1 IND d   1      -1.152  -0.331  -1.321  0.00  0.00     0.298 HD
ENDROOT
TORSDOF 0
ENDMDL
