MODEL 1
REMARK minimizedAffinity 1.78341937
REMARK minimizedRMSD -1
REMARK  0 active torsions:
REMARK  status: ('A' for Active; 'I' for Inactive)
ROOT
ATOM      1  N1  IND d   1       1.750  -1.412  -0.292  0.00  0.00    -0.196 N 
ATOM      2  C2  IND d   1       1.256  -0.686  -1.340  0.00  0.00     0.054 A 
ATOM      3  C3  IND d   1       0.186   0.040  -0.946  0.00  0.00    -0.031 A 
ATOM      4  C4  IND d   1      -0.865   0.266   1.393  0.00  0.00     0.051 A 
ATOM      5  C5  IND d   1      -0.784  -0.231   2.664  0.00  0.00    -0.031 A 
ATOM      6  C6  IND d   1       0.167  -1.165   3.021  0.00  0.00     0.015 A 
ATOM      7  C7  IND d   1       1.084  -1.629   2.121  0.00  0.00    -0.016 A 
ATOM      8  C8  IND d   1       1.000  -1.131   0.828  0.00  0.00    -0.047 A 
ATOM      9  C9  IND d   1       0.010  -0.215   0.449  0.00  0.00    -0.096 A 
ATOM     10  HN1 IND d   1       2.417  -1.953  -0.327  0.00  0.00     0.298 HD
ENDROOT
TORSDOF 0
ENDMDL
