MODEL 1
REMARK minimizedAffinity -2.49204636
REMARK minimizedRMSD -1
REMARK  0 active torsions:
REMARK  status: ('A' for Active; 'I' for Inactive)
ROOT
ATOM      1  N1  IND d   1       0.740  -0.820  -1.016  0.00  0.00    -0.196 N 
ATOM      2  C2  IND d   1      -0.352  -0.003  -0.925  0.00  0.00     0.054 A 
ATOM      3  C3  IND d   1      -0.831   0.004   0.339  0.00  0.00    -0.031 A 
ATOM      4  C4  IND d   1       0.080  -1.172   2.440  0.00  0.00     0.051 A 
ATOM      5  C5  IND d   1       1.037  -2.057   2.849  0.00  0.00    -0.031 A 
ATOM      6  C6  IND d   1       1.964  -2.585   1.974  0.00  0.00     0.015 A 
ATOM      7  C7  IND d   1       1.976  -2.235   0.653  0.00  0.00    -0.016 A 
ATOM      8  C8  IND d   1       1.002  -1.342   0.233  0.00  0.00    -0.047 A 
ATOM      9  C9  IND d   1       0.032  -0.836   1.107  0.00  0.00    -0.096 A 
ATOM     10  HN1 IND d   1       1.188  -0.982  -1.731  0.00  0.00     0.298 HD
ENDROOT
TORSDOF 0
ENDMDL
