MODEL 1
REMARK minimizedAffinity -2.04429007
REMARK minimizedRMSD -1
REMARK  0 active torsions:
REMARK  status: ('A' for Active; 'I' for Inactive)
ROOT
ATOM      1  N1  IND d   1       1.862  -1.641   1.679  0.00  0.00    -0.196 N 
ATOM      2  C2  IND d   1       1.191  -1.497   2.861  0.00  0.00     0.054 A 
ATOM      3  C3  IND d   1      -0.000  -0.892   2.656  0.00  0.00    -0.031 A 
ATOM      4  C4  IND d   1      -1.096  -0.145   0.449  0.00  0.00     0.051 A 
ATOM      5  C5  IND d   1      -0.852  -0.034  -0.891  0.00  0.00    -0.031 A 
ATOM      6  C6  IND d   1       0.331  -0.464  -1.455  0.00  0.00     0.015 A 
ATOM      7  C7  IND d   1       1.315  -1.034  -0.698  0.00  0.00    -0.016 A 
ATOM      8  C8  IND d   1       1.074  -1.142   0.665  0.00  0.00    -0.047 A 
ATOM      9  C9  IND d   1      -0.107  -0.668   1.249  0.00  0.00    -0.096 A 
ATOM     10  HN1 IND d   1       2.645  -1.984   1.584  0.00  0.00     0.298 HD
ENDROOT
TORSDOF 0
ENDMDL
