MODEL 1
REMARK minimizedAffinity -1.08743763
REMARK minimizedRMSD -1
REMARK  0 active torsions:
REMARK  status: ('A' for Active; 'I' for Inactive)
ROOT
ATOM      1  N1  IND d   1       0.254   2.210  -1.607  0.00  0.00    -0.196 N 
ATOM      2  C2  IND d   1      -0.566   2.032  -2.686  0.00  0.00     0.054 A 
ATOM      3  C3  IND d   1      -1.443   1.031  -2.452  0.00  0.00    -0.031 A 
ATOM      4  C4  IND d   1      -1.779  -0.385  -0.328  0.00  0.00     0.051 A 
ATOM      5  C5  IND d   1      -1.245  -0.614   0.909  0.00  0.00    -0.031 A 
ATOM      6  C6  IND d   1      -0.165   0.102   1.382  0.00  0.00     0.015 A 
ATOM      7  C7  IND d   1       0.418   1.087   0.636  0.00  0.00    -0.016 A 
ATOM      8  C8  IND d   1      -0.117   1.318  -0.624  0.00  0.00    -0.047 A 
ATOM      9  C9  IND d   1      -1.186   0.565  -1.125  0.00  0.00    -0.096 A 
ATOM     10  HN1 IND d   1       0.893   2.782  -1.551  0.00  0.00     0.298 HD
ENDROOT
TORSDOF 0
ENDMDL
