MODEL 1
REMARK minimizedAffinity -5.37336016
REMARK minimizedRMSD -1
REMARK  0 active torsions:
REMARK  status: ('A' for Active; 'I' for Inactive)
ROOT
ATOM      1  N1  IND d   1       0.608  -0.667  -0.825  0.00  0.00    -0.196 N 
ATOM      2  C2  IND d   1      -0.321   0.266  -0.456  0.00  0.00     0.054 A 
ATOM      3  C3  IND d   1      -0.276   0.472   0.879  0.00  0.00    -0.031 A 
ATOM      4  C4  IND d   1       1.310  -0.538   2.638  0.00  0.00     0.051 A 
ATOM      5  C5  IND d   1       2.302  -1.465   2.787  0.00  0.00    -0.031 A 
ATOM      6  C6  IND d   1       2.793  -2.186   1.718  0.00  0.00     0.015 A 
ATOM      7  C7  IND d   1       2.314  -1.998   0.452  0.00  0.00    -0.016 A 
ATOM      8  C8  IND d   1       1.301  -1.062   0.298  0.00  0.00    -0.047 A 
ATOM      9  C9  IND d   1       0.770  -0.358   1.386  0.00  0.00    -0.096 A 
ATOM     10  HN1 IND d   1       0.737  -0.958  -1.623  0.00  0.00     0.298 HD
ENDROOT
TORSDOF 0
ENDMDL
