MODEL 1
REMARK minimizedAffinity -1.712731
REMARK minimizedRMSD -1
REMARK  0 active torsions:
REMARK  status: ('A' for Active; 'I' for Inactive)
ROOT
ATOM      1  N1  IND d   1      -0.139  -1.053  -1.432  0.00  0.00    -0.196 N 
ATOM      2  C2  IND d   1       1.148  -1.506  -1.335  0.00  0.00     0.054 A 
ATOM      3  C3  IND d   1       1.534  -1.551  -0.040  0.00  0.00    -0.031 A 
ATOM      4  C4  IND d   1       0.185  -1.023   2.088  0.00  0.00     0.051 A 
ATOM      5  C5  IND d   1      -1.022  -0.538   2.506  0.00  0.00    -0.031 A 
ATOM      6  C6  IND d   1      -2.018  -0.195   1.614  0.00  0.00     0.015 A 
ATOM      7  C7  IND d   1      -1.846  -0.336   0.266  0.00  0.00    -0.016 A 
ATOM      8  C8  IND d   1      -0.619  -0.822  -0.162  0.00  0.00    -0.047 A 
ATOM      9  C9  IND d   1       0.410  -1.132   0.736  0.00  0.00    -0.096 A 
ATOM     10  HN1 IND d   1      -0.574  -0.933  -2.164  0.00  0.00     0.298 HD
ENDROOT
TORSDOF 0
ENDMDL
