MODEL 1
REMARK minimizedAffinity -4.66185427
REMARK minimizedRMSD -1
REMARK  0 active torsions:
REMARK  status: ('A' for Active; 'I' for Inactive)
ROOT
ATOM      1  N1  IND d   1      -0.052  -0.650   2.455  0.00  0.00    -0.196 N 
ATOM      2  C2  IND d   1       1.047  -1.157   3.090  0.00  0.00     0.054 A 
ATOM      3  C3  IND d   1       1.960  -1.578   2.186  0.00  0.00    -0.031 A 
ATOM      4  C4  IND d   1       1.901  -1.439  -0.384  0.00  0.00     0.051 A 
ATOM      5  C5  IND d   1       1.088  -1.089  -1.425  0.00  0.00    -0.031 A 
ATOM      6  C6  IND d   1      -0.171  -0.561  -1.222  0.00  0.00     0.015 A 
ATOM      7  C7  IND d   1      -0.661  -0.352   0.036  0.00  0.00    -0.016 A 
ATOM      8  C8  IND d   1       0.159  -0.713   1.096  0.00  0.00    -0.047 A 
ATOM      9  C9  IND d   1       1.420  -1.289   0.895  0.00  0.00    -0.096 A 
ATOM     10  HN1 IND d   1      -0.757  -0.342   2.841  0.00  0.00     0.298 HD
ENDROOT
TORSDOF 0
ENDMDL
