MODEL 1
REMARK minimizedAffinity -5.7453928
REMARK minimizedRMSD -1
REMARK  0 active torsions:
REMARK  status: ('A' for Active; 'I' for Inactive)
ROOT
ATOM      1  N1  IND d   1       1.346  -1.518  -0.995  0.00  0.00    -0.196 N 
ATOM      2  C2  IND d   1       2.454  -2.252  -0.679  0.00  0.00     0.054 A 
ATOM      3  C3  IND d   1       2.582  -2.358   0.663  0.00  0.00    -0.031 A 
ATOM      4  C4  IND d   1       1.032  -1.490   2.527  0.00  0.00     0.051 A 
ATOM      5  C5  IND d   1      -0.086  -0.731   2.731  0.00  0.00    -0.031 A 
ATOM      6  C6  IND d   1      -0.800  -0.186   1.683  0.00  0.00     0.015 A 
ATOM      7  C7  IND d   1      -0.427  -0.391   0.385  0.00  0.00    -0.016 A 
ATOM      8  C8  IND d   1       0.712  -1.156   0.174  0.00  0.00    -0.047 A 
ATOM      9  C9  IND d   1       1.464  -1.675   1.235  0.00  0.00    -0.096 A 
ATOM     10  HN1 IND d   1       1.088  -1.315  -1.790  0.00  0.00     0.298 HD
ENDROOT
TORSDOF 0
ENDMDL
