MODEL 1
REMARK minimizedAffinity -4.8104353
REMARK minimizedRMSD -1
REMARK  0 active torsions:
REMARK  status: ('A' for Active; 'I' for Inactive)
ROOT
ATOM      1  N1  IND d   1       0.399   0.574  -0.592  0.00  0.00    -0.196 N 
ATOM      2  C2  IND d   1      -0.955   0.663  -0.427  0.00  0.00     0.054 A 
ATOM      3  C3  IND d   1      -1.339  -0.009   0.682  0.00  0.00    -0.031 A 
ATOM      4  C4  IND d   1       0.098  -1.240   2.427  0.00  0.00     0.051 A 
ATOM      5  C5  IND d   1       1.384  -1.624   2.687  0.00  0.00    -0.031 A 
ATOM      6  C6  IND d   1       2.428  -1.286   1.851  0.00  0.00     0.015 A 
ATOM      7  C7  IND d   1       2.227  -0.538   0.726  0.00  0.00    -0.016 A 
ATOM      8  C8  IND d   1       0.922  -0.152   0.455  0.00  0.00    -0.047 A 
ATOM      9  C9  IND d   1      -0.149  -0.529   1.277  0.00  0.00    -0.096 A 
ATOM     10  HN1 IND d   1       0.849   0.914  -1.241  0.00  0.00     0.298 HD
ENDROOT
TORSDOF 0
ENDMDL
