MODEL 1
REMARK minimizedAffinity -5.53887081
REMARK minimizedRMSD -1
REMARK  2 active torsions:
REMARK  status: ('A' for Active; 'I' for Inactive)
REMARK    1  A    between atoms: C1_2  and  C2_3 
REMARK    2  A    between atoms: C2_3  and  C3_4 
ROOT
ATOM      1  C3  UNL d   1       0.103  -0.070   0.006  0.00  0.00    -0.075 A 
ATOM      2  C4  UNL d   1      -1.034   0.748  -0.061  0.00  0.00     0.002 A 
ATOM      3  C5  UNL d   1      -0.917   2.134   0.048  0.00  0.00     0.002 A 
ATOM      4  C6  UNL d   1       0.335   2.717   0.236  0.00  0.00    -0.004 A 
ATOM      5  C7  UNL d   1       1.469   1.913   0.321  0.00  0.00     0.002 A 
ATOM      6  C8  UNL d   1       1.354   0.526   0.207  0.00  0.00     0.002 A 
ENDROOT
BRANCH   1   7
ATOM      7  C2  UNL d   1      -0.015  -1.569  -0.141  0.00  0.00     0.056 C 
BRANCH   7   8
ATOM      8  C1  UNL d   1      -0.113  -2.047  -1.594  0.00  0.00     0.007 C 
ATOM      9  C   UNL d   1      -1.242  -3.043  -1.823  0.00  0.00     0.009 C 
ENDBRANCH   7   8
ENDBRANCH   1   7
TORSDOF 2
ENDMDL
