MODEL 1
REMARK minimizedAffinity 2.91095591
REMARK minimizedRMSD -1
REMARK  2 active torsions:
REMARK  status: ('A' for Active; 'I' for Inactive)
REMARK    1  A    between atoms: C1_2  and  C2_3 
REMARK    2  A    between atoms: C2_3  and  C3_4 
ROOT
ATOM      1  C3  UNL d   1      -1.577  -0.365  -0.455  0.00  0.00    -0.075 A 
ATOM      2  C4  UNL d   1      -2.253   0.487  -1.341  0.00  0.00     0.002 A 
ATOM      3  C5  UNL d   1      -2.260   1.866  -1.130  0.00  0.00     0.002 A 
ATOM      4  C6  UNL d   1      -1.602   2.409  -0.029  0.00  0.00    -0.004 A 
ATOM      5  C7  UNL d   1      -0.941   1.571   0.866  0.00  0.00     0.002 A 
ATOM      6  C8  UNL d   1      -0.928   0.191   0.655  0.00  0.00     0.002 A 
ENDROOT
BRANCH   1   7
ATOM      7  C2  UNL d   1      -1.540  -1.856  -0.694  0.00  0.00     0.056 C 
BRANCH   7   8
ATOM      8  C1  UNL d   1      -1.907  -2.268  -2.123  0.00  0.00     0.007 C 
ATOM      9  C   UNL d   1      -1.548  -3.713  -2.442  0.00  0.00     0.009 C 
ENDBRANCH   7   8
ENDBRANCH   1   7
TORSDOF 2
ENDMDL
