MODEL 1
REMARK minimizedAffinity -3.09638143
REMARK minimizedRMSD -1
REMARK  2 active torsions:
REMARK  status: ('A' for Active; 'I' for Inactive)
REMARK    1  A    between atoms: C1_2  and  C2_3 
REMARK    2  A    between atoms: C2_3  and  C3_4 
ROOT
ATOM      1  C3  UNL d   1       0.018   0.494   0.355  0.00  0.00    -0.075 A 
ATOM      2  C4  UNL d   1      -0.384   1.814   0.607  0.00  0.00     0.002 A 
ATOM      3  C5  UNL d   1       0.565   2.818   0.803  0.00  0.00     0.002 A 
ATOM      4  C6  UNL d   1       1.924   2.515   0.759  0.00  0.00    -0.004 A 
ATOM      5  C7  UNL d   1       2.334   1.205   0.525  0.00  0.00     0.002 A 
ATOM      6  C8  UNL d   1       1.388   0.199   0.325  0.00  0.00     0.002 A 
ENDROOT
BRANCH   1   7
ATOM      7  C2  UNL d   1      -1.003  -0.591   0.113  0.00  0.00     0.056 C 
BRANCH   7   8
ATOM      8  C1  UNL d   1      -1.317  -0.833  -1.367  0.00  0.00     0.007 C 
ATOM      9  C   UNL d   1      -1.745  -2.265  -1.664  0.00  0.00     0.009 C 
ENDBRANCH   7   8
ENDBRANCH   1   7
TORSDOF 2
ENDMDL
