MODEL 1
REMARK minimizedAffinity -5.8707962
REMARK minimizedRMSD -1
REMARK  2 active torsions:
REMARK  status: ('A' for Active; 'I' for Inactive)
REMARK    1  A    between atoms: C1_2  and  C2_3 
REMARK    2  A    between atoms: C2_3  and  C3_4 
ROOT
ATOM      1  C3  UNL d   1      -0.581  -0.272   0.271  0.00  0.00    -0.075 A 
ATOM      2  C4  UNL d   1      -1.648   0.633   0.364  0.00  0.00     0.002 A 
ATOM      3  C5  UNL d   1      -1.413   2.008   0.373  0.00  0.00     0.002 A 
ATOM      4  C6  UNL d   1      -0.109   2.495   0.299  0.00  0.00    -0.004 A 
ATOM      5  C7  UNL d   1       0.960   1.604   0.224  0.00  0.00     0.002 A 
ATOM      6  C8  UNL d   1       0.726   0.228   0.210  0.00  0.00     0.002 A 
ENDROOT
BRANCH   1   7
ATOM      7  C2  UNL d   1      -0.832  -1.761   0.232  0.00  0.00     0.056 C 
BRANCH   7   8
ATOM      8  C1  UNL d   1      -0.466  -2.419  -1.103  0.00  0.00     0.007 C 
ATOM      9  C   UNL d   1      -1.504  -3.426  -1.580  0.00  0.00     0.009 C 
ENDBRANCH   7   8
ENDBRANCH   1   7
TORSDOF 2
ENDMDL
