MODEL 1
REMARK minimizedAffinity -6.51491785
REMARK minimizedRMSD -1
REMARK  2 active torsions:
REMARK  status: ('A' for Active; 'I' for Inactive)
REMARK    1  A    between atoms: C1_2  and  C2_3 
REMARK    2  A    between atoms: C2_3  and  C3_4 
ROOT
ATOM      1  C3  UNL d   1      -0.187   0.007   0.011  0.00  0.00    -0.075 A 
ATOM      2  C4  UNL d   1      -1.233   0.937  -0.080  0.00  0.00     0.002 A 
ATOM      3  C5  UNL d   1      -0.970   2.306  -0.030  0.00  0.00     0.002 A 
ATOM      4  C6  UNL d   1       0.338   2.763   0.120  0.00  0.00    -0.004 A 
ATOM      5  C7  UNL d   1       1.383   1.848   0.227  0.00  0.00     0.002 A 
ATOM      6  C8  UNL d   1       1.123   0.477   0.174  0.00  0.00     0.002 A 
ENDROOT
BRANCH   1   7
ATOM      7  C2  UNL d   1      -0.461  -1.475  -0.072  0.00  0.00     0.056 C 
BRANCH   7   8
ATOM      8  C1  UNL d   1       0.043  -2.132  -1.361  0.00  0.00     0.007 C 
ATOM      9  C   UNL d   1      -1.045  -2.880  -2.120  0.00  0.00     0.009 C 
ENDBRANCH   7   8
ENDBRANCH   1   7
TORSDOF 2
ENDMDL
