MODEL 1
REMARK minimizedAffinity -6.04196548
REMARK minimizedRMSD -1
REMARK  2 active torsions:
REMARK  status: ('A' for Active; 'I' for Inactive)
REMARK    1  A    between atoms: C1_2  and  C2_3 
REMARK    2  A    between atoms: C2_3  and  C3_4 
ROOT
ATOM      1  C3  UNL d   1       0.105   0.445  -0.250  0.00  0.00    -0.075 A 
ATOM      2  C4  UNL d   1       1.339   1.082  -0.447  0.00  0.00     0.002 A 
ATOM      3  C5  UNL d   1       1.459   2.462  -0.274  0.00  0.00     0.002 A 
ATOM      4  C6  UNL d   1       0.348   3.221   0.086  0.00  0.00    -0.004 A 
ATOM      5  C7  UNL d   1      -0.886   2.601   0.268  0.00  0.00     0.002 A 
ATOM      6  C8  UNL d   1      -1.008   1.221   0.100  0.00  0.00     0.002 A 
ENDROOT
BRANCH   1   7
ATOM      7  C2  UNL d   1      -0.026  -1.051  -0.407  0.00  0.00     0.056 C 
BRANCH   7   8
ATOM      8  C1  UNL d   1       0.278  -1.559  -1.820  0.00  0.00     0.007 C 
ATOM      9  C   UNL d   1      -0.686  -2.640  -2.289  0.00  0.00     0.009 C 
ENDBRANCH   7   8
ENDBRANCH   1   7
TORSDOF 2
ENDMDL
