MODEL 1
REMARK minimizedAffinity -4.5586834
REMARK minimizedRMSD -1
REMARK  2 active torsions:
REMARK  status: ('A' for Active; 'I' for Inactive)
REMARK    1  A    between atoms: C1_2  and  C2_3 
REMARK    2  A    between atoms: C2_3  and  C3_4 
ROOT
ATOM      1  C3  UNL d   1       0.158   1.084   0.606  0.00  0.00    -0.075 A 
ATOM      2  C4  UNL d   1       1.542   0.899   0.745  0.00  0.00     0.002 A 
ATOM      3  C5  UNL d   1       2.324   1.863   1.382  0.00  0.00     0.002 A 
ATOM      4  C6  UNL d   1       1.737   3.025   1.878  0.00  0.00    -0.004 A 
ATOM      5  C7  UNL d   1       0.366   3.226   1.730  0.00  0.00     0.002 A 
ATOM      6  C8  UNL d   1      -0.420   2.262   1.097  0.00  0.00     0.002 A 
ENDROOT
BRANCH   1   7
ATOM      7  C2  UNL d   1      -0.699   0.031  -0.057  0.00  0.00     0.056 C 
BRANCH   7   8
ATOM      8  C1  UNL d   1      -0.094  -1.376  -0.025  0.00  0.00     0.007 C 
ATOM      9  C   UNL d   1      -0.380  -2.181  -1.285  0.00  0.00     0.009 C 
ENDBRANCH   7   8
ENDBRANCH   1   7
TORSDOF 2
ENDMDL
