MODEL 1
REMARK minimizedAffinity -5.28079271
REMARK minimizedRMSD -1
REMARK  2 active torsions:
REMARK  status: ('A' for Active; 'I' for Inactive)
REMARK    1  A    between atoms: C1_2  and  C2_3 
REMARK    2  A    between atoms: C2_3  and  C3_4 
ROOT
ATOM      1  C3  UNL d   1       0.208  -0.456   0.159  0.00  0.00    -0.075 A 
ATOM      2  C4  UNL d   1      -1.040   0.082   0.505  0.00  0.00     0.002 A 
ATOM      3  C5  UNL d   1      -1.248   1.461   0.481  0.00  0.00     0.002 A 
ATOM      4  C6  UNL d   1      -0.211   2.319   0.123  0.00  0.00    -0.004 A 
ATOM      5  C7  UNL d   1       1.038   1.797  -0.206  0.00  0.00     0.002 A 
ATOM      6  C8  UNL d   1       1.248   0.417  -0.188  0.00  0.00     0.002 A 
ENDROOT
BRANCH   1   7
ATOM      7  C2  UNL d   1       0.431  -1.950   0.154  0.00  0.00     0.056 C 
BRANCH   7   8
ATOM      8  C1  UNL d   1      -0.480  -2.713  -0.812  0.00  0.00     0.007 C 
ATOM      9  C   UNL d   1       0.217  -3.113  -2.106  0.00  0.00     0.009 C 
ENDBRANCH   7   8
ENDBRANCH   1   7
TORSDOF 2
ENDMDL
