MODEL 1
REMARK minimizedAffinity -6.44657803
REMARK minimizedRMSD -1
REMARK  2 active torsions:
REMARK  status: ('A' for Active; 'I' for Inactive)
REMARK    1  A    between atoms: C1_2  and  C2_3 
REMARK    2  A    between atoms: C2_3  and  C3_4 
ROOT
ATOM      1  C3  UNL d   1       0.707   1.444  -0.052  0.00  0.00    -0.075 A 
ATOM      2  C4  UNL d   1       2.090   1.462   0.175  0.00  0.00     0.002 A 
ATOM      3  C5  UNL d   1       2.775   2.673   0.286  0.00  0.00     0.002 A 
ATOM      4  C6  UNL d   1       2.088   3.878   0.161  0.00  0.00    -0.004 A 
ATOM      5  C7  UNL d   1       0.716   3.873  -0.082  0.00  0.00     0.002 A 
ATOM      6  C8  UNL d   1       0.028   2.663  -0.189  0.00  0.00     0.002 A 
ENDROOT
BRANCH   1   7
ATOM      7  C2  UNL d   1      -0.045   0.138  -0.144  0.00  0.00     0.056 C 
BRANCH   7   8
ATOM      8  C1  UNL d   1      -0.930  -0.159   1.072  0.00  0.00     0.007 C 
ATOM      9  C   UNL d   1      -2.365   0.321   0.900  0.00  0.00     0.009 C 
ENDBRANCH   7   8
ENDBRANCH   1   7
TORSDOF 2
ENDMDL
