MODEL 1
REMARK minimizedAffinity -4.21338987
REMARK minimizedRMSD -1
REMARK  1 active torsions:
REMARK  status: ('A' for Active; 'I' for Inactive)
REMARK    1  A    between atoms: C3_4  and  O_7 
ROOT
ATOM      1  C   UNL d   1      -1.068  -0.874   1.263  0.00  0.00    -0.033 A 
ATOM      2  C1  UNL d   1      -1.332  -2.226   1.034  0.00  0.00     0.039 A 
ATOM      3  C2  UNL d   1      -0.996  -2.808  -0.190  0.00  0.00    -0.080 A 
ATOM      4  C3  UNL d   1      -0.396  -2.028  -1.175  0.00  0.00     0.150 A 
ATOM      5  C4  UNL d   1      -0.127  -0.681  -0.952  0.00  0.00    -0.007 A 
ATOM      6  C5  UNL d   1      -0.464  -0.102   0.270  0.00  0.00     0.039 A 
ENDROOT
BRANCH   4   7
ATOM      7  O   UNL d   1      -0.054  -2.549  -2.387  0.00  0.00    -0.526 OA
ATOM      8  H5  UNL d   1      -0.326  -3.482  -2.408  0.00  0.00     0.418 HD
ENDBRANCH   4   7
TORSDOF 1
ENDMDL
