MODEL 1
REMARK minimizedAffinity -5.23711061
REMARK minimizedRMSD -1
REMARK  1 active torsions:
REMARK  status: ('A' for Active; 'I' for Inactive)
REMARK    1  A    between atoms: C3_4  and  O_7 
ROOT
ATOM      1  C   UNL d   1      -0.429  -3.392  -0.673  0.00  0.00    -0.033 A 
ATOM      2  C1  UNL d   1      -0.049  -2.683  -1.814  0.00  0.00     0.039 A 
ATOM      3  C2  UNL d   1       0.089  -1.295  -1.762  0.00  0.00    -0.080 A 
ATOM      4  C3  UNL d   1      -0.155  -0.628  -0.565  0.00  0.00     0.150 A 
ATOM      5  C4  UNL d   1      -0.531  -1.328   0.577  0.00  0.00    -0.007 A 
ATOM      6  C5  UNL d   1      -0.669  -2.715   0.523  0.00  0.00     0.039 A 
ENDROOT
BRANCH   4   7
ATOM      7  O   UNL d   1      -0.039   0.727  -0.467  0.00  0.00    -0.526 OA
ATOM      8  H5  UNL d   1       0.199   1.079  -1.340  0.00  0.00     0.418 HD
ENDBRANCH   4   7
TORSDOF 1
ENDMDL
