MODEL 1
REMARK minimizedAffinity -4.31913328
REMARK minimizedRMSD -1
REMARK  1 active torsions:
REMARK  status: ('A' for Active; 'I' for Inactive)
REMARK    1  A    between atoms: C3_4  and  O_7 
ROOT
ATOM      1  C   UNL d   1       1.410   3.500   0.796  0.00  0.00    -0.033 A 
ATOM      2  C1  UNL d   1       0.067   3.337   0.454  0.00  0.00     0.039 A 
ATOM      3  C2  UNL d   1      -0.426   2.070   0.134  0.00  0.00    -0.080 A 
ATOM      4  C3  UNL d   1       0.435   0.976   0.162  0.00  0.00     0.150 A 
ATOM      5  C4  UNL d   1       1.773   1.130   0.507  0.00  0.00    -0.007 A 
ATOM      6  C5  UNL d   1       2.263   2.396   0.824  0.00  0.00     0.039 A 
ENDROOT
BRANCH   4   7
ATOM      7  O   UNL d   1       0.001  -0.280  -0.146  0.00  0.00    -0.526 OA
ATOM      8  H5  UNL d   1      -0.938  -0.229  -0.392  0.00  0.00     0.418 HD
ENDBRANCH   4   7
TORSDOF 1
ENDMDL
