MODEL 1
REMARK minimizedAffinity -5.22111034
REMARK minimizedRMSD -1
REMARK  1 active torsions:
REMARK  status: ('A' for Active; 'I' for Inactive)
REMARK    1  A    between atoms: C3_4  and  O_7 
ROOT
ATOM      1  C   UNL d   1       0.876  -2.640   0.206  0.00  0.00    -0.033 A 
ATOM      2  C1  UNL d   1      -0.383  -3.227   0.348  0.00  0.00     0.039 A 
ATOM      3  C2  UNL d   1      -1.487  -2.442   0.686  0.00  0.00    -0.080 A 
ATOM      4  C3  UNL d   1      -1.320  -1.073   0.878  0.00  0.00     0.150 A 
ATOM      5  C4  UNL d   1      -0.069  -0.481   0.734  0.00  0.00    -0.007 A 
ATOM      6  C5  UNL d   1       1.032  -1.267   0.398  0.00  0.00     0.039 A 
ENDROOT
BRANCH   4   7
ATOM      7  O   UNL d   1      -2.367  -0.267   1.214  0.00  0.00    -0.526 OA
ATOM      8  H5  UNL d   1      -3.162  -0.818   1.307  0.00  0.00     0.418 HD
ENDBRANCH   4   7
TORSDOF 1
ENDMDL
