MODEL 1
REMARK minimizedAffinity -2.38953996
REMARK minimizedRMSD -1
REMARK  1 active torsions:
REMARK  status: ('A' for Active; 'I' for Inactive)
REMARK    1  A    between atoms: C3_4  and  O_7 
ROOT
ATOM      1  C   UNL d   1      -0.784  -0.925   1.152  0.00  0.00    -0.033 A 
ATOM      2  C1  UNL d   1      -0.863  -2.155   0.496  0.00  0.00     0.039 A 
ATOM      3  C2  UNL d   1      -0.507  -2.255  -0.850  0.00  0.00    -0.080 A 
ATOM      4  C3  UNL d   1      -0.073  -1.119  -1.528  0.00  0.00     0.150 A 
ATOM      5  C4  UNL d   1       0.012   0.109  -0.880  0.00  0.00    -0.007 A 
ATOM      6  C5  UNL d   1      -0.345   0.206   0.464  0.00  0.00     0.039 A 
ENDROOT
BRANCH   4   7
ATOM      7  O   UNL d   1       0.281  -1.167  -2.844  0.00  0.00    -0.526 OA
ATOM      8  H5  UNL d   1       0.145  -2.073  -3.167  0.00  0.00     0.418 HD
ENDBRANCH   4   7
TORSDOF 1
ENDMDL
