MODEL 1
REMARK minimizedAffinity -4.94731951
REMARK minimizedRMSD -1
REMARK  1 active torsions:
REMARK  status: ('A' for Active; 'I' for Inactive)
REMARK    1  A    between atoms: C3_4  and  O_7 
ROOT
ATOM      1  C   UNL d   1       0.097  -2.830   0.753  0.00  0.00    -0.033 A 
ATOM      2  C1  UNL d   1       1.021  -2.519  -0.246  0.00  0.00     0.039 A 
ATOM      3  C2  UNL d   1       1.005  -1.260  -0.848  0.00  0.00    -0.080 A 
ATOM      4  C3  UNL d   1       0.061  -0.321  -0.442  0.00  0.00     0.150 A 
ATOM      5  C4  UNL d   1      -0.861  -0.622   0.556  0.00  0.00    -0.007 A 
ATOM      6  C5  UNL d   1      -0.843  -1.880   1.155  0.00  0.00     0.039 A 
ENDROOT
BRANCH   4   7
ATOM      7  O   UNL d   1       0.003   0.920  -1.004  0.00  0.00    -0.526 OA
ATOM      8  H5  UNL d   1       0.681   0.976  -1.698  0.00  0.00     0.418 HD
ENDBRANCH   4   7
TORSDOF 1
ENDMDL
