MODEL 1
REMARK minimizedAffinity -5.61050844
REMARK minimizedRMSD -1
REMARK  1 active torsions:
REMARK  status: ('A' for Active; 'I' for Inactive)
REMARK    1  A    between atoms: C3_4  and  O_7 
ROOT
ATOM      1  C   UNL d   1      -0.592   0.478   0.215  0.00  0.00    -0.033 A 
ATOM      2  C1  UNL d   1       0.107  -0.081  -0.856  0.00  0.00     0.039 A 
ATOM      3  C2  UNL d   1       0.411  -1.444  -0.858  0.00  0.00    -0.080 A 
ATOM      4  C3  UNL d   1       0.011  -2.235   0.215  0.00  0.00     0.150 A 
ATOM      5  C4  UNL d   1      -0.689  -1.685   1.284  0.00  0.00    -0.007 A 
ATOM      6  C5  UNL d   1      -0.991  -0.324   1.285  0.00  0.00     0.039 A 
ENDROOT
BRANCH   4   7
ATOM      7  O   UNL d   1       0.290  -3.569   0.261  0.00  0.00    -0.526 OA
ATOM      8  H5  UNL d   1       0.802  -3.803  -0.531  0.00  0.00     0.418 HD
ENDBRANCH   4   7
TORSDOF 1
ENDMDL
