MODEL 1
REMARK minimizedAffinity -3.11582327
REMARK minimizedRMSD -1
REMARK  1 active torsions:
REMARK  status: ('A' for Active; 'I' for Inactive)
REMARK    1  A    between atoms: C3_4  and  O_7 
ROOT
ATOM      1  C   UNL d   1       1.068   3.343  -0.357  0.00  0.00    -0.033 A 
ATOM      2  C1  UNL d   1       0.269   2.666  -1.281  0.00  0.00     0.039 A 
ATOM      3  C2  UNL d   1      -0.200   1.383  -0.993  0.00  0.00    -0.080 A 
ATOM      4  C3  UNL d   1       0.135   0.789   0.221  0.00  0.00     0.150 A 
ATOM      5  C4  UNL d   1       0.927   1.459   1.148  0.00  0.00    -0.007 A 
ATOM      6  C5  UNL d   1       1.395   2.740   0.858  0.00  0.00     0.039 A 
ENDROOT
BRANCH   4   7
ATOM      7  O   UNL d   1      -0.296  -0.463   0.544  0.00  0.00    -0.526 OA
ATOM      8  H5  UNL d   1      -0.809  -0.814  -0.202  0.00  0.00     0.418 HD
ENDBRANCH   4   7
TORSDOF 1
ENDMDL
