MODEL 1
REMARK minimizedAffinity -5.01677656
REMARK minimizedRMSD -1
REMARK  1 active torsions:
REMARK  status: ('A' for Active; 'I' for Inactive)
REMARK    1  A    between atoms: C3_4  and  O_7 
ROOT
ATOM      1  C   UNL d   1      -0.514   0.165   0.553  0.00  0.00    -0.033 A 
ATOM      2  C1  UNL d   1      -1.360  -0.665   1.291  0.00  0.00     0.039 A 
ATOM      3  C2  UNL d   1      -1.103  -2.036   1.366  0.00  0.00    -0.080 A 
ATOM      4  C3  UNL d   1       0.001  -2.562   0.701  0.00  0.00     0.150 A 
ATOM      5  C4  UNL d   1       0.850  -1.740  -0.032  0.00  0.00    -0.007 A 
ATOM      6  C5  UNL d   1       0.592  -0.372  -0.107  0.00  0.00     0.039 A 
ENDROOT
BRANCH   4   7
ATOM      7  O   UNL d   1       0.289  -3.894   0.742  0.00  0.00    -0.526 OA
ATOM      8  H5  UNL d   1      -0.400  -4.342   1.261  0.00  0.00     0.418 HD
ENDBRANCH   4   7
TORSDOF 1
ENDMDL
