MODEL 1
REMARK minimizedAffinity -5.56424856
REMARK minimizedRMSD -1
REMARK  1 active torsions:
REMARK  status: ('A' for Active; 'I' for Inactive)
REMARK    1  A    between atoms: C3_4  and  O_7 
ROOT
ATOM      1  C   UNL d   1      -0.297  -2.645   0.844  0.00  0.00    -0.033 A 
ATOM      2  C1  UNL d   1      -0.210  -1.279   0.566  0.00  0.00     0.039 A 
ATOM      3  C2  UNL d   1      -0.077  -0.841  -0.753  0.00  0.00    -0.080 A 
ATOM      4  C3  UNL d   1      -0.033  -1.776  -1.783  0.00  0.00     0.150 A 
ATOM      5  C4  UNL d   1      -0.123  -3.138  -1.513  0.00  0.00    -0.007 A 
ATOM      6  C5  UNL d   1      -0.255  -3.574  -0.195  0.00  0.00     0.039 A 
ENDROOT
BRANCH   4   7
ATOM      7  O   UNL d   1       0.101  -1.397  -3.085  0.00  0.00    -0.526 OA
ATOM      8  H5  UNL d   1       0.180  -0.429  -3.117  0.00  0.00     0.418 HD
ENDBRANCH   4   7
TORSDOF 1
ENDMDL
