MODEL 1
REMARK minimizedAffinity -2.90360785
REMARK minimizedRMSD -1
REMARK  1 active torsions:
REMARK  status: ('A' for Active; 'I' for Inactive)
REMARK    1  A    between atoms: C3_4  and  O_7 
ROOT
ATOM      1  C   UNL d   1       2.096   2.827  -0.250  0.00  0.00    -0.033 A 
ATOM      2  C1  UNL d   1       2.869   3.242   0.836  0.00  0.00     0.039 A 
ATOM      3  C2  UNL d   1       2.255   3.567   2.048  0.00  0.00    -0.080 A 
ATOM      4  C3  UNL d   1       0.871   3.472   2.160  0.00  0.00     0.150 A 
ATOM      5  C4  UNL d   1       0.096   3.055   1.083  0.00  0.00    -0.007 A 
ATOM      6  C5  UNL d   1       0.710   2.731  -0.126  0.00  0.00     0.039 A 
ENDROOT
BRANCH   4   7
ATOM      7  O   UNL d   1       0.227   3.783   3.321  0.00  0.00    -0.526 OA
ATOM      8  H5  UNL d   1       0.887   4.083   3.968  0.00  0.00     0.418 HD
ENDBRANCH   4   7
TORSDOF 1
ENDMDL
