MODEL 1
REMARK minimizedAffinity -4.45975304
REMARK minimizedRMSD -1
REMARK  1 active torsions:
REMARK  status: ('A' for Active; 'I' for Inactive)
REMARK    1  A    between atoms: C3_4  and  O_7 
ROOT
ATOM      1  C   UNL d   1      -0.389  -3.219   0.360  0.00  0.00    -0.033 A 
ATOM      2  C1  UNL d   1       0.704  -2.468  -0.077  0.00  0.00     0.039 A 
ATOM      3  C2  UNL d   1       0.667  -1.074  -0.011  0.00  0.00    -0.080 A 
ATOM      4  C3  UNL d   1      -0.467  -0.444   0.495  0.00  0.00     0.150 A 
ATOM      5  C4  UNL d   1      -1.558  -1.186   0.937  0.00  0.00    -0.007 A 
ATOM      6  C5  UNL d   1      -1.519  -2.578   0.868  0.00  0.00     0.039 A 
ENDROOT
BRANCH   4   7
ATOM      7  O   UNL d   1      -0.551   0.914   0.576  0.00  0.00    -0.526 OA
ATOM      8  H5  UNL d   1       0.264   1.296   0.209  0.00  0.00     0.418 HD
ENDBRANCH   4   7
TORSDOF 1
ENDMDL
