MODEL 1
REMARK minimizedAffinity -2.00591755
REMARK minimizedRMSD -1
REMARK  1 active torsions:
REMARK  status: ('A' for Active; 'I' for Inactive)
REMARK    1  A    between atoms: C3_4  and  O_7 
ROOT
ATOM      1  C   UNL d   1       0.375  -0.950  -1.527  0.00  0.00    -0.033 A 
ATOM      2  C1  UNL d   1       1.115  -0.932  -0.344  0.00  0.00     0.039 A 
ATOM      3  C2  UNL d   1       1.370   0.278   0.304  0.00  0.00    -0.080 A 
ATOM      4  C3  UNL d   1       0.878   1.462  -0.240  0.00  0.00     0.150 A 
ATOM      5  C4  UNL d   1       0.136   1.451  -1.416  0.00  0.00    -0.007 A 
ATOM      6  C5  UNL d   1      -0.116   0.241  -2.063  0.00  0.00     0.039 A 
ENDROOT
BRANCH   4   7
ATOM      7  O   UNL d   1       1.105   2.667   0.354  0.00  0.00    -0.526 OA
ATOM      8  H5  UNL d   1       1.655   2.524   1.142  0.00  0.00     0.418 HD
ENDBRANCH   4   7
TORSDOF 1
ENDMDL
