MODEL 1
REMARK minimizedAffinity -2.4052124
REMARK minimizedRMSD -1
REMARK  1 active torsions:
REMARK  status: ('A' for Active; 'I' for Inactive)
REMARK    1  A    between atoms: C1_2  and  C2_3 
ROOT
ATOM      1  C2  UNL d   1      -1.151   0.223   0.704  0.00  0.00    -0.081 A 
ATOM      2  C3  UNL d   1      -1.385  -1.132   0.969  0.00  0.00     0.006 A 
ATOM      3  C4  UNL d   1      -0.358  -2.068   0.831  0.00  0.00     0.002 A 
ATOM      4  C5  UNL d   1       0.922  -1.664   0.435  0.00  0.00    -0.080 A 
ATOM      5  C6  UNL d   1       2.042  -2.655   0.313  0.00  0.00     0.076 C 
ATOM      6  C7  UNL d   1       1.152  -0.313   0.154  0.00  0.00     0.002 A 
ATOM      7  C8  UNL d   1       0.124   0.623   0.291  0.00  0.00     0.006 A 
ENDROOT
BRANCH   1   8
ATOM      8  C1  UNL d   1      -2.240   1.244   0.914  0.00  0.00     0.054 C 
ATOM      9  C   UNL d   1      -1.688   2.661   0.856  0.00  0.00     0.018 C 
ENDBRANCH   1   8
TORSDOF 1
ENDMDL
