MODEL 1
REMARK minimizedAffinity -4.45338535
REMARK minimizedRMSD -1
REMARK  1 active torsions:
REMARK  status: ('A' for Active; 'I' for Inactive)
REMARK    1  A    between atoms: C1_2  and  C2_3 
ROOT
ATOM      1  C2  UNL d   1      -1.131  -1.510   0.794  0.00  0.00    -0.081 A 
ATOM      2  C3  UNL d   1      -0.463  -1.764  -0.411  0.00  0.00     0.006 A 
ATOM      3  C4  UNL d   1       0.132  -0.720  -1.124  0.00  0.00     0.002 A 
ATOM      4  C5  UNL d   1       0.077   0.592  -0.641  0.00  0.00    -0.080 A 
ATOM      5  C6  UNL d   1       0.737   1.716  -1.382  0.00  0.00     0.076 C 
ATOM      6  C7  UNL d   1      -0.606   0.848   0.553  0.00  0.00     0.002 A 
ATOM      7  C8  UNL d   1      -1.202  -0.194   1.266  0.00  0.00     0.006 A 
ENDROOT
BRANCH   1   8
ATOM      8  C1  UNL d   1      -1.718  -2.641   1.598  0.00  0.00     0.054 C 
ATOM      9  C   UNL d   1      -1.033  -2.772   2.951  0.00  0.00     0.018 C 
ENDBRANCH   1   8
TORSDOF 1
ENDMDL
