MODEL 1
REMARK minimizedAffinity -2.76978302
REMARK minimizedRMSD -1
REMARK  1 active torsions:
REMARK  status: ('A' for Active; 'I' for Inactive)
REMARK    1  A    between atoms: C1_2  and  C2_3 
ROOT
ATOM      1  C2  UNL d   1       0.146   0.514  -0.715  0.00  0.00    -0.081 A 
ATOM      2  C3  UNL d   1       0.819  -0.194   0.287  0.00  0.00     0.006 A 
ATOM      3  C4  UNL d   1       0.199  -1.264   0.936  0.00  0.00     0.002 A 
ATOM      4  C5  UNL d   1      -1.101  -1.649   0.588  0.00  0.00    -0.080 A 
ATOM      5  C6  UNL d   1      -1.767  -2.815   1.256  0.00  0.00     0.076 C 
ATOM      6  C7  UNL d   1      -1.780  -0.930  -0.401  0.00  0.00     0.002 A 
ATOM      7  C8  UNL d   1      -1.160   0.141  -1.050  0.00  0.00     0.006 A 
ENDROOT
BRANCH   1   8
ATOM      8  C1  UNL d   1       0.836   1.628  -1.462  0.00  0.00     0.054 C 
ATOM      9  C   UNL d   1       0.157   1.903  -2.796  0.00  0.00     0.018 C 
ENDBRANCH   1   8
TORSDOF 1
ENDMDL
