MODEL 1
REMARK minimizedAffinity -5.06508446
REMARK minimizedRMSD -1
REMARK  1 active torsions:
REMARK  status: ('A' for Active; 'I' for Inactive)
REMARK    1  A    between atoms: C1_2  and  C2_3 
ROOT
ATOM      1  C2  UNL d   1       0.206   0.496  -0.504  0.00  0.00    -0.081 A 
ATOM      2  C3  UNL d   1       1.037  -0.580  -0.168  0.00  0.00     0.006 A 
ATOM      3  C4  UNL d   1       0.502  -1.734   0.411  0.00  0.00     0.002 A 
ATOM      4  C5  UNL d   1      -0.871  -1.833   0.656  0.00  0.00    -0.080 A 
ATOM      5  C6  UNL d   1      -1.462  -3.078   1.250  0.00  0.00     0.076 C 
ATOM      6  C7  UNL d   1      -1.699  -0.751   0.337  0.00  0.00     0.002 A 
ATOM      7  C8  UNL d   1      -1.165   0.402  -0.241  0.00  0.00     0.006 A 
ENDROOT
BRANCH   1   8
ATOM      8  C1  UNL d   1       0.770   1.715  -1.188  0.00  0.00     0.054 C 
ATOM      9  C   UNL d   1       0.450   1.713  -2.676  0.00  0.00     0.018 C 
ENDBRANCH   1   8
TORSDOF 1
ENDMDL
