MODEL 1
REMARK minimizedAffinity 2.64632583
REMARK minimizedRMSD -1
REMARK  1 active torsions:
REMARK  status: ('A' for Active; 'I' for Inactive)
REMARK    1  A    between atoms: C1_2  and  C2_3 
ROOT
ATOM      1  C2  UNL d   1      -0.393  -2.134   2.090  0.00  0.00    -0.081 A 
ATOM      2  C3  UNL d   1       0.367  -1.610   1.038  0.00  0.00     0.006 A 
ATOM      3  C4  UNL d   1      -0.067  -0.476   0.348  0.00  0.00     0.002 A 
ATOM      4  C5  UNL d   1      -1.263   0.156   0.702  0.00  0.00    -0.080 A 
ATOM      5  C6  UNL d   1      -1.725   1.392  -0.012  0.00  0.00     0.076 C 
ATOM      6  C7  UNL d   1      -2.032  -0.378   1.741  0.00  0.00     0.002 A 
ATOM      7  C8  UNL d   1      -1.599  -1.512   2.432  0.00  0.00     0.006 A 
ENDROOT
BRANCH   1   8
ATOM      8  C1  UNL d   1       0.104  -3.319   2.879  0.00  0.00     0.054 C 
ATOM      9  C   UNL d   1       0.206  -2.992   4.362  0.00  0.00     0.018 C 
ENDBRANCH   1   8
TORSDOF 1
ENDMDL
