MODEL 1
REMARK minimizedAffinity -3.27739811
REMARK minimizedRMSD -1
REMARK  1 active torsions:
REMARK  status: ('A' for Active; 'I' for Inactive)
REMARK    1  A    between atoms: C1_2  and  C2_3 
ROOT
ATOM      1  C2  UNL d   1       0.031   0.675  -0.093  0.00  0.00    -0.081 A 
ATOM      2  C3  UNL d   1       0.814  -0.418   0.298  0.00  0.00     0.006 A 
ATOM      3  C4  UNL d   1       0.214  -1.630   0.648  0.00  0.00     0.002 A 
ATOM      4  C5  UNL d   1      -1.177  -1.771   0.606  0.00  0.00    -0.080 A 
ATOM      5  C6  UNL d   1      -1.832  -3.076   0.951  0.00  0.00     0.076 C 
ATOM      6  C7  UNL d   1      -1.961  -0.674   0.233  0.00  0.00     0.002 A 
ATOM      7  C8  UNL d   1      -1.361   0.538  -0.116  0.00  0.00     0.006 A 
ENDROOT
BRANCH   1   8
ATOM      8  C1  UNL d   1       0.679   1.963  -0.533  0.00  0.00     0.054 C 
ATOM      9  C   UNL d   1       1.067   1.912  -2.004  0.00  0.00     0.018 C 
ENDBRANCH   1   8
TORSDOF 1
ENDMDL
