MODEL 1
REMARK minimizedAffinity -1.66976535
REMARK minimizedRMSD -1
REMARK  1 active torsions:
REMARK  status: ('A' for Active; 'I' for Inactive)
REMARK    1  A    between atoms: C1_2  and  C2_3 
ROOT
ATOM      1  C2  UNL d   1       0.527  -0.683   0.615  0.00  0.00    -0.081 A 
ATOM      2  C3  UNL d   1       0.690  -1.604   1.657  0.00  0.00     0.006 A 
ATOM      3  C4  UNL d   1      -0.366  -2.436   2.039  0.00  0.00     0.002 A 
ATOM      4  C5  UNL d   1      -1.598  -2.366   1.381  0.00  0.00    -0.080 A 
ATOM      5  C6  UNL d   1      -2.730  -3.274   1.761  0.00  0.00     0.076 C 
ATOM      6  C7  UNL d   1      -1.767  -1.434   0.351  0.00  0.00     0.002 A 
ATOM      7  C8  UNL d   1      -0.712  -0.602  -0.030  0.00  0.00     0.006 A 
ENDROOT
BRANCH   1   8
ATOM      8  C1  UNL d   1       1.682   0.170   0.158  0.00  0.00     0.054 C 
ATOM      9  C   UNL d   1       3.006  -0.361   0.689  0.00  0.00     0.018 C 
ENDBRANCH   1   8
TORSDOF 1
ENDMDL
