MODEL 1
REMARK minimizedAffinity -3.36557364
REMARK minimizedRMSD -1
REMARK  1 active torsions:
REMARK  status: ('A' for Active; 'I' for Inactive)
REMARK    1  A    between atoms: C1_2  and  C2_3 
ROOT
ATOM      1  C2  UNL d   1       0.796   0.941  -0.418  0.00  0.00    -0.081 A 
ATOM      2  C3  UNL d   1      -0.414   1.236   0.222  0.00  0.00     0.006 A 
ATOM      3  C4  UNL d   1      -1.102   0.246   0.927  0.00  0.00     0.002 A 
ATOM      4  C5  UNL d   1      -0.589  -1.053   1.010  0.00  0.00    -0.080 A 
ATOM      5  C6  UNL d   1      -1.302  -2.118   1.789  0.00  0.00     0.076 C 
ATOM      6  C7  UNL d   1       0.611  -1.352   0.356  0.00  0.00     0.002 A 
ATOM      7  C8  UNL d   1       1.299  -0.363  -0.350  0.00  0.00     0.006 A 
ENDROOT
BRANCH   1   8
ATOM      8  C1  UNL d   1       1.573   2.022  -1.124  0.00  0.00     0.054 C 
ATOM      9  C   UNL d   1       1.344   1.976  -2.628  0.00  0.00     0.018 C 
ENDBRANCH   1   8
TORSDOF 1
ENDMDL
