MODEL 1
REMARK minimizedAffinity -3.5022788
REMARK minimizedRMSD -1
REMARK  0 active torsions:
REMARK  status: ('A' for Active; 'I' for Inactive)
ROOT
ATOM      1  C   UNL d   1      -0.208   0.147  -1.454  0.00  0.00     0.023 A 
ATOM      2  C1  UNL d   1       1.042  -0.441  -1.263  0.00  0.00     0.003 A 
ATOM      3  C2  UNL d   1       1.439  -0.842   0.014  0.00  0.00     0.048 A 
ATOM      4  C3  UNL d   1       0.580  -0.654   1.096  0.00  0.00     0.023 A 
ATOM      5  C4  UNL d   1      -0.672  -0.067   0.910  0.00  0.00     0.048 A 
ATOM      6  C5  UNL d   1      -1.065   0.333  -0.368  0.00  0.00     0.003 A 
ATOM      7  I   UNL d   1       1.169  -1.252   2.998  0.00  0.00    -0.146 I 
ENDROOT
TORSDOF 0
ENDMDL
