MODEL 1
REMARK minimizedAffinity -4.73890305
REMARK minimizedRMSD -1
REMARK  0 active torsions:
REMARK  status: ('A' for Active; 'I' for Inactive)
ROOT
ATOM      1  C   UNL d   1       2.249  -1.555   2.336  0.00  0.00     0.023 A 
ATOM      2  C1  UNL d   1       2.724  -1.498   1.026  0.00  0.00     0.003 A 
ATOM      3  C2  UNL d   1       1.898  -1.031   0.002  0.00  0.00     0.048 A 
ATOM      4  C3  UNL d   1       0.598  -0.620   0.295  0.00  0.00     0.023 A 
ATOM      5  C4  UNL d   1       0.118  -0.675   1.605  0.00  0.00     0.048 A 
ATOM      6  C5  UNL d   1       0.948  -1.144   2.625  0.00  0.00     0.003 A 
ATOM      7  I   UNL d   1      -0.633   0.076  -1.228  0.00  0.00    -0.146 I 
ENDROOT
TORSDOF 0
ENDMDL
