MODEL 1
REMARK minimizedAffinity -4.79306316
REMARK minimizedRMSD -1
REMARK  0 active torsions:
REMARK  status: ('A' for Active; 'I' for Inactive)
ROOT
ATOM      1  C   UNL d   1       2.368  -1.561   2.541  0.00  0.00     0.023 A 
ATOM      2  C1  UNL d   1       2.453  -2.012   1.224  0.00  0.00     0.003 A 
ATOM      3  C2  UNL d   1       1.646  -1.443   0.236  0.00  0.00     0.048 A 
ATOM      4  C3  UNL d   1       0.758  -0.422   0.572  0.00  0.00     0.023 A 
ATOM      5  C4  UNL d   1       0.670   0.033   1.888  0.00  0.00     0.048 A 
ATOM      6  C5  UNL d   1       1.478  -0.539   2.873  0.00  0.00     0.003 A 
ATOM      7  I   UNL d   1      -0.443   0.427  -0.897  0.00  0.00    -0.146 I 
ENDROOT
TORSDOF 0
ENDMDL
