MODEL 1
REMARK minimizedAffinity -3.37073541
REMARK minimizedRMSD -1
REMARK  0 active torsions:
REMARK  status: ('A' for Active; 'I' for Inactive)
ROOT
ATOM      1  C   UNL d   1      -1.100   0.252   1.993  0.00  0.00     0.023 A 
ATOM      2  C1  UNL d   1      -0.317  -0.424   2.929  0.00  0.00     0.003 A 
ATOM      3  C2  UNL d   1       0.794  -1.159   2.510  0.00  0.00     0.048 A 
ATOM      4  C3  UNL d   1       1.118  -1.212   1.155  0.00  0.00     0.023 A 
ATOM      5  C4  UNL d   1       0.338  -0.536   0.215  0.00  0.00     0.048 A 
ATOM      6  C5  UNL d   1      -0.773   0.196   0.638  0.00  0.00     0.003 A 
ATOM      7  I   UNL d   1       2.771  -2.305   0.530  0.00  0.00    -0.146 I 
ENDROOT
TORSDOF 0
ENDMDL
