MODEL 1
REMARK minimizedAffinity -1.18691254
REMARK minimizedRMSD -1
REMARK  0 active torsions:
REMARK  status: ('A' for Active; 'I' for Inactive)
ROOT
ATOM      1  C   UNL d   1       1.480   3.871  -1.573  0.00  0.00     0.172 C 
ATOM      2  N   UNL d   1       1.150   2.555  -1.080  0.00  0.00    -0.070 N 
ATOM      3  C1  UNL d   1       0.861   1.462  -1.854  0.00  0.00    -0.004 A 
ATOM      4  C2  UNL d   1       0.603   0.404  -1.010  0.00  0.00    -0.047 A 
ATOM      5  C3  UNL d   1       0.740   0.877   0.316  0.00  0.00    -0.047 A 
ATOM      6  C4  UNL d   1       1.079   2.211   0.244  0.00  0.00    -0.004 A 
ENDROOT
TORSDOF 0
ENDMDL
