MODEL 1
REMARK minimizedAffinity -0.996893942
REMARK minimizedRMSD -1
REMARK  0 active torsions:
REMARK  status: ('A' for Active; 'I' for Inactive)
ROOT
ATOM      1  C   UNL d   1       1.520   2.575  -2.198  0.00  0.00     0.172 C 
ATOM      2  N   UNL d   1       1.195   1.750  -1.059  0.00  0.00    -0.070 N 
ATOM      3  C1  UNL d   1       1.072   0.386  -1.070  0.00  0.00    -0.004 A 
ATOM      4  C2  UNL d   1       0.755  -0.019   0.208  0.00  0.00    -0.047 A 
ATOM      5  C3  UNL d   1       0.683   1.141   1.015  0.00  0.00    -0.047 A 
ATOM      6  C4  UNL d   1       0.959   2.222   0.205  0.00  0.00    -0.004 A 
ENDROOT
TORSDOF 0
ENDMDL
