MODEL 1
REMARK minimizedAffinity -3.49345732
REMARK minimizedRMSD -1
REMARK  0 active torsions:
REMARK  status: ('A' for Active; 'I' for Inactive)
ROOT
ATOM      1  C   UNL d   1       0.982  -1.529  -1.007  0.00  0.00     0.172 C 
ATOM      2  N   UNL d   1       1.154  -0.104  -0.843  0.00  0.00    -0.070 N 
ATOM      3  C1  UNL d   1       0.815   0.618   0.269  0.00  0.00    -0.004 A 
ATOM      4  C2  UNL d   1       1.137   1.937   0.030  0.00  0.00    -0.047 A 
ATOM      5  C3  UNL d   1       1.687   2.009  -1.271  0.00  0.00    -0.047 A 
ATOM      6  C4  UNL d   1       1.686   0.731  -1.790  0.00  0.00    -0.004 A 
ENDROOT
TORSDOF 0
ENDMDL
