MODEL 1
REMARK minimizedAffinity -3.76104164
REMARK minimizedRMSD -1
REMARK  0 active torsions:
REMARK  status: ('A' for Active; 'I' for Inactive)
ROOT
ATOM      1  C   UNL d   1       1.515   4.003  -1.559  0.00  0.00     0.172 C 
ATOM      2  N   UNL d   1       1.385   2.734  -0.882  0.00  0.00    -0.070 N 
ATOM      3  C1  UNL d   1       0.978   2.557   0.413  0.00  0.00    -0.004 A 
ATOM      4  C2  UNL d   1       0.987   1.205   0.678  0.00  0.00    -0.047 A 
ATOM      5  C3  UNL d   1       1.416   0.546  -0.499  0.00  0.00    -0.047 A 
ATOM      6  C4  UNL d   1       1.656   1.516  -1.449  0.00  0.00    -0.004 A 
ENDROOT
TORSDOF 0
ENDMDL
