MODEL 1
REMARK minimizedAffinity 0.878622949
REMARK minimizedRMSD -1
REMARK  0 active torsions:
REMARK  status: ('A' for Active; 'I' for Inactive)
ROOT
ATOM      1  C   UNL d   1       1.655  -0.273  -3.403  0.00  0.00     0.172 C 
ATOM      2  N   UNL d   1       1.790   0.264  -2.069  0.00  0.00    -0.070 N 
ATOM      3  C1  UNL d   1       0.985   1.219  -1.508  0.00  0.00    -0.004 A 
ATOM      4  C2  UNL d   1       1.440   1.457  -0.229  0.00  0.00    -0.047 A 
ATOM      5  C3  UNL d   1       2.557   0.615  -0.014  0.00  0.00    -0.047 A 
ATOM      6  C4  UNL d   1       2.752  -0.113  -1.169  0.00  0.00    -0.004 A 
ENDROOT
TORSDOF 0
ENDMDL
