MODEL 1
REMARK minimizedAffinity -3.10575676
REMARK minimizedRMSD -1
REMARK  0 active torsions:
REMARK  status: ('A' for Active; 'I' for Inactive)
ROOT
ATOM      1  C   UNL d   1       1.421  -0.450  -1.887  0.00  0.00     0.172 C 
ATOM      2  N   UNL d   1       1.584   0.754  -1.107  0.00  0.00    -0.070 N 
ATOM      3  C1  UNL d   1       0.640   1.732  -0.943  0.00  0.00    -0.004 A 
ATOM      4  C2  UNL d   1       1.179   2.707  -0.132  0.00  0.00    -0.047 A 
ATOM      5  C3  UNL d   1       2.493   2.301   0.203  0.00  0.00    -0.047 A 
ATOM      6  C4  UNL d   1       2.717   1.088  -0.414  0.00  0.00    -0.004 A 
ENDROOT
TORSDOF 0
ENDMDL
