MODEL 1
REMARK minimizedAffinity -2.64998198
REMARK minimizedRMSD -1
REMARK  0 active torsions:
REMARK  status: ('A' for Active; 'I' for Inactive)
ROOT
ATOM      1  C   UNL d   1       1.113  -1.839  -0.386  0.00  0.00     0.172 C 
ATOM      2  N   UNL d   1       1.195  -0.398  -0.417  0.00  0.00    -0.070 N 
ATOM      3  C1  UNL d   1       0.625   0.414  -1.360  0.00  0.00    -0.004 A 
ATOM      4  C2  UNL d   1       0.933   1.718  -1.037  0.00  0.00    -0.047 A 
ATOM      5  C3  UNL d   1       1.717   1.688   0.140  0.00  0.00    -0.047 A 
ATOM      6  C4  UNL d   1       1.864   0.366   0.503  0.00  0.00    -0.004 A 
ENDROOT
TORSDOF 0
ENDMDL
