MODEL 1
REMARK minimizedAffinity 1.14479923
REMARK minimizedRMSD -1
REMARK  0 active torsions:
REMARK  status: ('A' for Active; 'I' for Inactive)
ROOT
ATOM      1  C   UNL d   1       0.857   1.421  -1.028  0.00  0.00     0.172 C 
ATOM      2  N   UNL d   1       0.911   0.001  -0.768  0.00  0.00    -0.070 N 
ATOM      3  C1  UNL d   1       0.303  -0.971  -1.517  0.00  0.00    -0.004 A 
ATOM      4  C2  UNL d   1       0.594  -2.190  -0.943  0.00  0.00    -0.047 A 
ATOM      5  C3  UNL d   1       1.404  -1.941   0.191  0.00  0.00    -0.047 A 
ATOM      6  C4  UNL d   1       1.584  -0.576   0.275  0.00  0.00    -0.004 A 
ENDROOT
TORSDOF 0
ENDMDL
