MODEL 1
REMARK minimizedAffinity -3.20749044
REMARK minimizedRMSD -1
REMARK  0 active torsions:
REMARK  status: ('A' for Active; 'I' for Inactive)
ROOT
ATOM      1  C   UNL d   1       1.165   0.251  -1.427  0.00  0.00     0.172 C 
ATOM      2  N   UNL d   1       1.325   1.571  -0.863  0.00  0.00    -0.070 N 
ATOM      3  C1  UNL d   1       1.359   1.870   0.472  0.00  0.00    -0.004 A 
ATOM      4  C2  UNL d   1       1.525   3.232   0.596  0.00  0.00    -0.047 A 
ATOM      5  C3  UNL d   1       1.591   3.771  -0.711  0.00  0.00    -0.047 A 
ATOM      6  C4  UNL d   1       1.465   2.720  -1.595  0.00  0.00    -0.004 A 
ENDROOT
TORSDOF 0
ENDMDL
