MODEL 1
REMARK minimizedAffinity -2.83261657
REMARK minimizedRMSD -1
REMARK  0 active torsions:
REMARK  status: ('A' for Active; 'I' for Inactive)
ROOT
ATOM      1  C   UNL d   1       1.627   3.969  -1.400  0.00  0.00     0.172 C 
ATOM      2  N   UNL d   1       1.399   2.615  -0.952  0.00  0.00    -0.070 N 
ATOM      3  C1  UNL d   1       1.271   2.215   0.351  0.00  0.00    -0.004 A 
ATOM      4  C2  UNL d   1       1.064   0.853   0.357  0.00  0.00    -0.047 A 
ATOM      5  C3  UNL d   1       1.068   0.418  -0.989  0.00  0.00    -0.047 A 
ATOM      6  C4  UNL d   1       1.278   1.529  -1.779  0.00  0.00    -0.004 A 
ENDROOT
TORSDOF 0
ENDMDL
