MODEL 1
REMARK minimizedAffinity -0.384514719
REMARK minimizedRMSD -1
REMARK  0 active torsions:
REMARK  status: ('A' for Active; 'I' for Inactive)
ROOT
ATOM      1  C   UNL d   1       1.878   2.464  -2.141  0.00  0.00     0.172 C 
ATOM      2  N   UNL d   1       1.369   1.634  -1.074  0.00  0.00    -0.070 N 
ATOM      3  C1  UNL d   1       0.757   2.085   0.065  0.00  0.00    -0.004 A 
ATOM      4  C2  UNL d   1       0.420   0.986   0.825  0.00  0.00    -0.047 A 
ATOM      5  C3  UNL d   1       0.845  -0.164   0.119  0.00  0.00    -0.047 A 
ATOM      6  C4  UNL d   1       1.430   0.266  -1.053  0.00  0.00    -0.004 A 
ENDROOT
TORSDOF 0
ENDMDL
