MODEL 1
REMARK minimizedAffinity -1.10743773
REMARK minimizedRMSD -1
REMARK  0 active torsions:
REMARK  status: ('A' for Active; 'I' for Inactive)
ROOT
ATOM      1  C   UNL d   1       1.873   3.576  -1.617  0.00  0.00     0.172 C 
ATOM      2  N   UNL d   1       1.489   2.227  -1.275  0.00  0.00    -0.070 N 
ATOM      3  C1  UNL d   1       1.025   1.283  -2.152  0.00  0.00    -0.004 A 
ATOM      4  C2  UNL d   1       0.771   0.132  -1.437  0.00  0.00    -0.047 A 
ATOM      5  C3  UNL d   1       1.092   0.393  -0.084  0.00  0.00    -0.047 A 
ATOM      6  C4  UNL d   1       1.534   1.698  -0.012  0.00  0.00    -0.004 A 
ENDROOT
TORSDOF 0
ENDMDL
