MODEL 1
REMARK minimizedAffinity -3.20167732
REMARK minimizedRMSD -1
REMARK  0 active torsions:
REMARK  status: ('A' for Active; 'I' for Inactive)
ROOT
ATOM      1  C   UNL d   1       1.373   3.800  -1.402  0.00  0.00     0.172 C 
ATOM      2  N   UNL d   1       1.185   2.385  -1.180  0.00  0.00    -0.070 N 
ATOM      3  C1  UNL d   1       0.700   1.815  -0.034  0.00  0.00    -0.004 A 
ATOM      4  C2  UNL d   1       0.672   0.450  -0.221  0.00  0.00    -0.047 A 
ATOM      5  C3  UNL d   1       1.158   0.191  -1.525  0.00  0.00    -0.047 A 
ATOM      6  C4  UNL d   1       1.468   1.407  -2.096  0.00  0.00    -0.004 A 
ENDROOT
TORSDOF 0
ENDMDL
