MODEL 1
REMARK minimizedAffinity -3.5325799
REMARK minimizedRMSD -1
REMARK  0 active torsions:
REMARK  status: ('A' for Active; 'I' for Inactive)
ROOT
ATOM      1  C   UNL d   1       1.790   3.902  -1.388  0.00  0.00     0.172 C 
ATOM      2  N   UNL d   1       1.256   2.579  -1.165  0.00  0.00    -0.070 N 
ATOM      3  C1  UNL d   1       0.608   1.812  -2.096  0.00  0.00    -0.004 A 
ATOM      4  C2  UNL d   1       0.257   0.623  -1.493  0.00  0.00    -0.047 A 
ATOM      5  C3  UNL d   1       0.708   0.679  -0.152  0.00  0.00    -0.047 A 
ATOM      6  C4  UNL d   1       1.323   1.900   0.023  0.00  0.00    -0.004 A 
ENDROOT
TORSDOF 0
ENDMDL
