MODEL 1
REMARK minimizedAffinity -0.121312425
REMARK minimizedRMSD -1
REMARK  0 active torsions:
REMARK  status: ('A' for Active; 'I' for Inactive)
ROOT
ATOM      1  C   UNL d   1       1.931   3.686  -1.418  0.00  0.00     0.172 C 
ATOM      2  N   UNL d   1       1.556   2.349  -1.022  0.00  0.00    -0.070 N 
ATOM      3  C1  UNL d   1       1.674   1.826   0.238  0.00  0.00    -0.004 A 
ATOM      4  C2  UNL d   1       1.210   0.529   0.202  0.00  0.00    -0.047 A 
ATOM      5  C3  UNL d   1       0.800   0.262  -1.126  0.00  0.00    -0.047 A 
ATOM      6  C4  UNL d   1       1.026   1.406  -1.863  0.00  0.00    -0.004 A 
ENDROOT
TORSDOF 0
ENDMDL
