MODEL 1
REMARK minimizedAffinity 3.99357009
REMARK minimizedRMSD -1
REMARK  0 active torsions:
REMARK  status: ('A' for Active; 'I' for Inactive)
ROOT
ATOM      1  C   UNL d   1       6.000  -5.994  -0.188  0.00  0.00     0.023 A 
ATOM      2  C1  UNL d   1       4.973  -5.981  -1.132  0.00  0.00     0.003 A 
ATOM      3  C2  UNL d   1       3.785  -5.298  -0.863  0.00  0.00     0.048 A 
ATOM      4  C3  UNL d   1       3.630  -4.631   0.351  0.00  0.00     0.023 A 
ATOM      5  C4  UNL d   1       4.655  -4.641   1.299  0.00  0.00     0.048 A 
ATOM      6  C5  UNL d   1       5.841  -5.325   1.026  0.00  0.00     0.003 A 
ATOM      7  I   UNL d   1       1.862  -3.615   0.754  0.00  0.00    -0.146 I 
ENDROOT
TORSDOF 0
ENDMDL
