MODEL 1
REMARK minimizedAffinity -1.6926223
REMARK minimizedRMSD -1
REMARK  0 active torsions:
REMARK  status: ('A' for Active; 'I' for Inactive)
ROOT
ATOM      1  C   UNL d   1       2.171  -2.422   0.616  0.00  0.00     0.023 A 
ATOM      2  C1  UNL d   1       3.421  -3.038   0.691  0.00  0.00     0.003 A 
ATOM      3  C2  UNL d   1       4.107  -3.081   1.907  0.00  0.00     0.048 A 
ATOM      4  C3  UNL d   1       3.537  -2.508   3.043  0.00  0.00     0.023 A 
ATOM      5  C4  UNL d   1       2.287  -1.892   2.973  0.00  0.00     0.048 A 
ATOM      6  C5  UNL d   1       1.605  -1.850   1.755  0.00  0.00     0.003 A 
ATOM      7  I   UNL d   1       4.556  -2.572   4.854  0.00  0.00    -0.146 I 
ENDROOT
TORSDOF 0
ENDMDL
