MODEL 1
REMARK minimizedAffinity 0.139671639
REMARK minimizedRMSD -1
REMARK  0 active torsions:
REMARK  status: ('A' for Active; 'I' for Inactive)
ROOT
ATOM      1  C   UNL d   1      -1.047   0.197   2.149  0.00  0.00     0.023 A 
ATOM      2  C1  UNL d   1      -0.392  -0.584   3.101  0.00  0.00     0.003 A 
ATOM      3  C2  UNL d   1       0.550  -1.533   2.698  0.00  0.00     0.048 A 
ATOM      4  C3  UNL d   1       0.831  -1.696   1.342  0.00  0.00     0.023 A 
ATOM      5  C4  UNL d   1       0.178  -0.916   0.386  0.00  0.00     0.048 A 
ATOM      6  C5  UNL d   1      -0.763   0.031   0.794  0.00  0.00     0.003 A 
ATOM      7  I   UNL d   1       2.232  -3.109   0.740  0.00  0.00    -0.146 I 
ENDROOT
TORSDOF 0
ENDMDL
