MODEL 1
REMARK minimizedAffinity 10.5767431
REMARK minimizedRMSD -1
REMARK  0 active torsions:
REMARK  status: ('A' for Active; 'I' for Inactive)
ROOT
ATOM      1  C   UNL d   1       5.053  -4.293   5.999  0.00  0.00     0.023 A 
ATOM      2  C1  UNL d   1       5.793  -3.217   5.509  0.00  0.00     0.003 A 
ATOM      3  C2  UNL d   1       5.998  -3.078   4.135  0.00  0.00     0.048 A 
ATOM      4  C3  UNL d   1       5.461  -4.018   3.257  0.00  0.00     0.023 A 
ATOM      5  C4  UNL d   1       4.719  -5.096   3.743  0.00  0.00     0.048 A 
ATOM      6  C5  UNL d   1       4.517  -5.232   5.118  0.00  0.00     0.003 A 
ATOM      7  I   UNL d   1       5.765  -3.813   1.211  0.00  0.00    -0.146 I 
ENDROOT
TORSDOF 0
ENDMDL
