MODEL 1
REMARK minimizedAffinity 1.37261724
REMARK minimizedRMSD -1
REMARK  0 active torsions:
REMARK  status: ('A' for Active; 'I' for Inactive)
ROOT
ATOM      1  C   UNL d   1      -1.900  -1.297  -4.929  0.00  0.00     0.023 A 
ATOM      2  C1  UNL d   1      -2.752  -1.466  -3.837  0.00  0.00     0.003 A 
ATOM      3  C2  UNL d   1      -3.928  -0.718  -3.745  0.00  0.00     0.048 A 
ATOM      4  C3  UNL d   1      -4.246   0.196  -4.749  0.00  0.00     0.023 A 
ATOM      5  C4  UNL d   1      -3.397   0.368  -5.844  0.00  0.00     0.048 A 
ATOM      6  C5  UNL d   1      -2.222  -0.381  -5.931  0.00  0.00     0.003 A 
ATOM      7  I   UNL d   1      -5.996   1.309  -4.615  0.00  0.00    -0.146 I 
ENDROOT
TORSDOF 0
ENDMDL
