MODEL 1
REMARK minimizedAffinity -1.2054317
REMARK minimizedRMSD -1
REMARK  0 active torsions:
REMARK  status: ('A' for Active; 'I' for Inactive)
ROOT
ATOM      1  C   UNL d   1      -4.922  -4.246  -1.545  0.00  0.00     0.023 A 
ATOM      2  C1  UNL d   1      -5.656  -3.468  -2.441  0.00  0.00     0.003 A 
ATOM      3  C2  UNL d   1      -5.938  -3.953  -3.720  0.00  0.00     0.048 A 
ATOM      4  C3  UNL d   1      -5.485  -5.217  -4.096  0.00  0.00     0.023 A 
ATOM      5  C4  UNL d   1      -4.751  -5.999  -3.202  0.00  0.00     0.048 A 
ATOM      6  C5  UNL d   1      -4.471  -5.510  -1.925  0.00  0.00     0.003 A 
ATOM      7  I   UNL d   1      -5.904  -5.941  -5.998  0.00  0.00    -0.146 I 
ENDROOT
TORSDOF 0
ENDMDL
