MODEL 1
REMARK minimizedAffinity 3.382406
REMARK minimizedRMSD -1
REMARK  0 active torsions:
REMARK  status: ('A' for Active; 'I' for Inactive)
ROOT
ATOM      1  C   UNL d   1      -4.955  -5.631  -5.930  0.00  0.00     0.023 A 
ATOM      2  C1  UNL d   1      -4.144  -5.863  -4.819  0.00  0.00     0.003 A 
ATOM      3  C2  UNL d   1      -4.248  -5.042  -3.694  0.00  0.00     0.048 A 
ATOM      4  C3  UNL d   1      -5.166  -3.993  -3.686  0.00  0.00     0.023 A 
ATOM      5  C4  UNL d   1      -5.980  -3.758  -4.795  0.00  0.00     0.048 A 
ATOM      6  C5  UNL d   1      -5.872  -4.580  -5.918  0.00  0.00     0.003 A 
ATOM      7  I   UNL d   1      -5.323  -2.771  -2.012  0.00  0.00    -0.146 I 
ENDROOT
TORSDOF 0
ENDMDL
