MODEL 1
REMARK minimizedAffinity -2.93363023
REMARK minimizedRMSD -1
REMARK  0 active torsions:
REMARK  status: ('A' for Active; 'I' for Inactive)
ROOT
ATOM      1  C   UNL d   1      -5.597  -4.098  -6.000  0.00  0.00     0.023 A 
ATOM      2  C1  UNL d   1      -5.287  -5.448  -5.837  0.00  0.00     0.003 A 
ATOM      3  C2  UNL d   1      -5.196  -5.996  -4.555  0.00  0.00     0.048 A 
ATOM      4  C3  UNL d   1      -5.417  -5.187  -3.441  0.00  0.00     0.023 A 
ATOM      5  C4  UNL d   1      -5.729  -3.836  -3.599  0.00  0.00     0.048 A 
ATOM      6  C5  UNL d   1      -5.818  -3.293  -4.882  0.00  0.00     0.003 A 
ATOM      7  I   UNL d   1      -5.283  -5.999  -1.533  0.00  0.00    -0.146 I 
ENDROOT
TORSDOF 0
ENDMDL
