MODEL 1
REMARK minimizedAffinity 11.4734926
REMARK minimizedRMSD -1
REMARK  0 active torsions:
REMARK  status: ('A' for Active; 'I' for Inactive)
ROOT
ATOM      1  C   UNL d   1       0.598  -2.817   2.183  0.00  0.00     0.023 A 
ATOM      2  C1  UNL d   1       1.420  -1.726   2.467  0.00  0.00     0.003 A 
ATOM      3  C2  UNL d   1       2.563  -1.896   3.251  0.00  0.00     0.048 A 
ATOM      4  C3  UNL d   1       2.880  -3.161   3.746  0.00  0.00     0.023 A 
ATOM      5  C4  UNL d   1       2.061  -4.256   3.463  0.00  0.00     0.048 A 
ATOM      6  C5  UNL d   1       0.919  -4.080   2.680  0.00  0.00     0.003 A 
ATOM      7  I   UNL d   1       4.581  -3.417   4.911  0.00  0.00    -0.146 I 
ENDROOT
TORSDOF 0
ENDMDL
