MODEL 1
REMARK minimizedAffinity -1.22828948
REMARK minimizedRMSD -1
REMARK  0 active torsions:
REMARK  status: ('A' for Active; 'I' for Inactive)
ROOT
ATOM      1  C   UNL d   1      -5.734  -3.990  -5.999  0.00  0.00     0.023 A 
ATOM      2  C1  UNL d   1      -5.124  -5.245  -5.967  0.00  0.00     0.003 A 
ATOM      3  C2  UNL d   1      -4.778  -5.823  -4.744  0.00  0.00     0.048 A 
ATOM      4  C3  UNL d   1      -5.045  -5.142  -3.557  0.00  0.00     0.023 A 
ATOM      5  C4  UNL d   1      -5.655  -3.887  -3.584  0.00  0.00     0.048 A 
ATOM      6  C5  UNL d   1      -5.999  -3.312  -4.810  0.00  0.00     0.003 A 
ATOM      7  I   UNL d   1      -4.530  -6.000  -1.735  0.00  0.00    -0.146 I 
ENDROOT
TORSDOF 0
ENDMDL
