MODEL 1
REMARK minimizedAffinity -3.06428123
REMARK minimizedRMSD -1
REMARK  0 active torsions:
REMARK  status: ('A' for Active; 'I' for Inactive)
ROOT
ATOM      1  C   UNL d   1      -5.399  -3.735  -5.997  0.00  0.00     0.023 A 
ATOM      2  C1  UNL d   1      -5.125  -5.098  -5.889  0.00  0.00     0.003 A 
ATOM      3  C2  UNL d   1      -5.287  -5.750  -4.665  0.00  0.00     0.048 A 
ATOM      4  C3  UNL d   1      -5.723  -5.032  -3.552  0.00  0.00     0.023 A 
ATOM      5  C4  UNL d   1      -5.999  -3.668  -3.655  0.00  0.00     0.048 A 
ATOM      6  C5  UNL d   1      -5.836  -3.020  -4.881  0.00  0.00     0.003 A 
ATOM      7  I   UNL d   1      -5.965  -6.000  -1.729  0.00  0.00    -0.146 I 
ENDROOT
TORSDOF 0
ENDMDL
