MODEL 1
REMARK minimizedAffinity -2.36504602
REMARK minimizedRMSD -1
REMARK  3 active torsions:
REMARK  status: ('A' for Active; 'I' for Inactive)
REMARK    1  A    between atoms: C3'_2  and  C2'_3 
REMARK    2  A    between atoms: C2'_3  and  C1'_4 
REMARK    3  A    between atoms: C1'_4  and  C1_5 
ROOT
ATOM      1  C1  N4B d   1       0.431   0.306  -0.260  0.00  0.00    -0.075 A 
ATOM      2  C2  N4B d   1      -0.792  -0.083   0.329  0.00  0.00     0.002 A 
ATOM      3  C3  N4B d   1      -0.950  -1.362   0.803  0.00  0.00     0.002 A 
ATOM      4  C4  N4B d   1       0.090  -2.271   0.682  0.00  0.00    -0.004 A 
ATOM      5  C5  N4B d   1       1.277  -1.881   0.135  0.00  0.00     0.002 A 
ATOM      6  C6  N4B d   1       1.451  -0.597  -0.342  0.00  0.00     0.002 A 
ENDROOT
BRANCH   1   7
ATOM      7  C1' N4B d   1       0.621   1.668  -0.870  0.00  0.00     0.057 C 
BRANCH   7   8
ATOM      8  C2' N4B d   1       2.023   1.758  -1.465  0.00  0.00     0.009 C 
BRANCH   8   9
ATOM      9  C3' N4B d   1       2.000   2.256  -2.901  0.00  0.00     0.004 C 
ATOM     10  C4' N4B d   1       0.626   2.646  -3.358  0.00  0.00     0.003 C 
ENDBRANCH   8   9
ENDBRANCH   7   8
ENDBRANCH   1   7
TORSDOF 3
ENDMDL
