MODEL 1
REMARK minimizedAffinity -6.20331478
REMARK minimizedRMSD -1
REMARK  3 active torsions:
REMARK  status: ('A' for Active; 'I' for Inactive)
REMARK    1  A    between atoms: C3'_2  and  C2'_3 
REMARK    2  A    between atoms: C2'_3  and  C1'_4 
REMARK    3  A    between atoms: C1'_4  and  C1_5 
ROOT
ATOM      1  C1  N4B d   1      -0.730  -0.945   0.126  0.00  0.00    -0.075 A 
ATOM      2  C2  N4B d   1      -0.807  -2.272   0.606  0.00  0.00     0.002 A 
ATOM      3  C3  N4B d   1      -1.759  -2.612   1.534  0.00  0.00     0.002 A 
ATOM      4  C4  N4B d   1      -2.631  -1.644   2.010  0.00  0.00    -0.004 A 
ATOM      5  C5  N4B d   1      -2.567  -0.371   1.523  0.00  0.00     0.002 A 
ATOM      6  C6  N4B d   1      -1.617  -0.016   0.587  0.00  0.00     0.002 A 
ENDROOT
BRANCH   1   7
ATOM      7  C1' N4B d   1       0.349  -0.506  -0.825  0.00  0.00     0.057 C 
BRANCH   7   8
ATOM      8  C2' N4B d   1       0.586   0.992  -0.655  0.00  0.00     0.009 C 
BRANCH   8   9
ATOM      9  C3' N4B d   1       0.414   1.746  -1.963  0.00  0.00     0.004 C 
ATOM     10  C4' N4B d   1       1.714   1.976  -2.675  0.00  0.00     0.003 C 
ENDBRANCH   8   9
ENDBRANCH   7   8
ENDBRANCH   1   7
TORSDOF 3
ENDMDL
