MODEL 1
REMARK minimizedAffinity -3.0980258
REMARK minimizedRMSD -1
REMARK  3 active torsions:
REMARK  status: ('A' for Active; 'I' for Inactive)
REMARK    1  A    between atoms: C3'_2  and  C2'_3 
REMARK    2  A    between atoms: C2'_3  and  C1'_4 
REMARK    3  A    between atoms: C1'_4  and  C1_5 
ROOT
ATOM      1  C1  N4B d   1       0.173  -0.242   0.233  0.00  0.00    -0.075 A 
ATOM      2  C2  N4B d   1       0.800  -1.502   0.109  0.00  0.00     0.002 A 
ATOM      3  C3  N4B d   1       0.294  -2.588   0.780  0.00  0.00     0.002 A 
ATOM      4  C4  N4B d   1      -0.820  -2.436   1.591  0.00  0.00    -0.004 A 
ATOM      5  C5  N4B d   1      -1.434  -1.222   1.685  0.00  0.00     0.002 A 
ATOM      6  C6  N4B d   1      -0.940  -0.122   1.013  0.00  0.00     0.002 A 
ENDROOT
BRANCH   1   7
ATOM      7  C1' N4B d   1       0.739   0.993  -0.413  0.00  0.00     0.057 C 
BRANCH   7   8
ATOM      8  C2' N4B d   1       0.053   1.214  -1.758  0.00  0.00     0.009 C 
BRANCH   8   9
ATOM      9  C3' N4B d   1       0.832   2.172  -2.643  0.00  0.00     0.004 C 
ATOM     10  C4' N4B d   1       2.270   2.298  -2.237  0.00  0.00     0.003 C 
ENDBRANCH   8   9
ENDBRANCH   7   8
ENDBRANCH   1   7
TORSDOF 3
ENDMDL
