MODEL 1
REMARK minimizedAffinity -2.57219243
REMARK minimizedRMSD -1
REMARK  3 active torsions:
REMARK  status: ('A' for Active; 'I' for Inactive)
REMARK    1  A    between atoms: C3'_2  and  C2'_3 
REMARK    2  A    between atoms: C2'_3  and  C1'_4 
REMARK    3  A    between atoms: C1'_4  and  C1_5 
ROOT
ATOM      1  C1  N4B d   1       0.447   0.393  -0.254  0.00  0.00    -0.075 A 
ATOM      2  C2  N4B d   1       0.001  -0.503  -1.251  0.00  0.00     0.002 A 
ATOM      3  C3  N4B d   1       0.046  -1.857  -1.027  0.00  0.00     0.002 A 
ATOM      4  C4  N4B d   1       0.548  -2.337   0.173  0.00  0.00    -0.004 A 
ATOM      5  C5  N4B d   1       0.953  -1.465   1.141  0.00  0.00     0.002 A 
ATOM      6  C6  N4B d   1       0.910  -0.101   0.931  0.00  0.00     0.002 A 
ENDROOT
BRANCH   1   7
ATOM      7  C1' N4B d   1       0.497   1.878  -0.486  0.00  0.00     0.057 C 
BRANCH   7   8
ATOM      8  C2' N4B d   1       1.492   2.177  -1.604  0.00  0.00     0.009 C 
BRANCH   8   9
ATOM      9  C3' N4B d   1       0.799   2.386  -2.939  0.00  0.00     0.004 C 
ATOM     10  C4' N4B d   1       1.409   1.574  -4.043  0.00  0.00     0.003 C 
ENDBRANCH   8   9
ENDBRANCH   7   8
ENDBRANCH   1   7
TORSDOF 3
ENDMDL
