MODEL 1
REMARK minimizedAffinity -4.67936087
REMARK minimizedRMSD -1
REMARK  3 active torsions:
REMARK  status: ('A' for Active; 'I' for Inactive)
REMARK    1  A    between atoms: C3'_2  and  C2'_3 
REMARK    2  A    between atoms: C2'_3  and  C1'_4 
REMARK    3  A    between atoms: C1'_4  and  C1_5 
ROOT
ATOM      1  C1  N4B d   1      -0.235  -0.362   0.313  0.00  0.00    -0.075 A 
ATOM      2  C2  N4B d   1      -1.293   0.481   0.716  0.00  0.00     0.002 A 
ATOM      3  C3  N4B d   1      -2.313  -0.018   1.489  0.00  0.00     0.002 A 
ATOM      4  C4  N4B d   1      -2.305  -1.355   1.854  0.00  0.00    -0.004 A 
ATOM      5  C5  N4B d   1      -1.266  -2.158   1.482  0.00  0.00     0.002 A 
ATOM      6  C6  N4B d   1      -0.233  -1.669   0.709  0.00  0.00     0.002 A 
ENDROOT
BRANCH   1   7
ATOM      7  C1' N4B d   1       0.858   0.116  -0.603  0.00  0.00     0.057 C 
BRANCH   7   8
ATOM      8  C2' N4B d   1       0.474   1.480  -1.170  0.00  0.00     0.009 C 
BRANCH   8   9
ATOM      9  C3' N4B d   1       1.539   2.027  -2.105  0.00  0.00     0.004 C 
ATOM     10  C4' N4B d   1       0.977   2.499  -3.413  0.00  0.00     0.003 C 
ENDBRANCH   8   9
ENDBRANCH   7   8
ENDBRANCH   1   7
TORSDOF 3
ENDMDL
