MODEL 1
REMARK minimizedAffinity -0.236770615
REMARK minimizedRMSD -1
REMARK  3 active torsions:
REMARK  status: ('A' for Active; 'I' for Inactive)
REMARK    1  A    between atoms: C3'_2  and  C2'_3 
REMARK    2  A    between atoms: C2'_3  and  C1'_4 
REMARK    3  A    between atoms: C1'_4  and  C1_5 
ROOT
ATOM      1  C1  N4B d   1      -0.420  -0.350   0.292  0.00  0.00    -0.075 A 
ATOM      2  C2  N4B d   1      -1.705  -0.683  -0.191  0.00  0.00     0.002 A 
ATOM      3  C3  N4B d   1      -2.363  -1.779   0.308  0.00  0.00     0.002 A 
ATOM      4  C4  N4B d   1      -1.752  -2.566   1.273  0.00  0.00    -0.004 A 
ATOM      5  C5  N4B d   1      -0.521  -2.223   1.753  0.00  0.00     0.002 A 
ATOM      6  C6  N4B d   1       0.150  -1.122   1.262  0.00  0.00     0.002 A 
ENDROOT
BRANCH   1   7
ATOM      7  C1' N4B d   1       0.375   0.789  -0.285  0.00  0.00     0.057 C 
BRANCH   7   8
ATOM      8  C2' N4B d   1       0.218   0.791  -1.803  0.00  0.00     0.009 C 
BRANCH   8   9
ATOM      9  C3' N4B d   1       1.354   1.529  -2.491  0.00  0.00     0.004 C 
ATOM     10  C4' N4B d   1       1.010   1.953  -3.887  0.00  0.00     0.003 C 
ENDBRANCH   8   9
ENDBRANCH   7   8
ENDBRANCH   1   7
TORSDOF 3
ENDMDL
