MODEL 1
REMARK minimizedAffinity -2.86815548
REMARK minimizedRMSD -1
REMARK  3 active torsions:
REMARK  status: ('A' for Active; 'I' for Inactive)
REMARK    1  A    between atoms: C3'_2  and  C2'_3 
REMARK    2  A    between atoms: C2'_3  and  C1'_4 
REMARK    3  A    between atoms: C1'_4  and  C1_5 
ROOT
ATOM      1  C1  N4B d   1       0.565   1.841  -1.256  0.00  0.00    -0.075 A 
ATOM      2  C2  N4B d   1       1.875   2.041  -1.744  0.00  0.00     0.002 A 
ATOM      3  C3  N4B d   1       2.069   2.496  -3.025  0.00  0.00     0.002 A 
ATOM      4  C4  N4B d   1       0.973   2.738  -3.840  0.00  0.00    -0.004 A 
ATOM      5  C5  N4B d   1      -0.290   2.567  -3.353  0.00  0.00     0.002 A 
ATOM      6  C6  N4B d   1      -0.500   2.114  -2.066  0.00  0.00     0.002 A 
ENDROOT
BRANCH   1   7
ATOM      7  C1' N4B d   1       0.304   1.264   0.108  0.00  0.00     0.057 C 
BRANCH   7   8
ATOM      8  C2' N4B d   1       1.106  -0.025   0.268  0.00  0.00     0.009 C 
BRANCH   8   9
ATOM      9  C3' N4B d   1       0.382  -1.222  -0.324  0.00  0.00     0.004 C 
ATOM     10  C4' N4B d   1      -0.002  -2.238   0.709  0.00  0.00     0.003 C 
ENDBRANCH   8   9
ENDBRANCH   7   8
ENDBRANCH   1   7
TORSDOF 3
ENDMDL
