MODEL 1
REMARK minimizedAffinity -4.24955511
REMARK minimizedRMSD -1
REMARK  3 active torsions:
REMARK  status: ('A' for Active; 'I' for Inactive)
REMARK    1  A    between atoms: C3'_2  and  C2'_3 
REMARK    2  A    between atoms: C2'_3  and  C1'_4 
REMARK    3  A    between atoms: C1'_4  and  C1_5 
ROOT
ATOM      1  C1  N4B d   1       0.472   1.081  -1.803  0.00  0.00    -0.075 A 
ATOM      2  C2  N4B d   1       1.213   2.245  -2.106  0.00  0.00     0.002 A 
ATOM      3  C3  N4B d   1       1.399   2.619  -3.414  0.00  0.00     0.002 A 
ATOM      4  C4  N4B d   1       0.872   1.838  -4.432  0.00  0.00    -0.004 A 
ATOM      5  C5  N4B d   1       0.136   0.730  -4.130  0.00  0.00     0.002 A 
ATOM      6  C6  N4B d   1      -0.063   0.344  -2.819  0.00  0.00     0.002 A 
ENDROOT
BRANCH   1   7
ATOM      7  C1' N4B d   1       0.314   0.585  -0.391  0.00  0.00     0.057 C 
BRANCH   7   8
ATOM      8  C2' N4B d   1      -0.515  -0.695  -0.400  0.00  0.00     0.009 C 
BRANCH   8   9
ATOM      9  C3' N4B d   1      -1.412  -0.800   0.822  0.00  0.00     0.004 C 
ATOM     10  C4' N4B d   1      -2.225   0.439   1.053  0.00  0.00     0.003 C 
ENDBRANCH   8   9
ENDBRANCH   7   8
ENDBRANCH   1   7
TORSDOF 3
ENDMDL
