MODEL 1
REMARK minimizedAffinity -5.59723806
REMARK minimizedRMSD -1
REMARK  3 active torsions:
REMARK  status: ('A' for Active; 'I' for Inactive)
REMARK    1  A    between atoms: C3'_2  and  C2'_3 
REMARK    2  A    between atoms: C2'_3  and  C1'_4 
REMARK    3  A    between atoms: C1'_4  and  C1_5 
ROOT
ATOM      1  C1  N4B d   1      -0.223  -0.815   0.612  0.00  0.00    -0.075 A 
ATOM      2  C2  N4B d   1      -0.440  -2.002   1.345  0.00  0.00     0.002 A 
ATOM      3  C3  N4B d   1      -1.432  -2.052   2.293  0.00  0.00     0.002 A 
ATOM      4  C4  N4B d   1      -2.205  -0.926   2.538  0.00  0.00    -0.004 A 
ATOM      5  C5  N4B d   1      -2.006   0.209   1.807  0.00  0.00     0.002 A 
ATOM      6  C6  N4B d   1      -1.015   0.272   0.848  0.00  0.00     0.002 A 
ENDROOT
BRANCH   1   7
ATOM      7  C1' N4B d   1       0.905  -0.686  -0.375  0.00  0.00     0.057 C 
BRANCH   7   8
ATOM      8  C2' N4B d   1       0.332  -0.647  -1.788  0.00  0.00     0.009 C 
BRANCH   8   9
ATOM      9  C3' N4B d   1       0.828   0.559  -2.569  0.00  0.00     0.004 C 
ATOM     10  C4' N4B d   1       1.246   1.693  -1.682  0.00  0.00     0.003 C 
ENDBRANCH   8   9
ENDBRANCH   7   8
ENDBRANCH   1   7
TORSDOF 3
ENDMDL
