MODEL 1
REMARK minimizedAffinity -3.14011383
REMARK minimizedRMSD -1
REMARK  3 active torsions:
REMARK  status: ('A' for Active; 'I' for Inactive)
REMARK    1  A    between atoms: C3'_2  and  C2'_3 
REMARK    2  A    between atoms: C2'_3  and  C1'_4 
REMARK    3  A    between atoms: C1'_4  and  C1_5 
ROOT
ATOM      1  C1  N4B d   1       0.107  -0.123  -0.307  0.00  0.00    -0.075 A 
ATOM      2  C2  N4B d   1       0.957  -1.172  -0.720  0.00  0.00     0.002 A 
ATOM      3  C3  N4B d   1       0.961  -2.363  -0.036  0.00  0.00     0.002 A 
ATOM      4  C4  N4B d   1       0.141  -2.520   1.071  0.00  0.00    -0.004 A 
ATOM      5  C5  N4B d   1      -0.696  -1.511   1.449  0.00  0.00     0.002 A 
ATOM      6  C6  N4B d   1      -0.713  -0.310   0.768  0.00  0.00     0.002 A 
ENDROOT
BRANCH   1   7
ATOM      7  C1' N4B d   1       0.131   1.227  -0.971  0.00  0.00     0.057 C 
BRANCH   7   8
ATOM      8  C2' N4B d   1       1.579   1.674  -1.145  0.00  0.00     0.009 C 
BRANCH   8   9
ATOM      9  C3' N4B d   1       1.937   1.885  -2.606  0.00  0.00     0.004 C 
ATOM     10  C4' N4B d   1       0.731   2.001  -3.488  0.00  0.00     0.003 C 
ENDBRANCH   8   9
ENDBRANCH   7   8
ENDBRANCH   1   7
TORSDOF 3
ENDMDL
