MODEL 1
REMARK minimizedAffinity 0.0597014688
REMARK minimizedRMSD -1
REMARK  0 active torsions:
REMARK  status: ('A' for Active; 'I' for Inactive)
ROOT
ATOM      1  C4' PXY d   1       5.989  -2.287   1.100  0.00  0.00     0.077 C 
ATOM      2  C1' PXY d   1       5.644  -5.337   5.998  0.00  0.00     0.077 C 
ATOM      3  C1  PXY d   1       5.728  -4.527   4.719  0.00  0.00    -0.082 A 
ATOM      4  C2  PXY d   1       5.882  -5.148   3.561  0.00  0.00     0.003 A 
ATOM      5  C3  PXY d   1       5.992  -4.429   2.398  0.00  0.00     0.003 A 
ATOM      6  C4  PXY d   1       5.890  -3.064   2.415  0.00  0.00    -0.082 A 
ATOM      7  C5  PXY d   1       5.722  -2.424   3.592  0.00  0.00     0.003 A 
ATOM      8  C6  PXY d   1       5.654  -3.169   4.765  0.00  0.00     0.003 A 
ENDROOT
TORSDOF 0
ENDMDL
