MODEL 1
REMARK minimizedAffinity 0.756885946
REMARK minimizedRMSD -1
REMARK  0 active torsions:
REMARK  status: ('A' for Active; 'I' for Inactive)
ROOT
ATOM      1  C4' PXY d   1       4.225  -5.999   5.998  0.00  0.00     0.077 C 
ATOM      2  C1' PXY d   1       5.999  -1.157   3.388  0.00  0.00     0.077 C 
ATOM      3  C1  PXY d   1       5.545  -2.427   4.080  0.00  0.00    -0.082 A 
ATOM      4  C2  PXY d   1       4.715  -3.249   3.459  0.00  0.00     0.003 A 
ATOM      5  C3  PXY d   1       4.268  -4.385   4.083  0.00  0.00     0.003 A 
ATOM      6  C4  PXY d   1       4.718  -4.711   5.334  0.00  0.00    -0.082 A 
ATOM      7  C5  PXY d   1       5.573  -3.882   5.970  0.00  0.00     0.003 A 
ATOM      8  C6  PXY d   1       5.982  -2.713   5.336  0.00  0.00     0.003 A 
ENDROOT
TORSDOF 0
ENDMDL
