MODEL 1
REMARK minimizedAffinity -3.06462908
REMARK minimizedRMSD -1
REMARK  0 active torsions:
REMARK  status: ('A' for Active; 'I' for Inactive)
ROOT
ATOM      1  C4' PXY d   1       5.694  -5.891   1.509  0.00  0.00     0.077 C 
ATOM      2  C1' PXY d   1       5.997  -1.954   5.731  0.00  0.00     0.077 C 
ATOM      3  C1  PXY d   1       5.922  -2.995   4.632  0.00  0.00    -0.082 A 
ATOM      4  C2  PXY d   1       6.000  -2.618   3.366  0.00  0.00     0.003 A 
ATOM      5  C3  PXY d   1       5.901  -3.543   2.359  0.00  0.00     0.003 A 
ATOM      6  C4  PXY d   1       5.775  -4.875   2.652  0.00  0.00    -0.082 A 
ATOM      7  C5  PXY d   1       5.705  -5.269   3.941  0.00  0.00     0.003 A 
ATOM      8  C6  PXY d   1       5.766  -4.310   4.948  0.00  0.00     0.003 A 
ENDROOT
TORSDOF 0
ENDMDL
