MODEL 1
REMARK minimizedAffinity -3.04564548
REMARK minimizedRMSD -1
REMARK  0 active torsions:
REMARK  status: ('A' for Active; 'I' for Inactive)
ROOT
ATOM      1  C4' PXY d   1       4.949  -5.940   5.987  0.00  0.00     0.077 C 
ATOM      2  C1' PXY d   1       5.999  -2.466   1.488  0.00  0.00     0.077 C 
ATOM      3  C1  PXY d   1       5.728  -3.367   2.676  0.00  0.00    -0.082 A 
ATOM      4  C2  PXY d   1       5.764  -4.681   2.522  0.00  0.00     0.003 A 
ATOM      5  C3  PXY d   1       5.490  -5.511   3.578  0.00  0.00     0.003 A 
ATOM      6  C4  PXY d   1       5.227  -4.991   4.817  0.00  0.00    -0.082 A 
ATOM      7  C5  PXY d   1       5.198  -3.652   4.985  0.00  0.00     0.003 A 
ATOM      8  C6  PXY d   1       5.439  -2.827   3.890  0.00  0.00     0.003 A 
ENDROOT
TORSDOF 0
ENDMDL
