MODEL 1
REMARK minimizedAffinity -1.30175364
REMARK minimizedRMSD -1
REMARK  0 active torsions:
REMARK  status: ('A' for Active; 'I' for Inactive)
ROOT
ATOM      1  C4' PXY d   1       5.996  -5.675   1.492  0.00  0.00     0.077 C 
ATOM      2  C1' PXY d   1       4.402  -2.426   5.999  0.00  0.00     0.077 C 
ATOM      3  C1  PXY d   1       4.828  -3.285   4.825  0.00  0.00    -0.082 A 
ATOM      4  C2  PXY d   1       4.758  -2.796   3.597  0.00  0.00     0.003 A 
ATOM      5  C3  PXY d   1       5.109  -3.571   2.522  0.00  0.00     0.003 A 
ATOM      6  C4  PXY d   1       5.586  -4.840   2.708  0.00  0.00    -0.082 A 
ATOM      7  C5  PXY d   1       5.670  -5.342   3.958  0.00  0.00     0.003 A 
ATOM      8  C6  PXY d   1       5.270  -4.554   5.034  0.00  0.00     0.003 A 
ENDROOT
TORSDOF 0
ENDMDL
