MODEL 1
REMARK minimizedAffinity -3.78665209
REMARK minimizedRMSD -1
REMARK  0 active torsions:
REMARK  status: ('A' for Active; 'I' for Inactive)
ROOT
ATOM      1  C4' PXY d   1       5.995  -2.119   1.932  0.00  0.00     0.077 C 
ATOM      2  C1' PXY d   1       4.613  -6.000   5.987  0.00  0.00     0.077 C 
ATOM      3  C1  PXY d   1       4.968  -4.973   4.930  0.00  0.00    -0.082 A 
ATOM      4  C2  PXY d   1       5.288  -5.374   3.710  0.00  0.00     0.003 A 
ATOM      5  C3  PXY d   1       5.643  -4.461   2.751  0.00  0.00     0.003 A 
ATOM      6  C4  PXY d   1       5.620  -3.120   3.028  0.00  0.00    -0.082 A 
ATOM      7  C5  PXY d   1       5.285  -2.703   4.267  0.00  0.00     0.003 A 
ATOM      8  C6  PXY d   1       4.967  -3.648   5.238  0.00  0.00     0.003 A 
ENDROOT
TORSDOF 0
ENDMDL
