MODEL 1
REMARK minimizedAffinity -2.5932188
REMARK minimizedRMSD -1
REMARK  0 active torsions:
REMARK  status: ('A' for Active; 'I' for Inactive)
ROOT
ATOM      1  C4' PXY d   1       5.855  -1.219   5.945  0.00  0.00     0.077 C 
ATOM      2  C1' PXY d   1       5.997  -5.985   2.678  0.00  0.00     0.077 C 
ATOM      3  C1  PXY d   1       5.954  -4.742   3.544  0.00  0.00    -0.082 A 
ATOM      4  C2  PXY d   1       5.968  -3.548   2.976  0.00  0.00     0.003 A 
ATOM      5  C3  PXY d   1       5.962  -2.413   3.745  0.00  0.00     0.003 A 
ATOM      6  C4  PXY d   1       5.887  -2.501   5.109  0.00  0.00    -0.082 A 
ATOM      7  C5  PXY d   1       5.862  -3.716   5.697  0.00  0.00     0.003 A 
ATOM      8  C6  PXY d   1       5.910  -4.856   4.900  0.00  0.00     0.003 A 
ENDROOT
TORSDOF 0
ENDMDL
