MODEL 1
REMARK minimizedAffinity -2.88597035
REMARK minimizedRMSD -1
REMARK  0 active torsions:
REMARK  status: ('A' for Active; 'I' for Inactive)
ROOT
ATOM      1  C4' PXY d   1       4.869  -2.224   1.767  0.00  0.00     0.077 C 
ATOM      2  C1' PXY d   1       5.998  -6.000   5.996  0.00  0.00     0.077 C 
ATOM      3  C1  PXY d   1       5.696  -5.002   4.896  0.00  0.00    -0.082 A 
ATOM      4  C2  PXY d   1       5.603  -5.418   3.643  0.00  0.00     0.003 A 
ATOM      5  C3  PXY d   1       5.362  -4.523   2.632  0.00  0.00     0.003 A 
ATOM      6  C4  PXY d   1       5.163  -3.198   2.912  0.00  0.00    -0.082 A 
ATOM      7  C5  PXY d   1       5.246  -2.768   4.188  0.00  0.00     0.003 A 
ATOM      8  C6  PXY d   1       5.532  -3.685   5.196  0.00  0.00     0.003 A 
ENDROOT
TORSDOF 0
ENDMDL
