MODEL 1
REMARK minimizedAffinity -2.56263709
REMARK minimizedRMSD -1
REMARK  0 active torsions:
REMARK  status: ('A' for Active; 'I' for Inactive)
ROOT
ATOM      1  C4' PXY d   1       4.801  -2.687   5.999  0.00  0.00     0.077 C 
ATOM      2  C1' PXY d   1       6.000  -5.992   1.411  0.00  0.00     0.077 C 
ATOM      3  C1  PXY d   1       5.693  -5.116   2.609  0.00  0.00    -0.082 A 
ATOM      4  C2  PXY d   1       5.268  -5.670   3.733  0.00  0.00     0.003 A 
ATOM      5  C3  PXY d   1       4.956  -4.890   4.816  0.00  0.00     0.003 A 
ATOM      6  C4  PXY d   1       5.131  -3.533   4.766  0.00  0.00    -0.082 A 
ATOM      7  C5  PXY d   1       5.575  -2.961   3.627  0.00  0.00     0.003 A 
ATOM      8  C6  PXY d   1       5.847  -3.767   2.525  0.00  0.00     0.003 A 
ENDROOT
TORSDOF 0
ENDMDL
