MODEL 1
REMARK minimizedAffinity 8.51365662
REMARK minimizedRMSD -1
REMARK  0 active torsions:
REMARK  status: ('A' for Active; 'I' for Inactive)
ROOT
ATOM      1  C4' PXY d   1      -2.242   3.002   0.957  0.00  0.00     0.077 C 
ATOM      2  C1' PXY d   1       3.233   4.768   1.524  0.00  0.00     0.077 C 
ATOM      3  C1  PXY d   1       1.795   4.309   1.387  0.00  0.00    -0.082 A 
ATOM      4  C2  PXY d   1       1.497   3.334   0.544  0.00  0.00     0.003 A 
ATOM      5  C3  PXY d   1       0.196   2.929   0.384  0.00  0.00     0.003 A 
ATOM      6  C4  PXY d   1      -0.802   3.491   1.134  0.00  0.00    -0.082 A 
ATOM      7  C5  PXY d   1      -0.504   4.479   2.005  0.00  0.00     0.003 A 
ATOM      8  C6  PXY d   1       0.816   4.904   2.122  0.00  0.00     0.003 A 
ENDROOT
TORSDOF 0
ENDMDL
