MODEL 1
REMARK minimizedAffinity -0.788810968
REMARK minimizedRMSD -1
REMARK  0 active torsions:
REMARK  status: ('A' for Active; 'I' for Inactive)
ROOT
ATOM      1  C4' PXY d   1       6.000  -2.249   0.839  0.00  0.00     0.077 C 
ATOM      2  C1' PXY d   1       5.606  -4.823   5.999  0.00  0.00     0.077 C 
ATOM      3  C1  PXY d   1       5.703  -4.138   4.651  0.00  0.00    -0.082 A 
ATOM      4  C2  PXY d   1       5.878  -4.864   3.559  0.00  0.00     0.003 A 
ATOM      5  C3  PXY d   1       6.000  -4.259   2.335  0.00  0.00     0.003 A 
ATOM      6  C4  PXY d   1       5.887  -2.899   2.220  0.00  0.00    -0.082 A 
ATOM      7  C5  PXY d   1       5.698  -2.152   3.328  0.00  0.00     0.003 A 
ATOM      8  C6  PXY d   1       5.618  -2.783   4.566  0.00  0.00     0.003 A 
ENDROOT
TORSDOF 0
ENDMDL
