MODEL 1
REMARK minimizedAffinity 4.02304554
REMARK minimizedRMSD -1
REMARK  0 active torsions:
REMARK  status: ('A' for Active; 'I' for Inactive)
ROOT
ATOM      1  C4' PXY d   1       5.999  -0.570   5.150  0.00  0.00     0.077 C 
ATOM      2  C1' PXY d   1       4.142  -5.999   4.445  0.00  0.00     0.077 C 
ATOM      3  C1  PXY d   1       4.618  -4.572   4.636  0.00  0.00    -0.082 A 
ATOM      4  C2  PXY d   1       5.531  -4.072   3.819  0.00  0.00     0.003 A 
ATOM      5  C3  PXY d   1       5.996  -2.795   3.997  0.00  0.00     0.003 A 
ATOM      6  C4  PXY d   1       5.483  -2.003   4.989  0.00  0.00    -0.082 A 
ATOM      7  C5  PXY d   1       4.543  -2.502   5.820  0.00  0.00     0.003 A 
ATOM      8  C6  PXY d   1       4.114  -3.815   5.648  0.00  0.00     0.003 A 
ENDROOT
TORSDOF 0
ENDMDL
