MODEL 1
REMARK minimizedAffinity -2.73530722
REMARK minimizedRMSD -1
REMARK  0 active torsions:
REMARK  status: ('A' for Active; 'I' for Inactive)
ROOT
ATOM      1  C4' PXY d   1       5.364  -5.979   6.000  0.00  0.00     0.077 C 
ATOM      2  C1' PXY d   1       5.635  -2.127   1.698  0.00  0.00     0.077 C 
ATOM      3  C1  PXY d   1       5.564  -3.127   2.835  0.00  0.00    -0.082 A 
ATOM      4  C2  PXY d   1       5.999  -4.362   2.648  0.00  0.00     0.003 A 
ATOM      5  C3  PXY d   1       5.913  -5.289   3.655  0.00  0.00     0.003 A 
ATOM      6  C4  PXY d   1       5.425  -4.933   4.883  0.00  0.00    -0.082 A 
ATOM      7  C5  PXY d   1       4.988  -3.672   5.086  0.00  0.00     0.003 A 
ATOM      8  C6  PXY d   1       5.046  -2.757   4.038  0.00  0.00     0.003 A 
ENDROOT
TORSDOF 0
ENDMDL
