MODEL 1
REMARK minimizedAffinity -2.20571637
REMARK minimizedRMSD -1
REMARK  0 active torsions:
REMARK  status: ('A' for Active; 'I' for Inactive)
ROOT
ATOM      1  C4' PXY d   1       3.087  -5.246   5.998  0.00  0.00     0.077 C 
ATOM      2  C1' PXY d   1       5.997  -2.161   2.070  0.00  0.00     0.077 C 
ATOM      3  C1  PXY d   1       5.244  -2.970   3.108  0.00  0.00    -0.082 A 
ATOM      4  C2  PXY d   1       4.244  -3.749   2.731  0.00  0.00     0.003 A 
ATOM      5  C3  PXY d   1       3.532  -4.463   3.660  0.00  0.00     0.003 A 
ATOM      6  C4  PXY d   1       3.881  -4.419   4.983  0.00  0.00    -0.082 A 
ATOM      7  C5  PXY d   1       4.908  -3.635   5.375  0.00  0.00     0.003 A 
ATOM      8  C6  PXY d   1       5.591  -2.887   4.421  0.00  0.00     0.003 A 
ENDROOT
TORSDOF 0
ENDMDL
