MODEL 1
REMARK minimizedAffinity -1.77568614
REMARK minimizedRMSD -1
REMARK  0 active torsions:
REMARK  status: ('A' for Active; 'I' for Inactive)
ROOT
ATOM      1  C4' PXY d   1       6.000  -5.999   1.611  0.00  0.00     0.077 C 
ATOM      2  C1' PXY d   1       4.380  -2.604   5.999  0.00  0.00     0.077 C 
ATOM      3  C1  PXY d   1       4.810  -3.503   4.857  0.00  0.00    -0.082 A 
ATOM      4  C2  PXY d   1       4.992  -2.988   3.652  0.00  0.00     0.003 A 
ATOM      5  C3  PXY d   1       5.350  -3.792   2.600  0.00  0.00     0.003 A 
ATOM      6  C4  PXY d   1       5.575  -5.128   2.796  0.00  0.00    -0.082 A 
ATOM      7  C5  PXY d   1       5.402  -5.659   4.024  0.00  0.00     0.003 A 
ATOM      8  C6  PXY d   1       4.999  -4.834   5.070  0.00  0.00     0.003 A 
ENDROOT
TORSDOF 0
ENDMDL
