MODEL 1
REMARK minimizedAffinity -3.07351613
REMARK minimizedRMSD -1
REMARK  0 active torsions:
REMARK  status: ('A' for Active; 'I' for Inactive)
ROOT
ATOM      1  C4' PXY d   1       5.591  -5.993   6.000  0.00  0.00     0.077 C 
ATOM      2  C1' PXY d   1       6.000  -1.926   1.913  0.00  0.00     0.077 C 
ATOM      3  C1  PXY d   1       5.896  -2.984   2.993  0.00  0.00    -0.082 A 
ATOM      4  C2  PXY d   1       6.000  -4.262   2.669  0.00  0.00     0.003 A 
ATOM      5  C3  PXY d   1       5.877  -5.233   3.630  0.00  0.00     0.003 A 
ATOM      6  C4  PXY d   1       5.699  -4.890   4.943  0.00  0.00    -0.082 A 
ATOM      7  C5  PXY d   1       5.603  -3.587   5.283  0.00  0.00     0.003 A 
ATOM      8  C6  PXY d   1       5.689  -2.619   4.288  0.00  0.00     0.003 A 
ENDROOT
TORSDOF 0
ENDMDL
