MODEL 1
REMARK minimizedAffinity -3.81210065
REMARK minimizedRMSD -1
REMARK  0 active torsions:
REMARK  status: ('A' for Active; 'I' for Inactive)
ROOT
ATOM      1  C4' PXY d   1       4.933  -5.850   5.999  0.00  0.00     0.077 C 
ATOM      2  C1' PXY d   1       5.938  -2.072   1.741  0.00  0.00     0.077 C 
ATOM      3  C1  PXY d   1       5.675  -3.053   2.866  0.00  0.00    -0.082 A 
ATOM      4  C2  PXY d   1       5.997  -4.327   2.712  0.00  0.00     0.003 A 
ATOM      5  C3  PXY d   1       5.736  -5.234   3.708  0.00  0.00     0.003 A 
ATOM      6  C4  PXY d   1       5.189  -4.823   4.894  0.00  0.00    -0.082 A 
ATOM      7  C5  PXY d   1       4.868  -3.523   5.062  0.00  0.00     0.003 A 
ATOM      8  C6  PXY d   1       5.102  -2.626   4.024  0.00  0.00     0.003 A 
ENDROOT
TORSDOF 0
ENDMDL
