MODEL 1
REMARK minimizedAffinity -3.13716435
REMARK minimizedRMSD -1
REMARK  0 active torsions:
REMARK  status: ('A' for Active; 'I' for Inactive)
ROOT
ATOM      1  C4' PXY d   1       5.243  -5.875   5.980  0.00  0.00     0.077 C 
ATOM      2  C1' PXY d   1       6.000  -1.853   1.899  0.00  0.00     0.077 C 
ATOM      3  C1  PXY d   1       5.809  -2.901   2.977  0.00  0.00    -0.082 A 
ATOM      4  C2  PXY d   1       5.460  -4.132   2.639  0.00  0.00     0.003 A 
ATOM      5  C3  PXY d   1       5.253  -5.084   3.603  0.00  0.00     0.003 A 
ATOM      6  C4  PXY d   1       5.456  -4.787   4.925  0.00  0.00    -0.082 A 
ATOM      7  C5  PXY d   1       5.822  -3.536   5.277  0.00  0.00     0.003 A 
ATOM      8  C6  PXY d   1       5.988  -2.574   4.286  0.00  0.00     0.003 A 
ENDROOT
TORSDOF 0
ENDMDL
