MODEL 1
REMARK minimizedAffinity -1.23706329
REMARK minimizedRMSD -1
REMARK  0 active torsions:
REMARK  status: ('A' for Active; 'I' for Inactive)
ROOT
ATOM      1  C4' PXY d   1       3.955  -5.547   4.902  0.00  0.00     0.077 C 
ATOM      2  C1' PXY d   1       6.000  -1.501   1.316  0.00  0.00     0.077 C 
ATOM      3  C1  PXY d   1       5.467  -2.571   2.248  0.00  0.00    -0.082 A 
ATOM      4  C2  PXY d   1       4.513  -2.269   3.114  0.00  0.00     0.003 A 
ATOM      5  C3  PXY d   1       4.043  -3.217   3.986  0.00  0.00     0.003 A 
ATOM      6  C4  PXY d   1       4.516  -4.501   3.936  0.00  0.00    -0.082 A 
ATOM      7  C5  PXY d   1       5.482  -4.819   3.048  0.00  0.00     0.003 A 
ATOM      8  C6  PXY d   1       5.975  -3.833   2.200  0.00  0.00     0.003 A 
ENDROOT
TORSDOF 0
ENDMDL
