MODEL 1
REMARK minimizedAffinity -3.09771347
REMARK minimizedRMSD -1
REMARK  0 active torsions:
REMARK  status: ('A' for Active; 'I' for Inactive)
ROOT
ATOM      1  C4' PXY d   1       4.823  -5.974   6.000  0.00  0.00     0.077 C 
ATOM      2  C1' PXY d   1       6.000  -1.977   1.993  0.00  0.00     0.077 C 
ATOM      3  C1  PXY d   1       5.691  -3.016   3.053  0.00  0.00    -0.082 A 
ATOM      4  C2  PXY d   1       5.986  -4.286   2.829  0.00  0.00     0.003 A 
ATOM      5  C3  PXY d   1       5.684  -5.243   3.764  0.00  0.00     0.003 A 
ATOM      6  C4  PXY d   1       5.125  -4.889   4.962  0.00  0.00    -0.082 A 
ATOM      7  C5  PXY d   1       4.831  -3.594   5.203  0.00  0.00     0.003 A 
ATOM      8  C6  PXY d   1       5.107  -2.643   4.224  0.00  0.00     0.003 A 
ENDROOT
TORSDOF 0
ENDMDL
