MODEL 1
REMARK minimizedAffinity 1.17711759
REMARK minimizedRMSD -1
REMARK  0 active torsions:
REMARK  status: ('A' for Active; 'I' for Inactive)
ROOT
ATOM      1  C1  BNZ d   1       0.999   4.239  -2.099  0.00  0.00     0.000 A 
ATOM      2  C2  BNZ d   1       1.103   4.014  -0.752  0.00  0.00     0.000 A 
ATOM      3  C3  BNZ d   1       0.035   3.552  -0.035  0.00  0.00     0.000 A 
ATOM      4  C4  BNZ d   1      -1.145   3.354  -0.658  0.00  0.00     0.000 A 
ATOM      5  C5  BNZ d   1      -1.268   3.586  -2.013  0.00  0.00     0.000 A 
ATOM      6  C6  BNZ d   1      -0.180   4.013  -2.739  0.00  0.00     0.000 A 
ENDROOT
TORSDOF 0
ENDMDL
