MODEL 1
REMARK minimizedAffinity 1.41737509
REMARK minimizedRMSD -1
REMARK  0 active torsions:
REMARK  status: ('A' for Active; 'I' for Inactive)
ROOT
ATOM      1  C1  BNZ d   1       0.057   2.938   2.843  0.00  0.00     0.000 A 
ATOM      2  C2  BNZ d   1       0.474   3.658   1.755  0.00  0.00     0.000 A 
ATOM      3  C3  BNZ d   1       0.112   3.287   0.491  0.00  0.00     0.000 A 
ATOM      4  C4  BNZ d   1      -0.631   2.176   0.312  0.00  0.00     0.000 A 
ATOM      5  C5  BNZ d   1      -1.051   1.434   1.398  0.00  0.00     0.000 A 
ATOM      6  C6  BNZ d   1      -0.718   1.832   2.673  0.00  0.00     0.000 A 
ENDROOT
TORSDOF 0
ENDMDL
