MODEL 1
REMARK minimizedAffinity -2.92819953
REMARK minimizedRMSD -1
REMARK  0 active torsions:
REMARK  status: ('A' for Active; 'I' for Inactive)
ROOT
ATOM      1  C1  BNZ d   1      -0.287   3.667  -1.345  0.00  0.00     0.000 A 
ATOM      2  C2  BNZ d   1      -0.290   4.518  -0.272  0.00  0.00     0.000 A 
ATOM      3  C3  BNZ d   1      -0.472   4.044   0.997  0.00  0.00     0.000 A 
ATOM      4  C4  BNZ d   1      -0.691   2.727   1.187  0.00  0.00     0.000 A 
ATOM      5  C5  BNZ d   1      -0.701   1.857   0.115  0.00  0.00     0.000 A 
ATOM      6  C6  BNZ d   1      -0.478   2.333  -1.157  0.00  0.00     0.000 A 
ENDROOT
TORSDOF 0
ENDMDL
