MODEL 1
REMARK minimizedAffinity 4.07736731
REMARK minimizedRMSD -1
REMARK  0 active torsions:
REMARK  status: ('A' for Active; 'I' for Inactive)
ROOT
ATOM      1  C1  BNZ d   1       0.890   4.222   0.142  0.00  0.00     0.000 A 
ATOM      2  C2  BNZ d   1       0.102   3.102   0.186  0.00  0.00     0.000 A 
ATOM      3  C3  BNZ d   1      -0.499   2.624  -0.944  0.00  0.00     0.000 A 
ATOM      4  C4  BNZ d   1      -0.346   3.288  -2.108  0.00  0.00     0.000 A 
ATOM      5  C5  BNZ d   1       0.437   4.424  -2.167  0.00  0.00     0.000 A 
ATOM      6  C6  BNZ d   1       1.073   4.880  -1.035  0.00  0.00     0.000 A 
ENDROOT
TORSDOF 0
ENDMDL
