MODEL 1
REMARK minimizedAffinity 2.9798162
REMARK minimizedRMSD -1
REMARK  0 active torsions:
REMARK  status: ('A' for Active; 'I' for Inactive)
ROOT
ATOM      1  C1  BNZ d   1      -0.393   3.684  -2.289  0.00  0.00     0.000 A 
ATOM      2  C2  BNZ d   1       0.188   3.180  -1.155  0.00  0.00     0.000 A 
ATOM      3  C3  BNZ d   1       0.206   3.905   0.004  0.00  0.00     0.000 A 
ATOM      4  C4  BNZ d   1      -0.320   5.147   0.017  0.00  0.00     0.000 A 
ATOM      5  C5  BNZ d   1      -0.900   5.673  -1.120  0.00  0.00     0.000 A 
ATOM      6  C6  BNZ d   1      -0.951   4.925  -2.274  0.00  0.00     0.000 A 
ENDROOT
TORSDOF 0
ENDMDL
