MODEL 1
REMARK minimizedAffinity 3.43530726
REMARK minimizedRMSD -1
REMARK  0 active torsions:
REMARK  status: ('A' for Active; 'I' for Inactive)
ROOT
ATOM      1  C1  BNZ d   1       0.468   4.257  -0.754  0.00  0.00     0.000 A 
ATOM      2  C2  BNZ d   1       0.442   3.583   0.438  0.00  0.00     0.000 A 
ATOM      3  C3  BNZ d   1      -0.291   2.438   0.579  0.00  0.00     0.000 A 
ATOM      4  C4  BNZ d   1      -1.028   1.990  -0.458  0.00  0.00     0.000 A 
ATOM      5  C5  BNZ d   1      -1.020   2.663  -1.663  0.00  0.00     0.000 A 
ATOM      6  C6  BNZ d   1      -0.250   3.794  -1.814  0.00  0.00     0.000 A 
ENDROOT
TORSDOF 0
ENDMDL
