MODEL 1
REMARK minimizedAffinity 3.48528314
REMARK minimizedRMSD -1
REMARK  0 active torsions:
REMARK  status: ('A' for Active; 'I' for Inactive)
ROOT
ATOM      1  C1  BNZ d   1      -0.514   5.206   0.376  0.00  0.00     0.000 A 
ATOM      2  C2  BNZ d   1      -0.896   4.015   0.933  0.00  0.00     0.000 A 
ATOM      3  C3  BNZ d   1      -0.621   2.830   0.310  0.00  0.00     0.000 A 
ATOM      4  C4  BNZ d   1      -0.000   2.840  -0.887  0.00  0.00     0.000 A 
ATOM      5  C5  BNZ d   1       0.383   4.033  -1.467  0.00  0.00     0.000 A 
ATOM      6  C6  BNZ d   1       0.139   5.221  -0.818  0.00  0.00     0.000 A 
ENDROOT
TORSDOF 0
ENDMDL
