MODEL 1
REMARK minimizedAffinity 5.9685092
REMARK minimizedRMSD -1
REMARK  0 active torsions:
REMARK  status: ('A' for Active; 'I' for Inactive)
ROOT
ATOM      1  C1  BNZ d   1       1.552  -1.153  -5.988  0.00  0.00     0.000 A 
ATOM      2  C2  BNZ d   1       0.720  -2.240  -5.998  0.00  0.00     0.000 A 
ATOM      3  C3  BNZ d   1       1.227  -3.510  -5.983  0.00  0.00     0.000 A 
ATOM      4  C4  BNZ d   1       2.563  -3.690  -6.000  0.00  0.00     0.000 A 
ATOM      5  C5  BNZ d   1       3.416  -2.604  -6.000  0.00  0.00     0.000 A 
ATOM      6  C6  BNZ d   1       2.902  -1.328  -5.975  0.00  0.00     0.000 A 
ENDROOT
TORSDOF 0
ENDMDL
