MODEL 1
REMARK minimizedAffinity 5.88613558
REMARK minimizedRMSD -1
REMARK  0 active torsions:
REMARK  status: ('A' for Active; 'I' for Inactive)
ROOT
ATOM      1  C1  BNZ d   1      -0.038   2.558  -0.830  0.00  0.00     0.000 A 
ATOM      2  C2  BNZ d   1       0.351   3.214   0.307  0.00  0.00     0.000 A 
ATOM      3  C3  BNZ d   1       0.826   4.494   0.249  0.00  0.00     0.000 A 
ATOM      4  C4  BNZ d   1       0.950   5.101  -0.949  0.00  0.00     0.000 A 
ATOM      5  C5  BNZ d   1       0.572   4.450  -2.105  0.00  0.00     0.000 A 
ATOM      6  C6  BNZ d   1       0.057   3.175  -2.039  0.00  0.00     0.000 A 
ENDROOT
TORSDOF 0
ENDMDL
