MODEL 1
REMARK minimizedAffinity 7.60339499
REMARK minimizedRMSD -1
REMARK  0 active torsions:
REMARK  status: ('A' for Active; 'I' for Inactive)
ROOT
ATOM      1  C1  BNZ d   1      -1.599   1.837  -0.046  0.00  0.00     0.000 A 
ATOM      2  C2  BNZ d   1      -1.016   3.027  -0.389  0.00  0.00     0.000 A 
ATOM      3  C3  BNZ d   1       0.286   3.288  -0.065  0.00  0.00     0.000 A 
ATOM      4  C4  BNZ d   1       0.990   2.375   0.636  0.00  0.00     0.000 A 
ATOM      5  C5  BNZ d   1       0.413   1.174   0.997  0.00  0.00     0.000 A 
ATOM      6  C6  BNZ d   1      -0.886   0.900   0.635  0.00  0.00     0.000 A 
ENDROOT
TORSDOF 0
ENDMDL
