MODEL 1
REMARK minimizedAffinity 1.39599967
REMARK minimizedRMSD -1
REMARK  0 active torsions:
REMARK  status: ('A' for Active; 'I' for Inactive)
ROOT
ATOM      1  C1  BNZ d   1      -0.956   0.117   3.373  0.00  0.00     0.000 A 
ATOM      2  C2  BNZ d   1      -0.017  -0.879   3.334  0.00  0.00     0.000 A 
ATOM      3  C3  BNZ d   1      -0.330  -2.151   3.722  0.00  0.00     0.000 A 
ATOM      4  C4  BNZ d   1      -1.568  -2.418   4.185  0.00  0.00     0.000 A 
ATOM      5  C5  BNZ d   1      -2.524  -1.423   4.239  0.00  0.00     0.000 A 
ATOM      6  C6  BNZ d   1      -2.216  -0.152   3.811  0.00  0.00     0.000 A 
ENDROOT
TORSDOF 0
ENDMDL
