MODEL 1
REMARK minimizedAffinity -0.304861218
REMARK minimizedRMSD -1
REMARK  0 active torsions:
REMARK  status: ('A' for Active; 'I' for Inactive)
ROOT
ATOM      1  C1  BNZ d   1       0.500   4.140  -0.021  0.00  0.00     0.000 A 
ATOM      2  C2  BNZ d   1       0.052   3.024   0.634  0.00  0.00     0.000 A 
ATOM      3  C3  BNZ d   1      -0.563   2.011  -0.048  0.00  0.00     0.000 A 
ATOM      4  C4  BNZ d   1      -0.766   2.134  -1.376  0.00  0.00     0.000 A 
ATOM      5  C5  BNZ d   1      -0.329   3.257  -2.049  0.00  0.00     0.000 A 
ATOM      6  C6  BNZ d   1       0.325   4.257  -1.366  0.00  0.00     0.000 A 
ENDROOT
TORSDOF 0
ENDMDL
