MODEL 1
REMARK minimizedAffinity 2.90189242
REMARK minimizedRMSD -1
REMARK  0 active torsions:
REMARK  status: ('A' for Active; 'I' for Inactive)
ROOT
ATOM      1  C1  BNZ d   1       0.175  -2.907  -5.997  0.00  0.00     0.000 A 
ATOM      2  C2  BNZ d   1       0.031  -1.545  -5.992  0.00  0.00     0.000 A 
ATOM      3  C3  BNZ d   1       1.125  -0.725  -6.000  0.00  0.00     0.000 A 
ATOM      4  C4  BNZ d   1       2.360  -1.267  -5.972  0.00  0.00     0.000 A 
ATOM      5  C5  BNZ d   1       2.521  -2.639  -5.968  0.00  0.00     0.000 A 
ATOM      6  C6  BNZ d   1       1.418  -3.460  -5.999  0.00  0.00     0.000 A 
ENDROOT
TORSDOF 0
ENDMDL
