MODEL 1
REMARK minimizedAffinity 1.52579534
REMARK minimizedRMSD -1
REMARK  0 active torsions:
REMARK  status: ('A' for Active; 'I' for Inactive)
ROOT
ATOM      1  C1  BNZ d   1      -0.374   5.585   0.361  0.00  0.00     0.000 A 
ATOM      2  C2  BNZ d   1      -0.399   4.264   0.003  0.00  0.00     0.000 A 
ATOM      3  C3  BNZ d   1       0.363   3.344   0.668  0.00  0.00     0.000 A 
ATOM      4  C4  BNZ d   1       1.178   3.752   1.662  0.00  0.00     0.000 A 
ATOM      5  C5  BNZ d   1       1.221   5.083   2.028  0.00  0.00     0.000 A 
ATOM      6  C6  BNZ d   1       0.424   6.000   1.383  0.00  0.00     0.000 A 
ENDROOT
TORSDOF 0
ENDMDL
