MODEL 1
REMARK minimizedAffinity -0.0633769631
REMARK minimizedRMSD -1
REMARK  0 active torsions:
REMARK  status: ('A' for Active; 'I' for Inactive)
ROOT
ATOM      1  C1  BNZ d   1      -1.491  -2.993   5.563  0.00  0.00     0.000 A 
ATOM      2  C2  BNZ d   1      -1.504  -2.710   4.223  0.00  0.00     0.000 A 
ATOM      3  C3  BNZ d   1      -1.130  -3.651   3.306  0.00  0.00     0.000 A 
ATOM      4  C4  BNZ d   1      -0.706  -4.859   3.730  0.00  0.00     0.000 A 
ATOM      5  C5  BNZ d   1      -0.678  -5.156   5.078  0.00  0.00     0.000 A 
ATOM      6  C6  BNZ d   1      -1.093  -4.220   5.997  0.00  0.00     0.000 A 
ENDROOT
TORSDOF 0
ENDMDL
