MODEL 1
REMARK minimizedAffinity -1.42921567
REMARK minimizedRMSD -1
REMARK  0 active torsions:
REMARK  status: ('A' for Active; 'I' for Inactive)
ROOT
ATOM      1  C1  BNZ d   1      -3.769  -2.296   5.418  0.00  0.00     0.000 A 
ATOM      2  C2  BNZ d   1      -2.616  -1.868   4.815  0.00  0.00     0.000 A 
ATOM      3  C3  BNZ d   1      -1.507  -2.666   4.779  0.00  0.00     0.000 A 
ATOM      4  C4  BNZ d   1      -1.540  -3.874   5.380  0.00  0.00     0.000 A 
ATOM      5  C5  BNZ d   1      -2.692  -4.315   6.000  0.00  0.00     0.000 A 
ATOM      6  C6  BNZ d   1      -3.818  -3.525   6.000  0.00  0.00     0.000 A 
ENDROOT
TORSDOF 0
ENDMDL
