MODEL 1
REMARK minimizedAffinity -4.35406113
REMARK minimizedRMSD -1
REMARK  0 active torsions:
REMARK  status: ('A' for Active; 'I' for Inactive)
ROOT
ATOM      1  C4' PXY d   1      -3.072  -0.137  -2.584  0.00  0.00     0.077 C 
ATOM      2  C1' PXY d   1       1.431   1.067   0.835  0.00  0.00     0.077 C 
ATOM      3  C1  PXY d   1       0.245   0.744  -0.052  0.00  0.00    -0.082 A 
ATOM      4  C2  PXY d   1       0.390   0.752  -1.367  0.00  0.00     0.003 A 
ATOM      5  C3  PXY d   1      -0.681   0.495  -2.185  0.00  0.00     0.003 A 
ATOM      6  C4  PXY d   1      -1.899   0.173  -1.650  0.00  0.00    -0.082 A 
ATOM      7  C5  PXY d   1      -2.053   0.153  -0.309  0.00  0.00     0.003 A 
ATOM      8  C6  PXY d   1      -0.964   0.458   0.503  0.00  0.00     0.003 A 
ENDROOT
TORSDOF 0
ENDMDL
