MODEL 1
REMARK minimizedAffinity -1.99621558
REMARK minimizedRMSD -1
REMARK  0 active torsions:
REMARK  status: ('A' for Active; 'I' for Inactive)
ROOT
ATOM      1  C4' PXY d   1      -2.175   0.046  -1.722  0.00  0.00     0.077 C 
ATOM      2  C1' PXY d   1       2.868  -0.700   1.004  0.00  0.00     0.077 C 
ATOM      3  C1  PXY d   1       1.539  -0.510   0.299  0.00  0.00    -0.082 A 
ATOM      4  C2  PXY d   1       1.511  -0.371  -1.016  0.00  0.00     0.003 A 
ATOM      5  C3  PXY d   1       0.321  -0.167  -1.667  0.00  0.00     0.003 A 
ATOM      6  C4  PXY d   1      -0.857  -0.157  -0.969  0.00  0.00    -0.082 A 
ATOM      7  C5  PXY d   1      -0.838  -0.308   0.372  0.00  0.00     0.003 A 
ATOM      8  C6  PXY d   1       0.384  -0.474   1.018  0.00  0.00     0.003 A 
ENDROOT
TORSDOF 0
ENDMDL
