MODEL 1
REMARK minimizedAffinity 2.56806898
REMARK minimizedRMSD -1
REMARK  0 active torsions:
REMARK  status: ('A' for Active; 'I' for Inactive)
ROOT
ATOM      1  C4' PXY d   1      -2.677   0.510  -3.663  0.00  0.00     0.077 C 
ATOM      2  C1' PXY d   1       0.401  -1.071   0.967  0.00  0.00     0.077 C 
ATOM      3  C1  PXY d   1      -0.401  -0.666  -0.254  0.00  0.00    -0.082 A 
ATOM      4  C2  PXY d   1      -0.833   0.579  -0.369  0.00  0.00     0.003 A 
ATOM      5  C3  PXY d   1      -1.587   0.954  -1.451  0.00  0.00     0.003 A 
ATOM      6  C4  PXY d   1      -1.856   0.059  -2.452  0.00  0.00    -0.082 A 
ATOM      7  C5  PXY d   1      -1.409  -1.210  -2.347  0.00  0.00     0.003 A 
ATOM      8  C6  PXY d   1      -0.681  -1.582  -1.221  0.00  0.00     0.003 A 
ENDROOT
TORSDOF 0
ENDMDL
