MODEL 1
REMARK minimizedAffinity -5.57728767
REMARK minimizedRMSD -1
REMARK  0 active torsions:
REMARK  status: ('A' for Active; 'I' for Inactive)
ROOT
ATOM      1  C4' PXY d   1       3.179  -1.688   2.630  0.00  0.00     0.077 C 
ATOM      2  C1' PXY d   1      -0.949   0.323  -0.883  0.00  0.00     0.077 C 
ATOM      3  C1  PXY d   1       0.125  -0.211   0.045  0.00  0.00    -0.082 A 
ATOM      4  C2  PXY d   1       1.272   0.438   0.159  0.00  0.00     0.003 A 
ATOM      5  C3  PXY d   1       2.266  -0.048   0.970  0.00  0.00     0.003 A 
ATOM      6  C4  PXY d   1       2.063  -1.180   1.712  0.00  0.00    -0.082 A 
ATOM      7  C5  PXY d   1       0.891  -1.842   1.609  0.00  0.00     0.003 A 
ATOM      8  C6  PXY d   1      -0.090  -1.355   0.749  0.00  0.00     0.003 A 
ENDROOT
TORSDOF 0
ENDMDL
