MODEL 1
REMARK minimizedAffinity -4.75834131
REMARK minimizedRMSD -1
REMARK  0 active torsions:
REMARK  status: ('A' for Active; 'I' for Inactive)
ROOT
ATOM      1  C4' PXY d   1       3.313  -0.487   1.160  0.00  0.00     0.077 C 
ATOM      2  C1' PXY d   1      -1.998   0.766  -0.749  0.00  0.00     0.077 C 
ATOM      3  C1  PXY d   1      -0.600   0.448  -0.254  0.00  0.00    -0.082 A 
ATOM      4  C2  PXY d   1      -0.256  -0.809  -0.030  0.00  0.00     0.003 A 
ATOM      5  C3  PXY d   1       0.993  -1.112   0.449  0.00  0.00     0.003 A 
ATOM      6  C4  PXY d   1       1.916  -0.121   0.650  0.00  0.00    -0.082 A 
ATOM      7  C5  PXY d   1       1.576   1.164   0.414  0.00  0.00     0.003 A 
ATOM      8  C6  PXY d   1       0.290   1.453  -0.032  0.00  0.00     0.003 A 
ENDROOT
TORSDOF 0
ENDMDL
