MODEL 1
REMARK minimizedAffinity -4.742939
REMARK minimizedRMSD -1
REMARK  0 active torsions:
REMARK  status: ('A' for Active; 'I' for Inactive)
ROOT
ATOM      1  C4' PXY d   1       1.538  -2.914   1.994  0.00  0.00     0.077 C 
ATOM      2  C1' PXY d   1       1.193   2.217  -0.644  0.00  0.00     0.077 C 
ATOM      3  C1  PXY d   1       1.296   0.871   0.046  0.00  0.00    -0.082 A 
ATOM      4  C2  PXY d   1       0.238   0.079   0.097  0.00  0.00     0.003 A 
ATOM      5  C3  PXY d   1       0.305  -1.127   0.745  0.00  0.00     0.003 A 
ATOM      6  C4  PXY d   1       1.482  -1.551   1.300  0.00  0.00    -0.082 A 
ATOM      7  C5  PXY d   1       2.570  -0.753   1.243  0.00  0.00     0.003 A 
ATOM      8  C6  PXY d   1       2.470   0.486   0.616  0.00  0.00     0.003 A 
ENDROOT
TORSDOF 0
ENDMDL
