MODEL 1
REMARK minimizedAffinity -5.34387445
REMARK minimizedRMSD -1
REMARK  0 active torsions:
REMARK  status: ('A' for Active; 'I' for Inactive)
ROOT
ATOM      1  C4' PXY d   1       1.803  -3.294   1.893  0.00  0.00     0.077 C 
ATOM      2  C1' PXY d   1       0.006   1.896   0.092  0.00  0.00     0.077 C 
ATOM      3  C1  PXY d   1       0.488   0.536   0.558  0.00  0.00    -0.082 A 
ATOM      4  C2  PXY d   1      -0.394  -0.387   0.904  0.00  0.00     0.003 A 
ATOM      5  C3  PXY d   1       0.026  -1.611   1.358  0.00  0.00     0.003 A 
ATOM      6  C4  PXY d   1       1.361  -1.911   1.408  0.00  0.00    -0.082 A 
ATOM      7  C5  PXY d   1       2.267  -0.978   1.046  0.00  0.00     0.003 A 
ATOM      8  C6  PXY d   1       1.821   0.273   0.627  0.00  0.00     0.003 A 
ENDROOT
TORSDOF 0
ENDMDL
