MODEL 1
REMARK minimizedAffinity -2.04206181
REMARK minimizedRMSD -1
REMARK  0 active torsions:
REMARK  status: ('A' for Active; 'I' for Inactive)
ROOT
ATOM      1  C4' PXY d   1       2.587  -1.204   4.981  0.00  0.00     0.077 C 
ATOM      2  C1' PXY d   1       0.538   1.520   0.312  0.00  0.00     0.077 C 
ATOM      3  C1  PXY d   1       1.088   0.810   1.534  0.00  0.00    -0.082 A 
ATOM      4  C2  PXY d   1       0.451  -0.243   2.020  0.00  0.00     0.003 A 
ATOM      5  C3  PXY d   1       0.916  -0.877   3.143  0.00  0.00     0.003 A 
ATOM      6  C4  PXY d   1       2.074  -0.462   3.744  0.00  0.00    -0.082 A 
ATOM      7  C5  PXY d   1       2.735   0.605   3.247  0.00  0.00     0.003 A 
ATOM      8  C6  PXY d   1       2.224   1.260   2.131  0.00  0.00     0.003 A 
ENDROOT
TORSDOF 0
ENDMDL
