MODEL 1
REMARK minimizedAffinity 0.147998229
REMARK minimizedRMSD -1
REMARK  0 active torsions:
REMARK  status: ('A' for Active; 'I' for Inactive)
ROOT
ATOM      1  C4' PXY d   1       2.264  -1.246   4.076  0.00  0.00     0.077 C 
ATOM      2  C1' PXY d   1      -0.718   0.942  -0.366  0.00  0.00     0.077 C 
ATOM      3  C1  PXY d   1       0.075   0.374   0.794  0.00  0.00    -0.082 A 
ATOM      4  C2  PXY d   1      -0.350  -0.722   1.403  0.00  0.00     0.003 A 
ATOM      5  C3  PXY d   1       0.338  -1.231   2.474  0.00  0.00     0.003 A 
ATOM      6  C4  PXY d   1       1.501  -0.643   2.894  0.00  0.00    -0.082 A 
ATOM      7  C5  PXY d   1       1.946   0.469   2.272  0.00  0.00     0.003 A 
ATOM      8  C6  PXY d   1       1.212   0.994   1.212  0.00  0.00     0.003 A 
ENDROOT
TORSDOF 0
ENDMDL
