MODEL 1
REMARK minimizedAffinity -3.8160603
REMARK minimizedRMSD -1
REMARK  0 active torsions:
REMARK  status: ('A' for Active; 'I' for Inactive)
ROOT
ATOM      1  C4' PXY d   1       0.747   2.880   0.716  0.00  0.00     0.077 C 
ATOM      2  C1' PXY d   1       2.282  -2.654   1.375  0.00  0.00     0.077 C 
ATOM      3  C1  PXY d   1       1.871  -1.206   1.193  0.00  0.00    -0.082 A 
ATOM      4  C2  PXY d   1       2.691  -0.240   1.576  0.00  0.00     0.003 A 
ATOM      5  C3  PXY d   1       2.322   1.074   1.447  0.00  0.00     0.003 A 
ATOM      6  C4  PXY d   1       1.124   1.405   0.872  0.00  0.00    -0.082 A 
ATOM      7  C5  PXY d   1       0.287   0.425   0.469  0.00  0.00     0.003 A 
ATOM      8  C6  PXY d   1       0.662  -0.903   0.646  0.00  0.00     0.003 A 
ENDROOT
TORSDOF 0
ENDMDL
