MODEL 1
REMARK minimizedAffinity 0.323851913
REMARK minimizedRMSD -1
REMARK  0 active torsions:
REMARK  status: ('A' for Active; 'I' for Inactive)
ROOT
ATOM      1  C4' PXY d   1      -0.171   1.783  -0.055  0.00  0.00     0.077 C 
ATOM      2  C1' PXY d   1       3.164  -2.028   2.732  0.00  0.00     0.077 C 
ATOM      3  C1  PXY d   1       2.283  -1.038   1.996  0.00  0.00    -0.082 A 
ATOM      4  C2  PXY d   1       2.713   0.197   1.794  0.00  0.00     0.003 A 
ATOM      5  C3  PXY d   1       1.916   1.113   1.158  0.00  0.00     0.003 A 
ATOM      6  C4  PXY d   1       0.688   0.747   0.676  0.00  0.00    -0.082 A 
ATOM      7  C5  PXY d   1       0.247  -0.514   0.868  0.00  0.00     0.003 A 
ATOM      8  C6  PXY d   1       1.054  -1.418   1.552  0.00  0.00     0.003 A 
ENDROOT
TORSDOF 0
ENDMDL
