MODEL 1
REMARK minimizedAffinity -5.33321905
REMARK minimizedRMSD -1
REMARK  0 active torsions:
REMARK  status: ('A' for Active; 'I' for Inactive)
ROOT
ATOM      1  C4' PXY d   1       3.358  -0.462   1.214  0.00  0.00     0.077 C 
ATOM      2  C1' PXY d   1      -2.197   0.179  -0.250  0.00  0.00     0.077 C 
ATOM      3  C1  PXY d   1      -0.737   0.022   0.128  0.00  0.00    -0.082 A 
ATOM      4  C2  PXY d   1      -0.255  -1.182   0.389  0.00  0.00     0.003 A 
ATOM      5  C3  PXY d   1       1.055  -1.339   0.763  0.00  0.00     0.003 A 
ATOM      6  C4  PXY d   1       1.893  -0.258   0.819  0.00  0.00    -0.082 A 
ATOM      7  C5  PXY d   1       1.411   0.973   0.544  0.00  0.00     0.003 A 
ATOM      8  C6  PXY d   1       0.069   1.116   0.206  0.00  0.00     0.003 A 
ENDROOT
TORSDOF 0
ENDMDL
