MODEL 1
REMARK minimizedAffinity -3.60026765
REMARK minimizedRMSD -1
REMARK  0 active torsions:
REMARK  status: ('A' for Active; 'I' for Inactive)
ROOT
ATOM      1  C4' PXY d   1       2.620   0.541   1.620  0.00  0.00     0.077 C 
ATOM      2  C1' PXY d   1      -2.343  -0.218  -1.244  0.00  0.00     0.077 C 
ATOM      3  C1  PXY d   1      -1.042  -0.031  -0.488  0.00  0.00    -0.082 A 
ATOM      4  C2  PXY d   1      -0.629   1.190  -0.191  0.00  0.00     0.003 A 
ATOM      5  C3  PXY d   1       0.561   1.379   0.465  0.00  0.00     0.003 A 
ATOM      6  C4  PXY d   1       1.309   0.304   0.867  0.00  0.00    -0.082 A 
ATOM      7  C5  PXY d   1       0.888  -0.945   0.576  0.00  0.00     0.003 A 
ATOM      8  C6  PXY d   1      -0.302  -1.114  -0.126  0.00  0.00     0.003 A 
ENDROOT
TORSDOF 0
ENDMDL
