MODEL 1
REMARK minimizedAffinity -2.07919121
REMARK minimizedRMSD -1
REMARK  0 active torsions:
REMARK  status: ('A' for Active; 'I' for Inactive)
ROOT
ATOM      1  C   UNL d   1       0.407   0.264  -2.812  0.00  0.00     0.077 C 
ATOM      2  C1  UNL d   1       0.049   0.064  -1.369  0.00  0.00    -0.074 A 
ATOM      3  C2  UNL d   1       0.183   1.104  -0.444  0.00  0.00    -0.005 A 
ATOM      4  C3  UNL d   1      -0.163   0.906   0.892  0.00  0.00     0.006 A 
ATOM      5  C4  UNL d   1      -0.646  -0.332   1.317  0.00  0.00    -0.005 A 
ATOM      6  C5  UNL d   1      -0.788  -1.384   0.407  0.00  0.00    -0.074 A 
ATOM      7  C6  UNL d   1      -1.315  -2.718   0.844  0.00  0.00     0.077 C 
ATOM      8  C7  UNL d   1      -0.444  -1.175  -0.936  0.00  0.00    -0.001 A 
ENDROOT
TORSDOF 0
ENDMDL
