MODEL 1
REMARK minimizedAffinity -1.53057706
REMARK minimizedRMSD -1
REMARK  0 active torsions:
REMARK  status: ('A' for Active; 'I' for Inactive)
ROOT
ATOM      1  C   UNL d   1       0.283   1.848   0.091  0.00  0.00     0.077 C 
ATOM      2  C1  UNL d   1      -0.050   0.432  -0.274  0.00  0.00    -0.074 A 
ATOM      3  C2  UNL d   1       0.172  -0.048  -1.569  0.00  0.00    -0.005 A 
ATOM      4  C3  UNL d   1      -0.134  -1.370  -1.891  0.00  0.00     0.006 A 
ATOM      5  C4  UNL d   1      -0.663  -2.225  -0.923  0.00  0.00    -0.005 A 
ATOM      6  C5  UNL d   1      -0.890  -1.763   0.377  0.00  0.00    -0.074 A 
ATOM      7  C6  UNL d   1      -1.449  -2.671   1.432  0.00  0.00     0.077 C 
ATOM      8  C7  UNL d   1      -0.574  -0.435   0.695  0.00  0.00    -0.001 A 
ENDROOT
TORSDOF 0
ENDMDL
