MODEL 1
REMARK minimizedAffinity -4.25439453
REMARK minimizedRMSD -1
REMARK  0 active torsions:
REMARK  status: ('A' for Active; 'I' for Inactive)
ROOT
ATOM      1  C   UNL d   1      -0.265   2.204  -0.291  0.00  0.00     0.077 C 
ATOM      2  C1  UNL d   1      -0.161   0.763  -0.692  0.00  0.00    -0.074 A 
ATOM      3  C2  UNL d   1       0.131   0.403  -2.011  0.00  0.00    -0.005 A 
ATOM      4  C3  UNL d   1       0.234  -0.942  -2.367  0.00  0.00     0.006 A 
ATOM      5  C4  UNL d   1       0.044  -1.939  -1.409  0.00  0.00    -0.005 A 
ATOM      6  C5  UNL d   1      -0.248  -1.598  -0.085  0.00  0.00    -0.074 A 
ATOM      7  C6  UNL d   1      -0.445  -2.656   0.959  0.00  0.00     0.077 C 
ATOM      8  C7  UNL d   1      -0.342  -0.244   0.267  0.00  0.00    -0.001 A 
ENDROOT
TORSDOF 0
ENDMDL
