MODEL 1
REMARK minimizedAffinity -3.53677464
REMARK minimizedRMSD -1
REMARK  0 active torsions:
REMARK  status: ('A' for Active; 'I' for Inactive)
ROOT
ATOM      1  C   UNL d   1       1.052   3.101   0.267  0.00  0.00     0.077 C 
ATOM      2  C1  UNL d   1       0.605   1.669   0.283  0.00  0.00    -0.074 A 
ATOM      3  C2  UNL d   1       0.163   1.067   1.466  0.00  0.00    -0.005 A 
ATOM      4  C3  UNL d   1      -0.258  -0.262   1.464  0.00  0.00     0.006 A 
ATOM      5  C4  UNL d   1      -0.243  -1.002   0.281  0.00  0.00    -0.005 A 
ATOM      6  C5  UNL d   1       0.195  -0.417  -0.911  0.00  0.00    -0.074 A 
ATOM      7  C6  UNL d   1       0.208  -1.196  -2.193  0.00  0.00     0.077 C 
ATOM      8  C7  UNL d   1       0.610   0.921  -0.902  0.00  0.00    -0.001 A 
ENDROOT
TORSDOF 0
ENDMDL
