MODEL 1
REMARK minimizedAffinity -2.96974444
REMARK minimizedRMSD -1
REMARK  0 active torsions:
REMARK  status: ('A' for Active; 'I' for Inactive)
ROOT
ATOM      1  C   UNL d   1       0.394   1.709  -0.720  0.00  0.00     0.077 C 
ATOM      2  C1  UNL d   1      -0.155   0.340  -0.449  0.00  0.00    -0.074 A 
ATOM      3  C2  UNL d   1      -0.772   0.041   0.770  0.00  0.00    -0.005 A 
ATOM      4  C3  UNL d   1      -1.287  -1.235   1.003  0.00  0.00     0.006 A 
ATOM      5  C4  UNL d   1      -1.189  -2.222   0.022  0.00  0.00    -0.005 A 
ATOM      6  C5  UNL d   1      -0.576  -1.941  -1.203  0.00  0.00    -0.074 A 
ATOM      7  C6  UNL d   1      -0.471  -2.988  -2.272  0.00  0.00     0.077 C 
ATOM      8  C7  UNL d   1      -0.068  -0.655  -1.433  0.00  0.00    -0.001 A 
ENDROOT
TORSDOF 0
ENDMDL
