MODEL 1
REMARK minimizedAffinity -2.00147939
REMARK minimizedRMSD -1
REMARK  0 active torsions:
REMARK  status: ('A' for Active; 'I' for Inactive)
ROOT
ATOM      1  C   UNL d   1       0.564   2.042  -0.194  0.00  0.00     0.077 C 
ATOM      2  C1  UNL d   1       0.261   0.589  -0.411  0.00  0.00    -0.074 A 
ATOM      3  C2  UNL d   1       0.645  -0.057  -1.590  0.00  0.00    -0.005 A 
ATOM      4  C3  UNL d   1       0.364  -1.411  -1.773  0.00  0.00     0.006 A 
ATOM      5  C4  UNL d   1      -0.303  -2.131  -0.781  0.00  0.00    -0.005 A 
ATOM      6  C5  UNL d   1      -0.694  -1.502   0.405  0.00  0.00    -0.074 A 
ATOM      7  C6  UNL d   1      -1.402  -2.263   1.486  0.00  0.00     0.077 C 
ATOM      8  C7  UNL d   1      -0.402  -0.143   0.585  0.00  0.00    -0.001 A 
ENDROOT
TORSDOF 0
ENDMDL
