MODEL 1
REMARK minimizedAffinity -2.55362773
REMARK minimizedRMSD -1
REMARK  0 active torsions:
REMARK  status: ('A' for Active; 'I' for Inactive)
ROOT
ATOM      1  C   UNL d   1      -0.709  -3.966  -0.191  0.00  0.00     0.077 C 
ATOM      2  C1  UNL d   1      -0.322  -2.518  -0.260  0.00  0.00    -0.074 A 
ATOM      3  C2  UNL d   1       0.124  -1.950  -1.458  0.00  0.00    -0.005 A 
ATOM      4  C3  UNL d   1       0.470  -0.600  -1.509  0.00  0.00     0.006 A 
ATOM      5  C4  UNL d   1       0.375   0.194  -0.366  0.00  0.00    -0.005 A 
ATOM      6  C5  UNL d   1      -0.070  -0.356   0.840  0.00  0.00    -0.074 A 
ATOM      7  C6  UNL d   1      -0.188   0.486   2.076  0.00  0.00     0.077 C 
ATOM      8  C7  UNL d   1      -0.423  -1.712   0.882  0.00  0.00    -0.001 A 
ENDROOT
TORSDOF 0
ENDMDL
