MODEL 1
REMARK minimizedAffinity -3.16363192
REMARK minimizedRMSD -1
REMARK  0 active torsions:
REMARK  status: ('A' for Active; 'I' for Inactive)
ROOT
ATOM      1  C   UNL d   1      -0.124   2.350   0.190  0.00  0.00     0.077 C 
ATOM      2  C1  UNL d   1      -0.219   0.920  -0.251  0.00  0.00    -0.074 A 
ATOM      3  C2  UNL d   1       0.191   0.534  -1.531  0.00  0.00    -0.005 A 
ATOM      4  C3  UNL d   1       0.104  -0.802  -1.924  0.00  0.00     0.006 A 
ATOM      5  C4  UNL d   1      -0.392  -1.763  -1.043  0.00  0.00    -0.005 A 
ATOM      6  C5  UNL d   1      -0.806  -1.395   0.241  0.00  0.00    -0.074 A 
ATOM      7  C6  UNL d   1      -1.333  -2.417   1.204  0.00  0.00     0.077 C 
ATOM      8  C7  UNL d   1      -0.710  -0.053   0.631  0.00  0.00    -0.001 A 
ENDROOT
TORSDOF 0
ENDMDL
