MODEL 1
REMARK minimizedAffinity -4.02585697
REMARK minimizedRMSD -1
REMARK  0 active torsions:
REMARK  status: ('A' for Active; 'I' for Inactive)
ROOT
ATOM      1  C   UNL d   1      -1.137  -2.561   0.848  0.00  0.00     0.077 C 
ATOM      2  C1  UNL d   1      -0.462  -1.262   0.522  0.00  0.00    -0.074 A 
ATOM      3  C2  UNL d   1       0.278  -0.574   1.489  0.00  0.00    -0.005 A 
ATOM      4  C3  UNL d   1       0.909   0.628   1.169  0.00  0.00     0.006 A 
ATOM      5  C4  UNL d   1       0.806   1.154  -0.119  0.00  0.00    -0.005 A 
ATOM      6  C5  UNL d   1       0.071   0.480  -1.100  0.00  0.00    -0.074 A 
ATOM      7  C6  UNL d   1      -0.041   1.026  -2.492  0.00  0.00     0.077 C 
ATOM      8  C7  UNL d   1      -0.554  -0.731  -0.772  0.00  0.00    -0.001 A 
ENDROOT
TORSDOF 0
ENDMDL
