MODEL 1
REMARK minimizedAffinity -2.43633699
REMARK minimizedRMSD -1
REMARK  0 active torsions:
REMARK  status: ('A' for Active; 'I' for Inactive)
ROOT
ATOM      1  C   UNL d   1       0.397   2.305  -0.001  0.00  0.00     0.077 C 
ATOM      2  C1  UNL d   1       0.025   0.904  -0.386  0.00  0.00    -0.074 A 
ATOM      3  C2  UNL d   1       0.206   0.446  -1.695  0.00  0.00    -0.005 A 
ATOM      4  C3  UNL d   1      -0.136  -0.862  -2.036  0.00  0.00     0.006 A 
ATOM      5  C4  UNL d   1      -0.660  -1.725  -1.073  0.00  0.00    -0.005 A 
ATOM      6  C5  UNL d   1      -0.846  -1.286   0.242  0.00  0.00    -0.074 A 
ATOM      7  C6  UNL d   1      -1.399  -2.203   1.292  0.00  0.00     0.077 C 
ATOM      8  C7  UNL d   1      -0.494   0.029   0.578  0.00  0.00    -0.001 A 
ENDROOT
TORSDOF 0
ENDMDL
