MODEL 1
REMARK minimizedAffinity -3.78110075
REMARK minimizedRMSD -1
REMARK  0 active torsions:
REMARK  status: ('A' for Active; 'I' for Inactive)
ROOT
ATOM      1  C   UNL d   1      -3.355  -3.141   0.191  0.00  0.00     0.077 C 
ATOM      2  C1  UNL d   1      -1.922  -2.780  -0.064  0.00  0.00    -0.074 A 
ATOM      3  C2  UNL d   1      -1.028  -3.717  -0.592  0.00  0.00    -0.005 A 
ATOM      4  C3  UNL d   1       0.300  -3.363  -0.833  0.00  0.00     0.006 A 
ATOM      5  C4  UNL d   1       0.746  -2.071  -0.550  0.00  0.00    -0.005 A 
ATOM      6  C5  UNL d   1      -0.135  -1.121  -0.023  0.00  0.00    -0.074 A 
ATOM      7  C6  UNL d   1       0.326   0.274   0.278  0.00  0.00     0.077 C 
ATOM      8  C7  UNL d   1      -1.469  -1.482   0.210  0.00  0.00    -0.001 A 
ENDROOT
TORSDOF 0
ENDMDL
