MODEL 1
REMARK minimizedAffinity -4.40902662
REMARK minimizedRMSD -1
REMARK  0 active torsions:
REMARK  status: ('A' for Active; 'I' for Inactive)
ROOT
ATOM      1  C   UNL d   1      -0.160  -3.669  -1.146  0.00  0.00     0.077 C 
ATOM      2  C1  UNL d   1       0.119  -2.473  -0.286  0.00  0.00    -0.074 A 
ATOM      3  C2  UNL d   1       0.559  -2.624   1.033  0.00  0.00    -0.005 A 
ATOM      4  C3  UNL d   1       0.824  -1.502   1.819  0.00  0.00     0.006 A 
ATOM      5  C4  UNL d   1       0.652  -0.220   1.294  0.00  0.00    -0.005 A 
ATOM      6  C5  UNL d   1       0.214  -0.050  -0.023  0.00  0.00    -0.074 A 
ATOM      7  C6  UNL d   1       0.033   1.320  -0.605  0.00  0.00     0.077 C 
ATOM      8  C7  UNL d   1      -0.044  -1.182  -0.808  0.00  0.00    -0.001 A 
ENDROOT
TORSDOF 0
ENDMDL
