MODEL 1
REMARK minimizedAffinity -1.41329443
REMARK minimizedRMSD -1
REMARK  0 active torsions:
REMARK  status: ('A' for Active; 'I' for Inactive)
ROOT
ATOM      1  C   UNL d   1      -0.928  -1.038   1.450  0.00  0.00     0.077 C 
ATOM      2  C1  UNL d   1      -0.373   0.108   0.658  0.00  0.00    -0.074 A 
ATOM      3  C2  UNL d   1      -0.724   0.292  -0.684  0.00  0.00    -0.005 A 
ATOM      4  C3  UNL d   1      -0.207   1.368  -1.405  0.00  0.00     0.006 A 
ATOM      5  C4  UNL d   1       0.665   2.270  -0.794  0.00  0.00    -0.005 A 
ATOM      6  C5  UNL d   1       1.026   2.103   0.547  0.00  0.00    -0.074 A 
ATOM      7  C6  UNL d   1       1.954   3.069   1.222  0.00  0.00     0.077 C 
ATOM      8  C7  UNL d   1       0.497   1.023   1.267  0.00  0.00    -0.001 A 
ENDROOT
TORSDOF 0
ENDMDL
