MODEL 1
REMARK minimizedAffinity -2.67762566
REMARK minimizedRMSD -1
REMARK  0 active torsions:
REMARK  status: ('A' for Active; 'I' for Inactive)
ROOT
ATOM      1  C   UNL d   1      -0.302  -2.472  -2.392  0.00  0.00     0.077 C 
ATOM      2  C1  UNL d   1      -0.463  -1.739  -1.093  0.00  0.00    -0.074 A 
ATOM      3  C2  UNL d   1      -1.009  -2.373   0.027  0.00  0.00    -0.005 A 
ATOM      4  C3  UNL d   1      -1.144  -1.682   1.231  0.00  0.00     0.006 A 
ATOM      5  C4  UNL d   1      -0.735  -0.351   1.327  0.00  0.00    -0.005 A 
ATOM      6  C5  UNL d   1      -0.185   0.299   0.217  0.00  0.00    -0.074 A 
ATOM      7  C6  UNL d   1       0.269   1.726   0.306  0.00  0.00     0.077 C 
ATOM      8  C7  UNL d   1      -0.047  -0.404  -0.987  0.00  0.00    -0.001 A 
ENDROOT
TORSDOF 0
ENDMDL
