MODEL 1
REMARK minimizedAffinity -3.54862928
REMARK minimizedRMSD -1
REMARK  0 active torsions:
REMARK  status: ('A' for Active; 'I' for Inactive)
ROOT
ATOM      1  C   UNL d   1       0.238   0.532   0.134  0.00  0.00     0.077 C 
ATOM      2  C1  UNL d   1       0.851   1.886   0.336  0.00  0.00    -0.074 A 
ATOM      3  C2  UNL d   1       1.826   2.371  -0.541  0.00  0.00    -0.005 A 
ATOM      4  C3  UNL d   1       2.380   3.637  -0.345  0.00  0.00     0.006 A 
ATOM      5  C4  UNL d   1       1.965   4.427   0.727  0.00  0.00    -0.005 A 
ATOM      6  C5  UNL d   1       0.991   3.958   1.614  0.00  0.00    -0.074 A 
ATOM      7  C6  UNL d   1       0.527   4.799   2.766  0.00  0.00     0.077 C 
ATOM      8  C7  UNL d   1       0.434   2.689   1.407  0.00  0.00    -0.001 A 
ENDROOT
TORSDOF 0
ENDMDL
