MODEL 1
REMARK minimizedAffinity -4.09393454
REMARK minimizedRMSD -1
REMARK  0 active torsions:
REMARK  status: ('A' for Active; 'I' for Inactive)
ROOT
ATOM      1  C   UNL d   1       0.572   1.693   0.262  0.00  0.00     0.077 C 
ATOM      2  C1  UNL d   1       0.024   0.297   0.234  0.00  0.00    -0.074 A 
ATOM      3  C2  UNL d   1      -0.415  -0.326   1.407  0.00  0.00    -0.005 A 
ATOM      4  C3  UNL d   1      -0.932  -1.621   1.364  0.00  0.00     0.006 A 
ATOM      5  C4  UNL d   1      -1.014  -2.305   0.150  0.00  0.00    -0.005 A 
ATOM      6  C5  UNL d   1      -0.581  -1.698  -1.032  0.00  0.00    -0.074 A 
ATOM      7  C6  UNL d   1      -0.672  -2.414  -2.347  0.00  0.00     0.077 C 
ATOM      8  C7  UNL d   1      -0.070  -0.394  -0.982  0.00  0.00    -0.001 A 
ENDROOT
TORSDOF 0
ENDMDL
