MODEL 1
REMARK minimizedAffinity 18.6604156
REMARK minimizedRMSD -1
REMARK  0 active torsions:
REMARK  status: ('A' for Active; 'I' for Inactive)
ROOT
ATOM      1  N1  IND d   1       0.735  -5.999  -5.904  0.00  0.00    -0.196 N 
ATOM      2  C2  IND d   1      -0.632  -5.995  -5.881  0.00  0.00     0.054 A 
ATOM      3  C3  IND d   1      -1.081  -5.999  -4.606  0.00  0.00    -0.031 A 
ATOM      4  C4  IND d   1       0.248  -5.913  -2.403  0.00  0.00     0.051 A 
ATOM      5  C5  IND d   1       1.524  -5.942  -1.913  0.00  0.00    -0.031 A 
ATOM      6  C6  IND d   1       2.624  -5.990  -2.745  0.00  0.00     0.015 A 
ATOM      7  C7  IND d   1       2.489  -5.999  -4.105  0.00  0.00    -0.016 A 
ATOM      8  C8  IND d   1       1.195  -5.977  -4.606  0.00  0.00    -0.047 A 
ATOM      9  C9  IND d   1       0.074  -5.971  -3.766  0.00  0.00    -0.096 A 
ATOM     10  HN1 IND d   1       1.225  -6.014  -6.611  0.00  0.00     0.298 HD
ENDROOT
TORSDOF 0
ENDMDL
