MODEL 1
REMARK minimizedAffinity 7.81546926
REMARK minimizedRMSD -1
REMARK  0 active torsions:
REMARK  status: ('A' for Active; 'I' for Inactive)
ROOT
ATOM      1  N1  IND d   1       5.998  -3.978  -1.501  0.00  0.00    -0.196 N 
ATOM      2  C2  IND d   1       6.000  -4.997  -0.590  0.00  0.00     0.054 A 
ATOM      3  C3  IND d   1       5.073  -4.772   0.368  0.00  0.00    -0.031 A 
ATOM      4  C4  IND d   1       3.373  -2.851   0.581  0.00  0.00     0.051 A 
ATOM      5  C5  IND d   1       3.012  -1.664   0.008  0.00  0.00    -0.031 A 
ATOM      6  C6  IND d   1       3.639  -1.179  -1.121  0.00  0.00     0.015 A 
ATOM      7  C7  IND d   1       4.647  -1.872  -1.730  0.00  0.00    -0.016 A 
ATOM      8  C8  IND d   1       5.021  -3.074  -1.147  0.00  0.00    -0.047 A 
ATOM      9  C9  IND d   1       4.417  -3.551   0.024  0.00  0.00    -0.096 A 
ATOM     10  HN1 IND d   1       6.520  -3.912  -2.182  0.00  0.00     0.298 HD
ENDROOT
TORSDOF 0
ENDMDL
