MODEL 1
REMARK minimizedAffinity 9.53145504
REMARK minimizedRMSD -1
REMARK  0 active torsions:
REMARK  status: ('A' for Active; 'I' for Inactive)
ROOT
ATOM      1  N1  IND d   1       0.736   4.527  -1.636  0.00  0.00    -0.196 N 
ATOM      2  C2  IND d   1       0.734   5.850  -1.290  0.00  0.00     0.054 A 
ATOM      3  C3  IND d   1       0.337   6.000  -0.007  0.00  0.00    -0.031 A 
ATOM      4  C4  IND d   1      -0.261   4.207   1.741  0.00  0.00     0.051 A 
ATOM      5  C5  IND d   1      -0.441   2.860   1.884  0.00  0.00    -0.031 A 
ATOM      6  C6  IND d   1      -0.231   1.981   0.840  0.00  0.00     0.015 A 
ATOM      7  C7  IND d   1       0.180   2.418  -0.387  0.00  0.00    -0.016 A 
ATOM      8  C8  IND d   1       0.357   3.787  -0.538  0.00  0.00    -0.047 A 
ATOM      9  C9  IND d   1       0.104   4.687   0.505  0.00  0.00    -0.096 A 
ATOM     10  HN1 IND d   1       0.939   4.211  -2.409  0.00  0.00     0.298 HD
ENDROOT
TORSDOF 0
ENDMDL
