MODEL 1
REMARK minimizedAffinity 9.65140247
REMARK minimizedRMSD -1
REMARK  0 active torsions:
REMARK  status: ('A' for Active; 'I' for Inactive)
ROOT
ATOM      1  N1  IND d   1       1.486   5.249  -0.083  0.00  0.00    -0.196 N 
ATOM      2  C2  IND d   1       0.356   4.837  -0.733  0.00  0.00     0.054 A 
ATOM      3  C3  IND d   1      -0.278   3.883  -0.015  0.00  0.00    -0.031 A 
ATOM      4  C4  IND d   1       0.305   2.919   2.299  0.00  0.00     0.051 A 
ATOM      5  C5  IND d   1       1.265   2.956   3.271  0.00  0.00    -0.031 A 
ATOM      6  C6  IND d   1       2.369   3.778   3.174  0.00  0.00     0.015 A 
ATOM      7  C7  IND d   1       2.549   4.606   2.102  0.00  0.00    -0.016 A 
ATOM      8  C8  IND d   1       1.579   4.565   1.110  0.00  0.00    -0.047 A 
ATOM      9  C9  IND d   1       0.479   3.702   1.183  0.00  0.00    -0.096 A 
ATOM     10  HN1 IND d   1       2.045   5.835  -0.370  0.00  0.00     0.298 HD
ENDROOT
TORSDOF 0
ENDMDL
