MODEL 1
REMARK minimizedAffinity 14.6786432
REMARK minimizedRMSD -1
REMARK  0 active torsions:
REMARK  status: ('A' for Active; 'I' for Inactive)
ROOT
ATOM      1  N1  IND d   1       1.778   4.255   0.333  0.00  0.00    -0.196 N 
ATOM      2  C2  IND d   1       0.878   5.146  -0.181  0.00  0.00     0.054 A 
ATOM      3  C3  IND d   1      -0.333   4.978   0.396  0.00  0.00    -0.031 A 
ATOM      4  C4  IND d   1      -1.038   3.369   2.278  0.00  0.00     0.051 A 
ATOM      5  C5  IND d   1      -0.573   2.336   3.043  0.00  0.00    -0.031 A 
ATOM      6  C6  IND d   1       0.726   1.883   2.944  0.00  0.00     0.015 A 
ATOM      7  C7  IND d   1       1.616   2.456   2.080  0.00  0.00    -0.016 A 
ATOM      8  C8  IND d   1       1.146   3.500   1.297  0.00  0.00    -0.047 A 
ATOM      9  C9  IND d   1      -0.184   3.936   1.363  0.00  0.00    -0.096 A 
ATOM     10  HN1 IND d   1       2.601   4.178   0.095  0.00  0.00     0.298 HD
ENDROOT
TORSDOF 0
ENDMDL
