MODEL 1
REMARK minimizedAffinity 5.19022608
REMARK minimizedRMSD -1
REMARK  0 active torsions:
REMARK  status: ('A' for Active; 'I' for Inactive)
ROOT
ATOM      1  N1  IND d   1       0.591   4.454  -0.955  0.00  0.00    -0.196 N 
ATOM      2  C2  IND d   1       0.037   5.700  -1.045  0.00  0.00     0.054 A 
ATOM      3  C3  IND d   1      -0.635   6.000   0.089  0.00  0.00    -0.031 A 
ATOM      4  C4  IND d   1      -0.873   4.635   2.258  0.00  0.00     0.051 A 
ATOM      5  C5  IND d   1      -0.573   3.418   2.804  0.00  0.00    -0.031 A 
ATOM      6  C6  IND d   1       0.147   2.466   2.111  0.00  0.00     0.015 A 
ATOM      7  C7  IND d   1       0.606   2.701   0.846  0.00  0.00    -0.016 A 
ATOM      8  C8  IND d   1       0.297   3.933   0.286  0.00  0.00    -0.047 A 
ATOM      9  C9  IND d   1      -0.470   4.886   0.968  0.00  0.00    -0.096 A 
ATOM     10  HN1 IND d   1       1.045   4.061  -1.570  0.00  0.00     0.298 HD
ENDROOT
TORSDOF 0
ENDMDL
