MODEL 1
REMARK minimizedAffinity 9.99246216
REMARK minimizedRMSD -1
REMARK  0 active torsions:
REMARK  status: ('A' for Active; 'I' for Inactive)
ROOT
ATOM      1  N1  IND d   1      -0.263   4.744  -1.564  0.00  0.00    -0.196 N 
ATOM      2  C2  IND d   1      -0.124   6.000  -1.042  0.00  0.00     0.054 A 
ATOM      3  C3  IND d   1       0.156   5.931   0.279  0.00  0.00    -0.031 A 
ATOM      4  C4  IND d   1       0.531   3.864   1.766  0.00  0.00     0.051 A 
ATOM      5  C5  IND d   1       0.473   2.499   1.748  0.00  0.00    -0.031 A 
ATOM      6  C6  IND d   1       0.163   1.798   0.600  0.00  0.00     0.015 A 
ATOM      7  C7  IND d   1      -0.090   2.439  -0.579  0.00  0.00    -0.016 A 
ATOM      8  C8  IND d   1      -0.039   3.825  -0.562  0.00  0.00    -0.047 A 
ATOM      9  C9  IND d   1       0.233   4.544   0.609  0.00  0.00    -0.096 A 
ATOM     10  HN1 IND d   1      -0.459   4.559  -2.381  0.00  0.00     0.298 HD
ENDROOT
TORSDOF 0
ENDMDL
