MODEL 1
REMARK minimizedAffinity 13.4850254
REMARK minimizedRMSD -1
REMARK  0 active torsions:
REMARK  status: ('A' for Active; 'I' for Inactive)
ROOT
ATOM      1  N1  IND d   1      -3.205  -1.171   4.000  0.00  0.00    -0.196 N 
ATOM      2  C2  IND d   1      -4.328  -0.570   3.504  0.00  0.00     0.054 A 
ATOM      3  C3  IND d   1      -4.089   0.735   3.244  0.00  0.00    -0.031 A 
ATOM      4  C4  IND d   1      -1.898   2.070   3.459  0.00  0.00     0.051 A 
ATOM      5  C5  IND d   1      -0.609   1.961   3.903  0.00  0.00    -0.031 A 
ATOM      6  C6  IND d   1      -0.109   0.779   4.408  0.00  0.00     0.015 A 
ATOM      7  C7  IND d   1      -0.879  -0.348   4.480  0.00  0.00    -0.016 A 
ATOM      8  C8  IND d   1      -2.190  -0.239   4.037  0.00  0.00    -0.047 A 
ATOM      9  C9  IND d   1      -2.716   0.969   3.562  0.00  0.00    -0.096 A 
ATOM     10  HN1 IND d   1      -3.142  -1.992   4.246  0.00  0.00     0.298 HD
ENDROOT
TORSDOF 0
ENDMDL
