MODEL 1
REMARK minimizedAffinity 15.5393724
REMARK minimizedRMSD -1
REMARK  0 active torsions:
REMARK  status: ('A' for Active; 'I' for Inactive)
ROOT
ATOM      1  N1  IND d   1       0.756   2.077   0.655  0.00  0.00    -0.196 N 
ATOM      2  C2  IND d   1       0.524   1.793   1.972  0.00  0.00     0.054 A 
ATOM      3  C3  IND d   1       0.085   2.895   2.620  0.00  0.00    -0.031 A 
ATOM      4  C4  IND d   1      -0.423   5.243   1.695  0.00  0.00     0.051 A 
ATOM      5  C5  IND d   1      -0.332   5.996   0.558  0.00  0.00    -0.031 A 
ATOM      6  C6  IND d   1       0.133   5.469  -0.630  0.00  0.00     0.015 A 
ATOM      7  C7  IND d   1       0.516   4.161  -0.727  0.00  0.00    -0.016 A 
ATOM      8  C8  IND d   1       0.431   3.396   0.427  0.00  0.00    -0.047 A 
ATOM      9  C9  IND d   1       0.000   3.936   1.646  0.00  0.00    -0.096 A 
ATOM     10  HN1 IND d   1       1.054   1.524   0.068  0.00  0.00     0.298 HD
ENDROOT
TORSDOF 0
ENDMDL
