MODEL 1
REMARK minimizedAffinity -3.83970189
REMARK minimizedRMSD -1
REMARK  1 active torsions:
REMARK  status: ('A' for Active; 'I' for Inactive)
REMARK    1  A    between atoms: N_2  and  C1_3 
ROOT
ATOM      1  C1  UNL d   1       0.225   0.223  -0.113  0.00  0.00     0.143 A 
ATOM      2  C2  UNL d   1       0.340   1.472  -0.733  0.00  0.00    -0.057 A 
ATOM      3  C3  UNL d   1       1.285   1.697  -1.741  0.00  0.00     0.033 A 
ATOM      4  C4  UNL d   1       2.154   0.682  -2.128  0.00  0.00    -0.042 A 
ATOM      5  C5  UNL d   1       2.074  -0.560  -1.508  0.00  0.00     0.033 A 
ATOM      6  C6  UNL d   1       1.124  -0.781  -0.507  0.00  0.00    -0.057 A 
ENDROOT
BRANCH   1   7
ATOM      7  N   UNL d   1      -0.628  -0.035   0.963  0.00  0.00    -0.732 N 
ATOM      8  C   UNL d   1      -2.033   0.302   0.887  0.00  0.00     0.284 C 
ATOM      9  H3  UNL d   1      -0.439  -0.934   1.401  0.00  0.00     0.395 HD
ENDBRANCH   1   7
TORSDOF 1
ENDMDL
