MODEL 1
REMARK minimizedAffinity -3.49626637
REMARK minimizedRMSD -1
REMARK  1 active torsions:
REMARK  status: ('A' for Active; 'I' for Inactive)
REMARK    1  A    between atoms: N_2  and  C1_3 
ROOT
ATOM      1  C1  UNL d   1       0.006  -0.055  -0.528  0.00  0.00     0.143 A 
ATOM      2  C2  UNL d   1       0.408  -1.322  -0.965  0.00  0.00    -0.057 A 
ATOM      3  C3  UNL d   1       1.411  -1.472  -1.931  0.00  0.00     0.033 A 
ATOM      4  C4  UNL d   1       2.010  -0.353  -2.500  0.00  0.00    -0.042 A 
ATOM      5  C5  UNL d   1       1.608   0.916  -2.100  0.00  0.00     0.033 A 
ATOM      6  C6  UNL d   1       0.611   1.060  -1.130  0.00  0.00    -0.057 A 
ENDROOT
BRANCH   1   7
ATOM      7  N   UNL d   1      -1.053   0.163   0.357  0.00  0.00    -0.732 N 
ATOM      8  C   UNL d   1      -0.935  -0.206   1.752  0.00  0.00     0.284 C 
ATOM      9  H3  UNL d   1      -1.512   1.057   0.201  0.00  0.00     0.395 HD
ENDBRANCH   1   7
TORSDOF 1
ENDMDL
