MODEL 1
REMARK minimizedAffinity -2.83083534
REMARK minimizedRMSD -1
REMARK  1 active torsions:
REMARK  status: ('A' for Active; 'I' for Inactive)
REMARK    1  A    between atoms: N_2  and  C1_3 
ROOT
ATOM      1  C1  UNL d   1      -0.005   0.161   0.171  0.00  0.00     0.143 A 
ATOM      2  C2  UNL d   1       0.388  -0.919  -0.626  0.00  0.00    -0.057 A 
ATOM      3  C3  UNL d   1       1.214  -0.736  -1.742  0.00  0.00     0.033 A 
ATOM      4  C4  UNL d   1       1.639   0.540  -2.098  0.00  0.00    -0.042 A 
ATOM      5  C5  UNL d   1       1.241   1.631  -1.334  0.00  0.00     0.033 A 
ATOM      6  C6  UNL d   1       0.422   1.441  -0.218  0.00  0.00    -0.057 A 
ENDROOT
BRANCH   1   7
ATOM      7  N   UNL d   1      -0.904   0.057   1.235  0.00  0.00    -0.732 N 
ATOM      8  C   UNL d   1      -1.693   1.198   1.648  0.00  0.00     0.284 C 
ATOM      9  H3  UNL d   1      -1.417  -0.822   1.225  0.00  0.00     0.395 HD
ENDBRANCH   1   7
TORSDOF 1
ENDMDL
