MODEL 1
REMARK minimizedAffinity -4.7064724
REMARK minimizedRMSD -1
REMARK  1 active torsions:
REMARK  status: ('A' for Active; 'I' for Inactive)
REMARK    1  A    between atoms: N_2  and  C1_3 
ROOT
ATOM      1  C1  UNL d   1       0.182  -0.244   0.117  0.00  0.00     0.143 A 
ATOM      2  C2  UNL d   1       0.772   0.807  -0.593  0.00  0.00    -0.057 A 
ATOM      3  C3  UNL d   1       1.469   0.576  -1.785  0.00  0.00     0.033 A 
ATOM      4  C4  UNL d   1       1.614  -0.718  -2.274  0.00  0.00    -0.042 A 
ATOM      5  C5  UNL d   1       1.057  -1.781  -1.572  0.00  0.00     0.033 A 
ATOM      6  C6  UNL d   1       0.356  -1.543  -0.385  0.00  0.00    -0.057 A 
ENDROOT
BRANCH   1   7
ATOM      7  N   UNL d   1      -0.440  -0.092   1.359  0.00  0.00    -0.732 N 
ATOM      8  C   UNL d   1      -1.841   0.262   1.444  0.00  0.00     0.284 C 
ATOM      9  H3  UNL d   1      -0.149  -0.800   2.029  0.00  0.00     0.395 HD
ENDBRANCH   1   7
TORSDOF 1
ENDMDL
