MODEL 1
REMARK minimizedAffinity -2.92189789
REMARK minimizedRMSD -1
REMARK  1 active torsions:
REMARK  status: ('A' for Active; 'I' for Inactive)
REMARK    1  A    between atoms: N_2  and  C1_3 
ROOT
ATOM      1  C1  UNL d   1      -0.185   0.136  -0.437  0.00  0.00     0.143 A 
ATOM      2  C2  UNL d   1       0.192  -0.361  -1.690  0.00  0.00    -0.057 A 
ATOM      3  C3  UNL d   1       1.466  -0.115  -2.215  0.00  0.00     0.033 A 
ATOM      4  C4  UNL d   1       2.379   0.660  -1.508  0.00  0.00    -0.042 A 
ATOM      5  C5  UNL d   1       2.018   1.184  -0.272  0.00  0.00     0.033 A 
ATOM      6  C6  UNL d   1       0.746   0.930   0.251  0.00  0.00    -0.057 A 
ENDROOT
BRANCH   1   7
ATOM      7  N   UNL d   1      -1.470   0.009   0.096  0.00  0.00    -0.732 N 
ATOM      8  C   UNL d   1      -1.702   0.196   1.512  0.00  0.00     0.284 C 
ATOM      9  H3  UNL d   1      -2.181   0.426  -0.501  0.00  0.00     0.395 HD
ENDBRANCH   1   7
TORSDOF 1
ENDMDL
