MODEL 1
REMARK minimizedAffinity -4.51756763
REMARK minimizedRMSD -1
REMARK  1 active torsions:
REMARK  status: ('A' for Active; 'I' for Inactive)
REMARK    1  A    between atoms: N_2  and  C1_3 
ROOT
ATOM      1  C1  UNL d   1      -0.863   0.622   0.853  0.00  0.00     0.143 A 
ATOM      2  C2  UNL d   1      -0.739  -0.650   0.283  0.00  0.00    -0.057 A 
ATOM      3  C3  UNL d   1       0.201  -0.905  -0.723  0.00  0.00     0.033 A 
ATOM      4  C4  UNL d   1       1.015   0.117  -1.199  0.00  0.00    -0.042 A 
ATOM      5  C5  UNL d   1       0.891   1.395  -0.665  0.00  0.00     0.033 A 
ATOM      6  C6  UNL d   1      -0.044   1.642   0.345  0.00  0.00    -0.057 A 
ENDROOT
BRANCH   1   7
ATOM      7  N   UNL d   1      -1.845   0.962   1.787  0.00  0.00    -0.732 N 
ATOM      8  C   UNL d   1      -3.230   0.608   1.564  0.00  0.00     0.284 C 
ATOM      9  H3  UNL d   1      -1.531   0.830   2.746  0.00  0.00     0.395 HD
ENDBRANCH   1   7
TORSDOF 1
ENDMDL
