MODEL 1
REMARK minimizedAffinity -5.17230415
REMARK minimizedRMSD -1
REMARK  1 active torsions:
REMARK  status: ('A' for Active; 'I' for Inactive)
REMARK    1  A    between atoms: N_2  and  C1_3 
ROOT
ATOM      1  C1  UNL d   1       0.434  -0.643  -0.490  0.00  0.00     0.143 A 
ATOM      2  C2  UNL d   1       0.962   0.583  -0.909  0.00  0.00    -0.057 A 
ATOM      3  C3  UNL d   1       1.770   0.674  -2.048  0.00  0.00     0.033 A 
ATOM      4  C4  UNL d   1       2.090  -0.468  -2.775  0.00  0.00    -0.042 A 
ATOM      5  C5  UNL d   1       1.596  -1.701  -2.362  0.00  0.00     0.033 A 
ATOM      6  C6  UNL d   1       0.784  -1.784  -1.227  0.00  0.00    -0.057 A 
ENDROOT
BRANCH   1   7
ATOM      7  N   UNL d   1      -0.295  -0.813   0.690  0.00  0.00    -0.732 N 
ATOM      8  C   UNL d   1      -1.568  -0.149   0.873  0.00  0.00     0.284 C 
ATOM      9  H3  UNL d   1      -0.277  -1.775   1.022  0.00  0.00     0.395 HD
ENDBRANCH   1   7
TORSDOF 1
ENDMDL
