MODEL 1
REMARK minimizedAffinity -3.36228585
REMARK minimizedRMSD -1
REMARK  1 active torsions:
REMARK  status: ('A' for Active; 'I' for Inactive)
REMARK    1  A    between atoms: N_2  and  C1_3 
ROOT
ATOM      1  C1  UNL d   1       0.307  -0.523  -0.090  0.00  0.00     0.143 A 
ATOM      2  C2  UNL d   1       0.783  -1.784  -0.463  0.00  0.00    -0.057 A 
ATOM      3  C3  UNL d   1       1.819  -1.923  -1.395  0.00  0.00     0.033 A 
ATOM      4  C4  UNL d   1       2.379  -0.800  -1.994  0.00  0.00    -0.042 A 
ATOM      5  C5  UNL d   1       1.905   0.463  -1.657  0.00  0.00     0.033 A 
ATOM      6  C6  UNL d   1       0.875   0.596  -0.720  0.00  0.00    -0.057 A 
ENDROOT
BRANCH   1   7
ATOM      7  N   UNL d   1      -0.786  -0.323   0.757  0.00  0.00    -0.732 N 
ATOM      8  C   UNL d   1      -0.734   0.673   1.805  0.00  0.00     0.284 C 
ATOM      9  H3  UNL d   1      -1.673  -0.357   0.260  0.00  0.00     0.395 HD
ENDBRANCH   1   7
TORSDOF 1
ENDMDL
