MODEL 1
REMARK minimizedAffinity -3.15680408
REMARK minimizedRMSD -1
REMARK  1 active torsions:
REMARK  status: ('A' for Active; 'I' for Inactive)
REMARK    1  A    between atoms: N_2  and  C1_3 
ROOT
ATOM      1  C1  UNL d   1       0.696  -0.656  -0.321  0.00  0.00     0.143 A 
ATOM      2  C2  UNL d   1       1.140   0.606  -0.731  0.00  0.00    -0.057 A 
ATOM      3  C3  UNL d   1       2.117   0.744  -1.724  0.00  0.00     0.033 A 
ATOM      4  C4  UNL d   1       2.689  -0.382  -2.307  0.00  0.00    -0.042 A 
ATOM      5  C5  UNL d   1       2.281  -1.647  -1.897  0.00  0.00     0.033 A 
ATOM      6  C6  UNL d   1       1.300  -1.778  -0.909  0.00  0.00    -0.057 A 
ENDROOT
BRANCH   1   7
ATOM      7  N   UNL d   1      -0.201  -0.861   0.731  0.00  0.00    -0.732 N 
ATOM      8  C   UNL d   1      -1.182   0.148   1.071  0.00  0.00     0.284 C 
ATOM      9  H3  UNL d   1      -0.558  -1.813   0.757  0.00  0.00     0.395 HD
ENDBRANCH   1   7
TORSDOF 1
ENDMDL
