MODEL 1
REMARK minimizedAffinity -4.69888115
REMARK minimizedRMSD -1
REMARK  1 active torsions:
REMARK  status: ('A' for Active; 'I' for Inactive)
REMARK    1  A    between atoms: N_2  and  C1_3 
ROOT
ATOM      1  C1  UNL d   1       0.356  -0.077   0.444  0.00  0.00     0.143 A 
ATOM      2  C2  UNL d   1       0.992   0.930  -0.289  0.00  0.00    -0.057 A 
ATOM      3  C3  UNL d   1       1.838   0.624  -1.362  0.00  0.00     0.033 A 
ATOM      4  C4  UNL d   1       2.085  -0.702  -1.704  0.00  0.00    -0.042 A 
ATOM      5  C5  UNL d   1       1.483  -1.720  -0.974  0.00  0.00     0.033 A 
ATOM      6  C6  UNL d   1       0.634  -1.407   0.093  0.00  0.00    -0.057 A 
ENDROOT
BRANCH   1   7
ATOM      7  N   UNL d   1      -0.418   0.160   1.582  0.00  0.00    -0.732 N 
ATOM      8  C   UNL d   1      -1.833   0.443   1.467  0.00  0.00     0.284 C 
ATOM      9  H3  UNL d   1      -0.180  -0.463   2.351  0.00  0.00     0.395 HD
ENDBRANCH   1   7
TORSDOF 1
ENDMDL
