MODEL 1
REMARK minimizedAffinity -0.892724216
REMARK minimizedRMSD -1
REMARK  1 active torsions:
REMARK  status: ('A' for Active; 'I' for Inactive)
REMARK    1  A    between atoms: N_2  and  C1_3 
ROOT
ATOM      1  C1  UNL d   1      -0.945   0.509   1.373  0.00  0.00     0.143 A 
ATOM      2  C2  UNL d   1      -0.499  -0.681   0.788  0.00  0.00    -0.057 A 
ATOM      3  C3  UNL d   1       0.573  -0.690  -0.113  0.00  0.00     0.033 A 
ATOM      4  C4  UNL d   1       1.202   0.499  -0.467  0.00  0.00    -0.042 A 
ATOM      5  C5  UNL d   1       0.759   1.697   0.083  0.00  0.00     0.033 A 
ATOM      6  C6  UNL d   1      -0.307   1.698   0.986  0.00  0.00    -0.057 A 
ENDROOT
BRANCH   1   7
ATOM      7  N   UNL d   1      -2.068   0.596   2.199  0.00  0.00    -0.732 N 
ATOM      8  C   UNL d   1      -3.392   0.731   1.631  0.00  0.00     0.284 C 
ATOM      9  H3  UNL d   1      -2.018  -0.041   2.991  0.00  0.00     0.395 HD
ENDBRANCH   1   7
TORSDOF 1
ENDMDL
