MODEL 1
REMARK minimizedAffinity -5.48103666
REMARK minimizedRMSD -1
REMARK  1 active torsions:
REMARK  status: ('A' for Active; 'I' for Inactive)
REMARK    1  A    between atoms: N_2  and  C1_3 
ROOT
ATOM      1  C1  UNL d   1       0.384  -0.166  -1.017  0.00  0.00     0.143 A 
ATOM      2  C2  UNL d   1       1.263   0.136  -2.063  0.00  0.00    -0.057 A 
ATOM      3  C3  UNL d   1       1.973  -0.871  -2.728  0.00  0.00     0.033 A 
ATOM      4  C4  UNL d   1       1.838  -2.200  -2.337  0.00  0.00    -0.042 A 
ATOM      5  C5  UNL d   1       0.989  -2.520  -1.284  0.00  0.00     0.033 A 
ATOM      6  C6  UNL d   1       0.277  -1.510  -0.629  0.00  0.00    -0.057 A 
ENDROOT
BRANCH   1   7
ATOM      7  N   UNL d   1      -0.276   0.800  -0.253  0.00  0.00    -0.732 N 
ATOM      8  C   UNL d   1      -1.039   0.420   0.917  0.00  0.00     0.284 C 
ATOM      9  H3  UNL d   1       0.279   1.644  -0.131  0.00  0.00     0.395 HD
ENDBRANCH   1   7
TORSDOF 1
ENDMDL
