MODEL 1
REMARK minimizedAffinity 0.424367011
REMARK minimizedRMSD -1
REMARK  0 active torsions:
REMARK  status: ('A' for Active; 'I' for Inactive)
ROOT
ATOM      1  O1  BZF d   1       4.318   4.537   3.073  0.00  0.00    -0.204 OA
ATOM      2  C2  BZF d   1       4.819   3.283   3.366  0.00  0.00     0.174 A 
ATOM      3  C3  BZF d   1       4.241   2.786   4.479  0.00  0.00    -0.012 A 
ATOM      4  C3A BZF d   1       3.255   3.752   4.855  0.00  0.00    -0.107 A 
ATOM      5  C4  BZF d   1       2.344   3.816   5.870  0.00  0.00     0.055 A 
ATOM      6  C5  BZF d   1       1.577   4.931   5.999  0.00  0.00    -0.016 A 
ATOM      7  C6  BZF d   1       1.699   6.000   5.136  0.00  0.00     0.022 A 
ATOM      8  C7  BZF d   1       2.585   5.979   4.110  0.00  0.00     0.029 A 
ATOM      9  C7A BZF d   1       3.338   4.841   3.957  0.00  0.00     0.058 A 
ENDROOT
TORSDOF 0
ENDMDL
