MODEL 1
REMARK minimizedAffinity -4.02741003
REMARK minimizedRMSD -1
REMARK  0 active torsions:
REMARK  status: ('A' for Active; 'I' for Inactive)
ROOT
ATOM      1  O1  BZF d   1       2.847   6.000   5.929  0.00  0.00    -0.204 OA
ATOM      2  C2  BZF d   1       1.563   5.709   5.511  0.00  0.00     0.174 A 
ATOM      3  C3  BZF d   1       1.583   4.925   4.413  0.00  0.00    -0.012 A 
ATOM      4  C3A BZF d   1       2.966   4.637   4.182  0.00  0.00    -0.107 A 
ATOM      5  C4  BZF d   1       3.626   3.893   3.247  0.00  0.00     0.055 A 
ATOM      6  C5  BZF d   1       4.985   3.876   3.256  0.00  0.00    -0.016 A 
ATOM      7  C6  BZF d   1       5.714   4.594   4.181  0.00  0.00     0.022 A 
ATOM      8  C7  BZF d   1       5.103   5.343   5.131  0.00  0.00     0.029 A 
ATOM      9  C7A BZF d   1       3.730   5.336   5.146  0.00  0.00     0.058 A 
ENDROOT
TORSDOF 0
ENDMDL
