MODEL 1
REMARK minimizedAffinity 10.0781069
REMARK minimizedRMSD -1
REMARK  0 active torsions:
REMARK  status: ('A' for Active; 'I' for Inactive)
ROOT
ATOM      1  O1  BZF d   1      -5.230   1.047   1.667  0.00  0.00    -0.204 OA
ATOM      2  C2  BZF d   1      -4.688   0.667   0.455  0.00  0.00     0.174 A 
ATOM      3  C3  BZF d   1      -3.798   1.583   0.020  0.00  0.00    -0.012 A 
ATOM      4  C3A BZF d   1      -3.715   2.553   1.068  0.00  0.00    -0.107 A 
ATOM      5  C4  BZF d   1      -2.988   3.697   1.233  0.00  0.00     0.055 A 
ATOM      6  C5  BZF d   1      -3.194   4.457   2.341  0.00  0.00    -0.016 A 
ATOM      7  C6  BZF d   1      -4.122   4.106   3.300  0.00  0.00     0.022 A 
ATOM      8  C7  BZF d   1      -4.863   2.978   3.182  0.00  0.00     0.029 A 
ATOM      9  C7A BZF d   1      -4.634   2.191   2.080  0.00  0.00     0.058 A 
ENDROOT
TORSDOF 0
ENDMDL
