MODEL 1
REMARK minimizedAffinity 2.41871881
REMARK minimizedRMSD -1
REMARK  0 active torsions:
REMARK  status: ('A' for Active; 'I' for Inactive)
ROOT
ATOM      1  O1  BZF d   1       3.780   1.029  -1.665  0.00  0.00    -0.204 OA
ATOM      2  C2  BZF d   1       3.055  -0.015  -1.127  0.00  0.00     0.174 A 
ATOM      3  C3  BZF d   1       3.019   0.071   0.219  0.00  0.00    -0.012 A 
ATOM      4  C3A BZF d   1       3.692   1.293   0.536  0.00  0.00    -0.107 A 
ATOM      5  C4  BZF d   1       3.967   1.937   1.708  0.00  0.00     0.055 A 
ATOM      6  C5  BZF d   1       4.706   3.077   1.678  0.00  0.00    -0.016 A 
ATOM      7  C6  BZF d   1       5.190   3.597   0.496  0.00  0.00     0.022 A 
ATOM      8  C7  BZF d   1       4.939   2.997  -0.693  0.00  0.00     0.029 A 
ATOM      9  C7A BZF d   1       4.165   1.863  -0.669  0.00  0.00     0.058 A 
ENDROOT
TORSDOF 0
ENDMDL
