MODEL 1
REMARK minimizedAffinity 6.97099781
REMARK minimizedRMSD -1
REMARK  0 active torsions:
REMARK  status: ('A' for Active; 'I' for Inactive)
ROOT
ATOM      1  O1  BZF d   1      -5.071   2.487   1.837  0.00  0.00    -0.204 OA
ATOM      2  C2  BZF d   1      -4.126   3.267   2.475  0.00  0.00     0.174 A 
ATOM      3  C3  BZF d   1      -2.882   2.938   2.072  0.00  0.00    -0.012 A 
ATOM      4  C3A BZF d   1      -3.066   1.950   1.054  0.00  0.00    -0.107 A 
ATOM      5  C4  BZF d   1      -2.204   1.248   0.260  0.00  0.00     0.055 A 
ATOM      6  C5  BZF d   1      -2.701   0.304  -0.582  0.00  0.00    -0.016 A 
ATOM      7  C6  BZF d   1      -4.052   0.033  -0.652  0.00  0.00     0.022 A 
ATOM      8  C7  BZF d   1      -4.946   0.707   0.112  0.00  0.00     0.029 A 
ATOM      9  C7A BZF d   1      -4.450   1.684   0.940  0.00  0.00     0.058 A 
ENDROOT
TORSDOF 0
ENDMDL
