MODEL 1
REMARK minimizedAffinity 3.27578163
REMARK minimizedRMSD -1
REMARK  0 active torsions:
REMARK  status: ('A' for Active; 'I' for Inactive)
ROOT
ATOM      1  O1  BZF d   1       5.145   1.247   2.579  0.00  0.00    -0.204 OA
ATOM      2  C2  BZF d   1       4.750   2.557   2.773  0.00  0.00     0.174 A 
ATOM      3  C3  BZF d   1       3.729   2.876   1.951  0.00  0.00    -0.012 A 
ATOM      4  C3A BZF d   1       3.409   1.664   1.261  0.00  0.00    -0.107 A 
ATOM      5  C4  BZF d   1       2.472   1.338   0.322  0.00  0.00     0.055 A 
ATOM      6  C5  BZF d   1       2.472   0.084  -0.202  0.00  0.00    -0.016 A 
ATOM      7  C6  BZF d   1       3.396  -0.865   0.184  0.00  0.00     0.022 A 
ATOM      8  C7  BZF d   1       4.341  -0.589   1.115  0.00  0.00     0.029 A 
ATOM      9  C7A BZF d   1       4.323   0.667   1.671  0.00  0.00     0.058 A 
ENDROOT
TORSDOF 0
ENDMDL
