MODEL 1
REMARK minimizedAffinity 0.199722588
REMARK minimizedRMSD -1
REMARK  0 active torsions:
REMARK  status: ('A' for Active; 'I' for Inactive)
ROOT
ATOM      1  O1  BZF d   1      -0.831   5.899   5.352  0.00  0.00    -0.204 OA
ATOM      2  C2  BZF d   1      -1.698   5.896   4.276  0.00  0.00     0.174 A 
ATOM      3  C3  BZF d   1      -1.018   5.978   3.114  0.00  0.00    -0.012 A 
ATOM      4  C3A BZF d   1       0.364   5.944   3.483  0.00  0.00    -0.107 A 
ATOM      5  C4  BZF d   1       1.527   5.975   2.768  0.00  0.00     0.055 A 
ATOM      6  C5  BZF d   1       2.711   6.000   3.435  0.00  0.00    -0.016 A 
ATOM      7  C6  BZF d   1       2.768   5.998   4.813  0.00  0.00     0.022 A 
ATOM      8  C7  BZF d   1       1.641   5.962   5.565  0.00  0.00     0.029 A 
ATOM      9  C7A BZF d   1       0.444   5.904   4.894  0.00  0.00     0.058 A 
ENDROOT
TORSDOF 0
ENDMDL
