MODEL 1
REMARK minimizedAffinity 8.09659958
REMARK minimizedRMSD -1
REMARK  0 active torsions:
REMARK  status: ('A' for Active; 'I' for Inactive)
ROOT
ATOM      1  O1  BZF d   1       0.966   1.168  -1.498  0.00  0.00    -0.204 OA
ATOM      2  C2  BZF d   1       1.425   2.218  -0.727  0.00  0.00     0.174 A 
ATOM      3  C3  BZF d   1       2.367   1.798   0.142  0.00  0.00    -0.012 A 
ATOM      4  C3A BZF d   1       2.572   0.416  -0.164  0.00  0.00    -0.107 A 
ATOM      5  C4  BZF d   1       3.396  -0.547   0.345  0.00  0.00     0.055 A 
ATOM      6  C5  BZF d   1       3.298  -1.817  -0.127  0.00  0.00    -0.016 A 
ATOM      7  C6  BZF d   1       2.386  -2.161  -1.103  0.00  0.00     0.022 A 
ATOM      8  C7  BZF d   1       1.551  -1.240  -1.642  0.00  0.00     0.029 A 
ATOM      9  C7A BZF d   1       1.670   0.052  -1.191  0.00  0.00     0.058 A 
ENDROOT
TORSDOF 0
ENDMDL
