MODEL 1
REMARK minimizedAffinity 5.88248682
REMARK minimizedRMSD -1
REMARK  0 active torsions:
REMARK  status: ('A' for Active; 'I' for Inactive)
ROOT
ATOM      1  O1  BZF d   1       2.596   5.027   5.852  0.00  0.00    -0.204 OA
ATOM      2  C2  BZF d   1       3.580   5.996   5.866  0.00  0.00     0.174 A 
ATOM      3  C3  BZF d   1       4.802   5.436   5.970  0.00  0.00    -0.012 A 
ATOM      4  C3A BZF d   1       4.573   4.024   5.931  0.00  0.00    -0.107 A 
ATOM      5  C4  BZF d   1       5.399   2.937   5.977  0.00  0.00     0.055 A 
ATOM      6  C5  BZF d   1       4.853   1.693   5.991  0.00  0.00    -0.016 A 
ATOM      7  C6  BZF d   1       3.487   1.499   5.965  0.00  0.00     0.022 A 
ATOM      8  C7  BZF d   1       2.628   2.546   5.914  0.00  0.00     0.029 A 
ATOM      9  C7A BZF d   1       3.178   3.804   5.867  0.00  0.00     0.058 A 
ENDROOT
TORSDOF 0
ENDMDL
