MODEL 1
REMARK minimizedAffinity 9.84622574
REMARK minimizedRMSD -1
REMARK  0 active torsions:
REMARK  status: ('A' for Active; 'I' for Inactive)
ROOT
ATOM      1  O1  BZF d   1       2.538  -1.341  -0.056  0.00  0.00    -0.204 OA
ATOM      2  C2  BZF d   1       2.295  -2.184  -1.123  0.00  0.00     0.174 A 
ATOM      3  C3  BZF d   1       0.984  -2.494  -1.199  0.00  0.00    -0.012 A 
ATOM      4  C3A BZF d   1       0.356  -1.729  -0.166  0.00  0.00    -0.107 A 
ATOM      5  C4  BZF d   1      -0.938  -1.597   0.250  0.00  0.00     0.055 A 
ATOM      6  C5  BZF d   1      -1.207  -0.825   1.336  0.00  0.00    -0.016 A 
ATOM      7  C6  BZF d   1      -0.208  -0.176   2.031  0.00  0.00     0.022 A 
ATOM      8  C7  BZF d   1       1.090  -0.273   1.653  0.00  0.00     0.029 A 
ATOM      9  C7A BZF d   1       1.362  -1.025   0.537  0.00  0.00     0.058 A 
ENDROOT
TORSDOF 0
ENDMDL
