MODEL 1
REMARK minimizedAffinity -2.65747452
REMARK minimizedRMSD -1
REMARK  2 active torsions:
REMARK  status: ('A' for Active; 'I' for Inactive)
REMARK    1  A    between atoms: C2'_3  and  C1'_4 
REMARK    2  A    between atoms: C1'_4  and  C1_5 
ROOT
ATOM      1  C1  I4B d   1       0.338  -0.247   0.119  0.00  0.00    -0.075 A 
ATOM      2  C2  I4B d   1       0.160  -1.128   1.156  0.00  0.00     0.003 A 
ATOM      3  C3  I4B d   1      -0.622  -0.759   2.278  0.00  0.00     0.002 A 
ATOM      4  C4  I4B d   1      -1.162   0.509   2.342  0.00  0.00    -0.004 A 
ATOM      5  C5  I4B d   1      -1.000   1.392   1.279  0.00  0.00     0.002 A 
ATOM      6  C6  I4B d   1      -0.255   1.008   0.154  0.00  0.00     0.003 A 
ENDROOT
BRANCH   1   7
ATOM      7  C1' I4B d   1       1.197  -0.657  -1.035  0.00  0.00     0.060 C 
BRANCH   7   8
ATOM      8  C2' I4B d   1       0.659  -1.965  -1.577  0.00  0.00    -0.013 C 
ATOM      9  C4' I4B d   1       0.219  -1.823  -3.010  0.00  0.00     0.013 C 
ATOM     10  C3' I4B d   1       1.736  -3.001  -1.441  0.00  0.00     0.013 C 
ENDBRANCH   7   8
ENDBRANCH   1   7
TORSDOF 2
ENDMDL
