MODEL 1
REMARK minimizedAffinity -6.54596424
REMARK minimizedRMSD -1
REMARK  2 active torsions:
REMARK  status: ('A' for Active; 'I' for Inactive)
REMARK    1  A    between atoms: C2'_3  and  C1'_4 
REMARK    2  A    between atoms: C1'_4  and  C1_5 
ROOT
ATOM      1  C1  I4B d   1      -0.134   1.168  -0.303  0.00  0.00    -0.075 A 
ATOM      2  C2  I4B d   1      -0.848   0.800   0.811  0.00  0.00     0.003 A 
ATOM      3  C3  I4B d   1      -1.895   1.624   1.290  0.00  0.00     0.002 A 
ATOM      4  C4  I4B d   1      -2.160   2.823   0.659  0.00  0.00    -0.004 A 
ATOM      5  C5  I4B d   1      -1.450   3.182  -0.483  0.00  0.00     0.002 A 
ATOM      6  C6  I4B d   1      -0.439   2.344  -0.975  0.00  0.00     0.003 A 
ENDROOT
BRANCH   1   7
ATOM      7  C1' I4B d   1       0.987   0.290  -0.762  0.00  0.00     0.060 C 
BRANCH   7   8
ATOM      8  C2' I4B d   1       0.387  -0.998  -1.286  0.00  0.00    -0.013 C 
ATOM      9  C4' I4B d   1      -0.039  -0.857  -2.724  0.00  0.00     0.013 C 
ATOM     10  C3' I4B d   1       1.410  -2.083  -1.128  0.00  0.00     0.013 C 
ENDBRANCH   7   8
ENDBRANCH   1   7
TORSDOF 2
ENDMDL
