MODEL 1
REMARK minimizedAffinity -6.97916508
REMARK minimizedRMSD -1
REMARK  2 active torsions:
REMARK  status: ('A' for Active; 'I' for Inactive)
REMARK    1  A    between atoms: C2'_3  and  C1'_4 
REMARK    2  A    between atoms: C1'_4  and  C1_5 
ROOT
ATOM      1  C1  I4B d   1       0.119   0.851  -0.762  0.00  0.00    -0.075 A 
ATOM      2  C2  I4B d   1      -0.661   0.594   0.337  0.00  0.00     0.003 A 
ATOM      3  C3  I4B d   1      -1.588   1.561   0.795  0.00  0.00     0.002 A 
ATOM      4  C4  I4B d   1      -1.665   2.783   0.159  0.00  0.00    -0.004 A 
ATOM      5  C5  I4B d   1      -0.890   3.033  -0.970  0.00  0.00     0.002 A 
ATOM      6  C6  I4B d   1      -0.000   2.056  -1.441  0.00  0.00     0.003 A 
ENDROOT
BRANCH   1   7
ATOM      7  C1' I4B d   1       1.111  -0.181  -1.199  0.00  0.00     0.060 C 
BRANCH   7   8
ATOM      8  C2' I4B d   1       0.343  -1.410  -1.638  0.00  0.00    -0.013 C 
ATOM      9  C4' I4B d   1      -0.101  -1.293  -3.072  0.00  0.00     0.013 C 
ATOM     10  C3' I4B d   1       1.229  -2.604  -1.442  0.00  0.00     0.013 C 
ENDBRANCH   7   8
ENDBRANCH   1   7
TORSDOF 2
ENDMDL
