MODEL 1
REMARK minimizedAffinity -6.4124074
REMARK minimizedRMSD -1
REMARK  2 active torsions:
REMARK  status: ('A' for Active; 'I' for Inactive)
REMARK    1  A    between atoms: C2'_3  and  C1'_4 
REMARK    2  A    between atoms: C1'_4  and  C1_5 
ROOT
ATOM      1  C1  I4B d   1      -0.282  -0.529  -0.792  0.00  0.00    -0.075 A 
ATOM      2  C2  I4B d   1       0.910  -1.025  -1.259  0.00  0.00     0.003 A 
ATOM      3  C3  I4B d   1       0.922  -2.029  -2.257  0.00  0.00     0.002 A 
ATOM      4  C4  I4B d   1      -0.273  -2.540  -2.722  0.00  0.00    -0.004 A 
ATOM      5  C5  I4B d   1      -1.480  -2.020  -2.264  0.00  0.00     0.002 A 
ATOM      6  C6  I4B d   1      -1.485  -0.999  -1.303  0.00  0.00     0.003 A 
ENDROOT
BRANCH   1   7
ATOM      7  C1' I4B d   1      -0.259   0.507   0.286  0.00  0.00     0.060 C 
BRANCH   7   8
ATOM      8  C2' I4B d   1      -0.955   1.745  -0.241  0.00  0.00    -0.013 C 
ATOM      9  C4' I4B d   1      -1.337   2.675   0.881  0.00  0.00     0.013 C 
ATOM     10  C3' I4B d   1      -0.032   2.418  -1.212  0.00  0.00     0.013 C 
ENDBRANCH   7   8
ENDBRANCH   1   7
TORSDOF 2
ENDMDL
