MODEL 1
REMARK minimizedAffinity -3.04587317
REMARK minimizedRMSD -1
REMARK  2 active torsions:
REMARK  status: ('A' for Active; 'I' for Inactive)
REMARK    1  A    between atoms: C2'_3  and  C1'_4 
REMARK    2  A    between atoms: C1'_4  and  C1_5 
ROOT
ATOM      1  C1  I4B d   1       0.932  -1.007  -0.771  0.00  0.00    -0.075 A 
ATOM      2  C2  I4B d   1       0.767   0.014  -1.673  0.00  0.00     0.003 A 
ATOM      3  C3  I4B d   1       0.093   1.200  -1.293  0.00  0.00     0.002 A 
ATOM      4  C4  I4B d   1      -0.441   1.300  -0.024  0.00  0.00    -0.004 A 
ATOM      5  C5  I4B d   1      -0.253   0.273   0.896  0.00  0.00     0.002 A 
ATOM      6  C6  I4B d   1       0.449  -0.883   0.525  0.00  0.00     0.003 A 
ENDROOT
BRANCH   1   7
ATOM      7  C1' I4B d   1       1.620  -2.258  -1.216  0.00  0.00     0.060 C 
BRANCH   7   8
ATOM      8  C2' I4B d   1       0.644  -3.054  -2.059  0.00  0.00    -0.013 C 
ATOM      9  C4' I4B d   1       1.197  -3.313  -3.435  0.00  0.00     0.013 C 
ATOM     10  C3' I4B d   1       0.352  -4.338  -1.341  0.00  0.00     0.013 C 
ENDBRANCH   7   8
ENDBRANCH   1   7
TORSDOF 2
ENDMDL
