MODEL 1
REMARK minimizedAffinity -6.13171005
REMARK minimizedRMSD -1
REMARK  2 active torsions:
REMARK  status: ('A' for Active; 'I' for Inactive)
REMARK    1  A    between atoms: C2'_3  and  C1'_4 
REMARK    2  A    between atoms: C1'_4  and  C1_5 
ROOT
ATOM      1  C1  I4B d   1      -0.431   1.962   0.026  0.00  0.00    -0.075 A 
ATOM      2  C2  I4B d   1      -1.221   1.584   1.083  0.00  0.00     0.003 A 
ATOM      3  C3  I4B d   1      -2.313   2.393   1.482  0.00  0.00     0.002 A 
ATOM      4  C4  I4B d   1      -2.546   3.588   0.832  0.00  0.00    -0.004 A 
ATOM      5  C5  I4B d   1      -1.758   3.958  -0.254  0.00  0.00     0.002 A 
ATOM      6  C6  I4B d   1      -0.701   3.134  -0.668  0.00  0.00     0.003 A 
ENDROOT
BRANCH   1   7
ATOM      7  C1' I4B d   1       0.733   1.100  -0.347  0.00  0.00     0.060 C 
BRANCH   7   8
ATOM      8  C2' I4B d   1       0.372  -0.336  -0.028  0.00  0.00    -0.013 C 
ATOM      9  C4' I4B d   1       0.502  -1.215  -1.244  0.00  0.00     0.013 C 
ATOM     10  C3' I4B d   1       1.272  -0.805   1.077  0.00  0.00     0.013 C 
ENDBRANCH   7   8
ENDBRANCH   1   7
TORSDOF 2
ENDMDL
