MODEL 1
REMARK minimizedAffinity -5.03322983
REMARK minimizedRMSD -1
REMARK  2 active torsions:
REMARK  status: ('A' for Active; 'I' for Inactive)
REMARK    1  A    between atoms: C2'_3  and  C1'_4 
REMARK    2  A    between atoms: C1'_4  and  C1_5 
ROOT
ATOM      1  C1  I4B d   1       0.607   0.356  -0.437  0.00  0.00    -0.075 A 
ATOM      2  C2  I4B d   1       0.684   1.582  -1.049  0.00  0.00     0.003 A 
ATOM      3  C3  I4B d   1      -0.202   2.622  -0.676  0.00  0.00     0.002 A 
ATOM      4  C4  I4B d   1      -1.176   2.378   0.271  0.00  0.00    -0.004 A 
ATOM      5  C5  I4B d   1      -1.238   1.141   0.906  0.00  0.00     0.002 A 
ATOM      6  C6  I4B d   1      -0.333   0.127   0.559  0.00  0.00     0.003 A 
ENDROOT
BRANCH   1   7
ATOM      7  C1' I4B d   1       1.537  -0.730  -0.879  0.00  0.00     0.060 C 
BRANCH   7   8
ATOM      8  C2' I4B d   1       0.703  -1.840  -1.485  0.00  0.00    -0.013 C 
ATOM      9  C4' I4B d   1       0.595  -1.687  -2.980  0.00  0.00     0.013 C 
ATOM     10  C3' I4B d   1       1.339  -3.148  -1.120  0.00  0.00     0.013 C 
ENDBRANCH   7   8
ENDBRANCH   1   7
TORSDOF 2
ENDMDL
