MODEL 1
REMARK minimizedAffinity 2.20678997
REMARK minimizedRMSD -1
REMARK  2 active torsions:
REMARK  status: ('A' for Active; 'I' for Inactive)
REMARK    1  A    between atoms: C2'_3  and  C1'_4 
REMARK    2  A    between atoms: C1'_4  and  C1_5 
ROOT
ATOM      1  C1  I4B d   1       0.152  -0.625  -0.078  0.00  0.00    -0.075 A 
ATOM      2  C2  I4B d   1       0.170   0.741  -0.206  0.00  0.00     0.003 A 
ATOM      3  C3  I4B d   1      -0.386   1.560   0.807  0.00  0.00     0.002 A 
ATOM      4  C4  I4B d   1      -0.990   0.972   1.900  0.00  0.00    -0.004 A 
ATOM      5  C5  I4B d   1      -0.987  -0.413   2.039  0.00  0.00     0.002 A 
ATOM      6  C6  I4B d   1      -0.401  -1.217   1.051  0.00  0.00     0.003 A 
ENDROOT
BRANCH   1   7
ATOM      7  C1' I4B d   1       0.719  -1.460  -1.182  0.00  0.00     0.060 C 
BRANCH   7   8
ATOM      8  C2' I4B d   1       0.531  -2.917  -0.809  0.00  0.00    -0.013 C 
ATOM      9  C4' I4B d   1      -0.209  -3.665  -1.887  0.00  0.00     0.013 C 
ATOM     10  C3' I4B d   1       1.886  -3.512  -0.570  0.00  0.00     0.013 C 
ENDBRANCH   7   8
ENDBRANCH   1   7
TORSDOF 2
ENDMDL
