MODEL 1
REMARK minimizedAffinity -5.25785494
REMARK minimizedRMSD -1
REMARK  2 active torsions:
REMARK  status: ('A' for Active; 'I' for Inactive)
REMARK    1  A    between atoms: C2'_3  and  C1'_4 
REMARK    2  A    between atoms: C1'_4  and  C1_5 
ROOT
ATOM      1  C1  I4B d   1       0.259  -0.228  -2.179  0.00  0.00    -0.075 A 
ATOM      2  C2  I4B d   1       0.744  -0.634  -0.961  0.00  0.00     0.003 A 
ATOM      3  C3  I4B d   1       1.228  -1.953  -0.790  0.00  0.00     0.002 A 
ATOM      4  C4  I4B d   1       1.162  -2.843  -1.843  0.00  0.00    -0.004 A 
ATOM      5  C5  I4B d   1       0.691  -2.423  -3.084  0.00  0.00     0.002 A 
ATOM      6  C6  I4B d   1       0.248  -1.104  -3.257  0.00  0.00     0.003 A 
ENDROOT
BRANCH   1   7
ATOM      7  C1' I4B d   1      -0.275   1.163  -2.315  0.00  0.00     0.060 C 
BRANCH   7   8
ATOM      8  C2' I4B d   1       0.804   2.124  -1.860  0.00  0.00    -0.013 C 
ATOM      9  C4' I4B d   1       1.558   2.692  -3.033  0.00  0.00     0.013 C 
ATOM     10  C3' I4B d   1       0.149   3.210  -1.059  0.00  0.00     0.013 C 
ENDBRANCH   7   8
ENDBRANCH   1   7
TORSDOF 2
ENDMDL
