MODEL 1
REMARK minimizedAffinity -6.30404377
REMARK minimizedRMSD -1
REMARK  2 active torsions:
REMARK  status: ('A' for Active; 'I' for Inactive)
REMARK    1  A    between atoms: C2'_3  and  C1'_4 
REMARK    2  A    between atoms: C1'_4  and  C1_5 
ROOT
ATOM      1  C1  I4B d   1      -0.853   1.306   0.066  0.00  0.00    -0.075 A 
ATOM      2  C2  I4B d   1      -0.224   2.272  -0.680  0.00  0.00     0.003 A 
ATOM      3  C3  I4B d   1      -0.499   3.642  -0.449  0.00  0.00     0.002 A 
ATOM      4  C4  I4B d   1      -1.441   3.996   0.495  0.00  0.00    -0.004 A 
ATOM      5  C5  I4B d   1      -2.060   3.016   1.266  0.00  0.00     0.002 A 
ATOM      6  C6  I4B d   1      -1.756   1.663   1.058  0.00  0.00     0.003 A 
ENDROOT
BRANCH   1   7
ATOM      7  C1' I4B d   1      -0.563  -0.132  -0.227  0.00  0.00     0.060 C 
BRANCH   7   8
ATOM      8  C2' I4B d   1       0.862  -0.418   0.201  0.00  0.00    -0.013 C 
ATOM      9  C4' I4B d   1       0.924  -0.841   1.645  0.00  0.00     0.013 C 
ATOM     10  C3' I4B d   1       1.411  -1.484  -0.700  0.00  0.00     0.013 C 
ENDBRANCH   7   8
ENDBRANCH   1   7
TORSDOF 2
ENDMDL
