MODEL 1
REMARK minimizedAffinity -4.21248627
REMARK minimizedRMSD -1
REMARK  2 active torsions:
REMARK  status: ('A' for Active; 'I' for Inactive)
REMARK    1  A    between atoms: C2'_3  and  C1'_4 
REMARK    2  A    between atoms: C1'_4  and  C1_5 
ROOT
ATOM      1  C1  I4B d   1       0.203   0.077   0.146  0.00  0.00    -0.075 A 
ATOM      2  C2  I4B d   1      -0.457  -0.606   1.137  0.00  0.00     0.003 A 
ATOM      3  C3  I4B d   1      -1.479   0.031   1.882  0.00  0.00     0.002 A 
ATOM      4  C4  I4B d   1      -1.772   1.358   1.638  0.00  0.00    -0.004 A 
ATOM      5  C5  I4B d   1      -1.117   2.041   0.617  0.00  0.00     0.002 A 
ATOM      6  C6  I4B d   1      -0.132   1.393  -0.142  0.00  0.00     0.003 A 
ENDROOT
BRANCH   1   7
ATOM      7  C1' I4B d   1       1.300  -0.616  -0.599  0.00  0.00     0.060 C 
BRANCH   7   8
ATOM      8  C2' I4B d   1       0.792  -1.982  -1.014  0.00  0.00    -0.013 C 
ATOM      9  C4' I4B d   1       0.474  -2.021  -2.486  0.00  0.00     0.013 C 
ATOM     10  C3' I4B d   1       1.840  -2.994  -0.660  0.00  0.00     0.013 C 
ENDBRANCH   7   8
ENDBRANCH   1   7
TORSDOF 2
ENDMDL
