MODEL 1
REMARK minimizedAffinity -4.05145741
REMARK minimizedRMSD -1
REMARK  2 active torsions:
REMARK  status: ('A' for Active; 'I' for Inactive)
REMARK    1  A    between atoms: C2'_3  and  C1'_4 
REMARK    2  A    between atoms: C1'_4  and  C1_5 
ROOT
ATOM      1  C1  I4B d   1      -0.568   1.706   0.643  0.00  0.00    -0.075 A 
ATOM      2  C2  I4B d   1      -0.929   2.788   1.406  0.00  0.00     0.003 A 
ATOM      3  C3  I4B d   1      -0.610   4.100   0.979  0.00  0.00     0.002 A 
ATOM      4  C4  I4B d   1       0.111   4.280  -0.184  0.00  0.00    -0.004 A 
ATOM      5  C5  I4B d   1       0.456   3.183  -0.968  0.00  0.00     0.002 A 
ATOM      6  C6  I4B d   1       0.104   1.888  -0.559  0.00  0.00     0.003 A 
ENDROOT
BRANCH   1   7
ATOM      7  C1' I4B d   1      -0.892   0.333   1.140  0.00  0.00     0.060 C 
BRANCH   7   8
ATOM      8  C2' I4B d   1       0.395  -0.465   1.179  0.00  0.00    -0.013 C 
ATOM      9  C4' I4B d   1       0.394  -1.447   2.321  0.00  0.00     0.013 C 
ATOM     10  C3' I4B d   1       0.544  -1.167  -0.138  0.00  0.00     0.013 C 
ENDBRANCH   7   8
ENDBRANCH   1   7
TORSDOF 2
ENDMDL
