MODEL 1
REMARK minimizedAffinity -5.11393547
REMARK minimizedRMSD -1
REMARK  2 active torsions:
REMARK  status: ('A' for Active; 'I' for Inactive)
REMARK    1  A    between atoms: C2'_3  and  C1'_4 
REMARK    2  A    between atoms: C1'_4  and  C1_5 
ROOT
ATOM      1  C1  I4B d   1       0.592   0.360  -0.059  0.00  0.00    -0.075 A 
ATOM      2  C2  I4B d   1      -0.014  -0.059   1.099  0.00  0.00     0.003 A 
ATOM      3  C3  I4B d   1      -0.791   0.844   1.864  0.00  0.00     0.002 A 
ATOM      4  C4  I4B d   1      -0.894   2.161   1.463  0.00  0.00    -0.004 A 
ATOM      5  C5  I4B d   1      -0.297   2.578   0.276  0.00  0.00     0.002 A 
ATOM      6  C6  I4B d   1       0.440   1.669  -0.497  0.00  0.00     0.003 A 
ENDROOT
BRANCH   1   7
ATOM      7  C1' I4B d   1       1.433  -0.612  -0.825  0.00  0.00     0.060 C 
BRANCH   7   8
ATOM      8  C2' I4B d   1       0.690  -1.931  -0.878  0.00  0.00    -0.013 C 
ATOM      9  C4' I4B d   1      -0.241  -1.986  -2.061  0.00  0.00     0.013 C 
ATOM     10  C3' I4B d   1       1.706  -3.033  -0.937  0.00  0.00     0.013 C 
ENDBRANCH   7   8
ENDBRANCH   1   7
TORSDOF 2
ENDMDL
