MODEL 1
REMARK minimizedAffinity 3.22168756
REMARK minimizedRMSD -1
REMARK  0 active torsions:
REMARK  status: ('A' for Active; 'I' for Inactive)
ROOT
ATOM      1  C   UNL d   1       1.648  -0.159   1.014  0.00  0.00     0.078 C 
ATOM      2  C1  UNL d   1       1.004   1.138   0.624  0.00  0.00    -0.077 A 
ATOM      3  C2  UNL d   1       1.655   2.359   0.836  0.00  0.00    -0.001 A 
ATOM      4  C3  UNL d   1       1.039   3.559   0.477  0.00  0.00     0.003 A 
ATOM      5  C4  UNL d   1      -0.232   3.550  -0.094  0.00  0.00    -0.005 A 
ATOM      6  C5  UNL d   1      -0.889   2.340  -0.307  0.00  0.00     0.003 A 
ATOM      7  C6  UNL d   1      -0.274   1.139   0.052  0.00  0.00    -0.001 A 
ENDROOT
TORSDOF 0
ENDMDL
