MODEL 1
REMARK minimizedAffinity -1.25024056
REMARK minimizedRMSD -1
REMARK  0 active torsions:
REMARK  status: ('A' for Active; 'I' for Inactive)
ROOT
ATOM      1  C   UNL d   1       1.843  -1.525   6.000  0.00  0.00     0.078 C 
ATOM      2  C1  UNL d   1       3.131  -2.293   5.991  0.00  0.00    -0.077 A 
ATOM      3  C2  UNL d   1       3.136  -3.693   5.994  0.00  0.00    -0.001 A 
ATOM      4  C3  UNL d   1       4.343  -4.394   5.996  0.00  0.00     0.003 A 
ATOM      5  C4  UNL d   1       5.554  -3.704   5.997  0.00  0.00    -0.005 A 
ATOM      6  C5  UNL d   1       5.558  -2.310   5.997  0.00  0.00     0.003 A 
ATOM      7  C6  UNL d   1       4.353  -1.607   5.995  0.00  0.00    -0.001 A 
ENDROOT
TORSDOF 0
ENDMDL
