MODEL 1
REMARK minimizedAffinity -1.57376993
REMARK minimizedRMSD -1
REMARK  0 active torsions:
REMARK  status: ('A' for Active; 'I' for Inactive)
ROOT
ATOM      1  C   UNL d   1      -5.998   5.405  -6.000  0.00  0.00     0.078 C 
ATOM      2  C1  UNL d   1      -5.193   4.302  -5.380  0.00  0.00    -0.077 A 
ATOM      3  C2  UNL d   1      -4.482   4.508  -4.192  0.00  0.00    -0.001 A 
ATOM      4  C3  UNL d   1      -3.728   3.476  -3.632  0.00  0.00     0.003 A 
ATOM      5  C4  UNL d   1      -3.677   2.230  -4.254  0.00  0.00    -0.005 A 
ATOM      6  C5  UNL d   1      -4.379   2.016  -5.438  0.00  0.00     0.003 A 
ATOM      7  C6  UNL d   1      -5.133   3.047  -6.000  0.00  0.00    -0.001 A 
ENDROOT
TORSDOF 0
ENDMDL
