MODEL 1
REMARK minimizedAffinity -0.654365778
REMARK minimizedRMSD -1
REMARK  0 active torsions:
REMARK  status: ('A' for Active; 'I' for Inactive)
ROOT
ATOM      1  C   UNL d   1       5.870  -2.609  -1.173  0.00  0.00     0.078 C 
ATOM      2  C1  UNL d   1       4.548  -2.393  -0.501  0.00  0.00    -0.077 A 
ATOM      3  C2  UNL d   1       4.002  -1.109  -0.378  0.00  0.00    -0.001 A 
ATOM      4  C3  UNL d   1       2.775  -0.922   0.260  0.00  0.00     0.003 A 
ATOM      5  C4  UNL d   1       2.082  -2.013   0.779  0.00  0.00    -0.005 A 
ATOM      6  C5  UNL d   1       2.618  -3.294   0.663  0.00  0.00     0.003 A 
ATOM      7  C6  UNL d   1       3.846  -3.484   0.027  0.00  0.00    -0.001 A 
ENDROOT
TORSDOF 0
ENDMDL
