MODEL 1
REMARK minimizedAffinity 4.05385065
REMARK minimizedRMSD -1
REMARK  0 active torsions:
REMARK  status: ('A' for Active; 'I' for Inactive)
ROOT
ATOM      1  C   UNL d   1      -5.626   1.383  -2.633  0.00  0.00     0.078 C 
ATOM      2  C1  UNL d   1      -5.125   2.709  -3.124  0.00  0.00    -0.077 A 
ATOM      3  C2  UNL d   1      -6.000   3.645  -3.689  0.00  0.00    -0.001 A 
ATOM      4  C3  UNL d   1      -5.518   4.871  -4.151  0.00  0.00     0.003 A 
ATOM      5  C4  UNL d   1      -4.161   5.172  -4.054  0.00  0.00    -0.005 A 
ATOM      6  C5  UNL d   1      -3.283   4.245  -3.495  0.00  0.00     0.003 A 
ATOM      7  C6  UNL d   1      -3.763   3.019  -3.033  0.00  0.00    -0.001 A 
ENDROOT
TORSDOF 0
ENDMDL
