MODEL 1
REMARK minimizedAffinity 1.7727077
REMARK minimizedRMSD -1
REMARK  0 active torsions:
REMARK  status: ('A' for Active; 'I' for Inactive)
ROOT
ATOM      1  C   UNL d   1      -0.607  -2.996  -2.660  0.00  0.00     0.078 C 
ATOM      2  C1  UNL d   1       0.459  -4.051  -2.653  0.00  0.00    -0.077 A 
ATOM      3  C2  UNL d   1       0.498  -5.030  -1.652  0.00  0.00    -0.001 A 
ATOM      4  C3  UNL d   1       1.502  -6.000  -1.652  0.00  0.00     0.003 A 
ATOM      5  C4  UNL d   1       2.474  -6.000  -2.650  0.00  0.00    -0.005 A 
ATOM      6  C5  UNL d   1       2.445  -5.029  -3.649  0.00  0.00     0.003 A 
ATOM      7  C6  UNL d   1       1.442  -4.058  -3.650  0.00  0.00    -0.001 A 
ENDROOT
TORSDOF 0
ENDMDL
