MODEL 1
REMARK minimizedAffinity 1.18745935
REMARK minimizedRMSD -1
REMARK  0 active torsions:
REMARK  status: ('A' for Active; 'I' for Inactive)
ROOT
ATOM      1  C   UNL d   1      -4.871   1.003  -2.972  0.00  0.00     0.078 C 
ATOM      2  C1  UNL d   1      -4.855   2.403  -3.508  0.00  0.00    -0.077 A 
ATOM      3  C2  UNL d   1      -3.712   3.205  -3.397  0.00  0.00    -0.001 A 
ATOM      4  C3  UNL d   1      -3.715   4.510  -3.892  0.00  0.00     0.003 A 
ATOM      5  C4  UNL d   1      -4.858   5.026  -4.500  0.00  0.00    -0.005 A 
ATOM      6  C5  UNL d   1      -6.000   4.236  -4.613  0.00  0.00     0.003 A 
ATOM      7  C6  UNL d   1      -5.999   2.931  -4.119  0.00  0.00    -0.001 A 
ENDROOT
TORSDOF 0
ENDMDL
