MODEL 1
REMARK minimizedAffinity 11.514966
REMARK minimizedRMSD -1
REMARK  0 active torsions:
REMARK  status: ('A' for Active; 'I' for Inactive)
ROOT
ATOM      1  C   UNL d   1       0.449   5.960  -2.459  0.00  0.00     0.078 C 
ATOM      2  C1  UNL d   1       0.090   4.769  -1.622  0.00  0.00    -0.077 A 
ATOM      3  C2  UNL d   1      -1.247   4.394  -1.437  0.00  0.00    -0.001 A 
ATOM      4  C3  UNL d   1      -1.567   3.289  -0.648  0.00  0.00     0.003 A 
ATOM      5  C4  UNL d   1      -0.557   2.550  -0.036  0.00  0.00    -0.005 A 
ATOM      6  C5  UNL d   1       0.776   2.916  -0.212  0.00  0.00     0.003 A 
ATOM      7  C6  UNL d   1       1.098   4.021  -1.001  0.00  0.00    -0.001 A 
ENDROOT
TORSDOF 0
ENDMDL
