MODEL 1
REMARK minimizedAffinity 7.14477825
REMARK minimizedRMSD -1
REMARK  0 active torsions:
REMARK  status: ('A' for Active; 'I' for Inactive)
ROOT
ATOM      1  C   UNL d   1      -2.539   4.873  -3.060  0.00  0.00     0.078 C 
ATOM      2  C1  UNL d   1      -3.743   4.858  -3.954  0.00  0.00    -0.077 A 
ATOM      3  C2  UNL d   1      -3.751   4.114  -5.140  0.00  0.00    -0.001 A 
ATOM      4  C3  UNL d   1      -4.876   4.116  -5.967  0.00  0.00     0.003 A 
ATOM      5  C4  UNL d   1      -6.000   4.862  -5.618  0.00  0.00    -0.005 A 
ATOM      6  C5  UNL d   1      -6.000   5.608  -4.441  0.00  0.00     0.003 A 
ATOM      7  C6  UNL d   1      -4.877   5.606  -3.612  0.00  0.00    -0.001 A 
ENDROOT
TORSDOF 0
ENDMDL
