MODEL 1
REMARK minimizedAffinity -3.72250295
REMARK minimizedRMSD -1
REMARK  0 active torsions:
REMARK  status: ('A' for Active; 'I' for Inactive)
ROOT
ATOM      1  C   UNL d   1      -5.255   0.750  -0.020  0.00  0.00     0.078 C 
ATOM      2  C1  UNL d   1      -5.065   0.146   1.339  0.00  0.00    -0.077 A 
ATOM      3  C2  UNL d   1      -6.000  -0.755   1.865  0.00  0.00    -0.001 A 
ATOM      4  C3  UNL d   1      -5.815  -1.302   3.136  0.00  0.00     0.003 A 
ATOM      5  C4  UNL d   1      -4.697  -0.954   3.892  0.00  0.00    -0.005 A 
ATOM      6  C5  UNL d   1      -3.763  -0.057   3.378  0.00  0.00     0.003 A 
ATOM      7  C6  UNL d   1      -3.946   0.491   2.108  0.00  0.00    -0.001 A 
ENDROOT
TORSDOF 0
ENDMDL
