MODEL 1
REMARK minimizedAffinity -3.25967169
REMARK minimizedRMSD -1
REMARK  0 active torsions:
REMARK  status: ('A' for Active; 'I' for Inactive)
ROOT
ATOM      1  C2' OXE d   1       1.991  -2.196   1.018  0.00  0.00     0.078 C 
ATOM      2  C1' OXE d   1       2.398  -0.045  -0.739  0.00  0.00     0.078 C 
ATOM      3  C1  OXE d   1       1.121  -0.066   0.063  0.00  0.00    -0.078 A 
ATOM      4  C2  OXE d   1       0.909  -1.146   0.886  0.00  0.00    -0.078 A 
ATOM      5  C3  OXE d   1      -0.227  -1.188   1.689  0.00  0.00     0.003 A 
ATOM      6  C4  OXE d   1      -1.227  -0.218   1.553  0.00  0.00    -0.002 A 
ATOM      7  C5  OXE d   1      -1.049   0.870   0.692  0.00  0.00    -0.002 A 
ATOM      8  C6  OXE d   1       0.136   0.983  -0.027  0.00  0.00     0.003 A 
ENDROOT
TORSDOF 0
ENDMDL
