MODEL 1
REMARK minimizedAffinity -3.11472845
REMARK minimizedRMSD -1
REMARK  0 active torsions:
REMARK  status: ('A' for Active; 'I' for Inactive)
ROOT
ATOM      1  C2' OXE d   1      -1.193   0.308   0.178  0.00  0.00     0.078 C 
ATOM      2  C1' OXE d   1      -1.208  -1.287   2.488  0.00  0.00     0.078 C 
ATOM      3  C1  OXE d   1       0.056  -1.251   1.666  0.00  0.00    -0.078 A 
ATOM      4  C2  OXE d   1       0.039  -0.505   0.512  0.00  0.00    -0.078 A 
ATOM      5  C3  OXE d   1       1.196  -0.393  -0.254  0.00  0.00     0.003 A 
ATOM      6  C4  OXE d   1       2.328  -1.156   0.056  0.00  0.00    -0.002 A 
ATOM      7  C5  OXE d   1       2.353  -1.954   1.206  0.00  0.00    -0.002 A 
ATOM      8  C6  OXE d   1       1.243  -1.979   2.042  0.00  0.00     0.003 A 
ENDROOT
TORSDOF 0
ENDMDL
