MODEL 1
REMARK minimizedAffinity -5.93701696
REMARK minimizedRMSD -1
REMARK  0 active torsions:
REMARK  status: ('A' for Active; 'I' for Inactive)
ROOT
ATOM      1  C2' OXE d   1       1.859   0.222  -0.943  0.00  0.00     0.078 C 
ATOM      2  C1' OXE d   1      -0.683   0.951   0.001  0.00  0.00     0.078 C 
ATOM      3  C1  OXE d   1       0.018  -0.198   0.682  0.00  0.00    -0.078 A 
ATOM      4  C2  OXE d   1       1.241  -0.578   0.184  0.00  0.00    -0.078 A 
ATOM      5  C3  OXE d   1       1.954  -1.597   0.809  0.00  0.00     0.003 A 
ATOM      6  C4  OXE d   1       1.371  -2.338   1.844  0.00  0.00    -0.002 A 
ATOM      7  C5  OXE d   1       0.109  -1.993   2.341  0.00  0.00    -0.002 A 
ATOM      8  C6  OXE d   1      -0.561  -0.902   1.800  0.00  0.00     0.003 A 
ENDROOT
TORSDOF 0
ENDMDL
