MODEL 1
REMARK minimizedAffinity -3.65450335
REMARK minimizedRMSD -1
REMARK  0 active torsions:
REMARK  status: ('A' for Active; 'I' for Inactive)
ROOT
ATOM      1  C2' OXE d   1      -0.516   0.430   0.066  0.00  0.00     0.078 C 
ATOM      2  C1' OXE d   1      -1.402  -0.780   2.439  0.00  0.00     0.078 C 
ATOM      3  C1  OXE d   1      -0.086  -1.239   1.865  0.00  0.00    -0.078 A 
ATOM      4  C2  OXE d   1       0.318  -0.675   0.678  0.00  0.00    -0.078 A 
ATOM      5  C3  OXE d   1       1.550  -1.024   0.133  0.00  0.00     0.003 A 
ATOM      6  C4  OXE d   1       2.311  -2.054   0.701  0.00  0.00    -0.002 A 
ATOM      7  C5  OXE d   1       1.899  -2.669   1.887  0.00  0.00    -0.002 A 
ATOM      8  C6  OXE d   1       0.727  -2.245   2.504  0.00  0.00     0.003 A 
ENDROOT
TORSDOF 0
ENDMDL
