MODEL 1
REMARK minimizedAffinity -6.96221972
REMARK minimizedRMSD -1
REMARK  0 active torsions:
REMARK  status: ('A' for Active; 'I' for Inactive)
ROOT
ATOM      1  C2' OXE d   1      -1.401   0.493   0.768  0.00  0.00     0.078 C 
ATOM      2  C1' OXE d   1       0.699  -0.226  -0.950  0.00  0.00     0.078 C 
ATOM      3  C1  OXE d   1       0.497  -1.050   0.297  0.00  0.00    -0.078 A 
ATOM      4  C2  OXE d   1      -0.504  -0.663   1.155  0.00  0.00    -0.078 A 
ATOM      5  C3  OXE d   1      -0.768  -1.421   2.292  0.00  0.00     0.003 A 
ATOM      6  C4  OXE d   1       0.073  -2.482   2.649  0.00  0.00    -0.002 A 
ATOM      7  C5  OXE d   1       1.122  -2.869   1.808  0.00  0.00    -0.002 A 
ATOM      8  C6  OXE d   1       1.321  -2.191   0.610  0.00  0.00     0.003 A 
ENDROOT
TORSDOF 0
ENDMDL
