MODEL 1
REMARK minimizedAffinity -5.24457645
REMARK minimizedRMSD -1
REMARK  0 active torsions:
REMARK  status: ('A' for Active; 'I' for Inactive)
ROOT
ATOM      1  C2' OXE d   1      -0.717   0.331   0.161  0.00  0.00     0.078 C 
ATOM      2  C1' OXE d   1       1.706  -0.284  -1.116  0.00  0.00     0.078 C 
ATOM      3  C1  OXE d   1       1.301  -1.127   0.067  0.00  0.00    -0.078 A 
ATOM      4  C2  OXE d   1       0.137  -0.790   0.715  0.00  0.00    -0.078 A 
ATOM      5  C3  OXE d   1      -0.311  -1.568   1.778  0.00  0.00     0.003 A 
ATOM      6  C4  OXE d   1       0.490  -2.596   2.290  0.00  0.00    -0.002 A 
ATOM      7  C5  OXE d   1       1.698  -2.931   1.670  0.00  0.00    -0.002 A 
ATOM      8  C6  OXE d   1       2.097  -2.235   0.534  0.00  0.00     0.003 A 
ENDROOT
TORSDOF 0
ENDMDL
