MODEL 1
REMARK minimizedAffinity -3.09019494
REMARK minimizedRMSD -1
REMARK  0 active torsions:
REMARK  status: ('A' for Active; 'I' for Inactive)
ROOT
ATOM      1  C2' OXE d   1      -0.671  -1.565   3.019  0.00  0.00     0.078 C 
ATOM      2  C1' OXE d   1       1.813  -2.233   1.894  0.00  0.00     0.078 C 
ATOM      3  C1  OXE d   1       0.975  -1.198   1.185  0.00  0.00    -0.078 A 
ATOM      4  C2  OXE d   1      -0.259  -0.911   1.717  0.00  0.00    -0.078 A 
ATOM      5  C3  OXE d   1      -1.049   0.075   1.133  0.00  0.00     0.003 A 
ATOM      6  C4  OXE d   1      -0.665   0.667  -0.076  0.00  0.00    -0.002 A 
ATOM      7  C5  OXE d   1       0.570   0.361  -0.656  0.00  0.00    -0.002 A 
ATOM      8  C6  OXE d   1       1.419  -0.536  -0.017  0.00  0.00     0.003 A 
ENDROOT
TORSDOF 0
ENDMDL
