MODEL 1
REMARK minimizedAffinity -4.30150843
REMARK minimizedRMSD -1
REMARK  0 active torsions:
REMARK  status: ('A' for Active; 'I' for Inactive)
ROOT
ATOM      1  C2' OXE d   1       2.010  -0.734  -0.447  0.00  0.00     0.078 C 
ATOM      2  C1' OXE d   1      -0.451   0.595  -0.199  0.00  0.00     0.078 C 
ATOM      3  C1  OXE d   1      -0.072  -0.392   0.877  0.00  0.00    -0.078 A 
ATOM      4  C2  OXE d   1       1.112  -1.072   0.724  0.00  0.00    -0.078 A 
ATOM      5  C3  OXE d   1       1.534  -1.953   1.716  0.00  0.00     0.003 A 
ATOM      6  C4  OXE d   1       0.693  -2.267   2.790  0.00  0.00    -0.002 A 
ATOM      7  C5  OXE d   1      -0.535  -1.615   2.944  0.00  0.00    -0.002 A 
ATOM      8  C6  OXE d   1      -0.913  -0.645   2.022  0.00  0.00     0.003 A 
ENDROOT
TORSDOF 0
ENDMDL
