MODEL 1
REMARK minimizedAffinity -5.21450996
REMARK minimizedRMSD -1
REMARK  0 active torsions:
REMARK  status: ('A' for Active; 'I' for Inactive)
ROOT
ATOM      1  C2' OXE d   1       1.752  -0.375  -0.917  0.00  0.00     0.078 C 
ATOM      2  C1' OXE d   1      -0.812   0.679  -0.475  0.00  0.00     0.078 C 
ATOM      3  C1  OXE d   1      -0.289  -0.335   0.511  0.00  0.00    -0.078 A 
ATOM      4  C2  OXE d   1       0.947  -0.881   0.261  0.00  0.00    -0.078 A 
ATOM      5  C3  OXE d   1       1.500  -1.780   1.168  0.00  0.00     0.003 A 
ATOM      6  C4  OXE d   1       0.745  -2.250   2.250  0.00  0.00    -0.002 A 
ATOM      7  C5  OXE d   1      -0.532  -1.737   2.501  0.00  0.00    -0.002 A 
ATOM      8  C6  OXE d   1      -1.045  -0.750   1.667  0.00  0.00     0.003 A 
ENDROOT
TORSDOF 0
ENDMDL
