MODEL 1
REMARK minimizedAffinity -5.5192585
REMARK minimizedRMSD -1
REMARK  0 active torsions:
REMARK  status: ('A' for Active; 'I' for Inactive)
ROOT
ATOM      1  C2' OXE d   1      -1.182  -1.288   2.565  0.00  0.00     0.078 C 
ATOM      2  C1' OXE d   1      -0.613   0.495   0.473  0.00  0.00     0.078 C 
ATOM      3  C1  OXE d   1       0.275  -0.715   0.627  0.00  0.00    -0.078 A 
ATOM      4  C2  OXE d   1       0.017  -1.557   1.681  0.00  0.00    -0.078 A 
ATOM      5  C3  OXE d   1       0.771  -2.717   1.837  0.00  0.00     0.003 A 
ATOM      6  C4  OXE d   1       1.885  -2.953   1.022  0.00  0.00    -0.002 A 
ATOM      7  C5  OXE d   1       2.189  -2.086  -0.033  0.00  0.00    -0.002 A 
ATOM      8  C6  OXE d   1       1.370  -0.988  -0.270  0.00  0.00     0.003 A 
ENDROOT
TORSDOF 0
ENDMDL
