MODEL 1
REMARK minimizedAffinity -2.36018252
REMARK minimizedRMSD -1
REMARK  0 active torsions:
REMARK  status: ('A' for Active; 'I' for Inactive)
ROOT
ATOM      1  C2' OXE d   1      -2.159   0.753   1.329  0.00  0.00     0.078 C 
ATOM      2  C1' OXE d   1      -0.936   1.759  -0.990  0.00  0.00     0.078 C 
ATOM      3  C1  OXE d   1      -0.459   0.429  -0.463  0.00  0.00    -0.078 A 
ATOM      4  C2  OXE d   1      -1.030  -0.034   0.698  0.00  0.00    -0.078 A 
ATOM      5  C3  OXE d   1      -0.665  -1.281   1.197  0.00  0.00     0.003 A 
ATOM      6  C4  OXE d   1       0.387  -1.997   0.614  0.00  0.00    -0.002 A 
ATOM      7  C5  OXE d   1       1.010  -1.526  -0.547  0.00  0.00    -0.002 A 
ATOM      8  C6  OXE d   1       0.571  -0.338  -1.121  0.00  0.00     0.003 A 
ENDROOT
TORSDOF 0
ENDMDL
