MODEL 1
REMARK minimizedAffinity -3.02164912
REMARK minimizedRMSD -1
REMARK  0 active torsions:
REMARK  status: ('A' for Active; 'I' for Inactive)
ROOT
ATOM      1  C2' OXE d   1      -0.327   1.170  -0.130  0.00  0.00     0.078 C 
ATOM      2  C1' OXE d   1      -1.666   0.102   2.094  0.00  0.00     0.078 C 
ATOM      3  C1  OXE d   1      -0.312  -0.466   1.748  0.00  0.00    -0.078 A 
ATOM      4  C2  OXE d   1       0.315   0.030   0.631  0.00  0.00    -0.078 A 
ATOM      5  C3  OXE d   1       1.589  -0.420   0.298  0.00  0.00     0.003 A 
ATOM      6  C4  OXE d   1       2.172  -1.482   1.001  0.00  0.00    -0.002 A 
ATOM      7  C5  OXE d   1       1.533  -2.029   2.118  0.00  0.00    -0.002 A 
ATOM      8  C6  OXE d   1       0.312  -1.505   2.530  0.00  0.00     0.003 A 
ENDROOT
TORSDOF 0
ENDMDL
