MODEL 1
REMARK minimizedAffinity -5.9100256
REMARK minimizedRMSD -1
REMARK  0 active torsions:
REMARK  status: ('A' for Active; 'I' for Inactive)
ROOT
ATOM      1  C2' OXE d   1      -0.646  -0.276   0.284  0.00  0.00     0.078 C 
ATOM      2  C1' OXE d   1      -1.197  -1.388   2.801  0.00  0.00     0.078 C 
ATOM      3  C1  OXE d   1       0.010  -1.900   2.055  0.00  0.00    -0.078 A 
ATOM      4  C2  OXE d   1       0.245  -1.383   0.804  0.00  0.00    -0.078 A 
ATOM      5  C3  OXE d   1       1.376  -1.781   0.095  0.00  0.00     0.003 A 
ATOM      6  C4  OXE d   1       2.189  -2.813   0.579  0.00  0.00    -0.002 A 
ATOM      7  C5  OXE d   1       1.944  -3.381   1.834  0.00  0.00    -0.002 A 
ATOM      8  C6  OXE d   1       0.886  -2.907   2.601  0.00  0.00     0.003 A 
ENDROOT
TORSDOF 0
ENDMDL
