MODEL 1
REMARK minimizedAffinity -4.39246893
REMARK minimizedRMSD -1
REMARK  0 active torsions:
REMARK  status: ('A' for Active; 'I' for Inactive)
ROOT
ATOM      1  C2' OXE d   1      -1.092   0.639   0.052  0.00  0.00     0.078 C 
ATOM      2  C1' OXE d   1       1.234  -0.370  -1.152  0.00  0.00     0.078 C 
ATOM      3  C1  OXE d   1       0.789  -0.991   0.148  0.00  0.00    -0.078 A 
ATOM      4  C2  OXE d   1      -0.324  -0.460   0.754  0.00  0.00    -0.078 A 
ATOM      5  C3  OXE d   1      -0.810  -1.031   1.926  0.00  0.00     0.003 A 
ATOM      6  C4  OXE d   1      -0.088  -2.041   2.575  0.00  0.00    -0.002 A 
ATOM      7  C5  OXE d   1       1.070  -2.569   1.995  0.00  0.00    -0.002 A 
ATOM      8  C6  OXE d   1       1.498  -2.086   0.764  0.00  0.00     0.003 A 
ENDROOT
TORSDOF 0
ENDMDL
