MODEL 1
REMARK minimizedAffinity 1.54297543
REMARK minimizedRMSD -1
REMARK  0 active torsions:
REMARK  status: ('A' for Active; 'I' for Inactive)
ROOT
ATOM      1  C2' OXE d   1      -0.692   3.446  -2.711  0.00  0.00     0.078 C 
ATOM      2  C1' OXE d   1      -0.851   1.491  -0.703  0.00  0.00     0.078 C 
ATOM      3  C1  OXE d   1      -2.097   1.784  -1.499  0.00  0.00    -0.078 A 
ATOM      4  C2  OXE d   1      -2.023   2.775  -2.449  0.00  0.00    -0.078 A 
ATOM      5  C3  OXE d   1      -3.129   3.047  -3.249  0.00  0.00     0.003 A 
ATOM      6  C4  OXE d   1      -4.359   2.429  -2.992  0.00  0.00    -0.002 A 
ATOM      7  C5  OXE d   1      -4.467   1.445  -2.004  0.00  0.00    -0.002 A 
ATOM      8  C6  OXE d   1      -3.337   1.082  -1.278  0.00  0.00     0.003 A 
ENDROOT
TORSDOF 0
ENDMDL
