MODEL 1
REMARK minimizedAffinity -4.96330547
REMARK minimizedRMSD -1
REMARK  0 active torsions:
REMARK  status: ('A' for Active; 'I' for Inactive)
ROOT
ATOM      1  C2' OXE d   1       1.597   0.078  -0.672  0.00  0.00     0.078 C 
ATOM      2  C1' OXE d   1      -0.989   0.741   0.196  0.00  0.00     0.078 C 
ATOM      3  C1  OXE d   1      -0.347  -0.493   0.777  0.00  0.00    -0.078 A 
ATOM      4  C2  OXE d   1       0.900  -0.836   0.313  0.00  0.00    -0.078 A 
ATOM      5  C3  OXE d   1       1.560  -1.935   0.856  0.00  0.00     0.003 A 
ATOM      6  C4  OXE d   1       0.904  -2.781   1.759  0.00  0.00    -0.002 A 
ATOM      7  C5  OXE d   1      -0.381  -2.472   2.215  0.00  0.00    -0.002 A 
ATOM      8  C6  OXE d   1      -1.003  -1.311   1.768  0.00  0.00     0.003 A 
ENDROOT
TORSDOF 0
ENDMDL
