MODEL 1
REMARK minimizedAffinity -2.29569364
REMARK minimizedRMSD -1
REMARK  0 active torsions:
REMARK  status: ('A' for Active; 'I' for Inactive)
ROOT
ATOM      1  C2' OXE d   1      -0.787   1.008   0.490  0.00  0.00     0.078 C 
ATOM      2  C1' OXE d   1      -0.679   0.197  -2.195  0.00  0.00     0.078 C 
ATOM      3  C1  OXE d   1       0.336  -0.385  -1.242  0.00  0.00    -0.078 A 
ATOM      4  C2  OXE d   1       0.305   0.053   0.060  0.00  0.00    -0.078 A 
ATOM      5  C3  OXE d   1       1.183  -0.492   0.992  0.00  0.00     0.003 A 
ATOM      6  C4  OXE d   1       2.196  -1.368   0.583  0.00  0.00    -0.002 A 
ATOM      7  C5  OXE d   1       2.271  -1.797  -0.747  0.00  0.00    -0.002 A 
ATOM      8  C6  OXE d   1       1.324  -1.349  -1.661  0.00  0.00     0.003 A 
ENDROOT
TORSDOF 0
ENDMDL
