MODEL 1
REMARK minimizedAffinity -4.81579304
REMARK minimizedRMSD -1
REMARK  0 active torsions:
REMARK  status: ('A' for Active; 'I' for Inactive)
ROOT
ATOM      1  C2' OXE d   1       1.319  -2.919   1.546  0.00  0.00     0.078 C 
ATOM      2  C1' OXE d   1      -0.755  -2.097   3.250  0.00  0.00     0.078 C 
ATOM      3  C1  OXE d   1      -0.548  -1.325   1.971  0.00  0.00    -0.078 A 
ATOM      4  C2  OXE d   1       0.498  -1.705   1.165  0.00  0.00    -0.078 A 
ATOM      5  C3  OXE d   1       0.699  -1.062  -0.053  0.00  0.00     0.003 A 
ATOM      6  C4  OXE d   1      -0.058   0.065  -0.393  0.00  0.00    -0.002 A 
ATOM      7  C5  OXE d   1      -1.103   0.493   0.433  0.00  0.00    -0.002 A 
ATOM      8  C6  OXE d   1      -1.388  -0.215   1.594  0.00  0.00     0.003 A 
ENDROOT
TORSDOF 0
ENDMDL
