MODEL 1
REMARK minimizedAffinity 7.65978098
REMARK minimizedRMSD -1
REMARK  1 active torsions:
REMARK  status: ('A' for Active; 'I' for Inactive)
REMARK    1  A    between atoms: N_2  and  C1_3 
ROOT
ATOM      1  C1  UNL d   1       0.036  -0.087  -1.090  0.00  0.00     0.143 A 
ATOM      2  C2  UNL d   1       1.186   0.655  -1.384  0.00  0.00    -0.057 A 
ATOM      3  C3  UNL d   1       2.427   0.031  -1.560  0.00  0.00     0.033 A 
ATOM      4  C4  UNL d   1       2.546  -1.347  -1.417  0.00  0.00    -0.042 A 
ATOM      5  C5  UNL d   1       1.422  -2.102  -1.100  0.00  0.00     0.033 A 
ATOM      6  C6  UNL d   1       0.184  -1.474  -0.932  0.00  0.00    -0.057 A 
ENDROOT
BRANCH   1   7
ATOM      7  N   UNL d   1      -1.207   0.484  -0.807  0.00  0.00    -0.732 N 
ATOM      8  C   UNL d   1      -2.407  -0.324  -0.812  0.00  0.00     0.284 C 
ATOM      9  H3  UNL d   1      -1.161   1.155  -0.044  0.00  0.00     0.395 HD
ENDBRANCH   1   7
TORSDOF 1
ENDMDL
