MODEL 1
REMARK minimizedAffinity 8.55437088
REMARK minimizedRMSD -1
REMARK  1 active torsions:
REMARK  status: ('A' for Active; 'I' for Inactive)
REMARK    1  A    between atoms: N_2  and  C1_3 
ROOT
ATOM      1  C1  UNL d   1      -0.035  -0.281  -0.990  0.00  0.00     0.143 A 
ATOM      2  C2  UNL d   1       0.980   0.426  -1.644  0.00  0.00    -0.057 A 
ATOM      3  C3  UNL d   1       2.239  -0.146  -1.863  0.00  0.00     0.033 A 
ATOM      4  C4  UNL d   1       2.515  -1.430  -1.404  0.00  0.00    -0.042 A 
ATOM      5  C5  UNL d   1       1.530  -2.142  -0.730  0.00  0.00     0.033 A 
ATOM      6  C6  UNL d   1       0.272  -1.568  -0.520  0.00  0.00    -0.057 A 
ENDROOT
BRANCH   1   7
ATOM      7  N   UNL d   1      -1.275   0.269  -0.655  0.00  0.00    -0.732 N 
ATOM      8  C   UNL d   1      -2.475  -0.538  -0.699  0.00  0.00     0.284 C 
ATOM      9  H3  UNL d   1      -1.220   0.888   0.151  0.00  0.00     0.395 HD
ENDBRANCH   1   7
TORSDOF 1
ENDMDL
