MODEL 1
REMARK minimizedAffinity 8.55695248
REMARK minimizedRMSD -1
REMARK  1 active torsions:
REMARK  status: ('A' for Active; 'I' for Inactive)
REMARK    1  A    between atoms: N_2  and  C1_3 
ROOT
ATOM      1  C1  UNL d   1       0.442   1.841   0.127  0.00  0.00     0.143 A 
ATOM      2  C2  UNL d   1       1.795   1.870  -0.229  0.00  0.00    -0.057 A 
ATOM      3  C3  UNL d   1       2.304   1.019  -1.218  0.00  0.00     0.033 A 
ATOM      4  C4  UNL d   1       1.471   0.101  -1.850  0.00  0.00    -0.042 A 
ATOM      5  C5  UNL d   1       0.129   0.037  -1.494  0.00  0.00     0.033 A 
ATOM      6  C6  UNL d   1      -0.375   0.894  -0.511  0.00  0.00    -0.057 A 
ENDROOT
BRANCH   1   7
ATOM      7  N   UNL d   1      -0.104   2.592   1.171  0.00  0.00    -0.732 N 
ATOM      8  C   UNL d   1      -1.250   3.446   0.944  0.00  0.00     0.284 C 
ATOM      9  H3  UNL d   1      -0.138   2.073   2.046  0.00  0.00     0.395 HD
ENDBRANCH   1   7
TORSDOF 1
ENDMDL
