MODEL 1
REMARK minimizedAffinity 9.74433804
REMARK minimizedRMSD -1
REMARK  1 active torsions:
REMARK  status: ('A' for Active; 'I' for Inactive)
REMARK    1  A    between atoms: N_2  and  C1_3 
ROOT
ATOM      1  C1  UNL d   1       0.800   2.467   1.056  0.00  0.00     0.143 A 
ATOM      2  C2  UNL d   1      -0.533   2.867   1.192  0.00  0.00    -0.057 A 
ATOM      3  C3  UNL d   1      -1.411   2.852   0.101  0.00  0.00     0.033 A 
ATOM      4  C4  UNL d   1      -0.961   2.461  -1.156  0.00  0.00    -0.042 A 
ATOM      5  C5  UNL d   1       0.367   2.083  -1.320  0.00  0.00     0.033 A 
ATOM      6  C6  UNL d   1       1.237   2.095  -0.225  0.00  0.00    -0.057 A 
ENDROOT
BRANCH   1   7
ATOM      7  N   UNL d   1       1.747   2.554   2.080  0.00  0.00    -0.732 N 
ATOM      8  C   UNL d   1       3.117   2.146   1.854  0.00  0.00     0.284 C 
ATOM      9  H3  UNL d   1       1.652   3.408   2.625  0.00  0.00     0.395 HD
ENDBRANCH   1   7
TORSDOF 1
ENDMDL
