MODEL 1
REMARK minimizedAffinity 1.68349445
REMARK minimizedRMSD -1
REMARK  1 active torsions:
REMARK  status: ('A' for Active; 'I' for Inactive)
REMARK    1  A    between atoms: N_2  and  C1_3 
ROOT
ATOM      1  C1  UNL d   1       1.992  -3.876   0.850  0.00  0.00     0.143 A 
ATOM      2  C2  UNL d   1       1.144  -2.885   0.344  0.00  0.00    -0.057 A 
ATOM      3  C3  UNL d   1       1.259  -2.435  -0.976  0.00  0.00     0.033 A 
ATOM      4  C4  UNL d   1       2.248  -2.949  -1.809  0.00  0.00    -0.042 A 
ATOM      5  C5  UNL d   1       3.118  -3.918  -1.320  0.00  0.00     0.033 A 
ATOM      6  C6  UNL d   1       2.993  -4.368  -0.002  0.00  0.00    -0.057 A 
ENDROOT
BRANCH   1   7
ATOM      7  N   UNL d   1       1.991  -4.295   2.183  0.00  0.00    -0.732 N 
ATOM      8  C   UNL d   1       3.221  -4.330   2.945  0.00  0.00     0.284 C 
ATOM      9  H3  UNL d   1       1.190  -3.940   2.701  0.00  0.00     0.395 HD
ENDBRANCH   1   7
TORSDOF 1
ENDMDL
