MODEL 1
REMARK minimizedAffinity 8.43976593
REMARK minimizedRMSD -1
REMARK  1 active torsions:
REMARK  status: ('A' for Active; 'I' for Inactive)
REMARK    1  A    between atoms: N_2  and  C1_3 
ROOT
ATOM      1  C1  UNL d   1       4.713   4.506   0.342  0.00  0.00     0.143 A 
ATOM      2  C2  UNL d   1       5.813   5.344   0.125  0.00  0.00    -0.057 A 
ATOM      3  C3  UNL d   1       5.999   5.996  -1.100  0.00  0.00     0.033 A 
ATOM      4  C4  UNL d   1       5.100   5.799  -2.143  0.00  0.00    -0.042 A 
ATOM      5  C5  UNL d   1       4.013   4.952  -1.959  0.00  0.00     0.033 A 
ATOM      6  C6  UNL d   1       3.830   4.308  -0.731  0.00  0.00    -0.057 A 
ENDROOT
BRANCH   1   7
ATOM      7  N   UNL d   1       4.526   3.753   1.503  0.00  0.00    -0.732 N 
ATOM      8  C   UNL d   1       3.309   2.996   1.702  0.00  0.00     0.284 C 
ATOM      9  H3  UNL d   1       5.371   3.264   1.789  0.00  0.00     0.395 HD
ENDBRANCH   1   7
TORSDOF 1
ENDMDL
