MODEL 1
REMARK minimizedAffinity -2.43368602
REMARK minimizedRMSD -1
REMARK  1 active torsions:
REMARK  status: ('A' for Active; 'I' for Inactive)
REMARK    1  A    between atoms: N_2  and  C1_3 
ROOT
ATOM      1  C1  UNL d   1       0.869   0.120  -1.647  0.00  0.00     0.143 A 
ATOM      2  C2  UNL d   1       2.071  -0.526  -1.954  0.00  0.00    -0.057 A 
ATOM      3  C3  UNL d   1       2.353  -1.808  -1.465  0.00  0.00     0.033 A 
ATOM      4  C4  UNL d   1       1.446  -2.456  -0.634  0.00  0.00    -0.042 A 
ATOM      5  C5  UNL d   1       0.255  -1.823  -0.294  0.00  0.00     0.033 A 
ATOM      6  C6  UNL d   1      -0.023  -0.546  -0.791  0.00  0.00    -0.057 A 
ENDROOT
BRANCH   1   7
ATOM      7  N   UNL d   1       0.574   1.433  -2.021  0.00  0.00    -0.732 N 
ATOM      8  C   UNL d   1      -0.423   2.198  -1.304  0.00  0.00     0.284 C 
ATOM      9  H3  UNL d   1       1.407   1.963  -2.267  0.00  0.00     0.395 HD
ENDBRANCH   1   7
TORSDOF 1
ENDMDL
