MODEL 1
REMARK minimizedAffinity 4.05961847
REMARK minimizedRMSD -1
REMARK  1 active torsions:
REMARK  status: ('A' for Active; 'I' for Inactive)
REMARK    1  A    between atoms: N_2  and  C1_3 
ROOT
ATOM      1  C1  UNL d   1       2.141  -3.142  -0.784  0.00  0.00     0.143 A 
ATOM      2  C2  UNL d   1       3.176  -2.266  -1.128  0.00  0.00    -0.057 A 
ATOM      3  C3  UNL d   1       2.934  -1.124  -1.900  0.00  0.00     0.033 A 
ATOM      4  C4  UNL d   1       1.652  -0.852  -2.368  0.00  0.00    -0.042 A 
ATOM      5  C5  UNL d   1       0.613  -1.722  -2.059  0.00  0.00     0.033 A 
ATOM      6  C6  UNL d   1       0.860  -2.858  -1.282  0.00  0.00    -0.057 A 
ENDROOT
BRANCH   1   7
ATOM      7  N   UNL d   1       2.335  -4.346  -0.103  0.00  0.00    -0.732 N 
ATOM      8  C   UNL d   1       1.653  -4.605   1.147  0.00  0.00     0.284 C 
ATOM      9  H3  UNL d   1       2.371  -5.147  -0.730  0.00  0.00     0.395 HD
ENDBRANCH   1   7
TORSDOF 1
ENDMDL
