MODEL 1
REMARK minimizedAffinity -3.27481389
REMARK minimizedRMSD -1
REMARK  1 active torsions:
REMARK  status: ('A' for Active; 'I' for Inactive)
REMARK    1  A    between atoms: N_2  and  C1_3 
ROOT
ATOM      1  C1  UNL d   1       1.916  -3.025   0.177  0.00  0.00     0.143 A 
ATOM      2  C2  UNL d   1       0.748  -2.485  -0.372  0.00  0.00    -0.057 A 
ATOM      3  C3  UNL d   1       0.801  -1.461  -1.327  0.00  0.00     0.033 A 
ATOM      4  C4  UNL d   1       2.026  -0.939  -1.729  0.00  0.00    -0.042 A 
ATOM      5  C5  UNL d   1       3.198  -1.444  -1.178  0.00  0.00     0.033 A 
ATOM      6  C6  UNL d   1       3.140  -2.470  -0.230  0.00  0.00    -0.057 A 
ENDROOT
BRANCH   1   7
ATOM      7  N   UNL d   1       1.927  -3.975   1.201  0.00  0.00    -0.732 N 
ATOM      8  C   UNL d   1       2.040  -5.385   0.898  0.00  0.00     0.284 C 
ATOM      9  H3  UNL d   1       2.479  -3.677   2.002  0.00  0.00     0.395 HD
ENDBRANCH   1   7
TORSDOF 1
ENDMDL
