MODEL 1
REMARK minimizedAffinity -0.570672512
REMARK minimizedRMSD -1
REMARK  0 active torsions:
REMARK  status: ('A' for Active; 'I' for Inactive)
ROOT
ATOM      1  C   UNL d   1      -1.911  -3.359   3.683  0.00  0.00     0.077 C 
ATOM      2  C1  UNL d   1      -0.659  -3.462   2.865  0.00  0.00    -0.074 A 
ATOM      3  C2  UNL d   1       0.054  -4.663   2.790  0.00  0.00    -0.005 A 
ATOM      4  C3  UNL d   1       1.212  -4.746   2.017  0.00  0.00     0.006 A 
ATOM      5  C4  UNL d   1       1.669  -3.631   1.313  0.00  0.00    -0.005 A 
ATOM      6  C5  UNL d   1       0.969  -2.422   1.375  0.00  0.00    -0.074 A 
ATOM      7  C6  UNL d   1       1.440  -1.218   0.617  0.00  0.00     0.077 C 
ATOM      8  C7  UNL d   1      -0.198  -2.349   2.148  0.00  0.00    -0.001 A 
ENDROOT
TORSDOF 0
ENDMDL
