MODEL 1
REMARK minimizedAffinity -0.118185803
REMARK minimizedRMSD -1
REMARK  0 active torsions:
REMARK  status: ('A' for Active; 'I' for Inactive)
ROOT
ATOM      1  C   UNL d   1      -1.829  -2.685   1.764  0.00  0.00     0.077 C 
ATOM      2  C1  UNL d   1      -0.466  -2.137   1.460  0.00  0.00    -0.074 A 
ATOM      3  C2  UNL d   1      -0.127  -0.824   1.804  0.00  0.00    -0.005 A 
ATOM      4  C3  UNL d   1       1.148  -0.331   1.524  0.00  0.00     0.006 A 
ATOM      5  C4  UNL d   1       2.094  -1.144   0.898  0.00  0.00    -0.005 A 
ATOM      6  C5  UNL d   1       1.773  -2.459   0.548  0.00  0.00    -0.074 A 
ATOM      7  C6  UNL d   1       2.781  -3.350  -0.116  0.00  0.00     0.077 C 
ATOM      8  C7  UNL d   1       0.492  -2.950   0.839  0.00  0.00    -0.001 A 
ENDROOT
TORSDOF 0
ENDMDL
