MODEL 1
REMARK minimizedAffinity -1.92297828
REMARK minimizedRMSD -1
REMARK  0 active torsions:
REMARK  status: ('A' for Active; 'I' for Inactive)
ROOT
ATOM      1  C   UNL d   1       2.456  -4.919   1.265  0.00  0.00     0.077 C 
ATOM      2  C1  UNL d   1       2.149  -3.549   0.739  0.00  0.00    -0.074 A 
ATOM      3  C2  UNL d   1       2.851  -3.023  -0.351  0.00  0.00    -0.005 A 
ATOM      4  C3  UNL d   1       2.547  -1.751  -0.835  0.00  0.00     0.006 A 
ATOM      5  C4  UNL d   1       1.540  -0.993  -0.236  0.00  0.00    -0.005 A 
ATOM      6  C5  UNL d   1       0.827  -1.503   0.853  0.00  0.00    -0.074 A 
ATOM      7  C6  UNL d   1      -0.265  -0.705   1.502  0.00  0.00     0.077 C 
ATOM      8  C7  UNL d   1       1.133  -2.785   1.330  0.00  0.00    -0.001 A 
ENDROOT
TORSDOF 0
ENDMDL
