MODEL 1
REMARK minimizedAffinity 3.277946
REMARK minimizedRMSD -1
REMARK  0 active torsions:
REMARK  status: ('A' for Active; 'I' for Inactive)
ROOT
ATOM      1  C   UNL d   1       2.687  -4.753   0.876  0.00  0.00     0.077 C 
ATOM      2  C1  UNL d   1       1.731  -3.610   1.049  0.00  0.00    -0.074 A 
ATOM      3  C2  UNL d   1       1.920  -2.405   0.366  0.00  0.00    -0.005 A 
ATOM      4  C3  UNL d   1       1.017  -1.354   0.530  0.00  0.00     0.006 A 
ATOM      5  C4  UNL d   1      -0.082  -1.498   1.377  0.00  0.00    -0.005 A 
ATOM      6  C5  UNL d   1      -0.288  -2.697   2.068  0.00  0.00    -0.074 A 
ATOM      7  C6  UNL d   1      -1.470  -2.872   2.975  0.00  0.00     0.077 C 
ATOM      8  C7  UNL d   1       0.620  -3.750   1.893  0.00  0.00    -0.001 A 
ENDROOT
TORSDOF 0
ENDMDL
