MODEL 1
REMARK minimizedAffinity 3.21963978
REMARK minimizedRMSD -1
REMARK  0 active torsions:
REMARK  status: ('A' for Active; 'I' for Inactive)
ROOT
ATOM      1  C   UNL d   1       0.578  -0.286   1.344  0.00  0.00     0.077 C 
ATOM      2  C1  UNL d   1       0.516  -1.783   1.280  0.00  0.00    -0.074 A 
ATOM      3  C2  UNL d   1      -0.670  -2.466   1.572  0.00  0.00    -0.005 A 
ATOM      4  C3  UNL d   1      -0.715  -3.858   1.499  0.00  0.00     0.006 A 
ATOM      5  C4  UNL d   1       0.422  -4.581   1.135  0.00  0.00    -0.005 A 
ATOM      6  C5  UNL d   1       1.616  -3.915   0.839  0.00  0.00    -0.074 A 
ATOM      7  C6  UNL d   1       2.844  -4.675   0.436  0.00  0.00     0.077 C 
ATOM      8  C7  UNL d   1       1.652  -2.515   0.907  0.00  0.00    -0.001 A 
ENDROOT
TORSDOF 0
ENDMDL
