MODEL 1
REMARK minimizedAffinity 2.40561342
REMARK minimizedRMSD -1
REMARK  0 active torsions:
REMARK  status: ('A' for Active; 'I' for Inactive)
ROOT
ATOM      1  C   UNL d   1      -5.213   1.831  -4.004  0.00  0.00     0.077 C 
ATOM      2  C1  UNL d   1      -4.016   2.687  -3.713  0.00  0.00    -0.074 A 
ATOM      3  C2  UNL d   1      -3.924   3.412  -2.521  0.00  0.00    -0.005 A 
ATOM      4  C3  UNL d   1      -2.800   4.197  -2.261  0.00  0.00     0.006 A 
ATOM      5  C4  UNL d   1      -1.760   4.265  -3.188  0.00  0.00    -0.005 A 
ATOM      6  C5  UNL d   1      -1.834   3.546  -4.385  0.00  0.00    -0.074 A 
ATOM      7  C6  UNL d   1      -0.721   3.599  -5.389  0.00  0.00     0.077 C 
ATOM      8  C7  UNL d   1      -2.963   2.754  -4.637  0.00  0.00    -0.001 A 
ENDROOT
TORSDOF 0
ENDMDL
