MODEL 1
REMARK minimizedAffinity -2.33707333
REMARK minimizedRMSD -1
REMARK  0 active torsions:
REMARK  status: ('A' for Active; 'I' for Inactive)
ROOT
ATOM      1  C   UNL d   1       2.620  -4.432   0.506  0.00  0.00     0.077 C 
ATOM      2  C1  UNL d   1       1.645  -3.345   0.846  0.00  0.00    -0.074 A 
ATOM      3  C2  UNL d   1       1.669  -2.120   0.171  0.00  0.00    -0.005 A 
ATOM      4  C3  UNL d   1       0.750  -1.122   0.492  0.00  0.00     0.006 A 
ATOM      5  C4  UNL d   1      -0.202  -1.338   1.490  0.00  0.00    -0.005 A 
ATOM      6  C5  UNL d   1      -0.242  -2.557   2.175  0.00  0.00    -0.074 A 
ATOM      7  C6  UNL d   1      -1.265  -2.809   3.243  0.00  0.00     0.077 C 
ATOM      8  C7  UNL d   1       0.681  -3.557   1.842  0.00  0.00    -0.001 A 
ENDROOT
TORSDOF 0
ENDMDL
