MODEL 1
REMARK minimizedAffinity -0.583675802
REMARK minimizedRMSD -1
REMARK  0 active torsions:
REMARK  status: ('A' for Active; 'I' for Inactive)
ROOT
ATOM      1  C   UNL d   1      -2.488  -2.440  -2.611  0.00  0.00     0.077 C 
ATOM      2  C1  UNL d   1      -3.162  -1.761  -3.767  0.00  0.00    -0.074 A 
ATOM      3  C2  UNL d   1      -3.476  -2.468  -4.932  0.00  0.00    -0.005 A 
ATOM      4  C3  UNL d   1      -4.111  -1.825  -5.995  0.00  0.00     0.006 A 
ATOM      5  C4  UNL d   1      -4.437  -0.472  -5.904  0.00  0.00    -0.005 A 
ATOM      6  C5  UNL d   1      -4.132   0.251  -4.746  0.00  0.00    -0.074 A 
ATOM      7  C6  UNL d   1      -4.485   1.704  -4.627  0.00  0.00     0.077 C 
ATOM      8  C7  UNL d   1      -3.500  -0.404  -3.680  0.00  0.00    -0.001 A 
ENDROOT
TORSDOF 0
ENDMDL
