MODEL 1
REMARK minimizedAffinity 3.63309383
REMARK minimizedRMSD -1
REMARK  0 active torsions:
REMARK  status: ('A' for Active; 'I' for Inactive)
ROOT
ATOM      1  C   UNL d   1      -0.776  -0.069   2.638  0.00  0.00     0.077 C 
ATOM      2  C1  UNL d   1      -0.436  -1.438   2.129  0.00  0.00    -0.074 A 
ATOM      3  C2  UNL d   1      -1.290  -2.522   2.357  0.00  0.00    -0.005 A 
ATOM      4  C3  UNL d   1      -0.966  -3.788   1.869  0.00  0.00     0.006 A 
ATOM      5  C4  UNL d   1       0.214  -3.982   1.149  0.00  0.00    -0.005 A 
ATOM      6  C5  UNL d   1       1.080  -2.910   0.911  0.00  0.00    -0.074 A 
ATOM      7  C6  UNL d   1       2.347  -3.100   0.131  0.00  0.00     0.077 C 
ATOM      8  C7  UNL d   1       0.743  -1.640   1.398  0.00  0.00    -0.001 A 
ENDROOT
TORSDOF 0
ENDMDL
