MODEL 1
REMARK minimizedAffinity 2.04615402
REMARK minimizedRMSD -1
REMARK  0 active torsions:
REMARK  status: ('A' for Active; 'I' for Inactive)
ROOT
ATOM      1  C   UNL d   1      -0.094  -1.585   2.466  0.00  0.00     0.077 C 
ATOM      2  C1  UNL d   1       0.885  -2.233   1.532  0.00  0.00    -0.074 A 
ATOM      3  C2  UNL d   1       1.348  -1.560   0.397  0.00  0.00    -0.005 A 
ATOM      4  C3  UNL d   1       2.265  -2.171  -0.457  0.00  0.00     0.006 A 
ATOM      5  C4  UNL d   1       2.728  -3.459  -0.186  0.00  0.00    -0.005 A 
ATOM      6  C5  UNL d   1       2.278  -4.147   0.945  0.00  0.00    -0.074 A 
ATOM      7  C6  UNL d   1       2.773  -5.528   1.258  0.00  0.00     0.077 C 
ATOM      8  C7  UNL d   1       1.361  -3.523   1.803  0.00  0.00    -0.001 A 
ENDROOT
TORSDOF 0
ENDMDL
