MODEL 1
REMARK minimizedAffinity 2.01982212
REMARK minimizedRMSD -1
REMARK  0 active torsions:
REMARK  status: ('A' for Active; 'I' for Inactive)
ROOT
ATOM      1  C   UNL d   1       2.051  -4.955   0.528  0.00  0.00     0.077 C 
ATOM      2  C1  UNL d   1       1.680  -3.502   0.500  0.00  0.00    -0.074 A 
ATOM      3  C2  UNL d   1       2.197  -2.646  -0.478  0.00  0.00    -0.005 A 
ATOM      4  C3  UNL d   1       1.835  -1.300  -0.498  0.00  0.00     0.006 A 
ATOM      5  C4  UNL d   1       0.954  -0.795   0.459  0.00  0.00    -0.005 A 
ATOM      6  C5  UNL d   1       0.425  -1.636   1.444  0.00  0.00    -0.074 A 
ATOM      7  C6  UNL d   1      -0.532  -1.112   2.473  0.00  0.00     0.077 C 
ATOM      8  C7  UNL d   1       0.788  -2.989   1.452  0.00  0.00    -0.001 A 
ENDROOT
TORSDOF 0
ENDMDL
