MODEL 1
REMARK minimizedAffinity -4.79703856
REMARK minimizedRMSD -1
REMARK  1 active torsions:
REMARK  status: ('A' for Active; 'I' for Inactive)
REMARK    1  A    between atoms: C1_2  and  C2_3 
ROOT
ATOM      1  C2  UNL d   1       0.002  -0.248  -0.040  0.00  0.00    -0.077 A 
ATOM      2  C3  UNL d   1      -0.887  -0.466   1.022  0.00  0.00     0.002 A 
ATOM      3  C4  UNL d   1      -2.248  -0.657   0.777  0.00  0.00     0.002 A 
ATOM      4  C5  UNL d   1      -2.732  -0.636  -0.530  0.00  0.00    -0.004 A 
ATOM      5  C6  UNL d   1      -1.856  -0.418  -1.593  0.00  0.00     0.002 A 
ATOM      6  C7  UNL d   1      -0.496  -0.226  -1.349  0.00  0.00     0.002 A 
ENDROOT
BRANCH   1   7
ATOM      7  C1  UNL d   1       1.477  -0.091   0.219  0.00  0.00     0.055 C 
ATOM      8  C   UNL d   1       1.786   1.250   0.869  0.00  0.00     0.019 C 
ENDBRANCH   1   7
TORSDOF 1
ENDMDL
