MODEL 1
REMARK minimizedAffinity -5.18864584
REMARK minimizedRMSD -1
REMARK  1 active torsions:
REMARK  status: ('A' for Active; 'I' for Inactive)
REMARK    1  A    between atoms: C1_2  and  C2_3 
ROOT
ATOM      1  C2  UNL d   1       0.319   0.503   0.071  0.00  0.00    -0.077 A 
ATOM      2  C3  UNL d   1      -0.029   0.686  -1.275  0.00  0.00     0.002 A 
ATOM      3  C4  UNL d   1      -1.299   0.325  -1.732  0.00  0.00     0.002 A 
ATOM      4  C5  UNL d   1      -2.231  -0.216  -0.849  0.00  0.00    -0.004 A 
ATOM      5  C6  UNL d   1      -1.894  -0.404   0.491  0.00  0.00     0.002 A 
ATOM      6  C7  UNL d   1      -0.625  -0.045   0.949  0.00  0.00     0.002 A 
ENDROOT
BRANCH   1   7
ATOM      7  C1  UNL d   1       1.670   0.936   0.575  0.00  0.00     0.055 C 
ATOM      8  C   UNL d   1       1.547   2.069   1.584  0.00  0.00     0.019 C 
ENDBRANCH   1   7
TORSDOF 1
ENDMDL
