MODEL 1
REMARK minimizedAffinity -1.88382578
REMARK minimizedRMSD -1
REMARK  1 active torsions:
REMARK  status: ('A' for Active; 'I' for Inactive)
REMARK    1  A    between atoms: C1_2  and  C2_3 
ROOT
ATOM      1  C2  UNL d   1      -1.157  -0.552  -0.252  0.00  0.00    -0.077 A 
ATOM      2  C3  UNL d   1      -0.528   0.439  -1.019  0.00  0.00     0.002 A 
ATOM      3  C4  UNL d   1       0.753   0.882  -0.686  0.00  0.00     0.002 A 
ATOM      4  C5  UNL d   1       1.418   0.337   0.410  0.00  0.00    -0.004 A 
ATOM      5  C6  UNL d   1       0.801  -0.647   1.180  0.00  0.00     0.002 A 
ATOM      6  C7  UNL d   1      -0.481  -1.091   0.851  0.00  0.00     0.002 A 
ENDROOT
BRANCH   1   7
ATOM      7  C1  UNL d   1      -2.519  -1.067  -0.637  0.00  0.00     0.055 C 
ATOM      8  C   UNL d   1      -2.517  -1.635  -2.049  0.00  0.00     0.019 C 
ENDBRANCH   1   7
TORSDOF 1
ENDMDL
