MODEL 1
REMARK minimizedAffinity -5.07477713
REMARK minimizedRMSD -1
REMARK  1 active torsions:
REMARK  status: ('A' for Active; 'I' for Inactive)
REMARK    1  A    between atoms: C1_2  and  C2_3 
ROOT
ATOM      1  C2  UNL d   1      -0.376   0.079   0.275  0.00  0.00    -0.077 A 
ATOM      2  C3  UNL d   1      -0.685   0.069  -1.093  0.00  0.00     0.002 A 
ATOM      3  C4  UNL d   1      -1.969  -0.269  -1.525  0.00  0.00     0.002 A 
ATOM      4  C5  UNL d   1      -2.955  -0.596  -0.596  0.00  0.00    -0.004 A 
ATOM      5  C6  UNL d   1      -2.657  -0.591   0.766  0.00  0.00     0.002 A 
ATOM      6  C7  UNL d   1      -1.374  -0.255   1.200  0.00  0.00     0.002 A 
ENDROOT
BRANCH   1   7
ATOM      7  C1  UNL d   1       0.994   0.491   0.745  0.00  0.00     0.055 C 
ATOM      8  C   UNL d   1       2.081  -0.058  -0.168  0.00  0.00     0.019 C 
ENDBRANCH   1   7
TORSDOF 1
ENDMDL
