MODEL 1
REMARK minimizedAffinity -4.29791975
REMARK minimizedRMSD -1
REMARK  1 active torsions:
REMARK  status: ('A' for Active; 'I' for Inactive)
REMARK    1  A    between atoms: C1_2  and  C2_3 
ROOT
ATOM      1  C2  UNL d   1      -1.097  -0.389   0.103  0.00  0.00    -0.077 A 
ATOM      2  C3  UNL d   1      -0.291   0.369  -0.757  0.00  0.00     0.002 A 
ATOM      3  C4  UNL d   1       1.096   0.383  -0.597  0.00  0.00     0.002 A 
ATOM      4  C5  UNL d   1       1.688  -0.363   0.420  0.00  0.00    -0.004 A 
ATOM      5  C6  UNL d   1       0.895  -1.119   1.282  0.00  0.00     0.002 A 
ATOM      6  C7  UNL d   1      -0.492  -1.133   1.124  0.00  0.00     0.002 A 
ENDROOT
BRANCH   1   7
ATOM      7  C1  UNL d   1      -2.589  -0.444  -0.099  0.00  0.00     0.055 C 
ATOM      8  C   UNL d   1      -2.946  -1.142  -1.404  0.00  0.00     0.019 C 
ENDBRANCH   1   7
TORSDOF 1
ENDMDL
