MODEL 1
REMARK minimizedAffinity -4.90590191
REMARK minimizedRMSD -1
REMARK  1 active torsions:
REMARK  status: ('A' for Active; 'I' for Inactive)
REMARK    1  A    between atoms: C1_2  and  C2_3 
ROOT
ATOM      1  C2  UNL d   1      -0.162  -0.326  -0.055  0.00  0.00    -0.077 A 
ATOM      2  C3  UNL d   1      -0.930  -1.094   0.832  0.00  0.00     0.002 A 
ATOM      3  C4  UNL d   1      -2.310  -1.208   0.654  0.00  0.00     0.002 A 
ATOM      4  C5  UNL d   1      -2.933  -0.561  -0.412  0.00  0.00    -0.004 A 
ATOM      5  C6  UNL d   1      -2.178   0.207  -1.297  0.00  0.00     0.002 A 
ATOM      6  C7  UNL d   1      -0.798   0.323  -1.120  0.00  0.00     0.002 A 
ENDROOT
BRANCH   1   7
ATOM      7  C1  UNL d   1       1.334  -0.242   0.107  0.00  0.00     0.055 C 
ATOM      8  C   UNL d   1       1.813   1.202   0.081  0.00  0.00     0.019 C 
ENDBRANCH   1   7
TORSDOF 1
ENDMDL
