MODEL 1
REMARK minimizedAffinity -3.84608698
REMARK minimizedRMSD -1
REMARK  1 active torsions:
REMARK  status: ('A' for Active; 'I' for Inactive)
REMARK    1  A    between atoms: C1_2  and  C2_3 
ROOT
ATOM      1  C2  UNL d   1       0.324  -0.295   0.065  0.00  0.00    -0.077 A 
ATOM      2  C3  UNL d   1      -0.504  -1.010   0.941  0.00  0.00     0.002 A 
ATOM      3  C4  UNL d   1      -1.812  -1.333   0.572  0.00  0.00     0.002 A 
ATOM      4  C5  UNL d   1      -2.300  -0.950  -0.676  0.00  0.00    -0.004 A 
ATOM      5  C6  UNL d   1      -1.484  -0.236  -1.553  0.00  0.00     0.002 A 
ATOM      6  C7  UNL d   1      -0.178   0.089  -1.185  0.00  0.00     0.002 A 
ENDROOT
BRANCH   1   7
ATOM      7  C1  UNL d   1       1.750   0.011   0.442  0.00  0.00     0.055 C 
ATOM      8  C   UNL d   1       1.858   1.352   1.154  0.00  0.00     0.019 C 
ENDBRANCH   1   7
TORSDOF 1
ENDMDL
