MODEL 1
REMARK minimizedAffinity -5.81711674
REMARK minimizedRMSD -1
REMARK  1 active torsions:
REMARK  status: ('A' for Active; 'I' for Inactive)
REMARK    1  A    between atoms: C1_2  and  C2_3 
ROOT
ATOM      1  C2  UNL d   1      -1.312  -0.654  -0.486  0.00  0.00    -0.077 A 
ATOM      2  C3  UNL d   1      -0.253   0.066  -1.058  0.00  0.00     0.002 A 
ATOM      3  C4  UNL d   1       0.980   0.142  -0.409  0.00  0.00     0.002 A 
ATOM      4  C5  UNL d   1       1.169  -0.502   0.812  0.00  0.00    -0.004 A 
ATOM      5  C6  UNL d   1       0.122  -1.219   1.389  0.00  0.00     0.002 A 
ATOM      6  C7  UNL d   1      -1.113  -1.296   0.743  0.00  0.00     0.002 A 
ENDROOT
BRANCH   1   7
ATOM      7  C1  UNL d   1      -2.628  -0.779  -1.208  0.00  0.00     0.055 C 
ATOM      8  C   UNL d   1      -3.638  -1.566  -0.386  0.00  0.00     0.019 C 
ENDBRANCH   1   7
TORSDOF 1
ENDMDL
