MODEL 1
REMARK minimizedAffinity -3.08268404
REMARK minimizedRMSD -1
REMARK  1 active torsions:
REMARK  status: ('A' for Active; 'I' for Inactive)
REMARK    1  A    between atoms: C1_2  and  C2_3 
ROOT
ATOM      1  C2  UNL d   1      -1.063  -0.239   0.433  0.00  0.00    -0.077 A 
ATOM      2  C3  UNL d   1      -0.255  -1.013   1.278  0.00  0.00     0.002 A 
ATOM      3  C4  UNL d   1       1.121  -1.097   1.056  0.00  0.00     0.002 A 
ATOM      4  C5  UNL d   1       1.701  -0.407  -0.006  0.00  0.00    -0.004 A 
ATOM      5  C6  UNL d   1       0.906   0.364  -0.853  0.00  0.00     0.002 A 
ATOM      6  C7  UNL d   1      -0.470   0.448  -0.634  0.00  0.00     0.002 A 
ENDROOT
BRANCH   1   7
ATOM      7  C1  UNL d   1      -2.539  -0.107   0.699  0.00  0.00     0.055 C 
ATOM      8  C   UNL d   1      -3.357  -0.908  -0.304  0.00  0.00     0.019 C 
ENDBRANCH   1   7
TORSDOF 1
ENDMDL
