MODEL 1
REMARK minimizedAffinity 0.207411394
REMARK minimizedRMSD -1
REMARK  1 active torsions:
REMARK  status: ('A' for Active; 'I' for Inactive)
REMARK    1  A    between atoms: C1_2  and  C2_3 
ROOT
ATOM      1  C2  UNL d   1       0.302  -0.299   0.239  0.00  0.00    -0.077 A 
ATOM      2  C3  UNL d   1       0.775  -1.381   0.995  0.00  0.00     0.002 A 
ATOM      3  C4  UNL d   1      -0.082  -2.065   1.860  0.00  0.00     0.002 A 
ATOM      4  C5  UNL d   1      -1.415  -1.678   1.973  0.00  0.00    -0.004 A 
ATOM      5  C6  UNL d   1      -1.894  -0.602   1.227  0.00  0.00     0.002 A 
ATOM      6  C7  UNL d   1      -1.039   0.084   0.363  0.00  0.00     0.002 A 
ENDROOT
BRANCH   1   7
ATOM      7  C1  UNL d   1       1.212   0.409  -0.731  0.00  0.00     0.055 C 
ATOM      8  C   UNL d   1       0.765   0.191  -2.170  0.00  0.00     0.019 C 
ENDBRANCH   1   7
TORSDOF 1
ENDMDL
