MODEL 1
REMARK minimizedAffinity -2.06032681
REMARK minimizedRMSD -1
REMARK  1 active torsions:
REMARK  status: ('A' for Active; 'I' for Inactive)
REMARK    1  A    between atoms: C1_2  and  C2_3 
ROOT
ATOM      1  C2  UNL d   1      -0.279  -0.365  -0.214  0.00  0.00    -0.077 A 
ATOM      2  C3  UNL d   1      -1.013  -0.418   0.980  0.00  0.00     0.002 A 
ATOM      3  C4  UNL d   1      -2.354  -0.808   0.968  0.00  0.00     0.002 A 
ATOM      4  C5  UNL d   1      -2.970  -1.152  -0.233  0.00  0.00    -0.004 A 
ATOM      5  C6  UNL d   1      -2.250  -1.100  -1.426  0.00  0.00     0.002 A 
ATOM      6  C7  UNL d   1      -0.910  -0.710  -1.416  0.00  0.00     0.002 A 
ENDROOT
BRANCH   1   7
ATOM      7  C1  UNL d   1       1.180   0.008  -0.197  0.00  0.00     0.055 C 
ATOM      8  C   UNL d   1       1.414   1.295   0.581  0.00  0.00     0.019 C 
ENDBRANCH   1   7
TORSDOF 1
ENDMDL
