MODEL 1
REMARK minimizedAffinity -1.80018127
REMARK minimizedRMSD -1
REMARK  1 active torsions:
REMARK  status: ('A' for Active; 'I' for Inactive)
REMARK    1  A    between atoms: N_2  and  C1_3 
ROOT
ATOM      1  C1  UNL d   1       0.649  -0.186   0.018  0.00  0.00     0.143 A 
ATOM      2  C2  UNL d   1       1.587   0.849   0.107  0.00  0.00    -0.057 A 
ATOM      3  C3  UNL d   1       2.711   0.740   0.934  0.00  0.00     0.033 A 
ATOM      4  C4  UNL d   1       2.904  -0.397   1.711  0.00  0.00    -0.042 A 
ATOM      5  C5  UNL d   1       1.972  -1.428   1.657  0.00  0.00     0.033 A 
ATOM      6  C6  UNL d   1       0.854  -1.316   0.825  0.00  0.00    -0.057 A 
ENDROOT
BRANCH   1   7
ATOM      7  N   UNL d   1      -0.540  -0.097  -0.709  0.00  0.00    -0.732 N 
ATOM      8  C   UNL d   1      -1.821  -0.156  -0.039  0.00  0.00     0.284 C 
ATOM      9  H3  UNL d   1      -0.491   0.598  -1.451  0.00  0.00     0.395 HD
ENDBRANCH   1   7
TORSDOF 1
ENDMDL
