MODEL 1
REMARK minimizedAffinity -3.56625247
REMARK minimizedRMSD -1
REMARK  1 active torsions:
REMARK  status: ('A' for Active; 'I' for Inactive)
REMARK    1  A    between atoms: N_2  and  C1_3 
ROOT
ATOM      1  C1  UNL d   1       1.412   0.307   0.765  0.00  0.00     0.143 A 
ATOM      2  C2  UNL d   1       0.531   1.267   0.256  0.00  0.00    -0.057 A 
ATOM      3  C3  UNL d   1      -0.823   0.974   0.050  0.00  0.00     0.033 A 
ATOM      4  C4  UNL d   1      -1.315  -0.298   0.324  0.00  0.00    -0.042 A 
ATOM      5  C5  UNL d   1      -0.452  -1.275   0.807  0.00  0.00     0.033 A 
ATOM      6  C6  UNL d   1       0.898  -0.974   1.016  0.00  0.00    -0.057 A 
ENDROOT
BRANCH   1   7
ATOM      7  N   UNL d   1       2.788   0.508   0.898  0.00  0.00    -0.732 N 
ATOM      8  C   UNL d   1       3.672  -0.605   1.173  0.00  0.00     0.284 C 
ATOM      9  H3  UNL d   1       3.152   1.169   0.216  0.00  0.00     0.395 HD
ENDBRANCH   1   7
TORSDOF 1
ENDMDL
