MODEL 1
REMARK minimizedAffinity -3.8854692
REMARK minimizedRMSD -1
REMARK  1 active torsions:
REMARK  status: ('A' for Active; 'I' for Inactive)
REMARK    1  A    between atoms: N_2  and  C1_3 
ROOT
ATOM      1  C1  UNL d   1      -0.830   0.614  -0.567  0.00  0.00     0.143 A 
ATOM      2  C2  UNL d   1      -0.532  -0.678  -0.122  0.00  0.00    -0.057 A 
ATOM      3  C3  UNL d   1       0.764  -1.029   0.275  0.00  0.00     0.033 A 
ATOM      4  C4  UNL d   1       1.795  -0.097   0.207  0.00  0.00    -0.042 A 
ATOM      5  C5  UNL d   1       1.527   1.186  -0.256  0.00  0.00     0.033 A 
ATOM      6  C6  UNL d   1       0.229   1.532  -0.645  0.00  0.00    -0.057 A 
ENDROOT
BRANCH   1   7
ATOM      7  N   UNL d   1      -2.077   0.996  -1.068  0.00  0.00    -0.732 N 
ATOM      8  C   UNL d   1      -2.548   0.486  -2.338  0.00  0.00     0.284 C 
ATOM      9  H3  UNL d   1      -2.791   1.035  -0.345  0.00  0.00     0.395 HD
ENDBRANCH   1   7
TORSDOF 1
ENDMDL
