MODEL 1
REMARK minimizedAffinity -4.59406614
REMARK minimizedRMSD -1
REMARK  1 active torsions:
REMARK  status: ('A' for Active; 'I' for Inactive)
REMARK    1  A    between atoms: N_2  and  C1_3 
ROOT
ATOM      1  C1  UNL d   1       0.634  -1.047   0.479  0.00  0.00     0.143 A 
ATOM      2  C2  UNL d   1       1.722  -0.181   0.325  0.00  0.00    -0.057 A 
ATOM      3  C3  UNL d   1       2.871  -0.311   1.115  0.00  0.00     0.033 A 
ATOM      4  C4  UNL d   1       2.941  -1.296   2.095  0.00  0.00    -0.042 A 
ATOM      5  C5  UNL d   1       1.862  -2.152   2.282  0.00  0.00     0.033 A 
ATOM      6  C6  UNL d   1       0.719  -2.021   1.486  0.00  0.00    -0.057 A 
ENDROOT
BRANCH   1   7
ATOM      7  N   UNL d   1      -0.575  -0.906  -0.207  0.00  0.00    -0.732 N 
ATOM      8  C   UNL d   1      -1.072   0.405  -0.563  0.00  0.00     0.284 C 
ATOM      9  H3  UNL d   1      -0.691  -1.607  -0.936  0.00  0.00     0.395 HD
ENDBRANCH   1   7
TORSDOF 1
ENDMDL
