MODEL 1
REMARK minimizedAffinity -2.21589017
REMARK minimizedRMSD -1
REMARK  0 active torsions:
REMARK  status: ('A' for Active; 'I' for Inactive)
ROOT
ATOM      1  C   UNL d   1      -2.870   0.999   0.748  0.00  0.00     0.172 C 
ATOM      2  N   UNL d   1      -1.599   0.424   0.374  0.00  0.00    -0.070 N 
ATOM      3  C1  UNL d   1      -0.643   1.032  -0.395  0.00  0.00    -0.004 A 
ATOM      4  C2  UNL d   1       0.416   0.159  -0.521  0.00  0.00    -0.047 A 
ATOM      5  C3  UNL d   1       0.084  -1.015   0.196  0.00  0.00    -0.047 A 
ATOM      6  C4  UNL d   1      -1.169  -0.824   0.740  0.00  0.00    -0.004 A 
ENDROOT
TORSDOF 0
ENDMDL
