MODEL 1
REMARK minimizedAffinity 0.059853781
REMARK minimizedRMSD -1
REMARK  0 active torsions:
REMARK  status: ('A' for Active; 'I' for Inactive)
ROOT
ATOM      1  C   UNL d   1      -3.591   0.591   1.027  0.00  0.00     0.172 C 
ATOM      2  N   UNL d   1      -2.177   0.735   0.775  0.00  0.00    -0.070 N 
ATOM      3  C1  UNL d   1      -1.445  -0.006  -0.114  0.00  0.00    -0.004 A 
ATOM      4  C2  UNL d   1      -0.141   0.436  -0.059  0.00  0.00    -0.047 A 
ATOM      5  C3  UNL d   1      -0.087   1.478   0.897  0.00  0.00    -0.047 A 
ATOM      6  C4  UNL d   1      -1.361   1.643   1.398  0.00  0.00    -0.004 A 
ENDROOT
TORSDOF 0
ENDMDL
