MODEL 1
REMARK minimizedAffinity -0.516524076
REMARK minimizedRMSD -1
REMARK  0 active torsions:
REMARK  status: ('A' for Active; 'I' for Inactive)
ROOT
ATOM      1  C   UNL d   1      -2.717   0.740   0.142  0.00  0.00     0.172 C 
ATOM      2  N   UNL d   1      -1.373   0.263  -0.085  0.00  0.00    -0.070 N 
ATOM      3  C1  UNL d   1      -0.998  -1.050  -0.183  0.00  0.00    -0.004 A 
ATOM      4  C2  UNL d   1       0.362  -1.086  -0.401  0.00  0.00    -0.047 A 
ATOM      5  C3  UNL d   1       0.821   0.252  -0.434  0.00  0.00    -0.047 A 
ATOM      6  C4  UNL d   1      -0.274   1.067  -0.236  0.00  0.00    -0.004 A 
ENDROOT
TORSDOF 0
ENDMDL
