MODEL 1
REMARK minimizedAffinity -3.12665391
REMARK minimizedRMSD -1
REMARK  0 active torsions:
REMARK  status: ('A' for Active; 'I' for Inactive)
ROOT
ATOM      1  C   UNL d   1      -0.533   0.306  -0.346  0.00  0.00     0.172 C 
ATOM      2  N   UNL d   1       0.845   0.250   0.081  0.00  0.00    -0.070 N 
ATOM      3  C1  UNL d   1       1.542   1.275   0.664  0.00  0.00    -0.004 A 
ATOM      4  C2  UNL d   1       2.819   0.824   0.922  0.00  0.00    -0.047 A 
ATOM      5  C3  UNL d   1       2.892  -0.518   0.477  0.00  0.00    -0.047 A 
ATOM      6  C4  UNL d   1       1.656  -0.847  -0.039  0.00  0.00    -0.004 A 
ENDROOT
TORSDOF 0
ENDMDL
