MODEL 1
REMARK minimizedAffinity -4.09268332
REMARK minimizedRMSD -1
REMARK  0 active torsions:
REMARK  status: ('A' for Active; 'I' for Inactive)
ROOT
ATOM      1  C   UNL d   1       2.552  -1.124   0.364  0.00  0.00     0.172 C 
ATOM      2  N   UNL d   1       3.251   0.126   0.184  0.00  0.00    -0.070 N 
ATOM      3  C1  UNL d   1       4.208   0.377  -0.764  0.00  0.00    -0.004 A 
ATOM      4  C2  UNL d   1       4.626   1.680  -0.607  0.00  0.00    -0.047 A 
ATOM      5  C3  UNL d   1       3.896   2.232   0.473  0.00  0.00    -0.047 A 
ATOM      6  C4  UNL d   1       3.052   1.249   0.943  0.00  0.00    -0.004 A 
ENDROOT
TORSDOF 0
ENDMDL
