MODEL 1
REMARK minimizedAffinity -3.74496484
REMARK minimizedRMSD -1
REMARK  0 active torsions:
REMARK  status: ('A' for Active; 'I' for Inactive)
ROOT
ATOM      1  C   UNL d   1       1.087   1.929  -0.137  0.00  0.00     0.172 C 
ATOM      2  N   UNL d   1       1.190   0.493  -0.019  0.00  0.00    -0.070 N 
ATOM      3  C1  UNL d   1       0.140  -0.386  -0.023  0.00  0.00    -0.004 A 
ATOM      4  C2  UNL d   1       0.654  -1.658   0.110  0.00  0.00    -0.047 A 
ATOM      5  C3  UNL d   1       2.061  -1.539   0.198  0.00  0.00    -0.047 A 
ATOM      6  C4  UNL d   1       2.366  -0.197   0.116  0.00  0.00    -0.004 A 
ENDROOT
TORSDOF 0
ENDMDL
