MODEL 1
REMARK minimizedAffinity -3.80621958
REMARK minimizedRMSD -1
REMARK  0 active torsions:
REMARK  status: ('A' for Active; 'I' for Inactive)
ROOT
ATOM      1  C   UNL d   1      -0.358   0.705  -0.246  0.00  0.00     0.172 C 
ATOM      2  N   UNL d   1       0.889   0.084   0.134  0.00  0.00    -0.070 N 
ATOM      3  C1  UNL d   1       2.060   0.743   0.399  0.00  0.00    -0.004 A 
ATOM      4  C2  UNL d   1       3.010  -0.201   0.725  0.00  0.00    -0.047 A 
ATOM      5  C3  UNL d   1       2.389  -1.470   0.652  0.00  0.00    -0.047 A 
ATOM      6  C4  UNL d   1       1.076  -1.265   0.284  0.00  0.00    -0.004 A 
ENDROOT
TORSDOF 0
ENDMDL
