MODEL 1
REMARK minimizedAffinity -3.74822545
REMARK minimizedRMSD -1
REMARK  0 active torsions:
REMARK  status: ('A' for Active; 'I' for Inactive)
ROOT
ATOM      1  C   UNL d   1      -0.358   1.001  -0.735  0.00  0.00     0.172 C 
ATOM      2  N   UNL d   1       0.574  -0.076  -0.499  0.00  0.00    -0.070 N 
ATOM      3  C1  UNL d   1       0.501  -1.329  -1.046  0.00  0.00    -0.004 A 
ATOM      4  C2  UNL d   1       1.572  -2.058  -0.576  0.00  0.00    -0.047 A 
ATOM      5  C3  UNL d   1       2.314  -1.213   0.284  0.00  0.00    -0.047 A 
ATOM      6  C4  UNL d   1       1.674   0.008   0.313  0.00  0.00    -0.004 A 
ENDROOT
TORSDOF 0
ENDMDL
