MODEL 1
REMARK minimizedAffinity -2.76674509
REMARK minimizedRMSD -1
REMARK  0 active torsions:
REMARK  status: ('A' for Active; 'I' for Inactive)
ROOT
ATOM      1  C   UNL d   1       2.308  -1.472  -0.178  0.00  0.00     0.172 C 
ATOM      2  N   UNL d   1       0.956  -0.965  -0.213  0.00  0.00    -0.070 N 
ATOM      3  C1  UNL d   1       0.122  -0.991  -1.298  0.00  0.00    -0.004 A 
ATOM      4  C2  UNL d   1      -1.073  -0.414  -0.926  0.00  0.00    -0.047 A 
ATOM      5  C3  UNL d   1      -0.953  -0.027   0.430  0.00  0.00    -0.047 A 
ATOM      6  C4  UNL d   1       0.314  -0.380   0.846  0.00  0.00    -0.004 A 
ENDROOT
TORSDOF 0
ENDMDL
