MODEL 1
REMARK minimizedAffinity -3.76313329
REMARK minimizedRMSD -1
REMARK  0 active torsions:
REMARK  status: ('A' for Active; 'I' for Inactive)
ROOT
ATOM      1  C   UNL d   1       0.070  -1.171  -0.578  0.00  0.00     0.172 C 
ATOM      2  N   UNL d   1       1.347  -0.797  -0.016  0.00  0.00    -0.070 N 
ATOM      3  C1  UNL d   1       2.498  -1.536  -0.089  0.00  0.00    -0.004 A 
ATOM      4  C2  UNL d   1       3.489  -0.837   0.566  0.00  0.00    -0.047 A 
ATOM      5  C3  UNL d   1       2.913   0.362   1.049  0.00  0.00    -0.047 A 
ATOM      6  C4  UNL d   1       1.586   0.361   0.675  0.00  0.00    -0.004 A 
ENDROOT
TORSDOF 0
ENDMDL
