MODEL 1
REMARK minimizedAffinity 0.901047289
REMARK minimizedRMSD -1
REMARK  0 active torsions:
REMARK  status: ('A' for Active; 'I' for Inactive)
ROOT
ATOM      1  C   UNL d   1       5.999  -2.868   5.778  0.00  0.00     0.020 A 
ATOM      2  C1  UNL d   1       5.987  -3.739   4.690  0.00  0.00     0.020 A 
ATOM      3  C2  UNL d   1       4.894  -3.757   3.821  0.00  0.00     0.034 A 
ATOM      4  C3  UNL d   1       3.808  -2.902   4.039  0.00  0.00     0.017 A 
ATOM      5  C4  UNL d   1       3.820  -2.027   5.132  0.00  0.00     0.017 A 
ATOM      6  C5  UNL d   1       4.917  -2.013   5.998  0.00  0.00     0.034 A 
ATOM      7 Cl   UNL d   1       2.517  -0.942   5.466  0.00  0.00    -0.070 Cl
ATOM      8 Cl1  UNL d   1       2.489  -2.977   2.924  0.00  0.00    -0.070 Cl
ENDROOT
TORSDOF 0
ENDMDL
