MODEL 1
REMARK minimizedAffinity 6.43325424
REMARK minimizedRMSD -1
REMARK  0 active torsions:
REMARK  status: ('A' for Active; 'I' for Inactive)
ROOT
ATOM      1  C   UNL d   1      -1.429  -1.511   5.617  0.00  0.00     0.020 A 
ATOM      2  C1  UNL d   1      -0.200  -0.974   6.000  0.00  0.00     0.020 A 
ATOM      3  C2  UNL d   1       0.932  -1.188   5.211  0.00  0.00     0.034 A 
ATOM      4  C3  UNL d   1       0.838  -1.940   4.034  0.00  0.00     0.017 A 
ATOM      5  C4  UNL d   1      -0.395  -2.478   3.650  0.00  0.00     0.017 A 
ATOM      6  C5  UNL d   1      -1.526  -2.262   4.444  0.00  0.00     0.034 A 
ATOM      7 Cl   UNL d   1      -0.590  -3.417   2.212  0.00  0.00    -0.070 Cl
ATOM      8 Cl1  UNL d   1       2.279  -2.163   3.106  0.00  0.00    -0.070 Cl
ENDROOT
TORSDOF 0
ENDMDL
