MODEL 1
REMARK minimizedAffinity 1.76396632
REMARK minimizedRMSD -1
REMARK  0 active torsions:
REMARK  status: ('A' for Active; 'I' for Inactive)
ROOT
ATOM      1  C   UNL d   1       5.970   5.297  -4.501  0.00  0.00     0.020 A 
ATOM      2  C1  UNL d   1       6.000   5.998  -3.296  0.00  0.00     0.020 A 
ATOM      3  C2  UNL d   1       5.036   5.746  -2.318  0.00  0.00     0.034 A 
ATOM      4  C3  UNL d   1       4.038   4.790  -2.542  0.00  0.00     0.017 A 
ATOM      5  C4  UNL d   1       4.010   4.086  -3.751  0.00  0.00     0.017 A 
ATOM      6  C5  UNL d   1       4.977   4.343  -4.728  0.00  0.00     0.034 A 
ATOM      7 Cl   UNL d   1       2.810   2.892  -4.100  0.00  0.00    -0.070 Cl
ATOM      8 Cl1  UNL d   1       2.879   4.530  -1.288  0.00  0.00    -0.070 Cl
ENDROOT
TORSDOF 0
ENDMDL
