MODEL 1
REMARK minimizedAffinity 7.40615225
REMARK minimizedRMSD -1
REMARK  0 active torsions:
REMARK  status: ('A' for Active; 'I' for Inactive)
ROOT
ATOM      1  C   UNL d   1      -0.793  -2.220  -2.066  0.00  0.00     0.020 A 
ATOM      2  C1  UNL d   1      -1.945  -2.794  -1.529  0.00  0.00     0.020 A 
ATOM      3  C2  UNL d   1      -2.039  -3.014  -0.154  0.00  0.00     0.034 A 
ATOM      4  C3  UNL d   1      -0.980  -2.661   0.690  0.00  0.00     0.017 A 
ATOM      5  C4  UNL d   1       0.176  -2.085   0.151  0.00  0.00     0.017 A 
ATOM      6  C5  UNL d   1       0.265  -1.866  -1.227  0.00  0.00     0.034 A 
ATOM      7 Cl   UNL d   1       1.524  -1.622   1.129  0.00  0.00    -0.070 Cl
ATOM      8 Cl1  UNL d   1      -1.166  -2.962   2.382  0.00  0.00    -0.070 Cl
ENDROOT
TORSDOF 0
ENDMDL
