MODEL 1
REMARK minimizedAffinity 0.907037795
REMARK minimizedRMSD -1
REMARK  0 active torsions:
REMARK  status: ('A' for Active; 'I' for Inactive)
ROOT
ATOM      1  C   UNL d   1       5.438   4.126  -4.875  0.00  0.00     0.020 A 
ATOM      2  C1  UNL d   1       4.095   3.754  -4.838  0.00  0.00     0.020 A 
ATOM      3  C2  UNL d   1       3.313   4.074  -3.726  0.00  0.00     0.034 A 
ATOM      4  C3  UNL d   1       3.873   4.768  -2.648  0.00  0.00     0.017 A 
ATOM      5  C4  UNL d   1       5.221   5.141  -2.686  0.00  0.00     0.017 A 
ATOM      6  C5  UNL d   1       6.000   4.818  -3.802  0.00  0.00     0.034 A 
ATOM      7 Cl   UNL d   1       5.982   6.000  -1.394  0.00  0.00    -0.070 Cl
ATOM      8 Cl1  UNL d   1       2.846   5.131  -1.306  0.00  0.00    -0.070 Cl
ENDROOT
TORSDOF 0
ENDMDL
