MODEL 1
REMARK minimizedAffinity 4.68390894
REMARK minimizedRMSD -1
REMARK  0 active torsions:
REMARK  status: ('A' for Active; 'I' for Inactive)
ROOT
ATOM      1  C   UNL d   1      -0.224  -3.004  -3.805  0.00  0.00     0.020 A 
ATOM      2  C1  UNL d   1      -0.391  -1.878  -3.001  0.00  0.00     0.020 A 
ATOM      3  C2  UNL d   1      -0.441  -2.013  -1.612  0.00  0.00     0.034 A 
ATOM      4  C3  UNL d   1      -0.324  -3.277  -1.023  0.00  0.00     0.017 A 
ATOM      5  C4  UNL d   1      -0.156  -4.407  -1.831  0.00  0.00     0.017 A 
ATOM      6  C5  UNL d   1      -0.107  -4.266  -3.221  0.00  0.00     0.034 A 
ATOM      7 Cl   UNL d   1      -0.005  -6.000  -1.177  0.00  0.00    -0.070 Cl
ATOM      8 Cl1  UNL d   1      -0.394  -3.369   0.701  0.00  0.00    -0.070 Cl
ENDROOT
TORSDOF 0
ENDMDL
