MODEL 1
REMARK minimizedAffinity 11.9778652
REMARK minimizedRMSD -1
REMARK  0 active torsions:
REMARK  status: ('A' for Active; 'I' for Inactive)
ROOT
ATOM      1  C   UNL d   1      -1.880   3.085   2.247  0.00  0.00     0.020 A 
ATOM      2  C1  UNL d   1      -1.362   2.451   1.119  0.00  0.00     0.020 A 
ATOM      3  C2  UNL d   1      -0.176   2.910   0.543  0.00  0.00     0.034 A 
ATOM      4  C3  UNL d   1       0.497   4.006   1.095  0.00  0.00     0.017 A 
ATOM      5  C4  UNL d   1      -0.024   4.642   2.228  0.00  0.00     0.017 A 
ATOM      6  C5  UNL d   1      -1.212   4.178   2.801  0.00  0.00     0.034 A 
ATOM      7 Cl   UNL d   1       0.749   6.000   2.967  0.00  0.00    -0.070 Cl
ATOM      8 Cl1  UNL d   1       1.959   4.520   0.332  0.00  0.00    -0.070 Cl
ENDROOT
TORSDOF 0
ENDMDL
