MODEL 1
REMARK minimizedAffinity 8.44202328
REMARK minimizedRMSD -1
REMARK  0 active torsions:
REMARK  status: ('A' for Active; 'I' for Inactive)
ROOT
ATOM      1  C   UNL d   1      -0.144  -3.740  -3.524  0.00  0.00     0.020 A 
ATOM      2  C1  UNL d   1       0.771  -2.691  -3.602  0.00  0.00     0.020 A 
ATOM      3  C2  UNL d   1       0.754  -1.677  -2.642  0.00  0.00     0.034 A 
ATOM      4  C3  UNL d   1      -0.180  -1.709  -1.601  0.00  0.00     0.017 A 
ATOM      5  C4  UNL d   1      -1.099  -2.762  -1.524  0.00  0.00     0.017 A 
ATOM      6  C5  UNL d   1      -1.077  -3.775  -2.487  0.00  0.00     0.034 A 
ATOM      7 Cl   UNL d   1      -2.282  -2.870  -0.268  0.00  0.00    -0.070 Cl
ATOM      8 Cl1  UNL d   1      -0.144  -0.422  -0.449  0.00  0.00    -0.070 Cl
ENDROOT
TORSDOF 0
ENDMDL
