MODEL 1
REMARK minimizedAffinity 5.63536692
REMARK minimizedRMSD -1
REMARK  0 active torsions:
REMARK  status: ('A' for Active; 'I' for Inactive)
ROOT
ATOM      1  C   UNL d   1      -0.723  -2.197  -0.082  0.00  0.00     0.020 A 
ATOM      2  C1  UNL d   1      -1.934  -1.951  -0.729  0.00  0.00     0.020 A 
ATOM      3  C2  UNL d   1      -1.977  -1.872  -2.122  0.00  0.00     0.034 A 
ATOM      4  C3  UNL d   1      -0.807  -2.038  -2.873  0.00  0.00     0.017 A 
ATOM      5  C4  UNL d   1       0.407  -2.284  -2.223  0.00  0.00     0.017 A 
ATOM      6  C5  UNL d   1       0.445  -2.363  -0.827  0.00  0.00     0.034 A 
ATOM      7 Cl   UNL d   1       1.892  -2.500  -3.081  0.00  0.00    -0.070 Cl
ATOM      8 Cl1  UNL d   1      -0.934  -1.927  -4.593  0.00  0.00    -0.070 Cl
ENDROOT
TORSDOF 0
ENDMDL
