MODEL 1
REMARK minimizedAffinity 0.713470459
REMARK minimizedRMSD -1
REMARK  0 active torsions:
REMARK  status: ('A' for Active; 'I' for Inactive)
ROOT
ATOM      1  C   UNL d   1       4.510   5.610  -1.805  0.00  0.00     0.020 A 
ATOM      2  C1  UNL d   1       5.559   4.691  -1.824  0.00  0.00     0.020 A 
ATOM      3  C2  UNL d   1       6.000   4.159  -3.037  0.00  0.00     0.034 A 
ATOM      4  C3  UNL d   1       5.392   4.545  -4.237  0.00  0.00     0.017 A 
ATOM      5  C4  UNL d   1       4.339   5.467  -4.218  0.00  0.00     0.017 A 
ATOM      6  C5  UNL d   1       3.902   5.997  -3.000  0.00  0.00     0.034 A 
ATOM      7 Cl   UNL d   1       3.540   5.992  -5.658  0.00  0.00    -0.070 Cl
ATOM      8 Cl1  UNL d   1       5.989   3.847  -5.701  0.00  0.00    -0.070 Cl
ENDROOT
TORSDOF 0
ENDMDL
