MODEL 1
REMARK minimizedAffinity 10.2691574
REMARK minimizedRMSD -1
REMARK  0 active torsions:
REMARK  status: ('A' for Active; 'I' for Inactive)
ROOT
ATOM      1  C   UNL d   1      -0.032  -2.081  -0.867  0.00  0.00     0.020 A 
ATOM      2  C1  UNL d   1      -1.273  -2.019  -1.498  0.00  0.00     0.020 A 
ATOM      3  C2  UNL d   1      -1.348  -2.026  -2.893  0.00  0.00     0.034 A 
ATOM      4  C3  UNL d   1      -0.180  -2.093  -3.660  0.00  0.00     0.017 A 
ATOM      5  C4  UNL d   1       1.066  -2.154  -3.025  0.00  0.00     0.017 A 
ATOM      6  C5  UNL d   1       1.135  -2.148  -1.628  0.00  0.00     0.034 A 
ATOM      7 Cl   UNL d   1       2.551  -2.240  -3.904  0.00  0.00    -0.070 Cl
ATOM      8 Cl1  UNL d   1      -0.347  -2.097  -5.380  0.00  0.00    -0.070 Cl
ENDROOT
TORSDOF 0
ENDMDL
