MODEL 1
REMARK minimizedAffinity 1.9939177
REMARK minimizedRMSD -1
REMARK  0 active torsions:
REMARK  status: ('A' for Active; 'I' for Inactive)
ROOT
ATOM      1  C   UNL d   1      -1.257  -2.158   0.389  0.00  0.00     0.020 A 
ATOM      2  C1  UNL d   1      -0.534  -1.029   0.004  0.00  0.00     0.020 A 
ATOM      3  C2  UNL d   1       0.188  -1.037  -1.191  0.00  0.00     0.034 A 
ATOM      4  C3  UNL d   1       0.190  -2.176  -2.005  0.00  0.00     0.017 A 
ATOM      5  C4  UNL d   1      -0.536  -3.308  -1.618  0.00  0.00     0.017 A 
ATOM      6  C5  UNL d   1      -1.257  -3.295  -0.420  0.00  0.00     0.034 A 
ATOM      7 Cl   UNL d   1      -0.582  -4.750  -2.570  0.00  0.00    -0.070 Cl
ATOM      8 Cl1  UNL d   1       1.105  -2.115  -3.470  0.00  0.00    -0.070 Cl
ENDROOT
TORSDOF 0
ENDMDL
