MODEL 1
REMARK minimizedAffinity 8.57634544
REMARK minimizedRMSD -1
REMARK  0 active torsions:
REMARK  status: ('A' for Active; 'I' for Inactive)
ROOT
ATOM      1  C   UNL d   1      -0.309  -2.742  -0.830  0.00  0.00     0.020 A 
ATOM      2  C1  UNL d   1      -1.468  -2.780  -1.605  0.00  0.00     0.020 A 
ATOM      3  C2  UNL d   1      -1.396  -2.540  -2.979  0.00  0.00     0.034 A 
ATOM      4  C3  UNL d   1      -0.164  -2.263  -3.582  0.00  0.00     0.017 A 
ATOM      5  C4  UNL d   1       0.998  -2.226  -2.803  0.00  0.00     0.017 A 
ATOM      6  C5  UNL d   1       0.921  -2.466  -1.428  0.00  0.00     0.034 A 
ATOM      7 Cl   UNL d   1       2.554  -1.890  -3.475  0.00  0.00    -0.070 Cl
ATOM      8 Cl1  UNL d   1      -0.150  -1.977  -5.286  0.00  0.00    -0.070 Cl
ENDROOT
TORSDOF 0
ENDMDL
