MODEL 1
REMARK minimizedAffinity -1.37407768
REMARK minimizedRMSD -1
REMARK  0 active torsions:
REMARK  status: ('A' for Active; 'I' for Inactive)
ROOT
ATOM      1  C   UNL d   1       4.873   3.737  -5.830  0.00  0.00     0.020 A 
ATOM      2  C1  UNL d   1       5.999   3.633  -5.014  0.00  0.00     0.020 A 
ATOM      3  C2  UNL d   1       6.000   4.221  -3.747  0.00  0.00     0.034 A 
ATOM      4  C3  UNL d   1       4.873   4.916  -3.293  0.00  0.00     0.017 A 
ATOM      5  C4  UNL d   1       3.744   5.020  -4.113  0.00  0.00     0.017 A 
ATOM      6  C5  UNL d   1       3.748   4.429  -5.380  0.00  0.00     0.034 A 
ATOM      7 Cl   UNL d   1       2.316   5.861  -3.621  0.00  0.00    -0.070 Cl
ATOM      8 Cl1  UNL d   1       4.944   5.617  -1.716  0.00  0.00    -0.070 Cl
ENDROOT
TORSDOF 0
ENDMDL
