MODEL 1
REMARK minimizedAffinity 3.596246
REMARK minimizedRMSD -1
REMARK  0 active torsions:
REMARK  status: ('A' for Active; 'I' for Inactive)
ROOT
ATOM      1  C   UNL d   1       0.074  -1.735  -3.173  0.00  0.00     0.020 A 
ATOM      2  C1  UNL d   1       1.366  -2.138  -2.837  0.00  0.00     0.020 A 
ATOM      3  C2  UNL d   1       1.625  -2.670  -1.572  0.00  0.00     0.034 A 
ATOM      4  C3  UNL d   1       0.590  -2.800  -0.638  0.00  0.00     0.017 A 
ATOM      5  C4  UNL d   1      -0.706  -2.396  -0.977  0.00  0.00     0.017 A 
ATOM      6  C5  UNL d   1      -0.960  -1.864  -2.245  0.00  0.00     0.034 A 
ATOM      7 Cl   UNL d   1      -2.035  -2.525   0.122  0.00  0.00    -0.070 Cl
ATOM      8 Cl1  UNL d   1       0.981  -3.466   0.907  0.00  0.00    -0.070 Cl
ENDROOT
TORSDOF 0
ENDMDL
