MODEL 1
REMARK minimizedAffinity 1.79265034
REMARK minimizedRMSD -1
REMARK  0 active torsions:
REMARK  status: ('A' for Active; 'I' for Inactive)
ROOT
ATOM      1  C   UNL d   1       3.114   5.311  -5.038  0.00  0.00     0.020 A 
ATOM      2  C1  UNL d   1       3.113   5.999  -3.825  0.00  0.00     0.020 A 
ATOM      3  C2  UNL d   1       4.012   5.640  -2.818  0.00  0.00     0.034 A 
ATOM      4  C3  UNL d   1       4.915   4.591  -3.022  0.00  0.00     0.017 A 
ATOM      5  C4  UNL d   1       4.915   3.901  -4.239  0.00  0.00     0.017 A 
ATOM      6  C5  UNL d   1       4.013   4.264  -5.244  0.00  0.00     0.034 A 
ATOM      7 Cl   UNL d   1       6.000   2.595  -4.565  0.00  0.00    -0.070 Cl
ATOM      8 Cl1  UNL d   1       5.998   4.201  -1.733  0.00  0.00    -0.070 Cl
ENDROOT
TORSDOF 0
ENDMDL
