MODEL 1
REMARK minimizedAffinity -4.87627554
REMARK minimizedRMSD -1
REMARK  1 active torsions:
REMARK  status: ('A' for Active; 'I' for Inactive)
REMARK    1  A    between atoms: C3_4  and  O_7 
ROOT
ATOM      1  C   UNL d   1      -0.297   0.706  -0.056  0.00  0.00    -0.033 A 
ATOM      2  C1  UNL d   1       0.056  -0.393   0.731  0.00  0.00     0.039 A 
ATOM      3  C2  UNL d   1       1.314  -0.981   0.588  0.00  0.00    -0.080 A 
ATOM      4  C3  UNL d   1       2.209  -0.461  -0.343  0.00  0.00     0.150 A 
ATOM      5  C4  UNL d   1       1.866   0.636  -1.127  0.00  0.00    -0.007 A 
ATOM      6  C5  UNL d   1       0.609   1.221  -0.983  0.00  0.00     0.039 A 
ENDROOT
BRANCH   4   7
ATOM      7  O   UNL d   1       3.447  -1.004  -0.522  0.00  0.00    -0.526 OA
ATOM      8  H5  UNL d   1       3.534  -1.772   0.067  0.00  0.00     0.418 HD
ENDBRANCH   4   7
TORSDOF 1
ENDMDL
