MODEL 1
REMARK minimizedAffinity -5.16649818
REMARK minimizedRMSD -1
REMARK  1 active torsions:
REMARK  status: ('A' for Active; 'I' for Inactive)
REMARK    1  A    between atoms: C3_4  and  O_7 
ROOT
ATOM      1  C   UNL d   1      -0.846   0.144  -0.076  0.00  0.00    -0.033 A 
ATOM      2  C1  UNL d   1       0.022   1.196  -0.375  0.00  0.00     0.039 A 
ATOM      3  C2  UNL d   1       1.359   0.936  -0.681  0.00  0.00    -0.080 A 
ATOM      4  C3  UNL d   1       1.815  -0.380  -0.685  0.00  0.00     0.150 A 
ATOM      5  C4  UNL d   1       0.955  -1.433  -0.392  0.00  0.00    -0.007 A 
ATOM      6  C5  UNL d   1      -0.380  -1.171  -0.086  0.00  0.00     0.039 A 
ENDROOT
BRANCH   4   7
ATOM      7  O   UNL d   1       3.112  -0.683  -0.973  0.00  0.00    -0.526 OA
ATOM      8  H5  UNL d   1       3.595   0.146  -1.127  0.00  0.00     0.418 HD
ENDBRANCH   4   7
TORSDOF 1
ENDMDL
