MODEL 1
REMARK minimizedAffinity -4.72311306
REMARK minimizedRMSD -1
REMARK  1 active torsions:
REMARK  status: ('A' for Active; 'I' for Inactive)
REMARK    1  A    between atoms: C3_4  and  O_7 
ROOT
ATOM      1  C   UNL d   1       1.863   1.865  -0.908  0.00  0.00    -0.033 A 
ATOM      2  C1  UNL d   1       3.012   1.070  -0.907  0.00  0.00     0.039 A 
ATOM      3  C2  UNL d   1       2.905  -0.315  -1.044  0.00  0.00    -0.080 A 
ATOM      4  C3  UNL d   1       1.645  -0.893  -1.181  0.00  0.00     0.150 A 
ATOM      5  C4  UNL d   1       0.498  -0.107  -1.187  0.00  0.00    -0.007 A 
ATOM      6  C5  UNL d   1       0.606   1.276  -1.049  0.00  0.00     0.039 A 
ENDROOT
BRANCH   4   7
ATOM      7  O   UNL d   1       1.490  -2.241  -1.313  0.00  0.00    -0.526 OA
ATOM      8  H5  UNL d   1       2.367  -2.658  -1.263  0.00  0.00     0.418 HD
ENDBRANCH   4   7
TORSDOF 1
ENDMDL
