MODEL 1
REMARK minimizedAffinity -0.487004995
REMARK minimizedRMSD -1
REMARK  1 active torsions:
REMARK  status: ('A' for Active; 'I' for Inactive)
REMARK    1  A    between atoms: C3_4  and  O_7 
ROOT
ATOM      1  C   UNL d   1      -0.985  -0.024   0.026  0.00  0.00    -0.033 A 
ATOM      2  C1  UNL d   1      -0.725  -1.396   0.049  0.00  0.00     0.039 A 
ATOM      3  C2  UNL d   1       0.468  -1.891  -0.480  0.00  0.00    -0.080 A 
ATOM      4  C3  UNL d   1       1.392  -1.005  -1.027  0.00  0.00     0.150 A 
ATOM      5  C4  UNL d   1       1.141   0.363  -1.049  0.00  0.00    -0.007 A 
ATOM      6  C5  UNL d   1      -0.051   0.856  -0.521  0.00  0.00     0.039 A 
ENDROOT
BRANCH   4   7
ATOM      7  O   UNL d   1       2.569  -1.441  -1.560  0.00  0.00    -0.526 OA
ATOM      8  H5  UNL d   1       2.592  -2.411  -1.501  0.00  0.00     0.418 HD
ENDBRANCH   4   7
TORSDOF 1
ENDMDL
