MODEL 1
REMARK minimizedAffinity -4.40339756
REMARK minimizedRMSD -1
REMARK  1 active torsions:
REMARK  status: ('A' for Active; 'I' for Inactive)
REMARK    1  A    between atoms: C3_4  and  O_7 
ROOT
ATOM      1  C   UNL d   1      -0.408  -0.494  -0.316  0.00  0.00    -0.033 A 
ATOM      2  C1  UNL d   1       0.207  -1.743  -0.427  0.00  0.00     0.039 A 
ATOM      3  C2  UNL d   1       1.595  -1.831  -0.553  0.00  0.00    -0.080 A 
ATOM      4  C3  UNL d   1       2.355  -0.665  -0.566  0.00  0.00     0.150 A 
ATOM      5  C4  UNL d   1       1.749   0.582  -0.452  0.00  0.00    -0.007 A 
ATOM      6  C5  UNL d   1       0.363   0.668  -0.327  0.00  0.00     0.039 A 
ENDROOT
BRANCH   4   7
ATOM      7  O   UNL d   1       3.712  -0.701  -0.692  0.00  0.00    -0.526 OA
ATOM      8  H5  UNL d   1       3.988  -1.627  -0.790  0.00  0.00     0.418 HD
ENDBRANCH   4   7
TORSDOF 1
ENDMDL
