MODEL 1
REMARK minimizedAffinity -3.65290928
REMARK minimizedRMSD -1
REMARK  1 active torsions:
REMARK  status: ('A' for Active; 'I' for Inactive)
REMARK    1  A    between atoms: C3_4  and  O_7 
ROOT
ATOM      1  C   UNL d   1       2.802   0.203  -2.472  0.00  0.00    -0.033 A 
ATOM      2  C1  UNL d   1       1.890   1.260  -2.436  0.00  0.00     0.039 A 
ATOM      3  C2  UNL d   1       0.821   1.231  -1.539  0.00  0.00    -0.080 A 
ATOM      4  C3  UNL d   1       0.676   0.142  -0.684  0.00  0.00     0.150 A 
ATOM      5  C4  UNL d   1       1.583  -0.912  -0.712  0.00  0.00    -0.007 A 
ATOM      6  C5  UNL d   1       2.650  -0.882  -1.609  0.00  0.00     0.039 A 
ENDROOT
BRANCH   4   7
ATOM      7  O   UNL d   1      -0.355   0.067   0.206  0.00  0.00    -0.526 OA
ATOM      8  H5  UNL d   1      -0.917   0.851   0.092  0.00  0.00     0.418 HD
ENDBRANCH   4   7
TORSDOF 1
ENDMDL
