MODEL 1
REMARK minimizedAffinity -4.84579897
REMARK minimizedRMSD -1
REMARK  1 active torsions:
REMARK  status: ('A' for Active; 'I' for Inactive)
REMARK    1  A    between atoms: C3_4  and  O_7 
ROOT
ATOM      1  C   UNL d   1       0.113  -0.506   0.515  0.00  0.00    -0.033 A 
ATOM      2  C1  UNL d   1       0.330  -1.229  -0.660  0.00  0.00     0.039 A 
ATOM      3  C2  UNL d   1       1.570  -1.170  -1.299  0.00  0.00    -0.080 A 
ATOM      4  C3  UNL d   1       2.584  -0.387  -0.754  0.00  0.00     0.150 A 
ATOM      5  C4  UNL d   1       2.376   0.333   0.418  0.00  0.00    -0.007 A 
ATOM      6  C5  UNL d   1       1.137   0.274   1.055  0.00  0.00     0.039 A 
ENDROOT
BRANCH   4   7
ATOM      7  O   UNL d   1       3.809  -0.294  -1.344  0.00  0.00    -0.526 OA
ATOM      8  H5  UNL d   1       3.797  -0.822  -2.161  0.00  0.00     0.418 HD
ENDBRANCH   4   7
TORSDOF 1
ENDMDL
