MODEL 1
REMARK minimizedAffinity -5.11842871
REMARK minimizedRMSD -1
REMARK  1 active torsions:
REMARK  status: ('A' for Active; 'I' for Inactive)
REMARK    1  A    between atoms: C3_4  and  O_7 
ROOT
ATOM      1  C   UNL d   1       2.833  -0.779  -1.474  0.00  0.00    -0.033 A 
ATOM      2  C1  UNL d   1       1.917  -1.785  -1.160  0.00  0.00     0.039 A 
ATOM      3  C2  UNL d   1       0.716  -1.464  -0.525  0.00  0.00    -0.080 A 
ATOM      4  C3  UNL d   1       0.442  -0.136  -0.212  0.00  0.00     0.150 A 
ATOM      5  C4  UNL d   1       1.348   0.872  -0.525  0.00  0.00    -0.007 A 
ATOM      6  C5  UNL d   1       2.548   0.550  -1.158  0.00  0.00     0.039 A 
ENDROOT
BRANCH   4   7
ATOM      7  O   UNL d   1      -0.715   0.226   0.412  0.00  0.00    -0.526 OA
ATOM      8  H5  UNL d   1      -1.231  -0.578   0.593  0.00  0.00     0.418 HD
ENDBRANCH   4   7
TORSDOF 1
ENDMDL
