MODEL 1
REMARK minimizedAffinity -4.50636482
REMARK minimizedRMSD -1
REMARK  1 active torsions:
REMARK  status: ('A' for Active; 'I' for Inactive)
REMARK    1  A    between atoms: C3_4  and  O_7 
ROOT
ATOM      1  C   UNL d   1      -0.703   0.981  -0.459  0.00  0.00    -0.033 A 
ATOM      2  C1  UNL d   1      -0.090  -0.161   0.060  0.00  0.00     0.039 A 
ATOM      3  C2  UNL d   1       1.254  -0.421  -0.216  0.00  0.00    -0.080 A 
ATOM      4  C3  UNL d   1       1.973   0.469  -1.010  0.00  0.00     0.150 A 
ATOM      5  C4  UNL d   1       1.369   1.611  -1.527  0.00  0.00    -0.007 A 
ATOM      6  C5  UNL d   1       0.027   1.868  -1.251  0.00  0.00     0.039 A 
ENDROOT
BRANCH   4   7
ATOM      7  O   UNL d   1       3.285   0.256  -1.311  0.00  0.00    -0.526 OA
ATOM      8  H5  UNL d   1       3.560  -0.586  -0.910  0.00  0.00     0.418 HD
ENDBRANCH   4   7
TORSDOF 1
ENDMDL
