MODEL 1
REMARK minimizedAffinity -4.7547617
REMARK minimizedRMSD -1
REMARK  1 active torsions:
REMARK  status: ('A' for Active; 'I' for Inactive)
REMARK    1  A    between atoms: C3_4  and  O_7 
ROOT
ATOM      1  C   UNL d   1      -0.665   0.782  -0.324  0.00  0.00    -0.033 A 
ATOM      2  C1  UNL d   1      -0.506  -0.580  -0.060  0.00  0.00     0.039 A 
ATOM      3  C2  UNL d   1       0.676  -1.229  -0.420  0.00  0.00    -0.080 A 
ATOM      4  C3  UNL d   1       1.690  -0.507  -1.043  0.00  0.00     0.150 A 
ATOM      5  C4  UNL d   1       1.540   0.851  -1.305  0.00  0.00    -0.007 A 
ATOM      6  C5  UNL d   1       0.359   1.498  -0.945  0.00  0.00     0.039 A 
ENDROOT
BRANCH   4   7
ATOM      7  O   UNL d   1       2.860  -1.098  -1.417  0.00  0.00    -0.526 OA
ATOM      8  H5  UNL d   1       2.810  -2.044  -1.199  0.00  0.00     0.418 HD
ENDBRANCH   4   7
TORSDOF 1
ENDMDL
