MODEL 1
REMARK minimizedAffinity -5.10079336
REMARK minimizedRMSD -1
REMARK  1 active torsions:
REMARK  status: ('A' for Active; 'I' for Inactive)
REMARK    1  A    between atoms: C3_4  and  O_7 
ROOT
ATOM      1  C   UNL d   1       0.141  -0.619   0.209  0.00  0.00    -0.033 A 
ATOM      2  C1  UNL d   1       0.758  -1.844  -0.049  0.00  0.00     0.039 A 
ATOM      3  C2  UNL d   1       2.028  -1.881  -0.627  0.00  0.00    -0.080 A 
ATOM      4  C3  UNL d   1       2.671  -0.686  -0.940  0.00  0.00     0.150 A 
ATOM      5  C4  UNL d   1       2.064   0.539  -0.682  0.00  0.00    -0.007 A 
ATOM      6  C5  UNL d   1       0.795   0.573  -0.106  0.00  0.00     0.039 A 
ENDROOT
BRANCH   4   7
ATOM      7  O   UNL d   1       3.910  -0.671  -1.509  0.00  0.00    -0.526 OA
ATOM      8  H5  UNL d   1       4.192  -1.589  -1.656  0.00  0.00     0.418 HD
ENDBRANCH   4   7
TORSDOF 1
ENDMDL
