MODEL 1
REMARK minimizedAffinity -1.33719015
REMARK minimizedRMSD -1
REMARK  1 active torsions:
REMARK  status: ('A' for Active; 'I' for Inactive)
REMARK    1  A    between atoms: C3_4  and  O_7 
ROOT
ATOM      1  C   UNL d   1      -0.649   0.681  -0.655  0.00  0.00    -0.033 A 
ATOM      2  C1  UNL d   1      -0.589  -0.608  -0.122  0.00  0.00     0.039 A 
ATOM      3  C2  UNL d   1       0.506  -1.429  -0.397  0.00  0.00    -0.080 A 
ATOM      4  C3  UNL d   1       1.533  -0.950  -1.206  0.00  0.00     0.150 A 
ATOM      5  C4  UNL d   1       1.482   0.334  -1.738  0.00  0.00    -0.007 A 
ATOM      6  C5  UNL d   1       0.387   1.152  -1.462  0.00  0.00     0.039 A 
ENDROOT
BRANCH   4   7
ATOM      7  O   UNL d   1       2.620  -1.717  -1.507  0.00  0.00    -0.526 OA
ATOM      8  H5  UNL d   1       2.505  -2.589  -1.094  0.00  0.00     0.418 HD
ENDBRANCH   4   7
TORSDOF 1
ENDMDL
