MODEL 1
REMARK minimizedAffinity -0.0283721276
REMARK minimizedRMSD -1
REMARK  1 active torsions:
REMARK  status: ('A' for Active; 'I' for Inactive)
REMARK    1  A    between atoms: C3_4  and  O_7 
ROOT
ATOM      1  C   UNL d   1      -0.708  -1.556   0.310  0.00  0.00    -0.033 A 
ATOM      2  C1  UNL d   1       0.544  -1.315  -0.259  0.00  0.00     0.039 A 
ATOM      3  C2  UNL d   1       0.825  -0.073  -0.832  0.00  0.00    -0.080 A 
ATOM      4  C3  UNL d   1      -0.154   0.917  -0.830  0.00  0.00     0.150 A 
ATOM      5  C4  UNL d   1      -1.402   0.685  -0.262  0.00  0.00    -0.007 A 
ATOM      6  C5  UNL d   1      -1.681  -0.556   0.309  0.00  0.00     0.039 A 
ENDROOT
BRANCH   4   7
ATOM      7  O   UNL d   1       0.072   2.143  -1.383  0.00  0.00    -0.526 OA
ATOM      8  H5  UNL d   1       0.967   2.149  -1.762  0.00  0.00     0.418 HD
ENDBRANCH   4   7
TORSDOF 1
ENDMDL
