MODEL 1
REMARK minimizedAffinity -1.64720404
REMARK minimizedRMSD -1
REMARK  1 active torsions:
REMARK  status: ('A' for Active; 'I' for Inactive)
REMARK    1  A    between atoms: C3_4  and  O_7 
ROOT
ATOM      1  C   UNL d   1      -1.196  -0.921   0.105  0.00  0.00    -0.033 A 
ATOM      2  C1  UNL d   1      -0.464  -0.029  -0.681  0.00  0.00     0.039 A 
ATOM      3  C2  UNL d   1       0.745  -0.430  -1.253  0.00  0.00    -0.080 A 
ATOM      4  C3  UNL d   1       1.209  -1.724  -1.034  0.00  0.00     0.150 A 
ATOM      5  C4  UNL d   1       0.482  -2.619  -0.255  0.00  0.00    -0.007 A 
ATOM      6  C5  UNL d   1      -0.724  -2.216   0.317  0.00  0.00     0.039 A 
ENDROOT
BRANCH   4   7
ATOM      7  O   UNL d   1       2.385  -2.160  -1.568  0.00  0.00    -0.526 OA
ATOM      8  H5  UNL d   1       2.791  -1.426  -2.058  0.00  0.00     0.418 HD
ENDBRANCH   4   7
TORSDOF 1
ENDMDL
