MODEL 1
REMARK minimizedAffinity -1.35841215
REMARK minimizedRMSD -1
REMARK  0 active torsions:
REMARK  status: ('A' for Active; 'I' for Inactive)
ROOT
ATOM      1  C1  BNZ d   1      -1.969   0.550   0.717  0.00  0.00     0.000 A 
ATOM      2  C2  BNZ d   1      -0.704   0.243   1.142  0.00  0.00     0.000 A 
ATOM      3  C3  BNZ d   1      -0.240   0.701   2.344  0.00  0.00     0.000 A 
ATOM      4  C4  BNZ d   1      -1.025   1.496   3.098  0.00  0.00     0.000 A 
ATOM      5  C5  BNZ d   1      -2.299   1.822   2.679  0.00  0.00     0.000 A 
ATOM      6  C6  BNZ d   1      -2.778   1.328   1.487  0.00  0.00     0.000 A 
ENDROOT
TORSDOF 0
ENDMDL
