MODEL 1
REMARK minimizedAffinity -0.564606369
REMARK minimizedRMSD -1
REMARK  0 active torsions:
REMARK  status: ('A' for Active; 'I' for Inactive)
ROOT
ATOM      1  C1  BNZ d   1      -5.971  -0.893   4.896  0.00  0.00     0.000 A 
ATOM      2  C2  BNZ d   1      -5.208  -0.565   5.985  0.00  0.00     0.000 A 
ATOM      3  C3  BNZ d   1      -4.437   0.564   5.986  0.00  0.00     0.000 A 
ATOM      4  C4  BNZ d   1      -4.398   1.340   4.884  0.00  0.00     0.000 A 
ATOM      5  C5  BNZ d   1      -5.154   1.018   3.774  0.00  0.00     0.000 A 
ATOM      6  C6  BNZ d   1      -5.959  -0.097   3.792  0.00  0.00     0.000 A 
ENDROOT
TORSDOF 0
ENDMDL
