MODEL 1
REMARK minimizedAffinity 2.13532782
REMARK minimizedRMSD -1
REMARK  0 active torsions:
REMARK  status: ('A' for Active; 'I' for Inactive)
ROOT
ATOM      1  C1  BNZ d   1       2.925   0.564  -5.518  0.00  0.00     0.000 A 
ATOM      2  C2  BNZ d   1       3.779   0.641  -4.450  0.00  0.00     0.000 A 
ATOM      3  C3  BNZ d   1       3.679  -0.238  -3.408  0.00  0.00     0.000 A 
ATOM      4  C4  BNZ d   1       2.701  -1.167  -3.417  0.00  0.00     0.000 A 
ATOM      5  C5  BNZ d   1       1.826  -1.251  -4.481  0.00  0.00     0.000 A 
ATOM      6  C6  BNZ d   1       1.954  -0.389  -5.546  0.00  0.00     0.000 A 
ENDROOT
TORSDOF 0
ENDMDL
