MODEL 1
REMARK minimizedAffinity -0.529604733
REMARK minimizedRMSD -1
REMARK  0 active torsions:
REMARK  status: ('A' for Active; 'I' for Inactive)
ROOT
ATOM      1  C1  BNZ d   1      -2.554   4.128   5.790  0.00  0.00     0.000 A 
ATOM      2  C2  BNZ d   1      -2.759   5.482   5.783  0.00  0.00     0.000 A 
ATOM      3  C3  BNZ d   1      -4.018   6.000   5.908  0.00  0.00     0.000 A 
ATOM      4  C4  BNZ d   1      -5.072   5.164   6.000  0.00  0.00     0.000 A 
ATOM      5  C5  BNZ d   1      -4.883   3.797   5.999  0.00  0.00     0.000 A 
ATOM      6  C6  BNZ d   1      -3.610   3.280   5.912  0.00  0.00     0.000 A 
ENDROOT
TORSDOF 0
ENDMDL
