MODEL 1
REMARK minimizedAffinity 2.00015473
REMARK minimizedRMSD -1
REMARK  0 active torsions:
REMARK  status: ('A' for Active; 'I' for Inactive)
ROOT
ATOM      1  C1  BNZ d   1      -1.675   3.716   5.933  0.00  0.00     0.000 A 
ATOM      2  C2  BNZ d   1      -1.808   5.079   5.932  0.00  0.00     0.000 A 
ATOM      3  C3  BNZ d   1      -3.043   5.662   5.984  0.00  0.00     0.000 A 
ATOM      4  C4  BNZ d   1      -4.144   4.883   5.997  0.00  0.00     0.000 A 
ATOM      5  C5  BNZ d   1      -4.027   3.507   5.989  0.00  0.00     0.000 A 
ATOM      6  C6  BNZ d   1      -2.781   2.923   5.976  0.00  0.00     0.000 A 
ENDROOT
TORSDOF 0
ENDMDL
