MODEL 1
REMARK minimizedAffinity -1.81014967
REMARK minimizedRMSD -1
REMARK  0 active torsions:
REMARK  status: ('A' for Active; 'I' for Inactive)
ROOT
ATOM      1  C1  BNZ d   1      -4.156  -4.456   3.816  0.00  0.00     0.000 A 
ATOM      2  C2  BNZ d   1      -3.831  -4.146   5.109  0.00  0.00     0.000 A 
ATOM      3  C3  BNZ d   1      -3.337  -2.913   5.430  0.00  0.00     0.000 A 
ATOM      4  C4  BNZ d   1      -3.130  -2.006   4.453  0.00  0.00     0.000 A 
ATOM      5  C5  BNZ d   1      -3.443  -2.308   3.142  0.00  0.00     0.000 A 
ATOM      6  C6  BNZ d   1      -3.977  -3.536   2.829  0.00  0.00     0.000 A 
ENDROOT
TORSDOF 0
ENDMDL
