MODEL 1
REMARK minimizedAffinity -0.20908007
REMARK minimizedRMSD -1
REMARK  0 active torsions:
REMARK  status: ('A' for Active; 'I' for Inactive)
ROOT
ATOM      1  C1  BNZ d   1       2.279  -0.535   2.198  0.00  0.00     0.000 A 
ATOM      2  C2  BNZ d   1       1.960   0.150   1.056  0.00  0.00     0.000 A 
ATOM      3  C3  BNZ d   1       2.930   0.763   0.313  0.00  0.00     0.000 A 
ATOM      4  C4  BNZ d   1       4.211   0.725   0.734  0.00  0.00     0.000 A 
ATOM      5  C5  BNZ d   1       4.547   0.046   1.889  0.00  0.00     0.000 A 
ATOM      6  C6  BNZ d   1       3.573  -0.602   2.613  0.00  0.00     0.000 A 
ENDROOT
TORSDOF 0
ENDMDL
