MODEL 1
REMARK minimizedAffinity 5.45730686
REMARK minimizedRMSD -1
REMARK  0 active torsions:
REMARK  status: ('A' for Active; 'I' for Inactive)
ROOT
ATOM      1  C1  BNZ d   1       4.195   0.707   1.107  0.00  0.00     0.000 A 
ATOM      2  C2  BNZ d   1       4.167  -0.210   2.124  0.00  0.00     0.000 A 
ATOM      3  C3  BNZ d   1       2.979  -0.667   2.622  0.00  0.00     0.000 A 
ATOM      4  C4  BNZ d   1       1.822  -0.178   2.131  0.00  0.00     0.000 A 
ATOM      5  C5  BNZ d   1       1.834   0.753   1.112  0.00  0.00     0.000 A 
ATOM      6  C6  BNZ d   1       3.031   1.182   0.586  0.00  0.00     0.000 A 
ENDROOT
TORSDOF 0
ENDMDL
