MODEL 1
REMARK minimizedAffinity -1.96302474
REMARK minimizedRMSD -1
REMARK  0 active torsions:
REMARK  status: ('A' for Active; 'I' for Inactive)
ROOT
ATOM      1  C1  BNZ d   1      -5.099   3.570   5.994  0.00  0.00     0.000 A 
ATOM      2  C2  BNZ d   1      -5.824   4.732   6.000  0.00  0.00     0.000 A 
ATOM      3  C3  BNZ d   1      -5.198   5.947   5.978  0.00  0.00     0.000 A 
ATOM      4  C4  BNZ d   1      -3.851   5.999   5.992  0.00  0.00     0.000 A 
ATOM      5  C5  BNZ d   1      -3.106   4.837   5.996  0.00  0.00     0.000 A 
ATOM      6  C6  BNZ d   1      -3.739   3.615   5.978  0.00  0.00     0.000 A 
ENDROOT
TORSDOF 0
ENDMDL
