MODEL 1
REMARK minimizedAffinity 5.01617432
REMARK minimizedRMSD -1
REMARK  0 active torsions:
REMARK  status: ('A' for Active; 'I' for Inactive)
ROOT
ATOM      1  C1  BNZ d   1      -3.991   5.811   5.999  0.00  0.00     0.000 A 
ATOM      2  C2  BNZ d   1      -2.651   5.531   5.991  0.00  0.00     0.000 A 
ATOM      3  C3  BNZ d   1      -2.206   4.238   5.962  0.00  0.00     0.000 A 
ATOM      4  C4  BNZ d   1      -3.100   3.229   5.982  0.00  0.00     0.000 A 
ATOM      5  C5  BNZ d   1      -4.455   3.495   6.000  0.00  0.00     0.000 A 
ATOM      6  C6  BNZ d   1      -4.899   4.797   5.989  0.00  0.00     0.000 A 
ENDROOT
TORSDOF 0
ENDMDL
