MODEL 1
REMARK minimizedAffinity 3.45328283
REMARK minimizedRMSD -1
REMARK  0 active torsions:
REMARK  status: ('A' for Active; 'I' for Inactive)
ROOT
ATOM      1  C1  BNZ d   1      -2.365   3.160   5.959  0.00  0.00     0.000 A 
ATOM      2  C2  BNZ d   1      -1.876   4.440   5.947  0.00  0.00     0.000 A 
ATOM      3  C3  BNZ d   1      -2.722   5.512   5.987  0.00  0.00     0.000 A 
ATOM      4  C4  BNZ d   1      -4.055   5.306   5.997  0.00  0.00     0.000 A 
ATOM      5  C5  BNZ d   1      -4.563   4.022   6.000  0.00  0.00     0.000 A 
ATOM      6  C6  BNZ d   1      -3.708   2.944   6.000  0.00  0.00     0.000 A 
ENDROOT
TORSDOF 0
ENDMDL
