MODEL 1
REMARK minimizedAffinity 9.78486729
REMARK minimizedRMSD -1
REMARK  0 active torsions:
REMARK  status: ('A' for Active; 'I' for Inactive)
ROOT
ATOM      1  C1  BNZ d   1       3.378  -0.023   2.504  0.00  0.00     0.000 A 
ATOM      2  C2  BNZ d   1       2.288   0.442   1.816  0.00  0.00     0.000 A 
ATOM      3  C3  BNZ d   1       2.440   1.294   0.758  0.00  0.00     0.000 A 
ATOM      4  C4  BNZ d   1       3.675   1.711   0.414  0.00  0.00     0.000 A 
ATOM      5  C5  BNZ d   1       4.783   1.259   1.103  0.00  0.00     0.000 A 
ATOM      6  C6  BNZ d   1       4.630   0.371   2.143  0.00  0.00     0.000 A 
ENDROOT
TORSDOF 0
ENDMDL
