MODEL 1
REMARK minimizedAffinity -1.40640962
REMARK minimizedRMSD -1
REMARK  0 active torsions:
REMARK  status: ('A' for Active; 'I' for Inactive)
ROOT
ATOM      1  C2' OXE d   1       2.467   3.375   0.796  0.00  0.00     0.078 C 
ATOM      2  C1' OXE d   1       3.877   1.065   1.541  0.00  0.00     0.078 C 
ATOM      3  C1  OXE d   1       4.275   1.749   0.257  0.00  0.00    -0.078 A 
ATOM      4  C2  OXE d   1       3.549   2.851  -0.124  0.00  0.00    -0.078 A 
ATOM      5  C3  OXE d   1       3.910   3.552  -1.271  0.00  0.00     0.003 A 
ATOM      6  C4  OXE d   1       4.905   3.055  -2.121  0.00  0.00    -0.002 A 
ATOM      7  C5  OXE d   1       5.631   1.911  -1.772  0.00  0.00    -0.002 A 
ATOM      8  C6  OXE d   1       5.358   1.272  -0.568  0.00  0.00     0.003 A 
ENDROOT
TORSDOF 0
ENDMDL
