MODEL 1
REMARK minimizedAffinity 1.42907345
REMARK minimizedRMSD -1
REMARK  0 active torsions:
REMARK  status: ('A' for Active; 'I' for Inactive)
ROOT
ATOM      1  C2' OXE d   1       0.433   4.212  -3.254  0.00  0.00     0.078 C 
ATOM      2  C1' OXE d   1       0.735   3.713  -6.000  0.00  0.00     0.078 C 
ATOM      3  C1  OXE d   1       1.815   4.505  -5.306  0.00  0.00    -0.078 A 
ATOM      4  C2  OXE d   1       1.636   4.785  -3.972  0.00  0.00    -0.078 A 
ATOM      5  C3  OXE d   1       2.627   5.465  -3.271  0.00  0.00     0.003 A 
ATOM      6  C4  OXE d   1       3.732   6.000  -3.945  0.00  0.00    -0.002 A 
ATOM      7  C5  OXE d   1       3.913   5.761  -5.312  0.00  0.00    -0.002 A 
ATOM      8  C6  OXE d   1       2.988   4.982  -5.996  0.00  0.00     0.003 A 
ENDROOT
TORSDOF 0
ENDMDL
