MODEL 1
REMARK minimizedAffinity 10.6208668
REMARK minimizedRMSD -1
REMARK  0 active torsions:
REMARK  status: ('A' for Active; 'I' for Inactive)
ROOT
ATOM      1  C2' OXE d   1       3.474   1.979  -5.963  0.00  0.00     0.078 C 
ATOM      2  C1' OXE d   1       0.691   2.340  -6.000  0.00  0.00     0.078 C 
ATOM      3  C1  OXE d   1       1.560   3.573  -5.975  0.00  0.00    -0.078 A 
ATOM      4  C2  OXE d   1       2.920   3.386  -5.910  0.00  0.00    -0.078 A 
ATOM      5  C3  OXE d   1       3.769   4.489  -5.941  0.00  0.00     0.003 A 
ATOM      6  C4  OXE d   1       3.247   5.787  -5.882  0.00  0.00    -0.002 A 
ATOM      7  C5  OXE d   1       1.864   5.998  -5.908  0.00  0.00    -0.002 A 
ATOM      8  C6  OXE d   1       1.009   4.905  -5.997  0.00  0.00     0.003 A 
ENDROOT
TORSDOF 0
ENDMDL
