MODEL 1
REMARK minimizedAffinity 7.05594492
REMARK minimizedRMSD -1
REMARK  0 active torsions:
REMARK  status: ('A' for Active; 'I' for Inactive)
ROOT
ATOM      1  C2' OXE d   1       4.111  -0.905   3.571  0.00  0.00     0.078 C 
ATOM      2  C1' OXE d   1       2.865  -0.010   1.220  0.00  0.00     0.078 C 
ATOM      3  C1  OXE d   1       2.020  -0.125   2.464  0.00  0.00    -0.078 A 
ATOM      4  C2  OXE d   1       2.627  -0.609   3.598  0.00  0.00    -0.078 A 
ATOM      5  C3  OXE d   1       1.907  -0.683   4.787  0.00  0.00     0.003 A 
ATOM      6  C4  OXE d   1       0.532  -0.417   4.801  0.00  0.00    -0.002 A 
ATOM      7  C5  OXE d   1      -0.114   0.039   3.647  0.00  0.00    -0.002 A 
ATOM      8  C6  OXE d   1       0.622   0.231   2.484  0.00  0.00     0.003 A 
ENDROOT
TORSDOF 0
ENDMDL
