MODEL 1
REMARK minimizedAffinity 4.85183954
REMARK minimizedRMSD -1
REMARK  0 active torsions:
REMARK  status: ('A' for Active; 'I' for Inactive)
ROOT
ATOM      1  C2' OXE d   1      -1.029  -2.131   1.496  0.00  0.00     0.078 C 
ATOM      2  C1' OXE d   1       1.103  -1.090  -0.005  0.00  0.00     0.078 C 
ATOM      3  C1  OXE d   1      -0.206  -1.331  -0.715  0.00  0.00    -0.078 A 
ATOM      4  C2  OXE d   1      -1.229  -1.885   0.016  0.00  0.00    -0.078 A 
ATOM      5  C3  OXE d   1      -2.474  -2.078  -0.577  0.00  0.00     0.003 A 
ATOM      6  C4  OXE d   1      -2.647  -1.857  -1.949  0.00  0.00    -0.002 A 
ATOM      7  C5  OXE d   1      -1.606  -1.331  -2.721  0.00  0.00    -0.002 A 
ATOM      8  C6  OXE d   1      -0.394  -1.023  -2.111  0.00  0.00     0.003 A 
ENDROOT
TORSDOF 0
ENDMDL
