MODEL 1
REMARK minimizedAffinity 6.97847271
REMARK minimizedRMSD -1
REMARK  0 active torsions:
REMARK  status: ('A' for Active; 'I' for Inactive)
ROOT
ATOM      1  C2' OXE d   1      -4.633  -3.434  -2.168  0.00  0.00     0.078 C 
ATOM      2  C1' OXE d   1      -5.992  -2.606  -4.481  0.00  0.00     0.078 C 
ATOM      3  C1  OXE d   1      -4.587  -3.131  -4.640  0.00  0.00    -0.078 A 
ATOM      4  C2  OXE d   1      -3.913  -3.490  -3.498  0.00  0.00    -0.078 A 
ATOM      5  C3  OXE d   1      -2.634  -4.032  -3.594  0.00  0.00     0.003 A 
ATOM      6  C4  OXE d   1      -1.971  -4.071  -4.827  0.00  0.00    -0.002 A 
ATOM      7  C5  OXE d   1      -2.626  -3.673  -5.997  0.00  0.00    -0.002 A 
ATOM      8  C6  OXE d   1      -3.946  -3.241  -5.927  0.00  0.00     0.003 A 
ENDROOT
TORSDOF 0
ENDMDL
