MODEL 1
REMARK minimizedAffinity -2.95545435
REMARK minimizedRMSD -1
REMARK  0 active torsions:
REMARK  status: ('A' for Active; 'I' for Inactive)
ROOT
ATOM      1  C2' OXE d   1      -2.736  -3.833  -4.774  0.00  0.00     0.078 C 
ATOM      2  C1' OXE d   1      -1.430  -1.469  -4.008  0.00  0.00     0.078 C 
ATOM      3  C1  OXE d   1      -2.212  -2.214  -2.955  0.00  0.00    -0.078 A 
ATOM      4  C2  OXE d   1      -2.886  -3.345  -3.350  0.00  0.00    -0.078 A 
ATOM      5  C3  OXE d   1      -3.577  -4.100  -2.407  0.00  0.00     0.003 A 
ATOM      6  C4  OXE d   1      -3.720  -3.635  -1.093  0.00  0.00    -0.002 A 
ATOM      7  C5  OXE d   1      -3.074  -2.465  -0.680  0.00  0.00    -0.002 A 
ATOM      8  C6  OXE d   1      -2.283  -1.767  -1.586  0.00  0.00     0.003 A 
ENDROOT
TORSDOF 0
ENDMDL
