MODEL 1
REMARK minimizedAffinity 8.3379488
REMARK minimizedRMSD -1
REMARK  0 active torsions:
REMARK  status: ('A' for Active; 'I' for Inactive)
ROOT
ATOM      1  C2' OXE d   1      -2.101  -1.429  -1.148  0.00  0.00     0.078 C 
ATOM      2  C1' OXE d   1      -0.012  -2.868   0.053  0.00  0.00     0.078 C 
ATOM      3  C1  OXE d   1      -0.990  -2.161   0.957  0.00  0.00    -0.078 A 
ATOM      4  C2  OXE d   1      -1.982  -1.421   0.360  0.00  0.00    -0.078 A 
ATOM      5  C3  OXE d   1      -2.942  -0.793   1.148  0.00  0.00     0.003 A 
ATOM      6  C4  OXE d   1      -2.819  -0.782   2.542  0.00  0.00    -0.002 A 
ATOM      7  C5  OXE d   1      -1.793  -1.497   3.170  0.00  0.00    -0.002 A 
ATOM      8  C6  OXE d   1      -0.897  -2.225   2.395  0.00  0.00     0.003 A 
ENDROOT
TORSDOF 0
ENDMDL
