MODEL 1
REMARK minimizedAffinity 9.39738464
REMARK minimizedRMSD -1
REMARK  0 active torsions:
REMARK  status: ('A' for Active; 'I' for Inactive)
ROOT
ATOM      1  C2' OXE d   1       3.977   0.758  -5.986  0.00  0.00     0.078 C 
ATOM      2  C1' OXE d   1       2.088   2.834  -6.000  0.00  0.00     0.078 C 
ATOM      3  C1  OXE d   1       2.866   2.599  -4.729  0.00  0.00    -0.078 A 
ATOM      4  C2  OXE d   1       3.754   1.551  -4.716  0.00  0.00    -0.078 A 
ATOM      5  C3  OXE d   1       4.537   1.324  -3.588  0.00  0.00     0.003 A 
ATOM      6  C4  OXE d   1       4.317   2.056  -2.414  0.00  0.00    -0.002 A 
ATOM      7  C5  OXE d   1       3.388   3.102  -2.393  0.00  0.00    -0.002 A 
ATOM      8  C6  OXE d   1       2.686   3.413  -3.552  0.00  0.00     0.003 A 
ENDROOT
TORSDOF 0
ENDMDL
