MODEL 1
REMARK minimizedAffinity 16.9438572
REMARK minimizedRMSD -1
REMARK  0 active torsions:
REMARK  status: ('A' for Active; 'I' for Inactive)
ROOT
ATOM      1  C2' OXE d   1      -4.142  -3.369  -2.600  0.00  0.00     0.078 C 
ATOM      2  C1' OXE d   1      -1.894  -1.840  -1.901  0.00  0.00     0.078 C 
ATOM      3  C1  OXE d   1      -2.068  -2.212  -3.352  0.00  0.00    -0.078 A 
ATOM      4  C2  OXE d   1      -3.145  -2.999  -3.678  0.00  0.00    -0.078 A 
ATOM      5  C3  OXE d   1      -3.383  -3.326  -5.010  0.00  0.00     0.003 A 
ATOM      6  C4  OXE d   1      -2.451  -2.989  -6.000  0.00  0.00    -0.002 A 
ATOM      7  C5  OXE d   1      -1.326  -2.220  -5.683  0.00  0.00    -0.002 A 
ATOM      8  C6  OXE d   1      -1.142  -1.789  -4.374  0.00  0.00     0.003 A 
ENDROOT
TORSDOF 0
ENDMDL
