MODEL 1
REMARK minimizedAffinity 4.07865047
REMARK minimizedRMSD -1
REMARK  0 active torsions:
REMARK  status: ('A' for Active; 'I' for Inactive)
ROOT
ATOM      1  C2' OXE d   1       3.903   5.969  -4.489  0.00  0.00     0.078 C 
ATOM      2  C1' OXE d   1       1.534   5.997  -5.995  0.00  0.00     0.078 C 
ATOM      3  C1  OXE d   1       2.116   4.656  -5.625  0.00  0.00    -0.078 A 
ATOM      4  C2  OXE d   1       3.300   4.652  -4.928  0.00  0.00    -0.078 A 
ATOM      5  C3  OXE d   1       3.852   3.443  -4.514  0.00  0.00     0.003 A 
ATOM      6  C4  OXE d   1       3.295   2.229  -4.932  0.00  0.00    -0.002 A 
ATOM      7  C5  OXE d   1       2.110   2.211  -5.676  0.00  0.00    -0.002 A 
ATOM      8  C6  OXE d   1       1.486   3.412  -5.994  0.00  0.00     0.003 A 
ENDROOT
TORSDOF 0
ENDMDL
