MODEL 1
REMARK minimizedAffinity 0.962321997
REMARK minimizedRMSD -1
REMARK  0 active torsions:
REMARK  status: ('A' for Active; 'I' for Inactive)
ROOT
ATOM      1  C2' OXE d   1      -2.007  -4.325  -2.546  0.00  0.00     0.078 C 
ATOM      2  C1' OXE d   1      -2.207  -2.287  -0.625  0.00  0.00     0.078 C 
ATOM      3  C1  OXE d   1      -3.370  -3.238  -0.766  0.00  0.00    -0.078 A 
ATOM      4  C2  OXE d   1      -3.283  -4.203  -1.741  0.00  0.00    -0.078 A 
ATOM      5  C3  OXE d   1      -4.303  -5.140  -1.876  0.00  0.00     0.003 A 
ATOM      6  C4  OXE d   1      -5.484  -5.014  -1.134  0.00  0.00    -0.002 A 
ATOM      7  C5  OXE d   1      -5.610  -4.014  -0.164  0.00  0.00    -0.002 A 
ATOM      8  C6  OXE d   1      -4.547  -3.146   0.061  0.00  0.00     0.003 A 
ENDROOT
TORSDOF 0
ENDMDL
