MODEL 1
REMARK minimizedAffinity 7.81966209
REMARK minimizedRMSD -1
REMARK  0 active torsions:
REMARK  status: ('A' for Active; 'I' for Inactive)
ROOT
ATOM      1  C2' OXE d   1      -2.141  -1.508   3.305  0.00  0.00     0.078 C 
ATOM      2  C1' OXE d   1      -2.350  -4.292   3.598  0.00  0.00     0.078 C 
ATOM      3  C1  OXE d   1      -1.507  -3.765   2.463  0.00  0.00    -0.078 A 
ATOM      4  C2  OXE d   1      -1.449  -2.402   2.299  0.00  0.00    -0.078 A 
ATOM      5  C3  OXE d   1      -0.642  -1.862   1.302  0.00  0.00     0.003 A 
ATOM      6  C4  OXE d   1      -0.013  -2.696   0.370  0.00  0.00    -0.002 A 
ATOM      7  C5  OXE d   1      -0.092  -4.087   0.495  0.00  0.00    -0.002 A 
ATOM      8  C6  OXE d   1      -0.798  -4.637   1.559  0.00  0.00     0.003 A 
ENDROOT
TORSDOF 0
ENDMDL
