MODEL 1
REMARK minimizedAffinity 21.3445606
REMARK minimizedRMSD -1
REMARK  0 active torsions:
REMARK  status: ('A' for Active; 'I' for Inactive)
ROOT
ATOM      1  C2' OXE d   1       1.849  -2.276  -4.833  0.00  0.00     0.078 C 
ATOM      2  C1' OXE d   1       3.722  -2.246  -2.743  0.00  0.00     0.078 C 
ATOM      3  C1  OXE d   1       3.901  -1.251  -3.862  0.00  0.00    -0.078 A 
ATOM      4  C2  OXE d   1       3.007  -1.303  -4.904  0.00  0.00    -0.078 A 
ATOM      5  C3  OXE d   1       3.094  -0.373  -5.935  0.00  0.00     0.003 A 
ATOM      6  C4  OXE d   1       4.174   0.517  -5.998  0.00  0.00    -0.002 A 
ATOM      7  C5  OXE d   1       5.118   0.560  -4.967  0.00  0.00    -0.002 A 
ATOM      8  C6  OXE d   1       4.973  -0.286  -3.874  0.00  0.00     0.003 A 
ENDROOT
TORSDOF 0
ENDMDL
