MODEL 1
REMARK minimizedAffinity 7.06637001
REMARK minimizedRMSD -1
REMARK  0 active torsions:
REMARK  status: ('A' for Active; 'I' for Inactive)
ROOT
ATOM      1  C2' OXE d   1      -3.964  -2.403  -0.382  0.00  0.00     0.078 C 
ATOM      2  C1' OXE d   1      -2.436  -1.491   1.788  0.00  0.00     0.078 C 
ATOM      3  C1  OXE d   1      -1.704  -2.106   0.622  0.00  0.00    -0.078 A 
ATOM      4  C2  OXE d   1      -2.463  -2.592  -0.415  0.00  0.00    -0.078 A 
ATOM      5  C3  OXE d   1      -1.836  -3.120  -1.540  0.00  0.00     0.003 A 
ATOM      6  C4  OXE d   1      -0.448  -3.301  -1.559  0.00  0.00    -0.002 A 
ATOM      7  C5  OXE d   1       0.341  -2.849  -0.495  0.00  0.00    -0.002 A 
ATOM      8  C6  OXE d   1      -0.266  -2.213   0.581  0.00  0.00     0.003 A 
ENDROOT
TORSDOF 0
ENDMDL
