MODEL 1
REMARK minimizedAffinity 11.3028679
REMARK minimizedRMSD -1
REMARK  0 active torsions:
REMARK  status: ('A' for Active; 'I' for Inactive)
ROOT
ATOM      1  C2' OXE d   1      -2.075  -1.513   2.986  0.00  0.00     0.078 C 
ATOM      2  C1' OXE d   1      -0.749  -2.082   0.578  0.00  0.00     0.078 C 
ATOM      3  C1  OXE d   1      -0.202  -0.969   1.437  0.00  0.00    -0.078 A 
ATOM      4  C2  OXE d   1      -0.884  -0.667   2.591  0.00  0.00    -0.078 A 
ATOM      5  C3  OXE d   1      -0.391   0.313   3.447  0.00  0.00     0.003 A 
ATOM      6  C4  OXE d   1       0.705   1.098   3.069  0.00  0.00    -0.002 A 
ATOM      7  C5  OXE d   1       1.391   0.834   1.879  0.00  0.00    -0.002 A 
ATOM      8  C6  OXE d   1       0.977  -0.222   1.074  0.00  0.00     0.003 A 
ENDROOT
TORSDOF 0
ENDMDL
