MODEL 1
REMARK minimizedAffinity 13.6459684
REMARK minimizedRMSD -1
REMARK  0 active torsions:
REMARK  status: ('A' for Active; 'I' for Inactive)
ROOT
ATOM      1  C2' OXE d   1       4.310  -0.095   0.792  0.00  0.00     0.078 C 
ATOM      2  C1' OXE d   1       4.333   2.511  -0.253  0.00  0.00     0.078 C 
ATOM      3  C1  OXE d   1       3.184   2.123   0.643  0.00  0.00    -0.078 A 
ATOM      4  C2  OXE d   1       3.156   0.831   1.113  0.00  0.00    -0.078 A 
ATOM      5  C3  OXE d   1       2.148   0.437   1.988  0.00  0.00     0.003 A 
ATOM      6  C4  OXE d   1       1.080   1.297   2.271  0.00  0.00    -0.002 A 
ATOM      7  C5  OXE d   1       1.068   2.604   1.772  0.00  0.00    -0.002 A 
ATOM      8  C6  OXE d   1       2.132   3.045   0.993  0.00  0.00     0.003 A 
ENDROOT
TORSDOF 0
ENDMDL
