MODEL 1
REMARK minimizedAffinity 1.01093602
REMARK minimizedRMSD -1
REMARK  0 active torsions:
REMARK  status: ('A' for Active; 'I' for Inactive)
ROOT
ATOM      1  C2' OXE d   1       4.877   1.933  -5.026  0.00  0.00     0.078 C 
ATOM      2  C1' OXE d   1       5.301   3.388  -2.663  0.00  0.00     0.078 C 
ATOM      3  C1  OXE d   1       4.554   4.068  -3.784  0.00  0.00    -0.078 A 
ATOM      4  C2  OXE d   1       4.392   3.364  -4.953  0.00  0.00    -0.078 A 
ATOM      5  C3  OXE d   1       3.663   3.924  -5.999  0.00  0.00     0.003 A 
ATOM      6  C4  OXE d   1       3.226   5.252  -5.927  0.00  0.00    -0.002 A 
ATOM      7  C5  OXE d   1       3.416   6.000  -4.760  0.00  0.00    -0.002 A 
ATOM      8  C6  OXE d   1       4.039   5.409  -3.666  0.00  0.00     0.003 A 
ENDROOT
TORSDOF 0
ENDMDL
