MODEL 1
REMARK minimizedAffinity 4.18410206
REMARK minimizedRMSD -1
REMARK  0 active torsions:
REMARK  status: ('A' for Active; 'I' for Inactive)
ROOT
ATOM      1  C2' OXE d   1      -2.590  -1.590  -0.755  0.00  0.00     0.078 C 
ATOM      2  C1' OXE d   1      -5.056  -2.637  -1.595  0.00  0.00     0.078 C 
ATOM      3  C1  OXE d   1      -3.904  -2.681  -2.568  0.00  0.00    -0.078 A 
ATOM      4  C2  OXE d   1      -2.714  -2.125  -2.165  0.00  0.00    -0.078 A 
ATOM      5  C3  OXE d   1      -1.605  -2.188  -3.003  0.00  0.00     0.003 A 
ATOM      6  C4  OXE d   1      -1.731  -2.675  -4.310  0.00  0.00    -0.002 A 
ATOM      7  C5  OXE d   1      -2.944  -3.211  -4.754  0.00  0.00    -0.002 A 
ATOM      8  C6  OXE d   1      -4.027  -3.260  -3.883  0.00  0.00     0.003 A 
ENDROOT
TORSDOF 0
ENDMDL
