MODEL 1
REMARK minimizedAffinity 7.56426573
REMARK minimizedRMSD -1
REMARK  0 active torsions:
REMARK  status: ('A' for Active; 'I' for Inactive)
ROOT
ATOM      1  C   UNL d   1       0.722   3.631   0.966  0.00  0.00     0.023 A 
ATOM      2  C1  UNL d   1       1.933   3.400   1.618  0.00  0.00     0.003 A 
ATOM      3  C2  UNL d   1       2.098   2.258   2.404  0.00  0.00     0.048 A 
ATOM      4  C3  UNL d   1       1.048   1.350   2.533  0.00  0.00     0.023 A 
ATOM      5  C4  UNL d   1      -0.166   1.576   1.882  0.00  0.00     0.048 A 
ATOM      6  C5  UNL d   1      -0.326   2.720   1.098  0.00  0.00     0.003 A 
ATOM      7  I   UNL d   1       1.291  -0.351   3.702  0.00  0.00    -0.146 I 
ENDROOT
TORSDOF 0
ENDMDL
