MODEL 1
REMARK minimizedAffinity 1.91410136
REMARK minimizedRMSD -1
REMARK  0 active torsions:
REMARK  status: ('A' for Active; 'I' for Inactive)
ROOT
ATOM      1  C   UNL d   1      -0.328   2.322  -0.441  0.00  0.00     0.023 A 
ATOM      2  C1  UNL d   1       0.042   3.385   0.384  0.00  0.00     0.003 A 
ATOM      3  C2  UNL d   1      -0.938   4.147   1.024  0.00  0.00     0.048 A 
ATOM      4  C3  UNL d   1      -2.285   3.840   0.836  0.00  0.00     0.023 A 
ATOM      5  C4  UNL d   1      -2.659   2.777   0.012  0.00  0.00     0.048 A 
ATOM      6  C5  UNL d   1      -1.676   2.019  -0.626  0.00  0.00     0.003 A 
ATOM      7  I   UNL d   1      -3.745   4.972   1.788  0.00  0.00    -0.146 I 
ENDROOT
TORSDOF 0
ENDMDL
