MODEL 1
REMARK minimizedAffinity 5.36142731
REMARK minimizedRMSD -1
REMARK  0 active torsions:
REMARK  status: ('A' for Active; 'I' for Inactive)
ROOT
ATOM      1  C   UNL d   1      -0.116   3.849  -0.129  0.00  0.00     0.023 A 
ATOM      2  C1  UNL d   1       1.138   3.645   0.445  0.00  0.00     0.003 A 
ATOM      3  C2  UNL d   1       1.546   2.356   0.795  0.00  0.00     0.048 A 
ATOM      4  C3  UNL d   1       0.694   1.276   0.568  0.00  0.00     0.023 A 
ATOM      5  C4  UNL d   1      -0.562   1.475  -0.007  0.00  0.00     0.048 A 
ATOM      6  C5  UNL d   1      -0.966   2.766  -0.355  0.00  0.00     0.003 A 
ATOM      7  I   UNL d   1       1.298  -0.644   1.088  0.00  0.00    -0.146 I 
ENDROOT
TORSDOF 0
ENDMDL
