MODEL 1
REMARK minimizedAffinity 0.265116394
REMARK minimizedRMSD -1
REMARK  0 active torsions:
REMARK  status: ('A' for Active; 'I' for Inactive)
ROOT
ATOM      1  C   UNL d   1       5.800  -3.948   5.987  0.00  0.00     0.023 A 
ATOM      2  C1  UNL d   1       5.898  -2.557   5.985  0.00  0.00     0.003 A 
ATOM      3  C2  UNL d   1       4.742  -1.774   5.987  0.00  0.00     0.048 A 
ATOM      4  C3  UNL d   1       3.491  -2.389   5.993  0.00  0.00     0.023 A 
ATOM      5  C4  UNL d   1       3.387  -3.781   5.996  0.00  0.00     0.048 A 
ATOM      6  C5  UNL d   1       4.546  -4.559   5.993  0.00  0.00     0.003 A 
ATOM      7  I   UNL d   1       1.768  -1.226   5.997  0.00  0.00    -0.146 I 
ENDROOT
TORSDOF 0
ENDMDL
