MODEL 1
REMARK minimizedAffinity 11.3153257
REMARK minimizedRMSD -1
REMARK  0 active torsions:
REMARK  status: ('A' for Active; 'I' for Inactive)
ROOT
ATOM      1  C   UNL d   1       1.200   4.907  -1.185  0.00  0.00     0.023 A 
ATOM      2  C1  UNL d   1       1.427   3.796  -0.372  0.00  0.00     0.003 A 
ATOM      3  C2  UNL d   1       0.357   3.164   0.263  0.00  0.00     0.048 A 
ATOM      4  C3  UNL d   1      -0.939   3.647   0.081  0.00  0.00     0.023 A 
ATOM      5  C4  UNL d   1      -1.171   4.758  -0.732  0.00  0.00     0.048 A 
ATOM      6  C5  UNL d   1      -0.097   5.387  -1.365  0.00  0.00     0.003 A 
ATOM      7  I   UNL d   1      -2.534   2.708   1.026  0.00  0.00    -0.146 I 
ENDROOT
TORSDOF 0
ENDMDL
