MODEL 1
REMARK minimizedAffinity 5.44934559
REMARK minimizedRMSD -1
REMARK  0 active torsions:
REMARK  status: ('A' for Active; 'I' for Inactive)
ROOT
ATOM      1  C   UNL d   1      -4.264   5.248  -4.098  0.00  0.00     0.023 A 
ATOM      2  C1  UNL d   1      -3.313   4.384  -3.554  0.00  0.00     0.003 A 
ATOM      3  C2  UNL d   1      -3.702   3.140  -3.054  0.00  0.00     0.048 A 
ATOM      4  C3  UNL d   1      -5.045   2.766  -3.100  0.00  0.00     0.023 A 
ATOM      5  C4  UNL d   1      -6.000   3.627  -3.644  0.00  0.00     0.048 A 
ATOM      6  C5  UNL d   1      -5.606   4.870  -4.142  0.00  0.00     0.003 A 
ATOM      7  I   UNL d   1      -5.628   0.915  -2.356  0.00  0.00    -0.146 I 
ENDROOT
TORSDOF 0
ENDMDL
