MODEL 1
REMARK minimizedAffinity 1.60719645
REMARK minimizedRMSD -1
REMARK  0 active torsions:
REMARK  status: ('A' for Active; 'I' for Inactive)
ROOT
ATOM      1  C   UNL d   1       1.782  -1.692   0.893  0.00  0.00     0.023 A 
ATOM      2  C1  UNL d   1       2.248  -3.006   0.838  0.00  0.00     0.003 A 
ATOM      3  C2  UNL d   1       3.458  -3.293   0.203  0.00  0.00     0.048 A 
ATOM      4  C3  UNL d   1       4.198  -2.261  -0.374  0.00  0.00     0.023 A 
ATOM      5  C4  UNL d   1       3.736  -0.945  -0.320  0.00  0.00     0.048 A 
ATOM      6  C5  UNL d   1       2.525  -0.663   0.315  0.00  0.00     0.003 A 
ATOM      7  I   UNL d   1       5.999  -2.686  -1.319  0.00  0.00    -0.146 I 
ENDROOT
TORSDOF 0
ENDMDL
