MODEL 1
REMARK minimizedAffinity 9.18087578
REMARK minimizedRMSD -1
REMARK  0 active torsions:
REMARK  status: ('A' for Active; 'I' for Inactive)
ROOT
ATOM      1  C   UNL d   1      -4.862   5.223  -5.266  0.00  0.00     0.023 A 
ATOM      2  C1  UNL d   1      -3.734   4.849  -4.535  0.00  0.00     0.003 A 
ATOM      3  C2  UNL d   1      -3.736   3.658  -3.805  0.00  0.00     0.048 A 
ATOM      4  C3  UNL d   1      -4.869   2.846  -3.811  0.00  0.00     0.023 A 
ATOM      5  C4  UNL d   1      -6.000   3.215  -4.542  0.00  0.00     0.048 A 
ATOM      6  C5  UNL d   1      -5.993   4.407  -5.269  0.00  0.00     0.003 A 
ATOM      7  I   UNL d   1      -4.875   1.073  -2.726  0.00  0.00    -0.146 I 
ENDROOT
TORSDOF 0
ENDMDL
