MODEL 1
REMARK minimizedAffinity 2.79510498
REMARK minimizedRMSD -1
REMARK  0 active torsions:
REMARK  status: ('A' for Active; 'I' for Inactive)
ROOT
ATOM      1  C   UNL d   1      -4.913   5.297  -4.666  0.00  0.00     0.023 A 
ATOM      2  C1  UNL d   1      -6.000   4.425  -4.736  0.00  0.00     0.003 A 
ATOM      3  C2  UNL d   1      -5.888   3.127  -4.233  0.00  0.00     0.048 A 
ATOM      4  C3  UNL d   1      -4.688   2.707  -3.662  0.00  0.00     0.023 A 
ATOM      5  C4  UNL d   1      -3.598   3.576  -3.590  0.00  0.00     0.048 A 
ATOM      6  C5  UNL d   1      -3.714   4.873  -4.094  0.00  0.00     0.003 A 
ATOM      7  I   UNL d   1      -4.519   0.776  -2.914  0.00  0.00    -0.146 I 
ENDROOT
TORSDOF 0
ENDMDL
