MODEL 1
REMARK minimizedAffinity 3.34731603
REMARK minimizedRMSD -1
REMARK  2 active torsions:
REMARK  status: ('A' for Active; 'I' for Inactive)
REMARK    1  A    between atoms: C1_2  and  C2_3 
REMARK    2  A    between atoms: C2_3  and  C3_4 
ROOT
ATOM      1  C3  UNL d   1       5.229  -4.375  -4.123  0.00  0.00    -0.075 A 
ATOM      2  C4  UNL d   1       3.828  -4.419  -4.175  0.00  0.00     0.002 A 
ATOM      3  C5  UNL d   1       3.179  -5.231  -5.105  0.00  0.00     0.002 A 
ATOM      4  C6  UNL d   1       3.920  -6.000  -6.000  0.00  0.00    -0.004 A 
ATOM      5  C7  UNL d   1       5.312  -5.952  -5.968  0.00  0.00     0.002 A 
ATOM      6  C8  UNL d   1       5.964  -5.143  -5.035  0.00  0.00     0.002 A 
ENDROOT
BRANCH   1   7
ATOM      7  C2  UNL d   1       5.938  -3.521  -3.099  0.00  0.00     0.056 C 
BRANCH   7   8
ATOM      8  C1  UNL d   1       5.999  -2.033  -3.463  0.00  0.00     0.007 C 
ATOM      9  C   UNL d   1       5.242  -1.144  -2.486  0.00  0.00     0.009 C 
ENDBRANCH   7   8
ENDBRANCH   1   7
TORSDOF 2
ENDMDL
