MODEL 1
REMARK minimizedAffinity 8.2660408
REMARK minimizedRMSD -1
REMARK  2 active torsions:
REMARK  status: ('A' for Active; 'I' for Inactive)
REMARK    1  A    between atoms: C1_2  and  C2_3 
REMARK    2  A    between atoms: C2_3  and  C3_4 
ROOT
ATOM      1  C3  UNL d   1       4.777   2.407   0.955  0.00  0.00    -0.075 A 
ATOM      2  C4  UNL d   1       3.390   2.249   0.820  0.00  0.00     0.002 A 
ATOM      3  C5  UNL d   1       2.617   1.826   1.902  0.00  0.00     0.002 A 
ATOM      4  C6  UNL d   1       3.220   1.547   3.126  0.00  0.00    -0.004 A 
ATOM      5  C7  UNL d   1       4.599   1.684   3.267  0.00  0.00     0.002 A 
ATOM      6  C8  UNL d   1       5.375   2.112   2.188  0.00  0.00     0.002 A 
ENDROOT
BRANCH   1   7
ATOM      7  C2  UNL d   1       5.615   2.893  -0.203  0.00  0.00     0.056 C 
BRANCH   7   8
ATOM      8  C1  UNL d   1       5.286   2.217  -1.538  0.00  0.00     0.007 C 
ATOM      9  C   UNL d   1       5.456   3.140  -2.737  0.00  0.00     0.009 C 
ENDBRANCH   7   8
ENDBRANCH   1   7
TORSDOF 2
ENDMDL
