MODEL 1
REMARK minimizedAffinity 7.037076
REMARK minimizedRMSD -1
REMARK  2 active torsions:
REMARK  status: ('A' for Active; 'I' for Inactive)
REMARK    1  A    between atoms: C1_2  and  C2_3 
REMARK    2  A    between atoms: C2_3  and  C3_4 
ROOT
ATOM      1  C3  UNL d   1       3.837  -5.934  -4.795  0.00  0.00    -0.075 A 
ATOM      2  C4  UNL d   1       3.123  -5.845  -3.591  0.00  0.00     0.002 A 
ATOM      3  C5  UNL d   1       1.728  -5.844  -3.594  0.00  0.00     0.002 A 
ATOM      4  C6  UNL d   1       1.030  -5.922  -4.797  0.00  0.00    -0.004 A 
ATOM      5  C7  UNL d   1       1.730  -5.994  -6.000  0.00  0.00     0.002 A 
ATOM      6  C8  UNL d   1       3.126  -6.000  -6.000  0.00  0.00     0.002 A 
ENDROOT
BRANCH   1   7
ATOM      7  C2  UNL d   1       5.347  -5.965  -4.796  0.00  0.00     0.056 C 
BRANCH   7   8
ATOM      8  C1  UNL d   1       5.996  -4.706  -5.380  0.00  0.00     0.007 C 
ATOM      9  C   UNL d   1       5.976  -3.522  -4.423  0.00  0.00     0.009 C 
ENDBRANCH   7   8
ENDBRANCH   1   7
TORSDOF 2
ENDMDL
