MODEL 1
REMARK minimizedAffinity 2.80298972
REMARK minimizedRMSD -1
REMARK  2 active torsions:
REMARK  status: ('A' for Active; 'I' for Inactive)
REMARK    1  A    between atoms: C1_2  and  C2_3 
REMARK    2  A    between atoms: C2_3  and  C3_4 
ROOT
ATOM      1  C3  UNL d   1       2.081   2.187   1.586  0.00  0.00    -0.075 A 
ATOM      2  C4  UNL d   1       2.241   1.856   2.940  0.00  0.00     0.002 A 
ATOM      3  C5  UNL d   1       3.344   2.321   3.657  0.00  0.00     0.002 A 
ATOM      4  C6  UNL d   1       4.303   3.112   3.029  0.00  0.00    -0.004 A 
ATOM      5  C7  UNL d   1       4.164   3.433   1.681  0.00  0.00     0.002 A 
ATOM      6  C8  UNL d   1       3.059   2.973   0.962  0.00  0.00     0.002 A 
ENDROOT
BRANCH   1   7
ATOM      7  C2  UNL d   1       0.875   1.711   0.812  0.00  0.00     0.056 C 
BRANCH   7   8
ATOM      8  C1  UNL d   1      -0.232   2.762   0.674  0.00  0.00     0.007 C 
ATOM      9  C   UNL d   1      -1.435   2.486   1.566  0.00  0.00     0.009 C 
ENDBRANCH   7   8
ENDBRANCH   1   7
TORSDOF 2
ENDMDL
