MODEL 1
REMARK minimizedAffinity 6.73260212
REMARK minimizedRMSD -1
REMARK  2 active torsions:
REMARK  status: ('A' for Active; 'I' for Inactive)
REMARK    1  A    between atoms: C1_2  and  C2_3 
REMARK    2  A    between atoms: C2_3  and  C3_4 
ROOT
ATOM      1  C3  UNL d   1      -0.271   0.252   1.086  0.00  0.00    -0.075 A 
ATOM      2  C4  UNL d   1      -0.716   1.509   0.653  0.00  0.00     0.002 A 
ATOM      3  C5  UNL d   1       0.183   2.566   0.506  0.00  0.00     0.002 A 
ATOM      4  C6  UNL d   1       1.532   2.383   0.799  0.00  0.00    -0.004 A 
ATOM      5  C7  UNL d   1       1.982   1.143   1.246  0.00  0.00     0.002 A 
ATOM      6  C8  UNL d   1       1.086   0.082   1.390  0.00  0.00     0.002 A 
ENDROOT
BRANCH   1   7
ATOM      7  C2  UNL d   1      -1.233  -0.905   1.219  0.00  0.00     0.056 C 
BRANCH   7   8
ATOM      8  C1  UNL d   1      -1.587  -1.578  -0.111  0.00  0.00     0.007 C 
ATOM      9  C   UNL d   1      -2.406  -2.851   0.059  0.00  0.00     0.009 C 
ENDBRANCH   7   8
ENDBRANCH   1   7
TORSDOF 2
ENDMDL
