MODEL 1
REMARK minimizedAffinity 13.9039078
REMARK minimizedRMSD -1
REMARK  2 active torsions:
REMARK  status: ('A' for Active; 'I' for Inactive)
REMARK    1  A    between atoms: C1_2  and  C2_3 
REMARK    2  A    between atoms: C2_3  and  C3_4 
ROOT
ATOM      1  C3  UNL d   1       0.259   2.671   1.202  0.00  0.00    -0.075 A 
ATOM      2  C4  UNL d   1       1.105   1.628   1.607  0.00  0.00     0.002 A 
ATOM      3  C5  UNL d   1       2.488   1.742   1.466  0.00  0.00     0.002 A 
ATOM      4  C6  UNL d   1       3.042   2.893   0.910  0.00  0.00    -0.004 A 
ATOM      5  C7  UNL d   1       2.211   3.928   0.488  0.00  0.00     0.002 A 
ATOM      6  C8  UNL d   1       0.827   3.819   0.632  0.00  0.00     0.002 A 
ENDROOT
BRANCH   1   7
ATOM      7  C2  UNL d   1      -1.237   2.567   1.379  0.00  0.00     0.056 C 
BRANCH   7   8
ATOM      8  C1  UNL d   1      -1.664   1.831   2.653  0.00  0.00     0.007 C 
ATOM      9  C   UNL d   1      -1.968   2.769   3.814  0.00  0.00     0.009 C 
ENDBRANCH   7   8
ENDBRANCH   1   7
TORSDOF 2
ENDMDL
