MODEL 1
REMARK minimizedAffinity 6.91498327
REMARK minimizedRMSD -1
REMARK  2 active torsions:
REMARK  status: ('A' for Active; 'I' for Inactive)
REMARK    1  A    between atoms: C1_2  and  C2_3 
REMARK    2  A    between atoms: C2_3  and  C3_4 
ROOT
ATOM      1  C3  UNL d   1       3.681   1.926   3.132  0.00  0.00    -0.075 A 
ATOM      2  C4  UNL d   1       4.373   1.376   2.043  0.00  0.00     0.002 A 
ATOM      3  C5  UNL d   1       3.676   0.839   0.960  0.00  0.00     0.002 A 
ATOM      4  C6  UNL d   1       2.283   0.835   0.956  0.00  0.00    -0.004 A 
ATOM      5  C7  UNL d   1       1.586   1.364   2.040  0.00  0.00     0.002 A 
ATOM      6  C8  UNL d   1       2.280   1.906   3.123  0.00  0.00     0.002 A 
ENDROOT
BRANCH   1   7
ATOM      7  C2  UNL d   1       4.428   2.535   4.294  0.00  0.00     0.056 C 
BRANCH   7   8
ATOM      8  C1  UNL d   1       4.638   4.048   4.176  0.00  0.00     0.007 C 
ATOM      9  C   UNL d   1       5.216   4.675   5.438  0.00  0.00     0.009 C 
ENDBRANCH   7   8
ENDBRANCH   1   7
TORSDOF 2
ENDMDL
