MODEL 1
REMARK minimizedAffinity -4.9134407
REMARK minimizedRMSD -1
REMARK  2 active torsions:
REMARK  status: ('A' for Active; 'I' for Inactive)
REMARK    1  A    between atoms: C1_2  and  C2_3 
REMARK    2  A    between atoms: C2_3  and  C3_4 
ROOT
ATOM      1  C3  UNL d   1       2.363   2.804  -4.850  0.00  0.00    -0.075 A 
ATOM      2  C4  UNL d   1       1.530   3.005  -5.960  0.00  0.00     0.002 A 
ATOM      3  C5  UNL d   1       0.255   2.440  -6.000  0.00  0.00     0.002 A 
ATOM      4  C6  UNL d   1      -0.198   1.660  -4.938  0.00  0.00    -0.004 A 
ATOM      5  C7  UNL d   1       0.628   1.440  -3.838  0.00  0.00     0.002 A 
ATOM      6  C8  UNL d   1       1.902   2.008  -3.793  0.00  0.00     0.002 A 
ENDROOT
BRANCH   1   7
ATOM      7  C2  UNL d   1       3.733   3.438  -4.787  0.00  0.00     0.056 C 
BRANCH   7   8
ATOM      8  C1  UNL d   1       4.622   3.122  -5.994  0.00  0.00     0.007 C 
ATOM      9  C   UNL d   1       5.976   3.817  -5.941  0.00  0.00     0.009 C 
ENDBRANCH   7   8
ENDBRANCH   1   7
TORSDOF 2
ENDMDL
