MODEL 1
REMARK minimizedAffinity 11.5036888
REMARK minimizedRMSD -1
REMARK  2 active torsions:
REMARK  status: ('A' for Active; 'I' for Inactive)
REMARK    1  A    between atoms: C1_2  and  C2_3 
REMARK    2  A    between atoms: C2_3  and  C3_4 
ROOT
ATOM      1  C3  UNL d   1       0.427   1.785   1.187  0.00  0.00    -0.075 A 
ATOM      2  C4  UNL d   1      -0.039   1.555   2.489  0.00  0.00     0.002 A 
ATOM      3  C5  UNL d   1      -1.251   2.101   2.915  0.00  0.00     0.002 A 
ATOM      4  C6  UNL d   1      -2.005   2.889   2.049  0.00  0.00    -0.004 A 
ATOM      5  C7  UNL d   1      -1.544   3.138   0.758  0.00  0.00     0.002 A 
ATOM      6  C8  UNL d   1      -0.334   2.590   0.328  0.00  0.00     0.002 A 
ENDROOT
BRANCH   1   7
ATOM      7  C2  UNL d   1       1.723   1.173   0.711  0.00  0.00     0.056 C 
BRANCH   7   8
ATOM      8  C1  UNL d   1       2.961   1.674   1.461  0.00  0.00     0.007 C 
ATOM      9  C   UNL d   1       2.792   3.076   2.030  0.00  0.00     0.009 C 
ENDBRANCH   7   8
ENDBRANCH   1   7
TORSDOF 2
ENDMDL
