MODEL 1
REMARK minimizedAffinity 3.95240521
REMARK minimizedRMSD -1
REMARK  2 active torsions:
REMARK  status: ('A' for Active; 'I' for Inactive)
REMARK    1  A    between atoms: C1_2  and  C2_3 
REMARK    2  A    between atoms: C2_3  and  C3_4 
ROOT
ATOM      1  C3  UNL d   1      -3.552   3.833  -5.505  0.00  0.00    -0.075 A 
ATOM      2  C4  UNL d   1      -2.832   3.003  -4.634  0.00  0.00     0.002 A 
ATOM      3  C5  UNL d   1      -1.571   3.383  -4.173  0.00  0.00     0.002 A 
ATOM      4  C6  UNL d   1      -1.011   4.590  -4.585  0.00  0.00    -0.004 A 
ATOM      5  C7  UNL d   1      -1.709   5.415  -5.464  0.00  0.00     0.002 A 
ATOM      6  C8  UNL d   1      -2.973   5.039  -5.923  0.00  0.00     0.002 A 
ENDROOT
BRANCH   1   7
ATOM      7  C2  UNL d   1      -4.929   3.441  -5.984  0.00  0.00     0.056 C 
BRANCH   7   8
ATOM      8  C1  UNL d   1      -5.939   4.594  -5.990  0.00  0.00     0.007 C 
ATOM      9  C   UNL d   1      -5.281   5.968  -5.995  0.00  0.00     0.009 C 
ENDBRANCH   7   8
ENDBRANCH   1   7
TORSDOF 2
ENDMDL
