MODEL 1
REMARK minimizedAffinity 1.05726707
REMARK minimizedRMSD -1
REMARK  0 active torsions:
REMARK  status: ('A' for Active; 'I' for Inactive)
ROOT
ATOM      1  C   UNL d   1       2.933   1.352  -1.572  0.00  0.00     0.172 C 
ATOM      2  N   UNL d   1       1.888   1.147  -0.597  0.00  0.00    -0.070 N 
ATOM      3  C1  UNL d   1       0.546   1.299  -0.820  0.00  0.00    -0.004 A 
ATOM      4  C2  UNL d   1      -0.113   1.011   0.355  0.00  0.00    -0.047 A 
ATOM      5  C3  UNL d   1       0.866   0.674   1.319  0.00  0.00    -0.047 A 
ATOM      6  C4  UNL d   1       2.097   0.766   0.703  0.00  0.00    -0.004 A 
ENDROOT
TORSDOF 0
ENDMDL
