MODEL 1
REMARK minimizedAffinity -3.79315376
REMARK minimizedRMSD -1
REMARK  0 active torsions:
REMARK  status: ('A' for Active; 'I' for Inactive)
ROOT
ATOM      1  C   UNL d   1       1.771  -0.793  -2.872  0.00  0.00     0.172 C 
ATOM      2  N   UNL d   1       1.248  -0.110  -1.712  0.00  0.00    -0.070 N 
ATOM      3  C1  UNL d   1       0.349  -0.628  -0.818  0.00  0.00    -0.004 A 
ATOM      4  C2  UNL d   1       0.106   0.331   0.141  0.00  0.00    -0.047 A 
ATOM      5  C3  UNL d   1       0.885   1.466  -0.188  0.00  0.00    -0.047 A 
ATOM      6  C4  UNL d   1       1.582   1.165  -1.339  0.00  0.00    -0.004 A 
ENDROOT
TORSDOF 0
ENDMDL
