MODEL 1
REMARK minimizedAffinity -1.78853571
REMARK minimizedRMSD -1
REMARK  0 active torsions:
REMARK  status: ('A' for Active; 'I' for Inactive)
ROOT
ATOM      1  C   UNL d   1      -2.037   0.714   2.477  0.00  0.00     0.172 C 
ATOM      2  N   UNL d   1      -1.219   0.118   1.447  0.00  0.00    -0.070 N 
ATOM      3  C1  UNL d   1      -0.824  -1.192   1.398  0.00  0.00    -0.004 A 
ATOM      4  C2  UNL d   1      -0.060  -1.361   0.265  0.00  0.00    -0.047 A 
ATOM      5  C3  UNL d   1       0.009  -0.108  -0.391  0.00  0.00    -0.047 A 
ATOM      6  C4  UNL d   1      -0.718   0.790   0.363  0.00  0.00    -0.004 A 
ENDROOT
TORSDOF 0
ENDMDL
