MODEL 1
REMARK minimizedAffinity -3.91775107
REMARK minimizedRMSD -1
REMARK  0 active torsions:
REMARK  status: ('A' for Active; 'I' for Inactive)
ROOT
ATOM      1  C   UNL d   1      -0.214  -0.623   0.191  0.00  0.00     0.172 C 
ATOM      2  N   UNL d   1       0.660  -0.401  -0.936  0.00  0.00    -0.070 N 
ATOM      3  C1  UNL d   1       0.953   0.815  -1.492  0.00  0.00    -0.004 A 
ATOM      4  C2  UNL d   1       1.820   0.602  -2.542  0.00  0.00    -0.047 A 
ATOM      5  C3  UNL d   1       2.055  -0.791  -2.621  0.00  0.00    -0.047 A 
ATOM      6  C4  UNL d   1       1.325  -1.388  -1.615  0.00  0.00    -0.004 A 
ENDROOT
TORSDOF 0
ENDMDL
