MODEL 1
REMARK minimizedAffinity -3.81786895
REMARK minimizedRMSD -1
REMARK  0 active torsions:
REMARK  status: ('A' for Active; 'I' for Inactive)
ROOT
ATOM      1  C   UNL d   1      -0.503  -0.171   1.069  0.00  0.00     0.172 C 
ATOM      2  N   UNL d   1       0.367  -0.049  -0.077  0.00  0.00    -0.070 N 
ATOM      3  C1  UNL d   1       0.680  -1.055  -0.952  0.00  0.00    -0.004 A 
ATOM      4  C2  UNL d   1       1.534  -0.538  -1.902  0.00  0.00    -0.047 A 
ATOM      5  C3  UNL d   1       1.742   0.826  -1.586  0.00  0.00    -0.047 A 
ATOM      6  C4  UNL d   1       1.008   1.102  -0.452  0.00  0.00    -0.004 A 
ENDROOT
TORSDOF 0
ENDMDL
