MODEL 1
REMARK minimizedAffinity -0.974358499
REMARK minimizedRMSD -1
REMARK  0 active torsions:
REMARK  status: ('A' for Active; 'I' for Inactive)
ROOT
ATOM      1  C   UNL d   1       1.823   0.888  -1.748  0.00  0.00     0.172 C 
ATOM      2  N   UNL d   1       1.122   0.314  -0.623  0.00  0.00    -0.070 N 
ATOM      3  C1  UNL d   1       0.959   0.904   0.602  0.00  0.00    -0.004 A 
ATOM      4  C2  UNL d   1       0.236   0.039   1.394  0.00  0.00    -0.047 A 
ATOM      5  C3  UNL d   1      -0.044  -1.112   0.620  0.00  0.00    -0.047 A 
ATOM      6  C4  UNL d   1       0.516  -0.915  -0.625  0.00  0.00    -0.004 A 
ENDROOT
TORSDOF 0
ENDMDL
