MODEL 1
REMARK minimizedAffinity -3.90543818
REMARK minimizedRMSD -1
REMARK  0 active torsions:
REMARK  status: ('A' for Active; 'I' for Inactive)
ROOT
ATOM      1  C   UNL d   1       0.370   0.392   0.053  0.00  0.00     0.172 C 
ATOM      2  N   UNL d   1       0.828  -0.414  -1.055  0.00  0.00    -0.070 N 
ATOM      3  C1  UNL d   1       1.507   0.048  -2.150  0.00  0.00    -0.004 A 
ATOM      4  C2  UNL d   1       1.762  -1.028  -2.973  0.00  0.00    -0.047 A 
ATOM      5  C3  UNL d   1       1.217  -2.176  -2.350  0.00  0.00    -0.047 A 
ATOM      6  C4  UNL d   1       0.644  -1.767  -1.164  0.00  0.00    -0.004 A 
ENDROOT
TORSDOF 0
ENDMDL
