MODEL 1
REMARK minimizedAffinity -1.65118492
REMARK minimizedRMSD -1
REMARK  0 active torsions:
REMARK  status: ('A' for Active; 'I' for Inactive)
ROOT
ATOM      1  C   UNL d   1       2.188   0.566  -1.844  0.00  0.00     0.172 C 
ATOM      2  N   UNL d   1       1.135   0.208  -0.923  0.00  0.00    -0.070 N 
ATOM      3  C1  UNL d   1       0.779  -1.068  -0.575  0.00  0.00    -0.004 A 
ATOM      4  C2  UNL d   1      -0.263  -0.985   0.323  0.00  0.00    -0.047 A 
ATOM      5  C3  UNL d   1      -0.544   0.388   0.521  0.00  0.00    -0.047 A 
ATOM      6  C4  UNL d   1       0.337   1.104  -0.263  0.00  0.00    -0.004 A 
ENDROOT
TORSDOF 0
ENDMDL
