MODEL 1
REMARK minimizedAffinity -3.38830543
REMARK minimizedRMSD -1
REMARK  0 active torsions:
REMARK  status: ('A' for Active; 'I' for Inactive)
ROOT
ATOM      1  C   UNL d   1      -0.201  -0.093   0.453  0.00  0.00     0.172 C 
ATOM      2  N   UNL d   1       0.468  -0.277  -0.813  0.00  0.00    -0.070 N 
ATOM      3  C1  UNL d   1       0.105   0.302  -2.000  0.00  0.00    -0.004 A 
ATOM      4  C2  UNL d   1       0.992  -0.123  -2.966  0.00  0.00    -0.047 A 
ATOM      5  C3  UNL d   1       1.919  -0.988  -2.338  0.00  0.00    -0.047 A 
ATOM      6  C4  UNL d   1       1.572  -1.066  -1.006  0.00  0.00    -0.004 A 
ENDROOT
TORSDOF 0
ENDMDL
