MODEL 1
REMARK minimizedAffinity -3.80104327
REMARK minimizedRMSD -1
REMARK  0 active torsions:
REMARK  status: ('A' for Active; 'I' for Inactive)
ROOT
ATOM      1  C   UNL d   1      -0.676  -0.463   0.068  0.00  0.00     0.172 C 
ATOM      2  N   UNL d   1       0.447  -0.313  -0.827  0.00  0.00    -0.070 N 
ATOM      3  C1  UNL d   1       0.840  -1.221  -1.774  0.00  0.00    -0.004 A 
ATOM      4  C2  UNL d   1       1.947  -0.709  -2.416  0.00  0.00    -0.047 A 
ATOM      5  C3  UNL d   1       2.229   0.550  -1.834  0.00  0.00    -0.047 A 
ATOM      6  C4  UNL d   1       1.285   0.770  -0.853  0.00  0.00    -0.004 A 
ENDROOT
TORSDOF 0
ENDMDL
