MODEL 1
REMARK minimizedAffinity -2.23281431
REMARK minimizedRMSD -1
REMARK  0 active torsions:
REMARK  status: ('A' for Active; 'I' for Inactive)
ROOT
ATOM      1  C   UNL d   1      -1.097   0.086  -0.766  0.00  0.00     0.172 C 
ATOM      2  N   UNL d   1      -2.107   0.272   0.248  0.00  0.00    -0.070 N 
ATOM      3  C1  UNL d   1      -3.400   0.666   0.025  0.00  0.00    -0.004 A 
ATOM      4  C2  UNL d   1      -4.040   0.724   1.243  0.00  0.00    -0.047 A 
ATOM      5  C3  UNL d   1      -3.100   0.353   2.234  0.00  0.00    -0.047 A 
ATOM      6  C4  UNL d   1      -1.912   0.079   1.590  0.00  0.00    -0.004 A 
ENDROOT
TORSDOF 0
ENDMDL
