MODEL 1
REMARK minimizedAffinity -3.98747683
REMARK minimizedRMSD -1
REMARK  0 active torsions:
REMARK  status: ('A' for Active; 'I' for Inactive)
ROOT
ATOM      1  C   UNL d   1       0.061  -0.322   0.892  0.00  0.00     0.172 C 
ATOM      2  N   UNL d   1       0.522  -0.303  -0.476  0.00  0.00    -0.070 N 
ATOM      3  C1  UNL d   1       0.812   0.819  -1.206  0.00  0.00    -0.004 A 
ATOM      4  C2  UNL d   1       1.217   0.414  -2.460  0.00  0.00    -0.047 A 
ATOM      5  C3  UNL d   1       1.167  -1.000  -2.485  0.00  0.00    -0.047 A 
ATOM      6  C4  UNL d   1       0.733  -1.418  -1.244  0.00  0.00    -0.004 A 
ENDROOT
TORSDOF 0
ENDMDL
