MODEL 1
REMARK minimizedAffinity -3.61688924
REMARK minimizedRMSD -1
REMARK  0 active torsions:
REMARK  status: ('A' for Active; 'I' for Inactive)
ROOT
ATOM      1  C   UNL d   1       1.856   0.381  -1.962  0.00  0.00     0.172 C 
ATOM      2  N   UNL d   1       1.171   0.161  -0.710  0.00  0.00    -0.070 N 
ATOM      3  C1  UNL d   1       0.638  -1.029  -0.290  0.00  0.00    -0.004 A 
ATOM      4  C2  UNL d   1       0.075  -0.824   0.951  0.00  0.00    -0.047 A 
ATOM      5  C3  UNL d   1       0.276   0.536   1.288  0.00  0.00    -0.047 A 
ATOM      6  C4  UNL d   1       0.957   1.122   0.243  0.00  0.00    -0.004 A 
ENDROOT
TORSDOF 0
ENDMDL
