MODEL 1
REMARK minimizedAffinity -1.30770743
REMARK minimizedRMSD -1
REMARK  0 active torsions:
REMARK  status: ('A' for Active; 'I' for Inactive)
ROOT
ATOM      1  C   UNL d   1       0.324  -2.354   0.154  0.00  0.00     0.172 C 
ATOM      2  N   UNL d   1       0.264  -0.925  -0.042  0.00  0.00    -0.070 N 
ATOM      3  C1  UNL d   1       1.333  -0.109  -0.303  0.00  0.00    -0.004 A 
ATOM      4  C2  UNL d   1       0.860   1.180  -0.424  0.00  0.00    -0.047 A 
ATOM      5  C3  UNL d   1      -0.541   1.137  -0.228  0.00  0.00    -0.047 A 
ATOM      6  C4  UNL d   1      -0.883  -0.178   0.006  0.00  0.00    -0.004 A 
ENDROOT
TORSDOF 0
ENDMDL
