MODEL 1
REMARK minimizedAffinity -3.71415758
REMARK minimizedRMSD -1
REMARK  0 active torsions:
REMARK  status: ('A' for Active; 'I' for Inactive)
ROOT
ATOM      1  C   UNL d   1       0.315   0.703   0.573  0.00  0.00     0.172 C 
ATOM      2  N   UNL d   1       0.801  -0.037  -0.569  0.00  0.00    -0.070 N 
ATOM      3  C1  UNL d   1       1.900   0.284  -1.319  0.00  0.00    -0.004 A 
ATOM      4  C2  UNL d   1       2.026  -0.665  -2.310  0.00  0.00    -0.047 A 
ATOM      5  C3  UNL d   1       0.965  -1.588  -2.151  0.00  0.00    -0.047 A 
ATOM      6  C4  UNL d   1       0.222  -1.175  -1.065  0.00  0.00    -0.004 A 
ENDROOT
TORSDOF 0
ENDMDL
