MODEL 1
REMARK minimizedAffinity -3.84233642
REMARK minimizedRMSD -1
REMARK  0 active torsions:
REMARK  status: ('A' for Active; 'I' for Inactive)
ROOT
ATOM      1  C   UNL d   1      -0.407  -0.160   0.244  0.00  0.00     0.172 C 
ATOM      2  N   UNL d   1       0.505  -0.317  -0.865  0.00  0.00    -0.070 N 
ATOM      3  C1  UNL d   1       0.810  -1.498  -1.486  0.00  0.00    -0.004 A 
ATOM      4  C2  UNL d   1       1.713  -1.226  -2.491  0.00  0.00    -0.047 A 
ATOM      5  C3  UNL d   1       1.959   0.167  -2.473  0.00  0.00    -0.047 A 
ATOM      6  C4  UNL d   1       1.198   0.706  -1.457  0.00  0.00    -0.004 A 
ENDROOT
TORSDOF 0
ENDMDL
