MODEL 1
REMARK minimizedAffinity -0.598826289
REMARK minimizedRMSD -1
REMARK  0 active torsions:
REMARK  status: ('A' for Active; 'I' for Inactive)
ROOT
ATOM      1  C   UNL d   1       2.070   1.514  -1.236  0.00  0.00     0.172 C 
ATOM      2  N   UNL d   1       1.239   0.629  -0.454  0.00  0.00    -0.070 N 
ATOM      3  C1  UNL d   1       1.532  -0.671  -0.138  0.00  0.00    -0.004 A 
ATOM      4  C2  UNL d   1       0.492  -1.166   0.618  0.00  0.00    -0.047 A 
ATOM      5  C3  UNL d   1      -0.460  -0.129   0.760  0.00  0.00    -0.047 A 
ATOM      6  C4  UNL d   1       0.028   0.971   0.088  0.00  0.00    -0.004 A 
ENDROOT
TORSDOF 0
ENDMDL
