MODEL 1
REMARK minimizedAffinity -4.16463041
REMARK minimizedRMSD -1
REMARK  0 active torsions:
REMARK  status: ('A' for Active; 'I' for Inactive)
ROOT
ATOM      1  C   UNL d   1       0.293  -2.032   0.624  0.00  0.00     0.172 C 
ATOM      2  N   UNL d   1       0.768  -1.238  -0.484  0.00  0.00    -0.070 N 
ATOM      3  C1  UNL d   1       1.032  -1.703  -1.745  0.00  0.00    -0.004 A 
ATOM      4  C2  UNL d   1       1.462  -0.639  -2.507  0.00  0.00    -0.047 A 
ATOM      5  C3  UNL d   1       1.458   0.506  -1.675  0.00  0.00    -0.047 A 
ATOM      6  C4  UNL d   1       1.024   0.107  -0.429  0.00  0.00    -0.004 A 
ENDROOT
TORSDOF 0
ENDMDL
