MODEL 1
REMARK minimizedAffinity 8.29434872
REMARK minimizedRMSD -1
REMARK  0 active torsions:
REMARK  status: ('A' for Active; 'I' for Inactive)
ROOT
ATOM      1  C4' PXY d   1       1.151   1.130   2.144  0.00  0.00     0.077 C 
ATOM      2  C1' PXY d   1       5.877  -1.284  -0.148  0.00  0.00     0.077 C 
ATOM      3  C1  PXY d   1       4.637  -0.642   0.443  0.00  0.00    -0.082 A 
ATOM      4  C2  PXY d   1       4.420  -0.716   1.746  0.00  0.00     0.003 A 
ATOM      5  C3  PXY d   1       3.288  -0.170   2.293  0.00  0.00     0.003 A 
ATOM      6  C4  PXY d   1       2.394   0.506   1.505  0.00  0.00    -0.082 A 
ATOM      7  C5  PXY d   1       2.613   0.594   0.176  0.00  0.00     0.003 A 
ATOM      8  C6  PXY d   1       3.748  -0.003  -0.365  0.00  0.00     0.003 A 
ENDROOT
TORSDOF 0
ENDMDL
