MODEL 1
REMARK minimizedAffinity 7.21960115
REMARK minimizedRMSD -1
REMARK  0 active torsions:
REMARK  status: ('A' for Active; 'I' for Inactive)
ROOT
ATOM      1  C4' PXY d   1       0.498   2.281  -2.234  0.00  0.00     0.077 C 
ATOM      2  C1' PXY d   1       4.526   0.257   1.384  0.00  0.00     0.077 C 
ATOM      3  C1  PXY d   1       3.479   0.789   0.426  0.00  0.00    -0.082 A 
ATOM      4  C2  PXY d   1       2.382   1.355   0.904  0.00  0.00     0.003 A 
ATOM      5  C3  PXY d   1       1.411   1.813   0.052  0.00  0.00     0.003 A 
ATOM      6  C4  PXY d   1       1.587   1.739  -1.304  0.00  0.00    -0.082 A 
ATOM      7  C5  PXY d   1       2.708   1.173  -1.799  0.00  0.00     0.003 A 
ATOM      8  C6  PXY d   1       3.664   0.677  -0.918  0.00  0.00     0.003 A 
ENDROOT
TORSDOF 0
ENDMDL
