MODEL 1
REMARK minimizedAffinity 16.5399399
REMARK minimizedRMSD -1
REMARK  0 active torsions:
REMARK  status: ('A' for Active; 'I' for Inactive)
ROOT
ATOM      1  C4' PXY d   1       4.641  -0.899  -0.353  0.00  0.00     0.077 C 
ATOM      2  C1' PXY d   1       0.686   3.050   1.123  0.00  0.00     0.077 C 
ATOM      3  C1  PXY d   1       1.724   2.011   0.749  0.00  0.00    -0.082 A 
ATOM      4  C2  PXY d   1       2.436   2.166  -0.356  0.00  0.00     0.003 A 
ATOM      5  C3  PXY d   1       3.357   1.220  -0.726  0.00  0.00     0.003 A 
ATOM      6  C4  PXY d   1       3.589   0.130   0.069  0.00  0.00    -0.082 A 
ATOM      7  C5  PXY d   1       2.874  -0.030   1.203  0.00  0.00     0.003 A 
ATOM      8  C6  PXY d   1       1.915   0.921   1.541  0.00  0.00     0.003 A 
ENDROOT
TORSDOF 0
ENDMDL
