MODEL 1
REMARK minimizedAffinity 3.86339545
REMARK minimizedRMSD -1
REMARK  0 active torsions:
REMARK  status: ('A' for Active; 'I' for Inactive)
ROOT
ATOM      1  C4' PXY d   1       3.365   1.878  -3.441  0.00  0.00     0.077 C 
ATOM      2  C1' PXY d   1       3.000  -0.295   1.904  0.00  0.00     0.077 C 
ATOM      3  C1  PXY d   1       3.083   0.275   0.501  0.00  0.00    -0.082 A 
ATOM      4  C2  PXY d   1       4.158   0.048  -0.235  0.00  0.00     0.003 A 
ATOM      5  C3  PXY d   1       4.263   0.582  -1.493  0.00  0.00     0.003 A 
ATOM      6  C4  PXY d   1       3.234   1.314  -2.023  0.00  0.00    -0.082 A 
ATOM      7  C5  PXY d   1       2.129   1.542  -1.282  0.00  0.00     0.003 A 
ATOM      8  C6  PXY d   1       2.060   1.025   0.008  0.00  0.00     0.003 A 
ENDROOT
TORSDOF 0
ENDMDL
