MODEL 1
REMARK minimizedAffinity 18.1357346
REMARK minimizedRMSD -1
REMARK  0 active torsions:
REMARK  status: ('A' for Active; 'I' for Inactive)
ROOT
ATOM      1  C4' PXY d   1      -5.993  -3.401  -4.362  0.00  0.00     0.077 C 
ATOM      2  C1' PXY d   1      -3.757  -5.999   0.293  0.00  0.00     0.077 C 
ATOM      3  C1  PXY d   1      -4.349  -5.329  -0.932  0.00  0.00    -0.082 A 
ATOM      4  C2  PXY d   1      -3.785  -4.234  -1.415  0.00  0.00     0.003 A 
ATOM      5  C3  PXY d   1      -4.325  -3.598  -2.502  0.00  0.00     0.003 A 
ATOM      6  C4  PXY d   1      -5.424  -4.116  -3.134  0.00  0.00    -0.082 A 
ATOM      7  C5  PXY d   1      -5.999  -5.239  -2.653  0.00  0.00     0.003 A 
ATOM      8  C6  PXY d   1      -5.459  -5.847  -1.523  0.00  0.00     0.003 A 
ENDROOT
TORSDOF 0
ENDMDL
