MODEL 1
REMARK minimizedAffinity 11.5983562
REMARK minimizedRMSD -1
REMARK  0 active torsions:
REMARK  status: ('A' for Active; 'I' for Inactive)
ROOT
ATOM      1  C4' PXY d   1      -6.000  -3.008  -4.749  0.00  0.00     0.077 C 
ATOM      2  C1' PXY d   1      -3.812  -6.000  -0.313  0.00  0.00     0.077 C 
ATOM      3  C1  PXY d   1      -4.380  -5.204  -1.472  0.00  0.00    -0.082 A 
ATOM      4  C2  PXY d   1      -5.490  -5.614  -2.065  0.00  0.00     0.003 A 
ATOM      5  C3  PXY d   1      -5.999  -4.924  -3.135  0.00  0.00     0.003 A 
ATOM      6  C4  PXY d   1      -5.396  -3.774  -3.569  0.00  0.00    -0.082 A 
ATOM      7  C5  PXY d   1      -4.269  -3.345  -2.963  0.00  0.00     0.003 A 
ATOM      8  C6  PXY d   1      -3.745  -4.081  -1.904  0.00  0.00     0.003 A 
ENDROOT
TORSDOF 0
ENDMDL
