MODEL 1
REMARK minimizedAffinity 5.24015093
REMARK minimizedRMSD -1
REMARK  0 active torsions:
REMARK  status: ('A' for Active; 'I' for Inactive)
ROOT
ATOM      1  C4' PXY d   1      -3.738  -6.000   1.637  0.00  0.00     0.077 C 
ATOM      2  C1' PXY d   1       0.134  -1.788   0.810  0.00  0.00     0.077 C 
ATOM      3  C1  PXY d   1      -0.872  -2.901   1.028  0.00  0.00    -0.082 A 
ATOM      4  C2  PXY d   1      -2.106  -2.767   0.570  0.00  0.00     0.003 A 
ATOM      5  C3  PXY d   1      -3.037  -3.750   0.786  0.00  0.00     0.003 A 
ATOM      6  C4  PXY d   1      -2.687  -4.906   1.431  0.00  0.00    -0.082 A 
ATOM      7  C5  PXY d   1      -1.427  -5.055   1.892  0.00  0.00     0.003 A 
ATOM      8  C6  PXY d   1      -0.508  -4.027   1.699  0.00  0.00     0.003 A 
ENDROOT
TORSDOF 0
ENDMDL
