MODEL 1
REMARK minimizedAffinity 17.4977074
REMARK minimizedRMSD -1
REMARK  0 active torsions:
REMARK  status: ('A' for Active; 'I' for Inactive)
ROOT
ATOM      1  C4' PXY d   1      -1.462  -3.526  -6.000  0.00  0.00     0.077 C 
ATOM      2  C1' PXY d   1      -2.737  -2.422  -0.471  0.00  0.00     0.077 C 
ATOM      3  C1  PXY d   1      -2.399  -2.724  -1.917  0.00  0.00    -0.082 A 
ATOM      4  C2  PXY d   1      -2.069  -1.735  -2.732  0.00  0.00     0.003 A 
ATOM      5  C3  PXY d   1      -1.792  -1.986  -4.051  0.00  0.00     0.003 A 
ATOM      6  C4  PXY d   1      -1.801  -3.269  -4.529  0.00  0.00    -0.082 A 
ATOM      7  C5  PXY d   1      -2.127  -4.285  -3.701  0.00  0.00     0.003 A 
ATOM      8  C6  PXY d   1      -2.445  -4.004  -2.376  0.00  0.00     0.003 A 
ENDROOT
TORSDOF 0
ENDMDL
