MODEL 1
REMARK minimizedAffinity 7.71615601
REMARK minimizedRMSD -1
REMARK  0 active torsions:
REMARK  status: ('A' for Active; 'I' for Inactive)
ROOT
ATOM      1  C4' PXY d   1      -1.827  -3.456   2.031  0.00  0.00     0.077 C 
ATOM      2  C1' PXY d   1      -1.638  -1.945  -3.546  0.00  0.00     0.077 C 
ATOM      3  C1  PXY d   1      -1.675  -2.345  -2.084  0.00  0.00    -0.082 A 
ATOM      4  C2  PXY d   1      -2.832  -2.650  -1.518  0.00  0.00     0.003 A 
ATOM      5  C3  PXY d   1      -2.888  -2.982  -0.189  0.00  0.00     0.003 A 
ATOM      6  C4  PXY d   1      -1.741  -3.056   0.555  0.00  0.00    -0.082 A 
ATOM      7  C5  PXY d   1      -0.556  -2.757  -0.018  0.00  0.00     0.003 A 
ATOM      8  C6  PXY d   1      -0.525  -2.382  -1.358  0.00  0.00     0.003 A 
ENDROOT
TORSDOF 0
ENDMDL
