MODEL 1
REMARK minimizedAffinity 11.2001152
REMARK minimizedRMSD -1
REMARK  0 active torsions:
REMARK  status: ('A' for Active; 'I' for Inactive)
ROOT
ATOM      1  C4' PXY d   1      -4.889  -5.999   1.495  0.00  0.00     0.077 C 
ATOM      2  C1' PXY d   1      -0.328  -2.469   1.101  0.00  0.00     0.077 C 
ATOM      3  C1  PXY d   1      -1.516  -3.405   1.205  0.00  0.00    -0.082 A 
ATOM      4  C2  PXY d   1      -2.688  -3.031   0.719  0.00  0.00     0.003 A 
ATOM      5  C3  PXY d   1      -3.781  -3.852   0.833  0.00  0.00     0.003 A 
ATOM      6  C4  PXY d   1      -3.660  -5.091   1.404  0.00  0.00    -0.082 A 
ATOM      7  C5  PXY d   1      -2.465  -5.484   1.893  0.00  0.00     0.003 A 
ATOM      8  C6  PXY d   1      -1.378  -4.619   1.804  0.00  0.00     0.003 A 
ENDROOT
TORSDOF 0
ENDMDL
