MODEL 1
REMARK minimizedAffinity 1.93419695
REMARK minimizedRMSD -1
REMARK  0 active torsions:
REMARK  status: ('A' for Active; 'I' for Inactive)
ROOT
ATOM      1  C4' PXY d   1      -2.282  -6.000   2.251  0.00  0.00     0.077 C 
ATOM      2  C1' PXY d   1      -2.761  -2.300  -2.165  0.00  0.00     0.077 C 
ATOM      3  C1  PXY d   1      -2.624  -3.264  -1.003  0.00  0.00    -0.082 A 
ATOM      4  C2  PXY d   1      -3.190  -4.458  -1.074  0.00  0.00     0.003 A 
ATOM      5  C3  PXY d   1      -3.104  -5.330  -0.020  0.00  0.00     0.003 A 
ATOM      6  C4  PXY d   1      -2.386  -4.997   1.098  0.00  0.00    -0.082 A 
ATOM      7  C5  PXY d   1      -1.797  -3.785   1.174  0.00  0.00     0.003 A 
ATOM      8  C6  PXY d   1      -1.931  -2.898   0.110  0.00  0.00     0.003 A 
ENDROOT
TORSDOF 0
ENDMDL
