MODEL 1
REMARK minimizedAffinity 2.06299281
REMARK minimizedRMSD -1
REMARK  0 active torsions:
REMARK  status: ('A' for Active; 'I' for Inactive)
ROOT
ATOM      1  C4' PXY d   1      -0.202   1.824   2.405  0.00  0.00     0.077 C 
ATOM      2  C1' PXY d   1       4.295   0.192  -0.839  0.00  0.00     0.077 C 
ATOM      3  C1  PXY d   1       3.116   0.632   0.006  0.00  0.00    -0.082 A 
ATOM      4  C2  PXY d   1       2.854   0.003   1.141  0.00  0.00     0.003 A 
ATOM      5  C3  PXY d   1       1.773   0.367   1.901  0.00  0.00     0.003 A 
ATOM      6  C4  PXY d   1       0.983   1.420   1.524  0.00  0.00    -0.082 A 
ATOM      7  C5  PXY d   1       1.250   2.073   0.373  0.00  0.00     0.003 A 
ATOM      8  C6  PXY d   1       2.328   1.662  -0.406  0.00  0.00     0.003 A 
ENDROOT
TORSDOF 0
ENDMDL
