MODEL 1
REMARK minimizedAffinity 0.993243039
REMARK minimizedRMSD -1
REMARK  0 active torsions:
REMARK  status: ('A' for Active; 'I' for Inactive)
ROOT
ATOM      1  C4' PXY d   1       3.674   1.109  -2.617  0.00  0.00     0.077 C 
ATOM      2  C1' PXY d   1       3.776  -0.254   3.000  0.00  0.00     0.077 C 
ATOM      3  C1  PXY d   1       3.762   0.100   1.526  0.00  0.00    -0.082 A 
ATOM      4  C2  PXY d   1       2.892   0.989   1.075  0.00  0.00     0.003 A 
ATOM      5  C3  PXY d   1       2.844   1.297  -0.260  0.00  0.00     0.003 A 
ATOM      6  C4  PXY d   1       3.731   0.728  -1.135  0.00  0.00    -0.082 A 
ATOM      7  C5  PXY d   1       4.628  -0.172  -0.681  0.00  0.00     0.003 A 
ATOM      8  C6  PXY d   1       4.634  -0.501   0.671  0.00  0.00     0.003 A 
ENDROOT
TORSDOF 0
ENDMDL
