MODEL 1
REMARK minimizedAffinity 6.24340248
REMARK minimizedRMSD -1
REMARK  0 active torsions:
REMARK  status: ('A' for Active; 'I' for Inactive)
ROOT
ATOM      1  C4' PXY d   1       2.110   0.129   3.065  0.00  0.00     0.077 C 
ATOM      2  C1' PXY d   1       3.719   1.436  -2.331  0.00  0.00     0.077 C 
ATOM      3  C1  PXY d   1       3.303   1.082  -0.917  0.00  0.00    -0.082 A 
ATOM      4  C2  PXY d   1       2.198   1.603  -0.410  0.00  0.00     0.003 A 
ATOM      5  C3  PXY d   1       1.825   1.319   0.879  0.00  0.00     0.003 A 
ATOM      6  C4  PXY d   1       2.562   0.451   1.638  0.00  0.00    -0.082 A 
ATOM      7  C5  PXY d   1       3.686  -0.094   1.124  0.00  0.00     0.003 A 
ATOM      8  C6  PXY d   1       4.069   0.240  -0.172  0.00  0.00     0.003 A 
ENDROOT
TORSDOF 0
ENDMDL
