MODEL 1
REMARK minimizedAffinity 9.65311337
REMARK minimizedRMSD -1
REMARK  0 active torsions:
REMARK  status: ('A' for Active; 'I' for Inactive)
ROOT
ATOM      1  C4' PXY d   1      -1.809  -2.599  -5.953  0.00  0.00     0.077 C 
ATOM      2  C1' PXY d   1      -2.575  -3.262  -0.262  0.00  0.00     0.077 C 
ATOM      3  C1  PXY d   1      -2.364  -3.096  -1.754  0.00  0.00    -0.082 A 
ATOM      4  C2  PXY d   1      -2.790  -1.998  -2.357  0.00  0.00     0.003 A 
ATOM      5  C3  PXY d   1      -2.636  -1.847  -3.711  0.00  0.00     0.003 A 
ATOM      6  C4  PXY d   1      -1.992  -2.805  -4.447  0.00  0.00    -0.082 A 
ATOM      7  C5  PXY d   1      -1.545  -3.923  -3.837  0.00  0.00     0.003 A 
ATOM      8  C6  PXY d   1      -1.748  -4.077  -2.468  0.00  0.00     0.003 A 
ENDROOT
TORSDOF 0
ENDMDL
