MODEL 1
REMARK minimizedAffinity 15.3606558
REMARK minimizedRMSD -1
REMARK  0 active torsions:
REMARK  status: ('A' for Active; 'I' for Inactive)
ROOT
ATOM      1  C4' PXY d   1      -1.765  -5.989   4.851  0.00  0.00     0.077 C 
ATOM      2  C1' PXY d   1      -1.644  -2.662   0.126  0.00  0.00     0.077 C 
ATOM      3  C1  PXY d   1      -1.683  -3.543   1.358  0.00  0.00    -0.082 A 
ATOM      4  C2  PXY d   1      -1.564  -2.997   2.557  0.00  0.00     0.003 A 
ATOM      5  C3  PXY d   1      -1.564  -3.783   3.681  0.00  0.00     0.003 A 
ATOM      6  C4  PXY d   1      -1.741  -5.137   3.579  0.00  0.00    -0.082 A 
ATOM      7  C5  PXY d   1      -1.874  -5.701   2.360  0.00  0.00     0.003 A 
ATOM      8  C6  PXY d   1      -1.830  -4.890   1.229  0.00  0.00     0.003 A 
ENDROOT
TORSDOF 0
ENDMDL
