MODEL 1
REMARK minimizedAffinity 1.84814012
REMARK minimizedRMSD -1
REMARK  0 active torsions:
REMARK  status: ('A' for Active; 'I' for Inactive)
ROOT
ATOM      1  C4' PXY d   1       2.581   1.295   1.055  0.00  0.00     0.077 C 
ATOM      2  C1' PXY d   1      -2.920   1.984   2.693  0.00  0.00     0.077 C 
ATOM      3  C1  PXY d   1      -1.477   1.815   2.258  0.00  0.00    -0.082 A 
ATOM      4  C2  PXY d   1      -0.970   0.600   2.134  0.00  0.00     0.003 A 
ATOM      5  C3  PXY d   1       0.342   0.429   1.772  0.00  0.00     0.003 A 
ATOM      6  C4  PXY d   1       1.127   1.513   1.483  0.00  0.00    -0.082 A 
ATOM      7  C5  PXY d   1       0.613   2.756   1.597  0.00  0.00     0.003 A 
ATOM      8  C6  PXY d   1      -0.709   2.909   2.006  0.00  0.00     0.003 A 
ENDROOT
TORSDOF 0
ENDMDL
