MODEL 1
REMARK minimizedAffinity 2.19901371
REMARK minimizedRMSD -1
REMARK  0 active torsions:
REMARK  status: ('A' for Active; 'I' for Inactive)
ROOT
ATOM      1  C4' PXY d   1      -5.889   2.058   6.000  0.00  0.00     0.077 C 
ATOM      2  C1' PXY d   1      -1.301   2.070   2.483  0.00  0.00     0.077 C 
ATOM      3  C1  PXY d   1      -2.510   2.059   3.397  0.00  0.00    -0.082 A 
ATOM      4  C2  PXY d   1      -2.722   3.077   4.215  0.00  0.00     0.003 A 
ATOM      5  C3  PXY d   1      -3.793   3.069   5.071  0.00  0.00     0.003 A 
ATOM      6  C4  PXY d   1      -4.686   2.031   5.053  0.00  0.00    -0.082 A 
ATOM      7  C5  PXY d   1      -4.483   0.993   4.214  0.00  0.00     0.003 A 
ATOM      8  C6  PXY d   1      -3.367   1.002   3.382  0.00  0.00     0.003 A 
ENDROOT
TORSDOF 0
ENDMDL
