MODEL 1
REMARK minimizedAffinity 6.0125165
REMARK minimizedRMSD -1
REMARK  0 active torsions:
REMARK  status: ('A' for Active; 'I' for Inactive)
ROOT
ATOM      1  C4' PXY d   1       2.843   1.215   0.987  0.00  0.00     0.077 C 
ATOM      2  C1' PXY d   1      -2.653   1.939   2.626  0.00  0.00     0.077 C 
ATOM      3  C1  PXY d   1      -1.210   1.739   2.204  0.00  0.00    -0.082 A 
ATOM      4  C2  PXY d   1      -0.521   2.761   1.726  0.00  0.00     0.003 A 
ATOM      5  C3  PXY d   1       0.775   2.591   1.310  0.00  0.00     0.003 A 
ATOM      6  C4  PXY d   1       1.388   1.373   1.434  0.00  0.00    -0.082 A 
ATOM      7  C5  PXY d   1       0.694   0.327   1.931  0.00  0.00     0.003 A 
ATOM      8  C6  PXY d   1      -0.633   0.511   2.309  0.00  0.00     0.003 A 
ENDROOT
TORSDOF 0
ENDMDL
