MODEL 1
REMARK minimizedAffinity 5.88465309
REMARK minimizedRMSD -1
REMARK  0 active torsions:
REMARK  status: ('A' for Active; 'I' for Inactive)
ROOT
ATOM      1  C   UNL d   1      -0.643   2.405   2.274  0.00  0.00     0.077 C 
ATOM      2  C1  UNL d   1      -0.256   3.092   0.998  0.00  0.00    -0.074 A 
ATOM      3  C2  UNL d   1       1.082   3.164   0.597  0.00  0.00    -0.005 A 
ATOM      4  C3  UNL d   1       1.425   3.798  -0.597  0.00  0.00     0.006 A 
ATOM      5  C4  UNL d   1       0.436   4.365  -1.401  0.00  0.00    -0.005 A 
ATOM      6  C5  UNL d   1      -0.907   4.302  -1.017  0.00  0.00    -0.074 A 
ATOM      7  C6  UNL d   1      -1.984   4.897  -1.875  0.00  0.00     0.077 C 
ATOM      8  C7  UNL d   1      -1.245   3.657   0.180  0.00  0.00    -0.001 A 
ENDROOT
TORSDOF 0
ENDMDL
