MODEL 1
REMARK minimizedAffinity 2.33313131
REMARK minimizedRMSD -1
REMARK  0 active torsions:
REMARK  status: ('A' for Active; 'I' for Inactive)
ROOT
ATOM      1  C   UNL d   1      -2.640   4.882  -1.880  0.00  0.00     0.077 C 
ATOM      2  C1  UNL d   1      -1.361   4.435  -1.239  0.00  0.00    -0.074 A 
ATOM      3  C2  UNL d   1      -0.122   4.754  -1.806  0.00  0.00    -0.005 A 
ATOM      4  C3  UNL d   1       1.060   4.339  -1.193  0.00  0.00     0.006 A 
ATOM      5  C4  UNL d   1       1.016   3.603  -0.008  0.00  0.00    -0.005 A 
ATOM      6  C5  UNL d   1      -0.212   3.275   0.574  0.00  0.00    -0.074 A 
ATOM      7  C6  UNL d   1      -0.277   2.493   1.852  0.00  0.00     0.077 C 
ATOM      8  C7  UNL d   1      -1.396   3.701  -0.044  0.00  0.00    -0.001 A 
ENDROOT
TORSDOF 0
ENDMDL
