MODEL 1
REMARK minimizedAffinity 4.29549885
REMARK minimizedRMSD -1
REMARK  0 active torsions:
REMARK  status: ('A' for Active; 'I' for Inactive)
ROOT
ATOM      1  C   UNL d   1       1.200   5.996  -4.006  0.00  0.00     0.077 C 
ATOM      2  C1  UNL d   1       0.258   5.456  -2.971  0.00  0.00    -0.074 A 
ATOM      3  C2  UNL d   1      -1.126   5.591  -3.119  0.00  0.00    -0.005 A 
ATOM      4  C3  UNL d   1      -1.990   5.075  -2.153  0.00  0.00     0.006 A 
ATOM      5  C4  UNL d   1      -1.479   4.420  -1.032  0.00  0.00    -0.005 A 
ATOM      6  C5  UNL d   1      -0.098   4.274  -0.868  0.00  0.00    -0.074 A 
ATOM      7  C6  UNL d   1       0.467   3.564   0.326  0.00  0.00     0.077 C 
ATOM      8  C7  UNL d   1       0.763   4.789  -1.846  0.00  0.00    -0.001 A 
ENDROOT
TORSDOF 0
ENDMDL
