MODEL 1
REMARK minimizedAffinity 2.31325364
REMARK minimizedRMSD -1
REMARK  0 active torsions:
REMARK  status: ('A' for Active; 'I' for Inactive)
ROOT
ATOM      1  C   UNL d   1      -1.214   2.573   3.529  0.00  0.00     0.077 C 
ATOM      2  C1  UNL d   1      -0.448   3.192   2.398  0.00  0.00    -0.074 A 
ATOM      3  C2  UNL d   1       0.832   3.718   2.599  0.00  0.00    -0.005 A 
ATOM      4  C3  UNL d   1       1.536   4.282   1.535  0.00  0.00     0.006 A 
ATOM      5  C4  UNL d   1       0.968   4.326   0.261  0.00  0.00    -0.005 A 
ATOM      6  C5  UNL d   1      -0.311   3.804   0.041  0.00  0.00    -0.074 A 
ATOM      7  C6  UNL d   1      -0.932   3.835  -1.324  0.00  0.00     0.077 C 
ATOM      8  C7  UNL d   1      -1.009   3.233   1.114  0.00  0.00    -0.001 A 
ENDROOT
TORSDOF 0
ENDMDL
