MODEL 1
REMARK minimizedAffinity 4.03081942
REMARK minimizedRMSD -1
REMARK  0 active torsions:
REMARK  status: ('A' for Active; 'I' for Inactive)
ROOT
ATOM      1  C   UNL d   1       0.615   3.711  -1.107  0.00  0.00     0.077 C 
ATOM      2  C1  UNL d   1       0.626   3.171   0.292  0.00  0.00    -0.074 A 
ATOM      3  C2  UNL d   1      -0.534   2.646   0.870  0.00  0.00    -0.005 A 
ATOM      4  C3  UNL d   1      -0.506   2.139   2.169  0.00  0.00     0.006 A 
ATOM      5  C4  UNL d   1       0.681   2.152   2.903  0.00  0.00    -0.005 A 
ATOM      6  C5  UNL d   1       1.851   2.673   2.342  0.00  0.00    -0.074 A 
ATOM      7  C6  UNL d   1       3.137   2.685   3.113  0.00  0.00     0.077 C 
ATOM      8  C7  UNL d   1       1.817   3.174   1.033  0.00  0.00    -0.001 A 
ENDROOT
TORSDOF 0
ENDMDL
