MODEL 1
REMARK minimizedAffinity 2.54378414
REMARK minimizedRMSD -1
REMARK  0 active torsions:
REMARK  status: ('A' for Active; 'I' for Inactive)
ROOT
ATOM      1  C   UNL d   1       0.008   2.335   2.969  0.00  0.00     0.077 C 
ATOM      2  C1  UNL d   1      -0.181   2.764   1.544  0.00  0.00    -0.074 A 
ATOM      3  C2  UNL d   1      -0.187   1.827   0.506  0.00  0.00    -0.005 A 
ATOM      4  C3  UNL d   1      -0.374   2.240  -0.813  0.00  0.00     0.006 A 
ATOM      5  C4  UNL d   1      -0.555   3.592  -1.107  0.00  0.00    -0.005 A 
ATOM      6  C5  UNL d   1      -0.552   4.544  -0.082  0.00  0.00    -0.074 A 
ATOM      7  C6  UNL d   1      -0.756   6.000  -0.379  0.00  0.00     0.077 C 
ATOM      8  C7  UNL d   1      -0.371   4.120   1.242  0.00  0.00    -0.001 A 
ENDROOT
TORSDOF 0
ENDMDL
