MODEL 1
REMARK minimizedAffinity -4.35711861
REMARK minimizedRMSD -1
REMARK  1 active torsions:
REMARK  status: ('A' for Active; 'I' for Inactive)
REMARK    1  A    between atoms: C3_4  and  O_7 
ROOT
ATOM      1  C   UNL d   1      -1.860  -0.845   2.329  0.00  0.00    -0.033 A 
ATOM      2  C1  UNL d   1      -0.526  -0.779   2.734  0.00  0.00     0.039 A 
ATOM      3  C2  UNL d   1       0.493  -0.715   1.782  0.00  0.00    -0.080 A 
ATOM      4  C3  UNL d   1       0.164  -0.717   0.429  0.00  0.00     0.150 A 
ATOM      5  C4  UNL d   1      -1.163  -0.779   0.018  0.00  0.00    -0.007 A 
ATOM      6  C5  UNL d   1      -2.179  -0.843   0.970  0.00  0.00     0.039 A 
ENDROOT
BRANCH   4   7
ATOM      7  O   UNL d   1       1.124  -0.661  -0.538  0.00  0.00    -0.526 OA
ATOM      8  H5  UNL d   1       1.995  -0.651  -0.106  0.00  0.00     0.418 HD
ENDBRANCH   4   7
TORSDOF 1
ENDMDL
