MODEL 1
REMARK minimizedAffinity -4.32156563
REMARK minimizedRMSD -1
REMARK  1 active torsions:
REMARK  status: ('A' for Active; 'I' for Inactive)
REMARK    1  A    between atoms: C3_4  and  O_7 
ROOT
ATOM      1  C   UNL d   1      -2.970   0.355   1.343  0.00  0.00    -0.033 A 
ATOM      2  C1  UNL d   1      -2.743  -0.862   0.697  0.00  0.00     0.039 A 
ATOM      3  C2  UNL d   1      -1.466  -1.426   0.695  0.00  0.00    -0.080 A 
ATOM      4  C3  UNL d   1      -0.426  -0.764   1.341  0.00  0.00     0.150 A 
ATOM      5  C4  UNL d   1      -0.645   0.447   1.989  0.00  0.00    -0.007 A 
ATOM      6  C5  UNL d   1      -1.921   1.009   1.990  0.00  0.00     0.039 A 
ENDROOT
BRANCH   4   7
ATOM      7  O   UNL d   1       0.839  -1.272   1.361  0.00  0.00    -0.526 OA
ATOM      8  H5  UNL d   1       0.847  -2.098   0.849  0.00  0.00     0.418 HD
ENDBRANCH   4   7
TORSDOF 1
ENDMDL
