MODEL 1
REMARK minimizedAffinity -1.19843495
REMARK minimizedRMSD -1
REMARK  1 active torsions:
REMARK  status: ('A' for Active; 'I' for Inactive)
REMARK    1  A    between atoms: C3_4  and  O_7 
ROOT
ATOM      1  C   UNL d   1      -4.558   1.300   1.699  0.00  0.00    -0.033 A 
ATOM      2  C1  UNL d   1      -4.468   1.041   0.330  0.00  0.00     0.039 A 
ATOM      3  C2  UNL d   1      -3.407   0.285  -0.171  0.00  0.00    -0.080 A 
ATOM      4  C3  UNL d   1      -2.444  -0.206   0.706  0.00  0.00     0.150 A 
ATOM      5  C4  UNL d   1      -2.529   0.045   2.072  0.00  0.00    -0.007 A 
ATOM      6  C5  UNL d   1      -3.590   0.801   2.570  0.00  0.00     0.039 A 
ENDROOT
BRANCH   4   7
ATOM      7  O   UNL d   1      -1.387  -0.945   0.264  0.00  0.00    -0.526 OA
ATOM      8  H5  UNL d   1      -1.443  -1.013  -0.704  0.00  0.00     0.418 HD
ENDBRANCH   4   7
TORSDOF 1
ENDMDL
