MODEL 1
REMARK minimizedAffinity -5.06056976
REMARK minimizedRMSD -1
REMARK  1 active torsions:
REMARK  status: ('A' for Active; 'I' for Inactive)
REMARK    1  A    between atoms: C3_4  and  O_7 
ROOT
ATOM      1  C   UNL d   1      -0.896  -0.687   0.229  0.00  0.00    -0.033 A 
ATOM      2  C1  UNL d   1      -2.191  -0.170   0.149  0.00  0.00     0.039 A 
ATOM      3  C2  UNL d   1      -2.714   0.573   1.209  0.00  0.00    -0.080 A 
ATOM      4  C3  UNL d   1      -1.934   0.791   2.341  0.00  0.00     0.150 A 
ATOM      5  C4  UNL d   1      -0.642   0.283   2.426  0.00  0.00    -0.007 A 
ATOM      6  C5  UNL d   1      -0.122  -0.459   1.366  0.00  0.00     0.039 A 
ENDROOT
BRANCH   4   7
ATOM      7  O   UNL d   1      -2.403   1.506   3.403  0.00  0.00    -0.526 OA
ATOM      8  H5  UNL d   1      -3.319   1.770   3.216  0.00  0.00     0.418 HD
ENDBRANCH   4   7
TORSDOF 1
ENDMDL
