MODEL 1
REMARK minimizedAffinity -1.31639636
REMARK minimizedRMSD -1
REMARK  1 active torsions:
REMARK  status: ('A' for Active; 'I' for Inactive)
REMARK    1  A    between atoms: C3_4  and  O_7 
ROOT
ATOM      1  C   UNL d   1      -0.157  -3.074  -3.005  0.00  0.00    -0.033 A 
ATOM      2  C1  UNL d   1       0.226  -1.865  -2.421  0.00  0.00     0.039 A 
ATOM      3  C2  UNL d   1       0.150  -0.678  -3.154  0.00  0.00    -0.080 A 
ATOM      4  C3  UNL d   1      -0.312  -0.715  -4.466  0.00  0.00     0.150 A 
ATOM      5  C4  UNL d   1      -0.700  -1.915  -5.053  0.00  0.00    -0.007 A 
ATOM      6  C5  UNL d   1      -0.622  -3.099  -4.320  0.00  0.00     0.039 A 
ENDROOT
BRANCH   4   7
ATOM      7  O   UNL d   1      -0.400   0.416  -5.223  0.00  0.00    -0.526 OA
ATOM      8  H5  UNL d   1      -0.072   1.164  -4.696  0.00  0.00     0.418 HD
ENDBRANCH   4   7
TORSDOF 1
ENDMDL
