MODEL 1
REMARK minimizedAffinity -3.22015357
REMARK minimizedRMSD -1
REMARK  1 active torsions:
REMARK  status: ('A' for Active; 'I' for Inactive)
REMARK    1  A    between atoms: C3_4  and  O_7 
ROOT
ATOM      1  C   UNL d   1      -2.633   0.044   2.096  0.00  0.00    -0.033 A 
ATOM      2  C1  UNL d   1      -3.289  -0.245   0.898  0.00  0.00     0.039 A 
ATOM      3  C2  UNL d   1      -2.607  -0.893  -0.134  0.00  0.00    -0.080 A 
ATOM      4  C3  UNL d   1      -1.273  -1.246   0.044  0.00  0.00     0.150 A 
ATOM      5  C4  UNL d   1      -0.614  -0.965   1.237  0.00  0.00    -0.007 A 
ATOM      6  C5  UNL d   1      -1.296  -0.317   2.266  0.00  0.00     0.039 A 
ENDROOT
BRANCH   4   7
ATOM      7  O   UNL d   1      -0.565  -1.875  -0.937  0.00  0.00    -0.526 OA
ATOM      8  H5  UNL d   1      -1.140  -1.979  -1.713  0.00  0.00     0.418 HD
ENDBRANCH   4   7
TORSDOF 1
ENDMDL
