MODEL 1
REMARK minimizedAffinity -4.99326515
REMARK minimizedRMSD -1
REMARK  1 active torsions:
REMARK  status: ('A' for Active; 'I' for Inactive)
REMARK    1  A    between atoms: C3_4  and  O_7 
ROOT
ATOM      1  C   UNL d   1      -1.224  -1.869  -3.416  0.00  0.00    -0.033 A 
ATOM      2  C1  UNL d   1      -1.201  -1.195  -4.638  0.00  0.00     0.039 A 
ATOM      3  C2  UNL d   1      -0.304  -0.145  -4.842  0.00  0.00    -0.080 A 
ATOM      4  C3  UNL d   1       0.565   0.220  -3.817  0.00  0.00     0.150 A 
ATOM      5  C4  UNL d   1       0.550  -0.450  -2.598  0.00  0.00    -0.007 A 
ATOM      6  C5  UNL d   1      -0.347  -1.498  -2.396  0.00  0.00     0.039 A 
ENDROOT
BRANCH   4   7
ATOM      7  O   UNL d   1       1.456   1.241  -3.967  0.00  0.00    -0.526 OA
ATOM      8  H5  UNL d   1       1.333   1.629  -4.849  0.00  0.00     0.418 HD
ENDBRANCH   4   7
TORSDOF 1
ENDMDL
