MODEL 1
REMARK minimizedAffinity -4.23474836
REMARK minimizedRMSD -1
REMARK  1 active torsions:
REMARK  status: ('A' for Active; 'I' for Inactive)
REMARK    1  A    between atoms: C3_4  and  O_7 
ROOT
ATOM      1  C   UNL d   1      -0.070  -0.902   1.592  0.00  0.00    -0.033 A 
ATOM      2  C1  UNL d   1      -0.929  -0.562   2.640  0.00  0.00     0.039 A 
ATOM      3  C2  UNL d   1      -2.209  -0.077   2.366  0.00  0.00    -0.080 A 
ATOM      4  C3  UNL d   1      -2.619   0.062   1.043  0.00  0.00     0.150 A 
ATOM      5  C4  UNL d   1      -1.770  -0.279  -0.006  0.00  0.00    -0.007 A 
ATOM      6  C5  UNL d   1      -0.491  -0.761   0.270  0.00  0.00     0.039 A 
ENDROOT
BRANCH   4   7
ATOM      7  O   UNL d   1      -3.857   0.535   0.726  0.00  0.00    -0.526 OA
ATOM      8  H5  UNL d   1      -4.322   0.756   1.550  0.00  0.00     0.418 HD
ENDBRANCH   4   7
TORSDOF 1
ENDMDL
