MODEL 1
REMARK minimizedAffinity -3.55245233
REMARK minimizedRMSD -1
REMARK  1 active torsions:
REMARK  status: ('A' for Active; 'I' for Inactive)
REMARK    1  A    between atoms: C3_4  and  O_7 
ROOT
ATOM      1  C   UNL d   1      -0.466  -0.862   1.233  0.00  0.00    -0.033 A 
ATOM      2  C1  UNL d   1      -1.042  -0.288   2.368  0.00  0.00     0.039 A 
ATOM      3  C2  UNL d   1      -2.351   0.197   2.319  0.00  0.00    -0.080 A 
ATOM      4  C3  UNL d   1      -3.071   0.101   1.132  0.00  0.00     0.150 A 
ATOM      5  C4  UNL d   1      -2.504  -0.473  -0.002  0.00  0.00    -0.007 A 
ATOM      6  C5  UNL d   1      -1.197  -0.956   0.049  0.00  0.00     0.039 A 
ENDROOT
BRANCH   4   7
ATOM      7  O   UNL d   1      -4.349   0.565   1.034  0.00  0.00    -0.526 OA
ATOM      8  H5  UNL d   1      -4.599   0.961   1.886  0.00  0.00     0.418 HD
ENDBRANCH   4   7
TORSDOF 1
ENDMDL
