MODEL 1
REMARK minimizedAffinity -2.83963728
REMARK minimizedRMSD -1
REMARK  1 active torsions:
REMARK  status: ('A' for Active; 'I' for Inactive)
REMARK    1  A    between atoms: C3_4  and  O_7 
ROOT
ATOM      1  C   UNL d   1       1.061  -1.443   1.434  0.00  0.00    -0.033 A 
ATOM      2  C1  UNL d   1       0.179  -1.611   0.364  0.00  0.00     0.039 A 
ATOM      3  C2  UNL d   1      -1.134  -1.146   0.460  0.00  0.00    -0.080 A 
ATOM      4  C3  UNL d   1      -1.552  -0.516   1.628  0.00  0.00     0.150 A 
ATOM      5  C4  UNL d   1      -0.678  -0.342   2.697  0.00  0.00    -0.007 A 
ATOM      6  C5  UNL d   1       0.633  -0.807   2.599  0.00  0.00     0.039 A 
ENDROOT
BRANCH   4   7
ATOM      7  O   UNL d   1      -2.825  -0.050   1.770  0.00  0.00    -0.526 OA
ATOM      8  H5  UNL d   1      -3.323  -0.265   0.964  0.00  0.00     0.418 HD
ENDBRANCH   4   7
TORSDOF 1
ENDMDL
