MODEL 1
REMARK minimizedAffinity -3.99322581
REMARK minimizedRMSD -1
REMARK  0 active torsions:
REMARK  status: ('A' for Active; 'I' for Inactive)
ROOT
ATOM      1  C   UNL d   1       2.406   1.291  -2.406  0.00  0.00     0.023 A 
ATOM      2  C1  UNL d   1       2.019   2.120  -1.353  0.00  0.00     0.003 A 
ATOM      3  C2  UNL d   1       1.124   1.653  -0.388  0.00  0.00     0.048 A 
ATOM      4  C3  UNL d   1       0.620   0.356  -0.483  0.00  0.00     0.023 A 
ATOM      5  C4  UNL d   1       1.006  -0.477  -1.535  0.00  0.00     0.048 A 
ATOM      6  C5  UNL d   1       1.900  -0.005  -2.497  0.00  0.00     0.003 A 
ATOM      7  I   UNL d   1      -0.712  -0.341   0.952  0.00  0.00    -0.146 I 
ENDROOT
TORSDOF 0
ENDMDL
