MODEL 1
REMARK minimizedAffinity -4.15733337
REMARK minimizedRMSD -1
REMARK  0 active torsions:
REMARK  status: ('A' for Active; 'I' for Inactive)
ROOT
ATOM      1  C   UNL d   1       0.778  -1.381  -1.551  0.00  0.00     0.023 A 
ATOM      2  C1  UNL d   1       1.583  -0.455  -2.214  0.00  0.00     0.003 A 
ATOM      3  C2  UNL d   1       1.720   0.840  -1.710  0.00  0.00     0.048 A 
ATOM      4  C3  UNL d   1       1.049   1.203  -0.543  0.00  0.00     0.023 A 
ATOM      5  C4  UNL d   1       0.243   0.279   0.124  0.00  0.00     0.048 A 
ATOM      6  C5  UNL d   1       0.109  -1.015  -0.383  0.00  0.00     0.003 A 
ATOM      7  I   UNL d   1       1.251   3.130   0.209  0.00  0.00    -0.146 I 
ENDROOT
TORSDOF 0
ENDMDL
