MODEL 1
REMARK minimizedAffinity -5.02842283
REMARK minimizedRMSD -1
REMARK  0 active torsions:
REMARK  status: ('A' for Active; 'I' for Inactive)
ROOT
ATOM      1  C   UNL d   1       1.188   2.129  -0.826  0.00  0.00     0.023 A 
ATOM      2  C1  UNL d   1       0.540   1.253   0.045  0.00  0.00     0.003 A 
ATOM      3  C2  UNL d   1       0.668  -0.127  -0.128  0.00  0.00     0.048 A 
ATOM      4  C3  UNL d   1       1.445  -0.624  -1.173  0.00  0.00     0.023 A 
ATOM      5  C4  UNL d   1       2.096   0.248  -2.047  0.00  0.00     0.048 A 
ATOM      6  C5  UNL d   1       1.965   1.627  -1.870  0.00  0.00     0.003 A 
ATOM      7  I   UNL d   1       1.637  -2.678  -1.432  0.00  0.00    -0.146 I 
ENDROOT
TORSDOF 0
ENDMDL
