MODEL 1
REMARK minimizedAffinity -2.23227167
REMARK minimizedRMSD -1
REMARK  0 active torsions:
REMARK  status: ('A' for Active; 'I' for Inactive)
ROOT
ATOM      1  C   UNL d   1       2.044   0.721  -1.730  0.00  0.00     0.023 A 
ATOM      2  C1  UNL d   1       0.958  -0.108  -2.014  0.00  0.00     0.003 A 
ATOM      3  C2  UNL d   1      -0.055  -0.283  -1.069  0.00  0.00     0.048 A 
ATOM      4  C3  UNL d   1       0.023   0.375   0.158  0.00  0.00     0.023 A 
ATOM      5  C4  UNL d   1       1.107   1.205   0.447  0.00  0.00     0.048 A 
ATOM      6  C5  UNL d   1       2.118   1.376  -0.501  0.00  0.00     0.003 A 
ATOM      7  I   UNL d   1      -1.484   0.116   1.565  0.00  0.00    -0.146 I 
ENDROOT
TORSDOF 0
ENDMDL
