MODEL 1
REMARK minimizedAffinity -2.34831715
REMARK minimizedRMSD -1
REMARK  0 active torsions:
REMARK  status: ('A' for Active; 'I' for Inactive)
ROOT
ATOM      1  C   UNL d   1      -0.725  -0.715   1.626  0.00  0.00     0.023 A 
ATOM      2  C1  UNL d   1      -0.356   0.587   1.288  0.00  0.00     0.003 A 
ATOM      3  C2  UNL d   1       0.425   0.822   0.155  0.00  0.00     0.048 A 
ATOM      4  C3  UNL d   1       0.834  -0.251  -0.637  0.00  0.00     0.023 A 
ATOM      5  C4  UNL d   1       0.466  -1.556  -0.304  0.00  0.00     0.048 A 
ATOM      6  C5  UNL d   1      -0.314  -1.785   0.831  0.00  0.00     0.003 A 
ATOM      7  I   UNL d   1       1.996   0.096  -2.325  0.00  0.00    -0.146 I 
ENDROOT
TORSDOF 0
ENDMDL
