MODEL 1
REMARK minimizedAffinity -4.31397676
REMARK minimizedRMSD -1
REMARK  0 active torsions:
REMARK  status: ('A' for Active; 'I' for Inactive)
ROOT
ATOM      1  C   UNL d   1       1.969   0.909  -2.036  0.00  0.00     0.023 A 
ATOM      2  C1  UNL d   1       1.302  -0.315  -2.077  0.00  0.00     0.003 A 
ATOM      3  C2  UNL d   1       0.317  -0.608  -1.131  0.00  0.00     0.048 A 
ATOM      4  C3  UNL d   1       0.003   0.329  -0.148  0.00  0.00     0.023 A 
ATOM      5  C4  UNL d   1       0.667   1.556  -0.103  0.00  0.00     0.048 A 
ATOM      6  C5  UNL d   1       1.652   1.844  -1.050  0.00  0.00     0.003 A 
ATOM      7  I   UNL d   1      -1.463  -0.103   1.260  0.00  0.00    -0.146 I 
ENDROOT
TORSDOF 0
ENDMDL
