MODEL 1
REMARK minimizedAffinity -3.56602478
REMARK minimizedRMSD -1
REMARK  0 active torsions:
REMARK  status: ('A' for Active; 'I' for Inactive)
ROOT
ATOM      1  C   UNL d   1       2.050   0.528  -2.304  0.00  0.00     0.023 A 
ATOM      2  C1  UNL d   1       0.937  -0.296  -2.471  0.00  0.00     0.003 A 
ATOM      3  C2  UNL d   1       0.006  -0.432  -1.438  0.00  0.00     0.048 A 
ATOM      4  C3  UNL d   1       0.195   0.260  -0.242  0.00  0.00     0.023 A 
ATOM      5  C4  UNL d   1       1.306   1.087  -0.072  0.00  0.00     0.048 A 
ATOM      6  C5  UNL d   1       2.234   1.219  -1.107  0.00  0.00     0.003 A 
ATOM      7  I   UNL d   1      -1.189   0.059   1.296  0.00  0.00    -0.146 I 
ENDROOT
TORSDOF 0
ENDMDL
