MODEL 1
REMARK minimizedAffinity -2.87336683
REMARK minimizedRMSD -1
REMARK  0 active torsions:
REMARK  status: ('A' for Active; 'I' for Inactive)
ROOT
ATOM      1  C   UNL d   1       2.195   0.273  -2.626  0.00  0.00     0.023 A 
ATOM      2  C1  UNL d   1       2.439   0.959  -1.436  0.00  0.00     0.003 A 
ATOM      3  C2  UNL d   1       1.526   0.879  -0.383  0.00  0.00     0.048 A 
ATOM      4  C3  UNL d   1       0.372   0.111  -0.525  0.00  0.00     0.023 A 
ATOM      5  C4  UNL d   1       0.124  -0.578  -1.713  0.00  0.00     0.048 A 
ATOM      6  C5  UNL d   1       1.039  -0.494  -2.764  0.00  0.00     0.003 A 
ATOM      7  I   UNL d   1      -0.989  -0.010   1.042  0.00  0.00    -0.146 I 
ENDROOT
TORSDOF 0
ENDMDL
