MODEL 1
REMARK minimizedAffinity -2.76026893
REMARK minimizedRMSD -1
REMARK  0 active torsions:
REMARK  status: ('A' for Active; 'I' for Inactive)
ROOT
ATOM      1  C   UNL d   1      -0.170  -1.017   1.216  0.00  0.00     0.023 A 
ATOM      2  C1  UNL d   1       0.049   0.351   1.055  0.00  0.00     0.003 A 
ATOM      3  C2  UNL d   1       0.556   0.841  -0.151  0.00  0.00     0.048 A 
ATOM      4  C3  UNL d   1       0.840  -0.043  -1.191  0.00  0.00     0.023 A 
ATOM      5  C4  UNL d   1       0.622  -1.413  -1.034  0.00  0.00     0.048 A 
ATOM      6  C5  UNL d   1       0.116  -1.898   0.173  0.00  0.00     0.003 A 
ATOM      7  I   UNL d   1       1.594   0.683  -2.987  0.00  0.00    -0.146 I 
ENDROOT
TORSDOF 0
ENDMDL
