MODEL 1
REMARK minimizedAffinity -3.47575188
REMARK minimizedRMSD -1
REMARK  0 active torsions:
REMARK  status: ('A' for Active; 'I' for Inactive)
ROOT
ATOM      1  C   UNL d   1       1.790   0.717  -1.852  0.00  0.00     0.023 A 
ATOM      2  C1  UNL d   1       0.792  -0.200  -2.183  0.00  0.00     0.003 A 
ATOM      3  C2  UNL d   1      -0.273  -0.421  -1.308  0.00  0.00     0.048 A 
ATOM      4  C3  UNL d   1      -0.335   0.280  -0.104  0.00  0.00     0.023 A 
ATOM      5  C4  UNL d   1       0.661   1.199   0.231  0.00  0.00     0.048 A 
ATOM      6  C5  UNL d   1       1.725   1.415  -0.647  0.00  0.00     0.003 A 
ATOM      7  I   UNL d   1      -1.920  -0.046   1.201  0.00  0.00    -0.146 I 
ENDROOT
TORSDOF 0
ENDMDL
