MODEL 1
REMARK minimizedAffinity -2.22593546
REMARK minimizedRMSD -1
REMARK  0 active torsions:
REMARK  status: ('A' for Active; 'I' for Inactive)
ROOT
ATOM      1  C   UNL d   1       1.990   0.267  -2.542  0.00  0.00     0.023 A 
ATOM      2  C1  UNL d   1       1.870   1.331  -1.649  0.00  0.00     0.003 A 
ATOM      3  C2  UNL d   1       1.084   1.198  -0.503  0.00  0.00     0.048 A 
ATOM      4  C3  UNL d   1       0.420  -0.004  -0.256  0.00  0.00     0.023 A 
ATOM      5  C4  UNL d   1       0.538  -1.072  -1.147  0.00  0.00     0.048 A 
ATOM      6  C5  UNL d   1       1.325  -0.933  -2.292  0.00  0.00     0.003 A 
ATOM      7  I   UNL d   1      -0.751  -0.206   1.449  0.00  0.00    -0.146 I 
ENDROOT
TORSDOF 0
ENDMDL
