MODEL 1
REMARK minimizedAffinity -3.37310481
REMARK minimizedRMSD -1
REMARK  0 active torsions:
REMARK  status: ('A' for Active; 'I' for Inactive)
ROOT
ATOM      1  C   UNL d   1       1.871   1.466  -1.885  0.00  0.00     0.023 A 
ATOM      2  C1  UNL d   1       1.462   2.187  -0.763  0.00  0.00     0.003 A 
ATOM      3  C2  UNL d   1       0.507   1.652   0.103  0.00  0.00     0.048 A 
ATOM      4  C3  UNL d   1      -0.034   0.393  -0.157  0.00  0.00     0.023 A 
ATOM      5  C4  UNL d   1       0.374  -0.334  -1.277  0.00  0.00     0.048 A 
ATOM      6  C5  UNL d   1       1.328   0.207  -2.141  0.00  0.00     0.003 A 
ATOM      7  I   UNL d   1      -1.455  -0.407   1.132  0.00  0.00    -0.146 I 
ENDROOT
TORSDOF 0
ENDMDL
