MODEL 1
REMARK minimizedAffinity -2.94257116
REMARK minimizedRMSD -1
REMARK  0 active torsions:
REMARK  status: ('A' for Active; 'I' for Inactive)
ROOT
ATOM      1  C   UNL d   1      -0.499   0.231   1.314  0.00  0.00     0.023 A 
ATOM      2  C1  UNL d   1       0.307   1.256   0.818  0.00  0.00     0.003 A 
ATOM      3  C2  UNL d   1       0.980   1.092  -0.395  0.00  0.00     0.048 A 
ATOM      4  C3  UNL d   1       0.842  -0.099  -1.106  0.00  0.00     0.023 A 
ATOM      5  C4  UNL d   1       0.037  -1.127  -0.614  0.00  0.00     0.048 A 
ATOM      6  C5  UNL d   1      -0.633  -0.959   0.599  0.00  0.00     0.003 A 
ATOM      7  I   UNL d   1       1.843  -0.345  -2.911  0.00  0.00    -0.146 I 
ENDROOT
TORSDOF 0
ENDMDL
