MODEL 1
REMARK minimizedAffinity -3.02151871
REMARK minimizedRMSD -1
REMARK  0 active torsions:
REMARK  status: ('A' for Active; 'I' for Inactive)
ROOT
ATOM      1  C   UNL d   1       2.229  -0.057  -1.987  0.00  0.00     0.023 A 
ATOM      2  C1  UNL d   1       1.799   1.162  -1.463  0.00  0.00     0.003 A 
ATOM      3  C2  UNL d   1       0.879   1.187  -0.412  0.00  0.00     0.048 A 
ATOM      4  C3  UNL d   1       0.394  -0.012   0.110  0.00  0.00     0.023 A 
ATOM      5  C4  UNL d   1       0.822  -1.234  -0.411  0.00  0.00     0.048 A 
ATOM      6  C5  UNL d   1       1.741  -1.254  -1.462  0.00  0.00     0.003 A 
ATOM      7  I   UNL d   1      -0.975   0.022   1.673  0.00  0.00    -0.146 I 
ENDROOT
TORSDOF 0
ENDMDL
