MODEL 1
REMARK minimizedAffinity 4.24678946
REMARK minimizedRMSD -1
REMARK  1 active torsions:
REMARK  status: ('A' for Active; 'I' for Inactive)
REMARK    1  A    between atoms: C3_4  and  O_7 
ROOT
ATOM      1  C   UNL d   1       5.456  -5.599   1.020  0.00  0.00    -0.033 A 
ATOM      2  C1  UNL d   1       4.143  -6.000   0.765  0.00  0.00     0.039 A 
ATOM      3  C2  UNL d   1       3.075  -5.193   1.161  0.00  0.00    -0.080 A 
ATOM      4  C3  UNL d   1       3.333  -3.988   1.810  0.00  0.00     0.150 A 
ATOM      5  C4  UNL d   1       4.639  -3.581   2.064  0.00  0.00    -0.007 A 
ATOM      6  C5  UNL d   1       5.704  -4.388   1.668  0.00  0.00     0.039 A 
ENDROOT
BRANCH   4   7
ATOM      7  O   UNL d   1       2.323  -3.170   2.221  0.00  0.00    -0.526 OA
ATOM      8  H5  UNL d   1       1.476  -3.593   2.004  0.00  0.00     0.418 HD
ENDBRANCH   4   7
TORSDOF 1
ENDMDL
