MODEL 1
REMARK minimizedAffinity 3.21950006
REMARK minimizedRMSD -1
REMARK  1 active torsions:
REMARK  status: ('A' for Active; 'I' for Inactive)
REMARK    1  A    between atoms: C3_4  and  O_7 
ROOT
ATOM      1  C   UNL d   1      -2.467   0.100   3.394  0.00  0.00    -0.033 A 
ATOM      2  C1  UNL d   1      -1.693  -0.905   2.811  0.00  0.00     0.039 A 
ATOM      3  C2  UNL d   1      -1.800  -1.166   1.444  0.00  0.00    -0.080 A 
ATOM      4  C3  UNL d   1      -2.684  -0.417   0.672  0.00  0.00     0.150 A 
ATOM      5  C4  UNL d   1      -3.456   0.588   1.246  0.00  0.00    -0.007 A 
ATOM      6  C5  UNL d   1      -3.348   0.847   2.611  0.00  0.00     0.039 A 
ENDROOT
BRANCH   4   7
ATOM      7  O   UNL d   1      -2.826  -0.639  -0.666  0.00  0.00    -0.526 OA
ATOM      8  H5  UNL d   1      -2.252  -1.381  -0.917  0.00  0.00     0.418 HD
ENDBRANCH   4   7
TORSDOF 1
ENDMDL
