MODEL 1
REMARK minimizedAffinity 4.67996264
REMARK minimizedRMSD -1
REMARK  1 active torsions:
REMARK  status: ('A' for Active; 'I' for Inactive)
REMARK    1  A    between atoms: C3_4  and  O_7 
ROOT
ATOM      1  C   UNL d   1      -0.833   2.745  -3.328  0.00  0.00    -0.033 A 
ATOM      2  C1  UNL d   1      -0.412   2.769  -1.997  0.00  0.00     0.039 A 
ATOM      3  C2  UNL d   1      -0.398   1.593  -1.245  0.00  0.00    -0.080 A 
ATOM      4  C3  UNL d   1      -0.806   0.400  -1.836  0.00  0.00     0.150 A 
ATOM      5  C4  UNL d   1      -1.223   0.367  -3.163  0.00  0.00    -0.007 A 
ATOM      6  C5  UNL d   1      -1.237   1.543  -3.911  0.00  0.00     0.039 A 
ENDROOT
BRANCH   4   7
ATOM      7  O   UNL d   1      -0.814  -0.773  -1.141  0.00  0.00    -0.526 OA
ATOM      8  H5  UNL d   1      -0.529  -0.593  -0.230  0.00  0.00     0.418 HD
ENDBRANCH   4   7
TORSDOF 1
ENDMDL
