MODEL 1
REMARK minimizedAffinity 3.19843459
REMARK minimizedRMSD -1
REMARK  1 active torsions:
REMARK  status: ('A' for Active; 'I' for Inactive)
REMARK    1  A    between atoms: C3_4  and  O_7 
ROOT
ATOM      1  C   UNL d   1      -1.035  -0.232   3.293  0.00  0.00    -0.033 A 
ATOM      2  C1  UNL d   1       0.285   0.223   3.280  0.00  0.00     0.039 A 
ATOM      3  C2  UNL d   1       1.279  -0.530   2.652  0.00  0.00    -0.080 A 
ATOM      4  C3  UNL d   1       0.940  -1.735   2.042  0.00  0.00     0.150 A 
ATOM      5  C4  UNL d   1      -0.373  -2.192   2.048  0.00  0.00    -0.007 A 
ATOM      6  C5  UNL d   1      -1.364  -1.439   2.676  0.00  0.00     0.039 A 
ENDROOT
BRANCH   4   7
ATOM      7  O   UNL d   1       1.877  -2.507   1.421  0.00  0.00    -0.526 OA
ATOM      8  H5  UNL d   1       2.744  -2.080   1.522  0.00  0.00     0.418 HD
ENDBRANCH   4   7
TORSDOF 1
ENDMDL
