MODEL 1
REMARK minimizedAffinity 3.88438869
REMARK minimizedRMSD -1
REMARK  1 active torsions:
REMARK  status: ('A' for Active; 'I' for Inactive)
REMARK    1  A    between atoms: C3_4  and  O_7 
ROOT
ATOM      1  C   UNL d   1      -0.140   1.948  -2.550  0.00  0.00    -0.033 A 
ATOM      2  C1  UNL d   1       0.200   3.037  -3.354  0.00  0.00     0.039 A 
ATOM      3  C2  UNL d   1      -0.798   3.862  -3.874  0.00  0.00    -0.080 A 
ATOM      4  C3  UNL d   1      -2.132   3.587  -3.583  0.00  0.00     0.150 A 
ATOM      5  C4  UNL d   1      -2.478   2.506  -2.780  0.00  0.00    -0.007 A 
ATOM      6  C5  UNL d   1      -1.479   1.683  -2.262  0.00  0.00     0.039 A 
ENDROOT
BRANCH   4   7
ATOM      7  O   UNL d   1      -3.142   4.361  -4.073  0.00  0.00    -0.526 OA
ATOM      8  H5  UNL d   1      -2.755   5.053  -4.634  0.00  0.00     0.418 HD
ENDBRANCH   4   7
TORSDOF 1
ENDMDL
