MODEL 1
REMARK minimizedAffinity -0.327607512
REMARK minimizedRMSD -1
REMARK  1 active torsions:
REMARK  status: ('A' for Active; 'I' for Inactive)
REMARK    1  A    between atoms: C3_4  and  O_7 
ROOT
ATOM      1  C   UNL d   1       5.998  -0.373  -0.507  0.00  0.00    -0.033 A 
ATOM      2  C1  UNL d   1       6.000   1.008  -0.717  0.00  0.00     0.039 A 
ATOM      3  C2  UNL d   1       5.999   1.881   0.373  0.00  0.00    -0.080 A 
ATOM      4  C3  UNL d   1       5.997   1.362   1.664  0.00  0.00     0.150 A 
ATOM      5  C4  UNL d   1       5.999  -0.012   1.880  0.00  0.00    -0.007 A 
ATOM      6  C5  UNL d   1       5.999  -0.883   0.791  0.00  0.00     0.039 A 
ENDROOT
BRANCH   4   7
ATOM      7  O   UNL d   1       5.991   2.174   2.759  0.00  0.00    -0.526 OA
ATOM      8  H5  UNL d   1       5.961   3.097   2.457  0.00  0.00     0.418 HD
ENDBRANCH   4   7
TORSDOF 1
ENDMDL
