MODEL 1
REMARK minimizedAffinity 4.77057076
REMARK minimizedRMSD -1
REMARK  1 active torsions:
REMARK  status: ('A' for Active; 'I' for Inactive)
REMARK    1  A    between atoms: C3_4  and  O_7 
ROOT
ATOM      1  C   UNL d   1       2.128  -2.869   0.381  0.00  0.00    -0.033 A 
ATOM      2  C1  UNL d   1       1.932  -3.593   1.559  0.00  0.00     0.039 A 
ATOM      3  C2  UNL d   1       1.058  -3.113   2.537  0.00  0.00    -0.080 A 
ATOM      4  C3  UNL d   1       0.387  -1.912   2.324  0.00  0.00     0.150 A 
ATOM      5  C4  UNL d   1       0.575  -1.188   1.151  0.00  0.00    -0.007 A 
ATOM      6  C5  UNL d   1       1.449  -1.668   0.176  0.00  0.00     0.039 A 
ENDROOT
BRANCH   4   7
ATOM      7  O   UNL d   1      -0.471  -1.402   3.252  0.00  0.00    -0.526 OA
ATOM      8  H5  UNL d   1      -0.479  -1.994   4.023  0.00  0.00     0.418 HD
ENDBRANCH   4   7
TORSDOF 1
ENDMDL
