MODEL 1
REMARK minimizedAffinity 7.55852175
REMARK minimizedRMSD -1
REMARK  1 active torsions:
REMARK  status: ('A' for Active; 'I' for Inactive)
REMARK    1  A    between atoms: C3_4  and  O_7 
ROOT
ATOM      1  C   UNL d   1       0.924  -2.252   1.156  0.00  0.00    -0.033 A 
ATOM      2  C1  UNL d   1       1.448  -3.345   1.848  0.00  0.00     0.039 A 
ATOM      3  C2  UNL d   1       2.831  -3.521   1.935  0.00  0.00    -0.080 A 
ATOM      4  C3  UNL d   1       3.676  -2.597   1.327  0.00  0.00     0.150 A 
ATOM      5  C4  UNL d   1       3.160  -1.504   0.639  0.00  0.00    -0.007 A 
ATOM      6  C5  UNL d   1       1.780  -1.331   0.552  0.00  0.00     0.039 A 
ENDROOT
BRANCH   4   7
ATOM      7  O   UNL d   1       5.032  -2.728   1.381  0.00  0.00    -0.526 OA
ATOM      8  H5  UNL d   1       5.243  -3.545   1.864  0.00  0.00     0.418 HD
ENDBRANCH   4   7
TORSDOF 1
ENDMDL
