MODEL 1
REMARK minimizedAffinity -1.32885206
REMARK minimizedRMSD -1
REMARK  0 active torsions:
REMARK  status: ('A' for Active; 'I' for Inactive)
ROOT
ATOM      1  C   UNL d   1       0.093   1.840   0.395  0.00  0.00     0.020 A 
ATOM      2  C1  UNL d   1       0.126   0.543   0.906  0.00  0.00     0.020 A 
ATOM      3  C2  UNL d   1      -1.059  -0.086   1.293  0.00  0.00     0.034 A 
ATOM      4  C3  UNL d   1      -2.283   0.582   1.169  0.00  0.00     0.017 A 
ATOM      5  C4  UNL d   1      -2.315   1.883   0.655  0.00  0.00     0.017 A 
ATOM      6  C5  UNL d   1      -1.126   2.508   0.269  0.00  0.00     0.034 A 
ATOM      7 Cl   UNL d   1      -3.787   2.771   0.471  0.00  0.00    -0.070 Cl
ATOM      8 Cl1  UNL d   1      -3.710  -0.256   1.666  0.00  0.00    -0.070 Cl
ENDROOT
TORSDOF 0
ENDMDL
