MODEL 1
REMARK minimizedAffinity 2.49422669
REMARK minimizedRMSD -1
REMARK  0 active torsions:
REMARK  status: ('A' for Active; 'I' for Inactive)
ROOT
ATOM      1  C   UNL d   1      -0.711   1.445   1.349  0.00  0.00     0.020 A 
ATOM      2  C1  UNL d   1      -0.123   1.803   0.137  0.00  0.00     0.020 A 
ATOM      3  C2  UNL d   1      -0.922   2.209  -0.934  0.00  0.00     0.034 A 
ATOM      4  C3  UNL d   1      -2.314   2.259  -0.794  0.00  0.00     0.017 A 
ATOM      5  C4  UNL d   1      -2.903   1.899   0.423  0.00  0.00     0.017 A 
ATOM      6  C5  UNL d   1      -2.098   1.493   1.492  0.00  0.00     0.034 A 
ATOM      7 Cl   UNL d   1      -4.613   1.935   0.672  0.00  0.00    -0.070 Cl
ATOM      8 Cl1  UNL d   1      -3.241   2.771  -2.159  0.00  0.00    -0.070 Cl
ENDROOT
TORSDOF 0
ENDMDL
