MODEL 1
REMARK minimizedAffinity 0.238169163
REMARK minimizedRMSD -1
REMARK  0 active torsions:
REMARK  status: ('A' for Active; 'I' for Inactive)
ROOT
ATOM      1  C   UNL d   1      -1.257   1.039   0.552  0.00  0.00     0.020 A 
ATOM      2  C1  UNL d   1      -1.653   2.259   0.006  0.00  0.00     0.020 A 
ATOM      3  C2  UNL d   1      -2.997   2.637   0.041  0.00  0.00     0.034 A 
ATOM      4  C3  UNL d   1      -3.950   1.793   0.625  0.00  0.00     0.017 A 
ATOM      5  C4  UNL d   1      -3.551   0.569   1.173  0.00  0.00     0.017 A 
ATOM      6  C5  UNL d   1      -2.204   0.196   1.134  0.00  0.00     0.034 A 
ATOM      7 Cl   UNL d   1      -4.669  -0.525   1.909  0.00  0.00    -0.070 Cl
ATOM      8 Cl1  UNL d   1      -5.594   2.324   0.634  0.00  0.00    -0.070 Cl
ENDROOT
TORSDOF 0
ENDMDL
