MODEL 1
REMARK minimizedAffinity 0.582606494
REMARK minimizedRMSD -1
REMARK  0 active torsions:
REMARK  status: ('A' for Active; 'I' for Inactive)
ROOT
ATOM      1  C   UNL d   1       0.572  -5.936  -3.928  0.00  0.00     0.020 A 
ATOM      2  C1  UNL d   1       0.993  -5.627  -2.636  0.00  0.00     0.020 A 
ATOM      3  C2  UNL d   1       0.051  -5.382  -1.634  0.00  0.00     0.034 A 
ATOM      4  C3  UNL d   1      -1.317  -5.445  -1.924  0.00  0.00     0.017 A 
ATOM      5  C4  UNL d   1      -1.739  -5.755  -3.222  0.00  0.00     0.017 A 
ATOM      6  C5  UNL d   1      -0.791  -6.000  -4.221  0.00  0.00     0.034 A 
ATOM      7 Cl   UNL d   1      -3.409  -5.852  -3.656  0.00  0.00    -0.070 Cl
ATOM      8 Cl1  UNL d   1      -2.427  -5.131  -0.638  0.00  0.00    -0.070 Cl
ENDROOT
TORSDOF 0
ENDMDL
