MODEL 1
REMARK minimizedAffinity 3.67342377
REMARK minimizedRMSD -1
REMARK  0 active torsions:
REMARK  status: ('A' for Active; 'I' for Inactive)
ROOT
ATOM      1  C   UNL d   1       0.964   2.034   0.608  0.00  0.00     0.020 A 
ATOM      2  C1  UNL d   1       1.044   0.675   0.908  0.00  0.00     0.020 A 
ATOM      3  C2  UNL d   1      -0.110  -0.036   1.244  0.00  0.00     0.034 A 
ATOM      4  C3  UNL d   1      -1.350   0.613   1.281  0.00  0.00     0.017 A 
ATOM      5  C4  UNL d   1      -1.430   1.977   0.980  0.00  0.00     0.017 A 
ATOM      6  C5  UNL d   1      -0.271   2.684   0.644  0.00  0.00     0.034 A 
ATOM      7 Cl   UNL d   1      -2.924   2.846   1.004  0.00  0.00    -0.070 Cl
ATOM      8 Cl1  UNL d   1      -2.736  -0.328   1.704  0.00  0.00    -0.070 Cl
ENDROOT
TORSDOF 0
ENDMDL
