MODEL 1
REMARK minimizedAffinity -2.03655434
REMARK minimizedRMSD -1
REMARK  0 active torsions:
REMARK  status: ('A' for Active; 'I' for Inactive)
ROOT
ATOM      1  C   UNL d   1      -0.660   0.638   0.470  0.00  0.00     0.020 A 
ATOM      2  C1  UNL d   1      -0.788   1.890  -0.129  0.00  0.00     0.020 A 
ATOM      3  C2  UNL d   1      -2.036   2.515  -0.180  0.00  0.00     0.034 A 
ATOM      4  C3  UNL d   1      -3.161   1.887   0.368  0.00  0.00     0.017 A 
ATOM      5  C4  UNL d   1      -3.031   0.630   0.969  0.00  0.00     0.017 A 
ATOM      6  C5  UNL d   1      -1.779   0.009   1.017  0.00  0.00     0.034 A 
ATOM      7 Cl   UNL d   1      -4.372  -0.207   1.666  0.00  0.00    -0.070 Cl
ATOM      8 Cl1  UNL d   1      -4.673   2.718   0.269  0.00  0.00    -0.070 Cl
ENDROOT
TORSDOF 0
ENDMDL
