MODEL 1
REMARK minimizedAffinity 2.9169488
REMARK minimizedRMSD -1
REMARK  0 active torsions:
REMARK  status: ('A' for Active; 'I' for Inactive)
ROOT
ATOM      1  C   UNL d   1       0.888   1.212   0.311  0.00  0.00     0.020 A 
ATOM      2  C1  UNL d   1      -0.245   1.558  -0.426  0.00  0.00     0.020 A 
ATOM      3  C2  UNL d   1      -1.498   1.072  -0.048  0.00  0.00     0.034 A 
ATOM      4  C3  UNL d   1      -1.623   0.239   1.070  0.00  0.00     0.017 A 
ATOM      5  C4  UNL d   1      -0.486  -0.107   1.809  0.00  0.00     0.017 A 
ATOM      6  C5  UNL d   1       0.767   0.382   1.426  0.00  0.00     0.034 A 
ATOM      7 Cl   UNL d   1      -0.560  -1.130   3.200  0.00  0.00    -0.070 Cl
ATOM      8 Cl1  UNL d   1      -3.204  -0.324   1.480  0.00  0.00    -0.070 Cl
ENDROOT
TORSDOF 0
ENDMDL
