MODEL 1
REMARK minimizedAffinity 6.39789152
REMARK minimizedRMSD -1
REMARK  0 active torsions:
REMARK  status: ('A' for Active; 'I' for Inactive)
ROOT
ATOM      1  C   UNL d   1      -0.814   2.644  -0.115  0.00  0.00     0.020 A 
ATOM      2  C1  UNL d   1       0.175   2.265   0.792  0.00  0.00     0.020 A 
ATOM      3  C2  UNL d   1      -0.101   1.304   1.766  0.00  0.00     0.034 A 
ATOM      4  C3  UNL d   1      -1.370   0.717   1.836  0.00  0.00     0.017 A 
ATOM      5  C4  UNL d   1      -2.363   1.098   0.925  0.00  0.00     0.017 A 
ATOM      6  C5  UNL d   1      -2.080   2.061  -0.048  0.00  0.00     0.034 A 
ATOM      7 Cl   UNL d   1      -3.952   0.419   0.949  0.00  0.00    -0.070 Cl
ATOM      8 Cl1  UNL d   1      -1.642  -0.465   3.066  0.00  0.00    -0.070 Cl
ENDROOT
TORSDOF 0
ENDMDL
