MODEL 1
REMARK minimizedAffinity 8.09074783
REMARK minimizedRMSD -1
REMARK  0 active torsions:
REMARK  status: ('A' for Active; 'I' for Inactive)
ROOT
ATOM      1  C   UNL d   1       0.129   0.800   1.180  0.00  0.00     0.020 A 
ATOM      2  C1  UNL d   1       0.050   1.990   0.458  0.00  0.00     0.020 A 
ATOM      3  C2  UNL d   1      -1.197   2.527   0.131  0.00  0.00     0.034 A 
ATOM      4  C3  UNL d   1      -2.370   1.874   0.526  0.00  0.00     0.017 A 
ATOM      5  C4  UNL d   1      -2.290   0.680   1.252  0.00  0.00     0.017 A 
ATOM      6  C5  UNL d   1      -1.039   0.147   1.576  0.00  0.00     0.034 A 
ATOM      7 Cl   UNL d   1      -3.694  -0.182   1.775  0.00  0.00    -0.070 Cl
ATOM      8 Cl1  UNL d   1      -3.878   2.596   0.088  0.00  0.00    -0.070 Cl
ENDROOT
TORSDOF 0
ENDMDL
