MODEL 1
REMARK minimizedAffinity 2.35794592
REMARK minimizedRMSD -1
REMARK  0 active torsions:
REMARK  status: ('A' for Active; 'I' for Inactive)
ROOT
ATOM      1  C   UNL d   1      -0.004  -0.169   1.608  0.00  0.00     0.020 A 
ATOM      2  C1  UNL d   1       0.591   1.084   1.464  0.00  0.00     0.020 A 
ATOM      3  C2  UNL d   1      -0.174   2.177   1.052  0.00  0.00     0.034 A 
ATOM      4  C3  UNL d   1      -1.539   2.020   0.784  0.00  0.00     0.017 A 
ATOM      5  C4  UNL d   1      -2.135   0.763   0.929  0.00  0.00     0.017 A 
ATOM      6  C5  UNL d   1      -1.364  -0.329   1.341  0.00  0.00     0.034 A 
ATOM      7 Cl   UNL d   1      -3.813   0.491   0.616  0.00  0.00    -0.070 Cl
ATOM      8 Cl1  UNL d   1      -2.424   3.416   0.279  0.00  0.00    -0.070 Cl
ENDROOT
TORSDOF 0
ENDMDL
