MODEL 1
REMARK minimizedAffinity -0.293699503
REMARK minimizedRMSD -1
REMARK  0 active torsions:
REMARK  status: ('A' for Active; 'I' for Inactive)
ROOT
ATOM      1  C   UNL d   1      -1.576   2.280   0.253  0.00  0.00     0.020 A 
ATOM      2  C1  UNL d   1      -1.039   1.130   0.830  0.00  0.00     0.020 A 
ATOM      3  C2  UNL d   1      -1.887   0.140   1.331  0.00  0.00     0.034 A 
ATOM      4  C3  UNL d   1      -3.275   0.298   1.256  0.00  0.00     0.017 A 
ATOM      5  C4  UNL d   1      -3.813   1.453   0.676  0.00  0.00     0.017 A 
ATOM      6  C5  UNL d   1      -2.960   2.441   0.176  0.00  0.00     0.034 A 
ATOM      7 Cl   UNL d   1      -5.516   1.719   0.548  0.00  0.00    -0.070 Cl
ATOM      8 Cl1  UNL d   1      -4.264  -0.967   1.896  0.00  0.00    -0.070 Cl
ENDROOT
TORSDOF 0
ENDMDL
