MODEL 1
REMARK minimizedAffinity 1.74917769
REMARK minimizedRMSD -1
REMARK  0 active torsions:
REMARK  status: ('A' for Active; 'I' for Inactive)
ROOT
ATOM      1  C   UNL d   1       0.112   2.700   0.241  0.00  0.00     0.020 A 
ATOM      2  C1  UNL d   1       0.582   1.439   0.606  0.00  0.00     0.020 A 
ATOM      3  C2  UNL d   1      -0.321   0.428   0.943  0.00  0.00     0.034 A 
ATOM      4  C3  UNL d   1      -1.698   0.677   0.916  0.00  0.00     0.017 A 
ATOM      5  C4  UNL d   1      -2.168   1.943   0.551  0.00  0.00     0.017 A 
ATOM      6  C5  UNL d   1      -1.260   2.951   0.214  0.00  0.00     0.034 A 
ATOM      7 Cl   UNL d   1      -3.853   2.326   0.495  0.00  0.00    -0.070 Cl
ATOM      8 Cl1  UNL d   1      -2.757  -0.620   1.345  0.00  0.00    -0.070 Cl
ENDROOT
TORSDOF 0
ENDMDL
