MODEL 1
REMARK minimizedAffinity -0.69781673
REMARK minimizedRMSD -1
REMARK  0 active torsions:
REMARK  status: ('A' for Active; 'I' for Inactive)
ROOT
ATOM      1  C   UNL d   1      -0.064   0.457   0.804  0.00  0.00     0.020 A 
ATOM      2  C1  UNL d   1      -0.168   1.621   0.043  0.00  0.00     0.020 A 
ATOM      3  C2  UNL d   1      -1.400   2.269  -0.076  0.00  0.00     0.034 A 
ATOM      4  C3  UNL d   1      -2.532   1.753   0.566  0.00  0.00     0.017 A 
ATOM      5  C4  UNL d   1      -2.426   0.584   1.329  0.00  0.00     0.017 A 
ATOM      6  C5  UNL d   1      -1.190  -0.060   1.445  0.00  0.00     0.034 A 
ATOM      7 Cl   UNL d   1      -3.777  -0.112   2.150  0.00  0.00    -0.070 Cl
ATOM      8 Cl1  UNL d   1      -4.022   2.605   0.375  0.00  0.00    -0.070 Cl
ENDROOT
TORSDOF 0
ENDMDL
