MODEL 1
REMARK minimizedAffinity -3.39215922
REMARK minimizedRMSD -1
REMARK  0 active torsions:
REMARK  status: ('A' for Active; 'I' for Inactive)
ROOT
ATOM      1  C   UNL d   1      -0.964   0.272   1.542  0.00  0.00     0.020 A 
ATOM      2  C1  UNL d   1      -0.034   0.941   0.747  0.00  0.00     0.020 A 
ATOM      3  C2  UNL d   1      -0.464   1.897  -0.176  0.00  0.00     0.034 A 
ATOM      4  C3  UNL d   1      -1.827   2.186  -0.307  0.00  0.00     0.017 A 
ATOM      5  C4  UNL d   1      -2.760   1.514   0.492  0.00  0.00     0.017 A 
ATOM      6  C5  UNL d   1      -2.324   0.558   1.415  0.00  0.00     0.034 A 
ATOM      7 Cl   UNL d   1      -4.458   1.817   0.388  0.00  0.00    -0.070 Cl
ATOM      8 Cl1  UNL d   1      -2.287   3.380  -1.468  0.00  0.00    -0.070 Cl
ENDROOT
TORSDOF 0
ENDMDL
