MODEL 1
REMARK minimizedAffinity -2.53446031
REMARK minimizedRMSD -1
REMARK  0 active torsions:
REMARK  status: ('A' for Active; 'I' for Inactive)
ROOT
ATOM      1  C   UNL d   1      -0.100   1.915  -0.697  0.00  0.00     0.020 A 
ATOM      2  C1  UNL d   1      -1.008   2.908  -1.061  0.00  0.00     0.020 A 
ATOM      3  C2  UNL d   1      -2.342   2.817  -0.656  0.00  0.00     0.034 A 
ATOM      4  C3  UNL d   1      -2.770   1.731   0.116  0.00  0.00     0.017 A 
ATOM      5  C4  UNL d   1      -1.857   0.735   0.481  0.00  0.00     0.017 A 
ATOM      6  C5  UNL d   1      -0.524   0.831   0.073  0.00  0.00     0.034 A 
ATOM      7 Cl   UNL d   1      -2.312  -0.635   1.433  0.00  0.00    -0.070 Cl
ATOM      8 Cl1  UNL d   1      -4.433   1.684   0.583  0.00  0.00    -0.070 Cl
ENDROOT
TORSDOF 0
ENDMDL
