MODEL 1
REMARK minimizedAffinity 1.85092103
REMARK minimizedRMSD -1
REMARK  0 active torsions:
REMARK  status: ('A' for Active; 'I' for Inactive)
ROOT
ATOM      1  C   UNL d   1      -0.854   0.432   1.625  0.00  0.00     0.020 A 
ATOM      2  C1  UNL d   1       0.032   0.959   0.687  0.00  0.00     0.020 A 
ATOM      3  C2  UNL d   1      -0.437   1.813  -0.314  0.00  0.00     0.034 A 
ATOM      4  C3  UNL d   1      -1.795   2.143  -0.378  0.00  0.00     0.017 A 
ATOM      5  C4  UNL d   1      -2.684   1.614   0.564  0.00  0.00     0.017 A 
ATOM      6  C5  UNL d   1      -2.210   0.759   1.564  0.00  0.00     0.034 A 
ATOM      7 Cl   UNL d   1      -4.374   1.975   0.549  0.00  0.00    -0.070 Cl
ATOM      8 Cl1  UNL d   1      -2.305   3.205  -1.642  0.00  0.00    -0.070 Cl
ENDROOT
TORSDOF 0
ENDMDL
