MODEL 1
REMARK minimizedAffinity -3.39958477
REMARK minimizedRMSD -1
REMARK  0 active torsions:
REMARK  status: ('A' for Active; 'I' for Inactive)
ROOT
ATOM      1  C   UNL d   1      -0.963   0.324   0.311  0.00  0.00     0.077 C 
ATOM      2  C1  UNL d   1       0.393  -0.317   0.334  0.00  0.00    -0.074 A 
ATOM      3  C2  UNL d   1       1.302  -0.040   1.359  0.00  0.00    -0.005 A 
ATOM      4  C3  UNL d   1       2.556  -0.652   1.372  0.00  0.00     0.006 A 
ATOM      5  C4  UNL d   1       2.912  -1.545   0.361  0.00  0.00    -0.005 A 
ATOM      6  C5  UNL d   1       2.015  -1.835  -0.673  0.00  0.00    -0.074 A 
ATOM      7  C6  UNL d   1       2.378  -2.801  -1.762  0.00  0.00     0.077 C 
ATOM      8  C7  UNL d   1       0.755  -1.222  -0.674  0.00  0.00    -0.001 A 
ENDROOT
TORSDOF 0
ENDMDL
