MODEL 1
REMARK minimizedAffinity -3.19887662
REMARK minimizedRMSD -1
REMARK  0 active torsions:
REMARK  status: ('A' for Active; 'I' for Inactive)
ROOT
ATOM      1  C   UNL d   1      -0.410  -2.068  -1.746  0.00  0.00     0.077 C 
ATOM      2  C1  UNL d   1       0.620  -1.584  -0.769  0.00  0.00    -0.074 A 
ATOM      3  C2  UNL d   1       1.768  -2.337  -0.501  0.00  0.00    -0.005 A 
ATOM      4  C3  UNL d   1       2.721  -1.869   0.402  0.00  0.00     0.006 A 
ATOM      5  C4  UNL d   1       2.537  -0.645   1.047  0.00  0.00    -0.005 A 
ATOM      6  C5  UNL d   1       1.397   0.123   0.791  0.00  0.00    -0.074 A 
ATOM      7  C6  UNL d   1       1.188   1.445   1.468  0.00  0.00     0.077 C 
ATOM      8  C7  UNL d   1       0.446  -0.351  -0.123  0.00  0.00    -0.001 A 
ENDROOT
TORSDOF 0
ENDMDL
