MODEL 1
REMARK minimizedAffinity -3.58491611
REMARK minimizedRMSD -1
REMARK  0 active torsions:
REMARK  status: ('A' for Active; 'I' for Inactive)
ROOT
ATOM      1  C   UNL d   1       1.248  -1.049   1.236  0.00  0.00     0.077 C 
ATOM      2  C1  UNL d   1       0.019  -0.289   0.836  0.00  0.00    -0.074 A 
ATOM      3  C2  UNL d   1      -0.038   0.397  -0.382  0.00  0.00    -0.005 A 
ATOM      4  C3  UNL d   1      -1.192   1.092  -0.744  0.00  0.00     0.006 A 
ATOM      5  C4  UNL d   1      -2.299   1.107   0.105  0.00  0.00    -0.005 A 
ATOM      6  C5  UNL d   1      -2.261   0.426   1.325  0.00  0.00    -0.074 A 
ATOM      7  C6  UNL d   1      -3.446   0.423   2.245  0.00  0.00     0.077 C 
ATOM      8  C7  UNL d   1      -1.101  -0.276   1.679  0.00  0.00    -0.001 A 
ENDROOT
TORSDOF 0
ENDMDL
