MODEL 1
REMARK minimizedAffinity -2.61683726
REMARK minimizedRMSD -1
REMARK  0 active torsions:
REMARK  status: ('A' for Active; 'I' for Inactive)
ROOT
ATOM      1  C   UNL d   1      -3.012  -0.374   1.509  0.00  0.00     0.077 C 
ATOM      2  C1  UNL d   1      -1.859  -0.379   0.550  0.00  0.00    -0.074 A 
ATOM      3  C2  UNL d   1      -1.912   0.349  -0.643  0.00  0.00    -0.005 A 
ATOM      4  C3  UNL d   1      -0.828   0.342  -1.520  0.00  0.00     0.006 A 
ATOM      5  C4  UNL d   1       0.319  -0.392  -1.214  0.00  0.00    -0.005 A 
ATOM      6  C5  UNL d   1       0.391  -1.125  -0.026  0.00  0.00    -0.074 A 
ATOM      7  C6  UNL d   1       1.619  -1.911   0.323  0.00  0.00     0.077 C 
ATOM      8  C7  UNL d   1      -0.700  -1.108   0.854  0.00  0.00    -0.001 A 
ENDROOT
TORSDOF 0
ENDMDL
