MODEL 1
REMARK minimizedAffinity -5.24775505
REMARK minimizedRMSD -1
REMARK  0 active torsions:
REMARK  status: ('A' for Active; 'I' for Inactive)
ROOT
ATOM      1  C   UNL d   1       3.722   1.388  -0.134  0.00  0.00     0.077 C 
ATOM      2  C1  UNL d   1       2.666   0.326  -0.058  0.00  0.00    -0.074 A 
ATOM      3  C2  UNL d   1       3.002  -1.029  -0.146  0.00  0.00    -0.005 A 
ATOM      4  C3  UNL d   1       2.010  -2.006  -0.064  0.00  0.00     0.006 A 
ATOM      5  C4  UNL d   1       0.675  -1.639   0.106  0.00  0.00    -0.005 A 
ATOM      6  C5  UNL d   1       0.320  -0.289   0.197  0.00  0.00    -0.074 A 
ATOM      7  C6  UNL d   1      -1.109   0.122   0.390  0.00  0.00     0.077 C 
ATOM      8  C7  UNL d   1       1.323   0.686   0.121  0.00  0.00    -0.001 A 
ENDROOT
TORSDOF 0
ENDMDL
