MODEL 1
REMARK minimizedAffinity -3.36077452
REMARK minimizedRMSD -1
REMARK  0 active torsions:
REMARK  status: ('A' for Active; 'I' for Inactive)
ROOT
ATOM      1  C   UNL d   1      -1.019   0.769  -0.214  0.00  0.00     0.077 C 
ATOM      2  C1  UNL d   1       0.155  -0.164  -0.233  0.00  0.00    -0.074 A 
ATOM      3  C2  UNL d   1      -0.004  -1.513  -0.566  0.00  0.00    -0.005 A 
ATOM      4  C3  UNL d   1       1.099  -2.366  -0.589  0.00  0.00     0.006 A 
ATOM      5  C4  UNL d   1       2.370  -1.880  -0.279  0.00  0.00    -0.005 A 
ATOM      6  C5  UNL d   1       2.548  -0.534   0.055  0.00  0.00    -0.074 A 
ATOM      7  C6  UNL d   1       3.909   0.007   0.381  0.00  0.00     0.077 C 
ATOM      8  C7  UNL d   1       1.436   0.319   0.069  0.00  0.00    -0.001 A 
ENDROOT
TORSDOF 0
ENDMDL
