MODEL 1
REMARK minimizedAffinity -5.75737906
REMARK minimizedRMSD -1
REMARK  0 active torsions:
REMARK  status: ('A' for Active; 'I' for Inactive)
ROOT
ATOM      1  C   UNL d   1      -0.562  -2.947  -1.745  0.00  0.00     0.077 C 
ATOM      2  C1  UNL d   1       0.085  -1.902  -0.885  0.00  0.00    -0.074 A 
ATOM      3  C2  UNL d   1      -0.537  -0.670  -0.660  0.00  0.00    -0.005 A 
ATOM      4  C3  UNL d   1       0.073   0.288   0.150  0.00  0.00     0.006 A 
ATOM      5  C4  UNL d   1       1.308   0.024   0.742  0.00  0.00    -0.005 A 
ATOM      6  C5  UNL d   1       1.945  -1.203   0.530  0.00  0.00    -0.074 A 
ATOM      7  C6  UNL d   1       3.268  -1.506   1.167  0.00  0.00     0.077 C 
ATOM      8  C7  UNL d   1       1.323  -2.163  -0.280  0.00  0.00    -0.001 A 
ENDROOT
TORSDOF 0
ENDMDL
