MODEL 1
REMARK minimizedAffinity -3.22336173
REMARK minimizedRMSD -1
REMARK  0 active torsions:
REMARK  status: ('A' for Active; 'I' for Inactive)
ROOT
ATOM      1  C   UNL d   1      -2.509   0.524  -0.237  0.00  0.00     0.077 C 
ATOM      2  C1  UNL d   1      -1.075   0.908  -0.027  0.00  0.00    -0.074 A 
ATOM      3  C2  UNL d   1      -0.695   2.251   0.058  0.00  0.00    -0.005 A 
ATOM      4  C3  UNL d   1       0.642   2.593   0.263  0.00  0.00     0.006 A 
ATOM      5  C4  UNL d   1       1.611   1.596   0.386  0.00  0.00    -0.005 A 
ATOM      6  C5  UNL d   1       1.250   0.247   0.305  0.00  0.00    -0.074 A 
ATOM      7  C6  UNL d   1       2.277  -0.837   0.444  0.00  0.00     0.077 C 
ATOM      8  C7  UNL d   1      -0.097  -0.088   0.105  0.00  0.00    -0.001 A 
ENDROOT
TORSDOF 0
ENDMDL
