MODEL 1
REMARK minimizedAffinity 2.48230529
REMARK minimizedRMSD -1
REMARK  0 active torsions:
REMARK  status: ('A' for Active; 'I' for Inactive)
ROOT
ATOM      1  N1  IND d   1       1.853  -2.148   2.356  0.00  0.00    -0.196 N 
ATOM      2  C2  IND d   1       2.761  -1.128   2.312  0.00  0.00     0.054 A 
ATOM      3  C3  IND d   1       2.351  -0.170   1.451  0.00  0.00    -0.031 A 
ATOM      4  C4  IND d   1       0.173  -0.022   0.086  0.00  0.00     0.051 A 
ATOM      5  C5  IND d   1      -0.950  -0.734  -0.231  0.00  0.00    -0.031 A 
ATOM      6  C6  IND d   1      -1.202  -1.977   0.312  0.00  0.00     0.015 A 
ATOM      7  C7  IND d   1      -0.343  -2.553   1.204  0.00  0.00    -0.016 A 
ATOM      8  C8  IND d   1       0.802  -1.836   1.522  0.00  0.00    -0.047 A 
ATOM      9  C9  IND d   1       1.085  -0.593   0.942  0.00  0.00    -0.096 A 
ATOM     10  HN1 IND d   1       1.926  -2.865   2.826  0.00  0.00     0.298 HD
ENDROOT
TORSDOF 0
ENDMDL
