MODEL 1
REMARK minimizedAffinity -6.70503235
REMARK minimizedRMSD -1
REMARK  0 active torsions:
REMARK  status: ('A' for Active; 'I' for Inactive)
ROOT
ATOM      1  N1  IND d   1      -0.799  -1.631   1.300  0.00  0.00    -0.196 N 
ATOM      2  C2  IND d   1      -1.593  -0.638   0.800  0.00  0.00     0.054 A 
ATOM      3  C3  IND d   1      -0.839   0.406   0.388  0.00  0.00    -0.031 A 
ATOM      4  C4  IND d   1       1.723   0.656   0.347  0.00  0.00     0.051 A 
ATOM      5  C5  IND d   1       2.873   0.027   0.734  0.00  0.00    -0.031 A 
ATOM      6  C6  IND d   1       2.858  -1.213   1.340  0.00  0.00     0.015 A 
ATOM      7  C7  IND d   1       1.687  -1.878   1.571  0.00  0.00    -0.016 A 
ATOM      8  C8  IND d   1       0.517  -1.240   1.186  0.00  0.00    -0.047 A 
ATOM      9  C9  IND d   1       0.524   0.037   0.610  0.00  0.00    -0.096 A 
ATOM     10  HN1 IND d   1      -1.074  -2.376   1.631  0.00  0.00     0.298 HD
ENDROOT
TORSDOF 0
ENDMDL
