MODEL 1
REMARK minimizedAffinity -3.32208109
REMARK minimizedRMSD -1
REMARK  0 active torsions:
REMARK  status: ('A' for Active; 'I' for Inactive)
ROOT
ATOM      1  N1  IND d   1      -0.457  -1.407  -0.414  0.00  0.00    -0.196 N 
ATOM      2  C2  IND d   1      -1.487  -0.560  -0.715  0.00  0.00     0.054 A 
ATOM      3  C3  IND d   1      -1.137   0.718  -0.449  0.00  0.00    -0.031 A 
ATOM      4  C4  IND d   1       1.108   1.660   0.388  0.00  0.00     0.051 A 
ATOM      5  C5  IND d   1       2.339   1.271   0.837  0.00  0.00    -0.031 A 
ATOM      6  C6  IND d   1       2.709  -0.057   0.891  0.00  0.00     0.015 A 
ATOM      7  C7  IND d   1       1.863  -1.050   0.484  0.00  0.00    -0.016 A 
ATOM      8  C8  IND d   1       0.609  -0.659   0.035  0.00  0.00    -0.047 A 
ATOM      9  C9  IND d   1       0.212   0.684   0.018  0.00  0.00    -0.096 A 
ATOM     10  HN1 IND d   1      -0.472  -2.264  -0.492  0.00  0.00     0.298 HD
ENDROOT
TORSDOF 0
ENDMDL
