MODEL 1
REMARK minimizedAffinity -2.78513598
REMARK minimizedRMSD -1
REMARK  0 active torsions:
REMARK  status: ('A' for Active; 'I' for Inactive)
ROOT
ATOM      1  N1  IND d   1      -0.782  -0.643  -0.097  0.00  0.00    -0.196 N 
ATOM      2  C2  IND d   1      -1.199   0.633  -0.352  0.00  0.00     0.054 A 
ATOM      3  C3  IND d   1      -0.150   1.485  -0.326  0.00  0.00    -0.031 A 
ATOM      4  C4  IND d   1       2.353   0.987   0.013  0.00  0.00     0.051 A 
ATOM      5  C5  IND d   1       3.218  -0.026   0.316  0.00  0.00    -0.031 A 
ATOM      6  C6  IND d   1       2.786  -1.324   0.498  0.00  0.00     0.015 A 
ATOM      7  C7  IND d   1       1.468  -1.660   0.372  0.00  0.00    -0.016 A 
ATOM      8  C8  IND d   1       0.585  -0.632   0.071  0.00  0.00    -0.047 A 
ATOM      9  C9  IND d   1       1.012   0.694  -0.073  0.00  0.00    -0.096 A 
ATOM     10  HN1 IND d   1      -1.288  -1.337  -0.050  0.00  0.00     0.298 HD
ENDROOT
TORSDOF 0
ENDMDL
