MODEL 1
REMARK minimizedAffinity -6.40522289
REMARK minimizedRMSD -1
REMARK  0 active torsions:
REMARK  status: ('A' for Active; 'I' for Inactive)
ROOT
ATOM      1  N1  IND d   1      -0.447   0.113  -0.050  0.00  0.00    -0.196 N 
ATOM      2  C2  IND d   1      -0.279   1.435  -0.354  0.00  0.00     0.054 A 
ATOM      3  C3  IND d   1       0.933   1.864   0.065  0.00  0.00    -0.031 A 
ATOM      4  C4  IND d   1       2.840   0.542   1.180  0.00  0.00     0.051 A 
ATOM      5  C5  IND d   1       3.141  -0.688   1.693  0.00  0.00    -0.031 A 
ATOM      6  C6  IND d   1       2.245  -1.737   1.647  0.00  0.00     0.015 A 
ATOM      7  C7  IND d   1       1.013  -1.596   1.075  0.00  0.00    -0.016 A 
ATOM      8  C8  IND d   1       0.700  -0.346   0.559  0.00  0.00    -0.047 A 
ATOM      9  C9  IND d   1       1.590   0.734   0.641  0.00  0.00    -0.096 A 
ATOM     10  HN1 IND d   1      -1.150  -0.354  -0.212  0.00  0.00     0.298 HD
ENDROOT
TORSDOF 0
ENDMDL
