MODEL 1
REMARK minimizedAffinity 1.4657613
REMARK minimizedRMSD -1
REMARK  0 active torsions:
REMARK  status: ('A' for Active; 'I' for Inactive)
ROOT
ATOM      1  N1  IND d   1       0.743  -2.880   0.766  0.00  0.00    -0.196 N 
ATOM      2  C2  IND d   1       1.998  -2.628   0.286  0.00  0.00     0.054 A 
ATOM      3  C3  IND d   1       2.052  -1.394  -0.264  0.00  0.00    -0.031 A 
ATOM      4  C4  IND d   1       0.230   0.420  -0.396  0.00  0.00     0.051 A 
ATOM      5  C5  IND d   1      -1.091   0.641  -0.126  0.00  0.00    -0.031 A 
ATOM      6  C6  IND d   1      -1.884  -0.319   0.470  0.00  0.00     0.015 A 
ATOM      7  C7  IND d   1      -1.380  -1.537   0.830  0.00  0.00    -0.016 A 
ATOM      8  C8  IND d   1      -0.040  -1.767   0.551  0.00  0.00    -0.047 A 
ATOM      9  C9  IND d   1       0.759  -0.813  -0.092  0.00  0.00    -0.096 A 
ATOM     10  HN1 IND d   1       0.486  -3.610   1.140  0.00  0.00     0.298 HD
ENDROOT
TORSDOF 0
ENDMDL
