MODEL 1
REMARK minimizedAffinity 20.694397
REMARK minimizedRMSD -1
REMARK  0 active torsions:
REMARK  status: ('A' for Active; 'I' for Inactive)
ROOT
ATOM      1  C   UNL d   1       4.120  -3.439   0.789  0.00  0.00     0.124 A 
ATOM      2  C1  UNL d   1       3.166  -4.446   0.762  0.00  0.00     0.062 A 
ATOM      3  C2  UNL d   1       1.859  -4.183   1.163  0.00  0.00     0.162 A 
ATOM      4  C3  UNL d   1       1.499  -2.905   1.593  0.00  0.00    -0.034 A 
ATOM      5  C4  UNL d   1       2.465  -1.898   1.617  0.00  0.00     0.162 A 
ATOM      6  C5  UNL d   1       3.769  -2.166   1.216  0.00  0.00     0.062 A 
ATOM      7  F   UNL d   1       4.690  -1.192   1.242  0.00  0.00    -0.097 F 
ATOM      8  F1  UNL d   1       2.152  -0.659   2.025  0.00  0.00    -0.096 F 
ATOM      9  I   UNL d   1      -0.454  -2.507   2.193  0.00  0.00    -0.060 I 
ATOM     10  F2  UNL d   1       0.957  -5.175   1.128  0.00  0.00    -0.096 F 
ATOM     11  F3  UNL d   1       3.503  -5.677   0.351  0.00  0.00    -0.097 F 
ATOM     12  F4  UNL d   1       5.377  -3.695   0.403  0.00  0.00    -0.092 F 
ENDROOT
TORSDOF 0
ENDMDL
