MODEL 1
REMARK minimizedAffinity 10.0022612
REMARK minimizedRMSD -1
REMARK  0 active torsions:
REMARK  status: ('A' for Active; 'I' for Inactive)
ROOT
ATOM      1  C   UNL d   1       1.116  -2.506   1.280  0.00  0.00     0.124 A 
ATOM      2  C1  UNL d   1       0.908  -2.262   2.630  0.00  0.00     0.062 A 
ATOM      3  C2  UNL d   1      -0.204  -1.536   3.047  0.00  0.00     0.162 A 
ATOM      4  C3  UNL d   1      -1.117  -1.049   2.113  0.00  0.00    -0.034 A 
ATOM      5  C4  UNL d   1      -0.901  -1.297   0.756  0.00  0.00     0.162 A 
ATOM      6  C5  UNL d   1       0.212  -2.023   0.344  0.00  0.00     0.062 A 
ATOM      7  F   UNL d   1       0.411  -2.258  -0.961  0.00  0.00    -0.097 F 
ATOM      8  F1  UNL d   1      -1.759  -0.843  -0.169  0.00  0.00    -0.096 F 
ATOM      9  I   UNL d   1      -2.781   0.037   2.732  0.00  0.00    -0.060 I 
ATOM     10  F2  UNL d   1      -0.379  -1.316   4.359  0.00  0.00    -0.096 F 
ATOM     11  F3  UNL d   1       1.781  -2.727   3.536  0.00  0.00    -0.097 F 
ATOM     12  F4  UNL d   1       2.187  -3.204   0.881  0.00  0.00    -0.092 F 
ENDROOT
TORSDOF 0
ENDMDL
