MODEL 1
REMARK minimizedAffinity 15.5239582
REMARK minimizedRMSD -1
REMARK  0 active torsions:
REMARK  status: ('A' for Active; 'I' for Inactive)
ROOT
ATOM      1  C   UNL d   1       0.667  -2.440   1.871  0.00  0.00     0.124 A 
ATOM      2  C1  UNL d   1       1.496  -1.555   1.195  0.00  0.00     0.062 A 
ATOM      3  C2  UNL d   1       1.726  -0.282   1.707  0.00  0.00     0.162 A 
ATOM      4  C3  UNL d   1       1.127   0.115   2.903  0.00  0.00    -0.034 A 
ATOM      5  C4  UNL d   1       0.294  -0.780   3.577  0.00  0.00     0.162 A 
ATOM      6  C5  UNL d   1       0.067  -2.052   3.061  0.00  0.00     0.062 A 
ATOM      7  F   UNL d   1      -0.734  -2.906   3.715  0.00  0.00    -0.097 F 
ATOM      8  F1  UNL d   1      -0.298  -0.432   4.729  0.00  0.00    -0.096 F 
ATOM      9  I   UNL d   1       1.469   2.018   3.672  0.00  0.00    -0.060 I 
ATOM     10  F2  UNL d   1       2.531   0.553   1.033  0.00  0.00    -0.096 F 
ATOM     11  F3  UNL d   1       2.075  -1.927   0.045  0.00  0.00    -0.097 F 
ATOM     12  F4  UNL d   1       0.446  -3.665   1.375  0.00  0.00    -0.092 F 
ENDROOT
TORSDOF 0
ENDMDL
