MODEL 1
REMARK minimizedAffinity 5.12070704
REMARK minimizedRMSD -1
REMARK  0 active torsions:
REMARK  status: ('A' for Active; 'I' for Inactive)
ROOT
ATOM      1  C   UNL d   1      -0.717  -3.897   3.079  0.00  0.00     0.124 A 
ATOM      2  C1  UNL d   1       0.059  -4.738   2.293  0.00  0.00     0.062 A 
ATOM      3  C2  UNL d   1       1.248  -4.276   1.736  0.00  0.00     0.162 A 
ATOM      4  C3  UNL d   1       1.668  -2.965   1.963  0.00  0.00    -0.034 A 
ATOM      5  C4  UNL d   1       0.882  -2.125   2.753  0.00  0.00     0.162 A 
ATOM      6  C5  UNL d   1      -0.305  -2.592   3.308  0.00  0.00     0.062 A 
ATOM      7  F   UNL d   1      -1.054  -1.778   4.066  0.00  0.00    -0.097 F 
ATOM      8  F1  UNL d   1       1.256  -0.860   2.991  0.00  0.00    -0.096 F 
ATOM      9  I   UNL d   1       3.445  -2.270   1.131  0.00  0.00    -0.060 I 
ATOM     10  F2  UNL d   1       1.978  -5.110   0.981  0.00  0.00    -0.096 F 
ATOM     11  F3  UNL d   1      -0.337  -6.000   2.070  0.00  0.00    -0.097 F 
ATOM     12  F4  UNL d   1      -1.861  -4.345   3.613  0.00  0.00    -0.092 F 
ENDROOT
TORSDOF 0
ENDMDL
