MODEL 1
REMARK minimizedAffinity 10.9444294
REMARK minimizedRMSD -1
REMARK  0 active torsions:
REMARK  status: ('A' for Active; 'I' for Inactive)
ROOT
ATOM      1  C   UNL d   1      -2.733   0.014   2.381  0.00  0.00     0.124 A 
ATOM      2  C1  UNL d   1      -1.920  -0.366   3.440  0.00  0.00     0.062 A 
ATOM      3  C2  UNL d   1      -0.753  -1.087   3.202  0.00  0.00     0.162 A 
ATOM      4  C3  UNL d   1      -0.392  -1.431   1.900  0.00  0.00    -0.034 A 
ATOM      5  C4  UNL d   1      -1.215  -1.046   0.841  0.00  0.00     0.162 A 
ATOM      6  C5  UNL d   1      -2.380  -0.326   1.083  0.00  0.00     0.062 A 
ATOM      7  F   UNL d   1      -3.165   0.041   0.059  0.00  0.00    -0.097 F 
ATOM      8  F1  UNL d   1      -0.897  -1.360  -0.424  0.00  0.00    -0.096 F 
ATOM      9  I   UNL d   1       1.352  -2.509   1.541  0.00  0.00    -0.060 I 
ATOM     10  F2  UNL d   1       0.014  -1.441   4.244  0.00  0.00    -0.096 F 
ATOM     11  F3  UNL d   1      -2.260  -0.040   4.695  0.00  0.00    -0.097 F 
ATOM     12  F4  UNL d   1      -3.856   0.706   2.613  0.00  0.00    -0.092 F 
ENDROOT
TORSDOF 0
ENDMDL
