MODEL 1
REMARK minimizedAffinity 18.8399239
REMARK minimizedRMSD -1
REMARK  0 active torsions:
REMARK  status: ('A' for Active; 'I' for Inactive)
ROOT
ATOM      1  C   UNL d   1       1.531  -2.498   2.204  0.00  0.00     0.124 A 
ATOM      2  C1  UNL d   1       2.301  -2.269   1.072  0.00  0.00     0.062 A 
ATOM      3  C2  UNL d   1       1.715  -1.752  -0.080  0.00  0.00     0.162 A 
ATOM      4  C3  UNL d   1       0.352  -1.458  -0.106  0.00  0.00    -0.034 A 
ATOM      5  C4  UNL d   1      -0.416  -1.691   1.037  0.00  0.00     0.162 A 
ATOM      6  C5  UNL d   1       0.174  -2.209   2.185  0.00  0.00     0.062 A 
ATOM      7  F   UNL d   1      -0.572  -2.429   3.278  0.00  0.00    -0.097 F 
ATOM      8  F1  UNL d   1      -1.730  -1.420   1.047  0.00  0.00    -0.096 F 
ATOM      9  I   UNL d   1      -0.527  -0.684  -1.826  0.00  0.00    -0.060 I 
ATOM     10  F2  UNL d   1       2.483  -1.541  -1.159  0.00  0.00    -0.096 F 
ATOM     11  F3  UNL d   1       3.612  -2.549   1.087  0.00  0.00    -0.097 F 
ATOM     12  F4  UNL d   1       2.096  -2.997   3.311  0.00  0.00    -0.092 F 
ENDROOT
TORSDOF 0
ENDMDL
