MODEL 1
REMARK minimizedAffinity 5.75785875
REMARK minimizedRMSD -1
REMARK  0 active torsions:
REMARK  status: ('A' for Active; 'I' for Inactive)
ROOT
ATOM      1  C   UNL d   1      -3.429   0.356   2.152  0.00  0.00     0.124 A 
ATOM      2  C1  UNL d   1      -3.029  -0.042   0.884  0.00  0.00     0.062 A 
ATOM      3  C2  UNL d   1      -1.866  -0.789   0.719  0.00  0.00     0.162 A 
ATOM      4  C3  UNL d   1      -1.095  -1.145   1.826  0.00  0.00    -0.034 A 
ATOM      5  C4  UNL d   1      -1.503  -0.740   3.098  0.00  0.00     0.162 A 
ATOM      6  C5  UNL d   1      -2.666   0.007   3.258  0.00  0.00     0.062 A 
ATOM      7  F   UNL d   1      -3.051   0.390   4.484  0.00  0.00    -0.097 F 
ATOM      8  F1  UNL d   1      -0.785  -1.064   4.183  0.00  0.00    -0.096 F 
ATOM      9  I   UNL d   1       0.644  -2.262   1.583  0.00  0.00    -0.060 I 
ATOM     10  F2  UNL d   1      -1.504  -1.160  -0.518  0.00  0.00    -0.096 F 
ATOM     11  F3  UNL d   1      -3.764   0.295  -0.185  0.00  0.00    -0.097 F 
ATOM     12  F4  UNL d   1      -4.548   1.075   2.308  0.00  0.00    -0.092 F 
ENDROOT
TORSDOF 0
ENDMDL
