MODEL 1
REMARK minimizedAffinity 18.0855942
REMARK minimizedRMSD -1
REMARK  0 active torsions:
REMARK  status: ('A' for Active; 'I' for Inactive)
ROOT
ATOM      1  C   UNL d   1       3.092  -4.121   1.279  0.00  0.00     0.124 A 
ATOM      2  C1  UNL d   1       2.268  -3.370   0.451  0.00  0.00     0.062 A 
ATOM      3  C2  UNL d   1       1.657  -2.216   0.932  0.00  0.00     0.162 A 
ATOM      4  C3  UNL d   1       1.868  -1.804   2.248  0.00  0.00    -0.034 A 
ATOM      5  C4  UNL d   1       2.697  -2.564   3.075  0.00  0.00     0.162 A 
ATOM      6  C5  UNL d   1       3.305  -3.717   2.590  0.00  0.00     0.062 A 
ATOM      7  F   UNL d   1       4.100  -4.441   3.391  0.00  0.00    -0.097 F 
ATOM      8  F1  UNL d   1       2.921  -2.197   4.345  0.00  0.00    -0.096 F 
ATOM      9  I   UNL d   1       0.956  -0.078   2.971  0.00  0.00    -0.060 I 
ATOM     10  F2  UNL d   1       0.866  -1.510   0.110  0.00  0.00    -0.096 F 
ATOM     11  F3  UNL d   1       2.060  -3.759  -0.815  0.00  0.00    -0.097 F 
ATOM     12  F4  UNL d   1       3.678  -5.232   0.814  0.00  0.00    -0.092 F 
ENDROOT
TORSDOF 0
ENDMDL
