MODEL 1
REMARK minimizedAffinity -1.88850236
REMARK minimizedRMSD -1
REMARK  0 active torsions:
REMARK  status: ('A' for Active; 'I' for Inactive)
ROOT
ATOM      1  C   UNL d   1       5.944  -1.524   4.438  0.00  0.00     0.077 C 
ATOM      2  C1  UNL d   1       5.922  -3.021   4.530  0.00  0.00    -0.074 A 
ATOM      3  C2  UNL d   1       5.838  -3.663   5.770  0.00  0.00    -0.005 A 
ATOM      4  C3  UNL d   1       5.809  -5.056   5.840  0.00  0.00     0.006 A 
ATOM      5  C4  UNL d   1       5.864  -5.819   4.673  0.00  0.00    -0.005 A 
ATOM      6  C5  UNL d   1       5.948  -5.195   3.425  0.00  0.00    -0.074 A 
ATOM      7  C6  UNL d   1       5.998  -6.000   2.160  0.00  0.00     0.077 C 
ATOM      8  C7  UNL d   1       5.969  -3.795   3.362  0.00  0.00    -0.001 A 
ENDROOT
TORSDOF 0
ENDMDL
