MODEL 1
REMARK minimizedAffinity -2.97411585
REMARK minimizedRMSD -1
REMARK  0 active torsions:
REMARK  status: ('A' for Active; 'I' for Inactive)
ROOT
ATOM      1  C   UNL d   1       6.000  -4.136   1.486  0.00  0.00     0.077 C 
ATOM      2  C1  UNL d   1       5.725  -3.847   2.932  0.00  0.00    -0.074 A 
ATOM      3  C2  UNL d   1       5.996  -2.588   3.477  0.00  0.00    -0.005 A 
ATOM      4  C3  UNL d   1       5.727  -2.332   4.822  0.00  0.00     0.006 A 
ATOM      5  C4  UNL d   1       5.185  -3.330   5.633  0.00  0.00    -0.005 A 
ATOM      6  C5  UNL d   1       4.907  -4.594   5.105  0.00  0.00    -0.074 A 
ATOM      7  C6  UNL d   1       4.316  -5.675   5.960  0.00  0.00     0.077 C 
ATOM      8  C7  UNL d   1       5.174  -4.842   3.751  0.00  0.00    -0.001 A 
ENDROOT
TORSDOF 0
ENDMDL
