MODEL 1
REMARK minimizedAffinity -3.57695532
REMARK minimizedRMSD -1
REMARK  0 active torsions:
REMARK  status: ('A' for Active; 'I' for Inactive)
ROOT
ATOM      1  C   UNL d   1       6.000  -3.764   1.846  0.00  0.00     0.077 C 
ATOM      2  C1  UNL d   1       5.623  -3.690   3.296  0.00  0.00    -0.074 A 
ATOM      3  C2  UNL d   1       5.771  -2.501   4.018  0.00  0.00    -0.005 A 
ATOM      4  C3  UNL d   1       5.407  -2.445   5.363  0.00  0.00     0.006 A 
ATOM      5  C4  UNL d   1       4.893  -3.575   6.000  0.00  0.00    -0.005 A 
ATOM      6  C5  UNL d   1       4.737  -4.773   5.294  0.00  0.00    -0.074 A 
ATOM      7  C6  UNL d   1       4.177  -5.994   5.960  0.00  0.00     0.077 C 
ATOM      8  C7  UNL d   1       5.098  -4.819   3.941  0.00  0.00    -0.001 A 
ENDROOT
TORSDOF 0
ENDMDL
