MODEL 1
REMARK minimizedAffinity 0.581205964
REMARK minimizedRMSD -1
REMARK  0 active torsions:
REMARK  status: ('A' for Active; 'I' for Inactive)
ROOT
ATOM      1  C   UNL d   1       5.751  -3.793   1.643  0.00  0.00     0.077 C 
ATOM      2  C1  UNL d   1       5.651  -3.728   3.138  0.00  0.00    -0.074 A 
ATOM      3  C2  UNL d   1       6.000  -2.565   3.832  0.00  0.00    -0.005 A 
ATOM      4  C3  UNL d   1       5.893  -2.516   5.222  0.00  0.00     0.006 A 
ATOM      5  C4  UNL d   1       5.436  -3.628   5.931  0.00  0.00    -0.005 A 
ATOM      6  C5  UNL d   1       5.081  -4.799   5.254  0.00  0.00    -0.074 A 
ATOM      7  C6  UNL d   1       4.579  -6.000   6.000  0.00  0.00     0.077 C 
ATOM      8  C7  UNL d   1       5.185  -4.838   3.857  0.00  0.00    -0.001 A 
ENDROOT
TORSDOF 0
ENDMDL
