MODEL 1
REMARK minimizedAffinity -2.76347256
REMARK minimizedRMSD -1
REMARK  0 active torsions:
REMARK  status: ('A' for Active; 'I' for Inactive)
ROOT
ATOM      1  C   UNL d   1       5.899  -2.727   1.639  0.00  0.00     0.077 C 
ATOM      2  C1  UNL d   1       5.938  -2.985   3.116  0.00  0.00    -0.074 A 
ATOM      3  C2  UNL d   1       5.973  -1.927   4.030  0.00  0.00    -0.005 A 
ATOM      4  C3  UNL d   1       5.999  -2.182   5.401  0.00  0.00     0.006 A 
ATOM      5  C4  UNL d   1       5.990  -3.496   5.871  0.00  0.00    -0.005 A 
ATOM      6  C5  UNL d   1       5.953  -4.567   4.973  0.00  0.00    -0.074 A 
ATOM      7  C6  UNL d   1       5.932  -5.985   5.461  0.00  0.00     0.077 C 
ATOM      8  C7  UNL d   1       5.920  -4.302   3.597  0.00  0.00    -0.001 A 
ENDROOT
TORSDOF 0
ENDMDL
