MODEL 1
REMARK minimizedAffinity 6.37123299
REMARK minimizedRMSD -1
REMARK  0 active torsions:
REMARK  status: ('A' for Active; 'I' for Inactive)
ROOT
ATOM      1  C   UNL d   1      -2.147   2.874  -0.079  0.00  0.00     0.077 C 
ATOM      2  C1  UNL d   1      -1.076   3.528   0.743  0.00  0.00    -0.074 A 
ATOM      3  C2  UNL d   1      -1.394   4.237   1.905  0.00  0.00    -0.005 A 
ATOM      4  C3  UNL d   1      -0.387   4.831   2.664  0.00  0.00     0.006 A 
ATOM      5  C4  UNL d   1       0.947   4.722   2.270  0.00  0.00    -0.005 A 
ATOM      6  C5  UNL d   1       1.285   4.016   1.111  0.00  0.00    -0.074 A 
ATOM      7  C6  UNL d   1       2.714   3.881   0.678  0.00  0.00     0.077 C 
ATOM      8  C7  UNL d   1       0.267   3.416   0.357  0.00  0.00    -0.001 A 
ENDROOT
TORSDOF 0
ENDMDL
