MODEL 1
REMARK minimizedAffinity -2.56020308
REMARK minimizedRMSD -1
REMARK  0 active torsions:
REMARK  status: ('A' for Active; 'I' for Inactive)
ROOT
ATOM      1  C   UNL d   1       2.711  -5.400   4.839  0.00  0.00     0.077 C 
ATOM      2  C1  UNL d   1       3.853  -4.428   4.813  0.00  0.00    -0.074 A 
ATOM      3  C2  UNL d   1       4.445  -3.983   6.000  0.00  0.00    -0.005 A 
ATOM      4  C3  UNL d   1       5.513  -3.087   5.960  0.00  0.00     0.006 A 
ATOM      5  C4  UNL d   1       5.998  -2.626   4.736  0.00  0.00    -0.005 A 
ATOM      6  C5  UNL d   1       5.419  -3.060   3.539  0.00  0.00    -0.074 A 
ATOM      7  C6  UNL d   1       5.935  -2.582   2.214  0.00  0.00     0.077 C 
ATOM      8  C7  UNL d   1       4.352  -3.966   3.587  0.00  0.00    -0.001 A 
ENDROOT
TORSDOF 0
ENDMDL
