MODEL 1
REMARK minimizedAffinity -1.44237721
REMARK minimizedRMSD -1
REMARK  0 active torsions:
REMARK  status: ('A' for Active; 'I' for Inactive)
ROOT
ATOM      1  C   UNL d   1       5.985  -3.041   1.709  0.00  0.00     0.077 C 
ATOM      2  C1  UNL d   1       5.873  -3.035   3.204  0.00  0.00    -0.074 A 
ATOM      3  C2  UNL d   1       5.998  -1.846   3.930  0.00  0.00    -0.005 A 
ATOM      4  C3  UNL d   1       5.882  -1.855   5.320  0.00  0.00     0.006 A 
ATOM      5  C4  UNL d   1       5.640  -3.050   5.997  0.00  0.00    -0.005 A 
ATOM      6  C5  UNL d   1       5.510  -4.249   5.288  0.00  0.00    -0.074 A 
ATOM      7  C6  UNL d   1       5.240  -5.541   6.000  0.00  0.00     0.077 C 
ATOM      8  C7  UNL d   1       5.621  -4.231   3.891  0.00  0.00    -0.001 A 
ENDROOT
TORSDOF 0
ENDMDL
