MODEL 1
REMARK minimizedAffinity -3.46501112
REMARK minimizedRMSD -1
REMARK  0 active torsions:
REMARK  status: ('A' for Active; 'I' for Inactive)
ROOT
ATOM      1  C   UNL d   1       5.282  -5.761   5.999  0.00  0.00     0.077 C 
ATOM      2  C1  UNL d   1       5.325  -4.594   5.057  0.00  0.00    -0.074 A 
ATOM      3  C2  UNL d   1       5.085  -3.294   5.512  0.00  0.00    -0.005 A 
ATOM      4  C3  UNL d   1       5.138  -2.218   4.626  0.00  0.00     0.006 A 
ATOM      5  C4  UNL d   1       5.429  -2.431   3.278  0.00  0.00    -0.005 A 
ATOM      6  C5  UNL d   1       5.672  -3.725   2.805  0.00  0.00    -0.074 A 
ATOM      7  C6  UNL d   1       5.997  -3.970   1.361  0.00  0.00     0.077 C 
ATOM      8  C7  UNL d   1       5.625  -4.800   3.703  0.00  0.00    -0.001 A 
ENDROOT
TORSDOF 0
ENDMDL
