MODEL 1
REMARK minimizedAffinity -3.27335763
REMARK minimizedRMSD -1
REMARK  0 active torsions:
REMARK  status: ('A' for Active; 'I' for Inactive)
ROOT
ATOM      1  C   UNL d   1       5.948  -1.225   5.150  0.00  0.00     0.077 C 
ATOM      2  C1  UNL d   1       5.735  -2.618   4.638  0.00  0.00    -0.074 A 
ATOM      3  C2  UNL d   1       5.999  -2.942   3.303  0.00  0.00    -0.005 A 
ATOM      4  C3  UNL d   1       5.806  -4.244   2.844  0.00  0.00     0.006 A 
ATOM      5  C4  UNL d   1       5.346  -5.235   3.712  0.00  0.00    -0.005 A 
ATOM      6  C5  UNL d   1       5.077  -4.930   5.050  0.00  0.00    -0.074 A 
ATOM      7  C6  UNL d   1       4.592  -5.985   6.000  0.00  0.00     0.077 C 
ATOM      8  C7  UNL d   1       5.281  -3.621   5.506  0.00  0.00    -0.001 A 
ENDROOT
TORSDOF 0
ENDMDL
