MODEL 1
REMARK minimizedAffinity -3.13427591
REMARK minimizedRMSD -1
REMARK  0 active torsions:
REMARK  status: ('A' for Active; 'I' for Inactive)
ROOT
ATOM      1  C   UNL d   1       5.998  -5.876   1.104  0.00  0.00     0.077 C 
ATOM      2  C1  UNL d   1       5.814  -5.033   2.331  0.00  0.00    -0.074 A 
ATOM      3  C2  UNL d   1       5.994  -3.647   2.284  0.00  0.00    -0.005 A 
ATOM      4  C3  UNL d   1       5.810  -2.875   3.431  0.00  0.00     0.006 A 
ATOM      5  C4  UNL d   1       5.445  -3.480   4.634  0.00  0.00    -0.005 A 
ATOM      6  C5  UNL d   1       5.260  -4.865   4.700  0.00  0.00    -0.074 A 
ATOM      7  C6  UNL d   1       4.858  -5.530   5.983  0.00  0.00     0.077 C 
ATOM      8  C7  UNL d   1       5.440  -5.633   3.542  0.00  0.00    -0.001 A 
ENDROOT
TORSDOF 0
ENDMDL
