MODEL 1
REMARK minimizedAffinity -2.50874686
REMARK minimizedRMSD -1
REMARK  0 active torsions:
REMARK  status: ('A' for Active; 'I' for Inactive)
ROOT
ATOM      1  C   UNL d   1       4.227  -5.999   6.000  0.00  0.00     0.077 C 
ATOM      2  C1  UNL d   1       4.827  -4.921   5.147  0.00  0.00    -0.074 A 
ATOM      3  C2  UNL d   1       5.112  -3.659   5.678  0.00  0.00    -0.005 A 
ATOM      4  C3  UNL d   1       5.678  -2.669   4.875  0.00  0.00     0.006 A 
ATOM      5  C4  UNL d   1       5.965  -2.931   3.535  0.00  0.00    -0.005 A 
ATOM      6  C5  UNL d   1       5.688  -4.187   2.986  0.00  0.00    -0.074 A 
ATOM      7  C6  UNL d   1       6.000  -4.488   1.550  0.00  0.00     0.077 C 
ATOM      8  C7  UNL d   1       5.126  -5.178   3.801  0.00  0.00    -0.001 A 
ENDROOT
TORSDOF 0
ENDMDL
