MODEL 1
REMARK minimizedAffinity -3.22261786
REMARK minimizedRMSD -1
REMARK  0 active torsions:
REMARK  status: ('A' for Active; 'I' for Inactive)
ROOT
ATOM      1  C   UNL d   1       5.991  -1.855   1.445  0.00  0.00     0.077 C 
ATOM      2  C1  UNL d   1       5.744  -2.971   2.416  0.00  0.00    -0.074 A 
ATOM      3  C2  UNL d   1       6.000  -4.300   2.064  0.00  0.00    -0.005 A 
ATOM      4  C3  UNL d   1       5.775  -5.327   2.981  0.00  0.00     0.006 A 
ATOM      5  C4  UNL d   1       5.293  -5.035   4.257  0.00  0.00    -0.005 A 
ATOM      6  C5  UNL d   1       5.033  -3.712   4.628  0.00  0.00    -0.074 A 
ATOM      7  C6  UNL d   1       4.524  -3.381   6.000  0.00  0.00     0.077 C 
ATOM      8  C7  UNL d   1       5.268  -2.685   3.703  0.00  0.00    -0.001 A 
ENDROOT
TORSDOF 0
ENDMDL
