MODEL 1
REMARK minimizedAffinity -3.13349581
REMARK minimizedRMSD -1
REMARK  0 active torsions:
REMARK  status: ('A' for Active; 'I' for Inactive)
ROOT
ATOM      1  C   UNL d   1       5.987  -3.750   1.714  0.00  0.00     0.077 C 
ATOM      2  C1  UNL d   1       5.663  -3.668   3.176  0.00  0.00    -0.074 A 
ATOM      3  C2  UNL d   1       5.856  -2.481   3.890  0.00  0.00    -0.005 A 
ATOM      4  C3  UNL d   1       5.541  -2.417   5.247  0.00  0.00     0.006 A 
ATOM      5  C4  UNL d   1       5.031  -3.538   5.904  0.00  0.00    -0.005 A 
ATOM      6  C5  UNL d   1       4.831  -4.734   5.206  0.00  0.00    -0.074 A 
ATOM      7  C6  UNL d   1       4.275  -5.945   5.894  0.00  0.00     0.077 C 
ATOM      8  C7  UNL d   1       5.143  -4.788   3.841  0.00  0.00    -0.001 A 
ENDROOT
TORSDOF 0
ENDMDL
