MODEL 1
REMARK minimizedAffinity 0.670493186
REMARK minimizedRMSD -1
REMARK  0 active torsions:
REMARK  status: ('A' for Active; 'I' for Inactive)
ROOT
ATOM      1  C   UNL d   1       4.664  -5.861   5.928  0.00  0.00     0.077 C 
ATOM      2  C1  UNL d   1       5.124  -4.606   5.248  0.00  0.00    -0.074 A 
ATOM      3  C2  UNL d   1       5.493  -3.480   5.992  0.00  0.00    -0.005 A 
ATOM      4  C3  UNL d   1       5.928  -2.322   5.346  0.00  0.00     0.006 A 
ATOM      5  C4  UNL d   1       5.998  -2.279   3.953  0.00  0.00    -0.005 A 
ATOM      6  C5  UNL d   1       5.635  -3.396   3.193  0.00  0.00    -0.074 A 
ATOM      7  C6  UNL d   1       5.714  -3.369   1.696  0.00  0.00     0.077 C 
ATOM      8  C7  UNL d   1       5.205  -4.557   3.850  0.00  0.00    -0.001 A 
ENDROOT
TORSDOF 0
ENDMDL
