MODEL 1
REMARK minimizedAffinity -4.09564447
REMARK minimizedRMSD -1
REMARK  0 active torsions:
REMARK  status: ('A' for Active; 'I' for Inactive)
ROOT
ATOM      1  C   UNL d   1       5.982  -4.238   1.250  0.00  0.00     0.077 C 
ATOM      2  C1  UNL d   1       5.708  -3.993   2.704  0.00  0.00    -0.074 A 
ATOM      3  C2  UNL d   1       5.181  -2.774   3.141  0.00  0.00    -0.005 A 
ATOM      4  C3  UNL d   1       4.923  -2.564   4.496  0.00  0.00     0.006 A 
ATOM      5  C4  UNL d   1       5.190  -3.570   5.426  0.00  0.00    -0.005 A 
ATOM      6  C5  UNL d   1       5.716  -4.796   5.007  0.00  0.00    -0.074 A 
ATOM      7  C6  UNL d   1       6.000  -5.891   5.992  0.00  0.00     0.077 C 
ATOM      8  C7  UNL d   1       5.966  -5.001   3.643  0.00  0.00    -0.001 A 
ENDROOT
TORSDOF 0
ENDMDL
