MODEL 1
REMARK minimizedAffinity -0.0141789587
REMARK minimizedRMSD -1
REMARK  0 active torsions:
REMARK  status: ('A' for Active; 'I' for Inactive)
ROOT
ATOM      1  C   UNL d   1       3.353  -2.873   5.156  0.00  0.00     0.077 C 
ATOM      2  C1  UNL d   1       4.281  -3.238   4.035  0.00  0.00    -0.074 A 
ATOM      3  C2  UNL d   1       4.724  -4.553   3.868  0.00  0.00    -0.005 A 
ATOM      4  C3  UNL d   1       5.580  -4.879   2.816  0.00  0.00     0.006 A 
ATOM      5  C4  UNL d   1       5.999  -3.894   1.921  0.00  0.00    -0.005 A 
ATOM      6  C5  UNL d   1       5.566  -2.573   2.071  0.00  0.00    -0.074 A 
ATOM      7  C6  UNL d   1       5.999  -1.504   1.113  0.00  0.00     0.077 C 
ATOM      8  C7  UNL d   1       4.700  -2.255   3.127  0.00  0.00    -0.001 A 
ENDROOT
TORSDOF 0
ENDMDL
