MODEL 1
REMARK minimizedAffinity -3.39667583
REMARK minimizedRMSD -1
REMARK  0 active torsions:
REMARK  status: ('A' for Active; 'I' for Inactive)
ROOT
ATOM      1  C   UNL d   1       4.785  -1.863   4.454  0.00  0.00     0.077 C 
ATOM      2  C1  UNL d   1       5.215  -3.300   4.438  0.00  0.00    -0.074 A 
ATOM      3  C2  UNL d   1       5.415  -4.004   5.629  0.00  0.00    -0.005 A 
ATOM      4  C3  UNL d   1       5.805  -5.343   5.599  0.00  0.00     0.006 A 
ATOM      5  C4  UNL d   1       6.000  -5.990   4.378  0.00  0.00    -0.005 A 
ATOM      6  C5  UNL d   1       5.804  -5.303   3.176  0.00  0.00    -0.074 A 
ATOM      7  C6  UNL d   1       5.999  -5.986   1.855  0.00  0.00     0.077 C 
ATOM      8  C7  UNL d   1       5.405  -3.960   3.215  0.00  0.00    -0.001 A 
ENDROOT
TORSDOF 0
ENDMDL
