MODEL 1
REMARK minimizedAffinity -2.08041787
REMARK minimizedRMSD -1
REMARK  2 active torsions:
REMARK  status: ('A' for Active; 'I' for Inactive)
REMARK    1  A    between atoms: C1_2  and  C2_3 
REMARK    2  A    between atoms: C2_3  and  C3_4 
ROOT
ATOM      1  C3  UNL d   1      -0.688   1.336   0.453  0.00  0.00    -0.075 A 
ATOM      2  C4  UNL d   1      -0.417  -0.035   0.571  0.00  0.00     0.002 A 
ATOM      3  C5  UNL d   1       0.353  -0.690  -0.391  0.00  0.00     0.002 A 
ATOM      4  C6  UNL d   1       0.851   0.012  -1.486  0.00  0.00    -0.004 A 
ATOM      5  C7  UNL d   1       0.575   1.371  -1.622  0.00  0.00     0.002 A 
ATOM      6  C8  UNL d   1      -0.191   2.030  -0.659  0.00  0.00     0.002 A 
ENDROOT
BRANCH   1   7
ATOM      7  C2  UNL d   1      -1.495   2.058   1.506  0.00  0.00     0.056 C 
BRANCH   7   8
ATOM      8  C1  UNL d   1      -1.028   1.791   2.941  0.00  0.00     0.007 C 
ATOM      9  C   UNL d   1       0.137   2.674   3.367  0.00  0.00     0.009 C 
ENDBRANCH   7   8
ENDBRANCH   1   7
TORSDOF 2
ENDMDL
