MODEL 1
REMARK minimizedAffinity -6.45275402
REMARK minimizedRMSD -1
REMARK  2 active torsions:
REMARK  status: ('A' for Active; 'I' for Inactive)
REMARK    1  A    between atoms: C1_2  and  C2_3 
REMARK    2  A    between atoms: C2_3  and  C3_4 
ROOT
ATOM      1  C3  UNL d   1      -0.388   0.903   0.191  0.00  0.00    -0.075 A 
ATOM      2  C4  UNL d   1       0.196   1.766  -0.748  0.00  0.00     0.002 A 
ATOM      3  C5  UNL d   1       0.097   3.149  -0.597  0.00  0.00     0.002 A 
ATOM      4  C6  UNL d   1      -0.593   3.687   0.487  0.00  0.00    -0.004 A 
ATOM      5  C7  UNL d   1      -1.192   2.839   1.417  0.00  0.00     0.002 A 
ATOM      6  C8  UNL d   1      -1.091   1.455   1.270  0.00  0.00     0.002 A 
ENDROOT
BRANCH   1   7
ATOM      7  C2  UNL d   1      -0.260  -0.595   0.048  0.00  0.00     0.056 C 
BRANCH   7   8
ATOM      8  C1  UNL d   1       1.182  -1.107   0.124  0.00  0.00     0.007 C 
ATOM      9  C   UNL d   1       1.540  -2.062  -1.007  0.00  0.00     0.009 C 
ENDBRANCH   7   8
ENDBRANCH   1   7
TORSDOF 2
ENDMDL
