MODEL 1
REMARK minimizedAffinity -2.26852727
REMARK minimizedRMSD -1
REMARK  2 active torsions:
REMARK  status: ('A' for Active; 'I' for Inactive)
REMARK    1  A    between atoms: C1_2  and  C2_3 
REMARK    2  A    between atoms: C2_3  and  C3_4 
ROOT
ATOM      1  C3  UNL d   1       0.853  -1.782  -1.244  0.00  0.00    -0.075 A 
ATOM      2  C4  UNL d   1      -0.241  -1.825  -2.120  0.00  0.00     0.002 A 
ATOM      3  C5  UNL d   1      -0.589  -3.015  -2.760  0.00  0.00     0.002 A 
ATOM      4  C6  UNL d   1       0.155  -4.171  -2.540  0.00  0.00    -0.004 A 
ATOM      5  C7  UNL d   1       1.254  -4.136  -1.684  0.00  0.00     0.002 A 
ATOM      6  C8  UNL d   1       1.603  -2.948  -1.040  0.00  0.00     0.002 A 
ENDROOT
BRANCH   1   7
ATOM      7  C2  UNL d   1       1.218  -0.504  -0.526  0.00  0.00     0.056 C 
BRANCH   7   8
ATOM      8  C1  UNL d   1       0.033   0.438  -0.289  0.00  0.00     0.007 C 
ATOM      9  C   UNL d   1       0.330   1.883  -0.670  0.00  0.00     0.009 C 
ENDBRANCH   7   8
ENDBRANCH   1   7
TORSDOF 2
ENDMDL
