MODEL 1
REMARK minimizedAffinity -5.86187029
REMARK minimizedRMSD -1
REMARK  2 active torsions:
REMARK  status: ('A' for Active; 'I' for Inactive)
REMARK    1  A    between atoms: C1_2  and  C2_3 
REMARK    2  A    between atoms: C2_3  and  C3_4 
ROOT
ATOM      1  C3  UNL d   1       0.005  -0.043   0.275  0.00  0.00    -0.075 A 
ATOM      2  C4  UNL d   1      -0.347  -0.161   1.627  0.00  0.00     0.002 A 
ATOM      3  C5  UNL d   1      -1.259   0.724   2.202  0.00  0.00     0.002 A 
ATOM      4  C6  UNL d   1      -1.822   1.743   1.437  0.00  0.00    -0.004 A 
ATOM      5  C7  UNL d   1      -1.468   1.880   0.097  0.00  0.00     0.002 A 
ATOM      6  C8  UNL d   1      -0.558   0.993  -0.482  0.00  0.00     0.002 A 
ENDROOT
BRANCH   1   7
ATOM      7  C2  UNL d   1       0.969  -1.015  -0.361  0.00  0.00     0.056 C 
BRANCH   7   8
ATOM      8  C1  UNL d   1       0.410  -1.730  -1.597  0.00  0.00     0.007 C 
ATOM      9  C   UNL d   1       0.538  -3.245  -1.522  0.00  0.00     0.009 C 
ENDBRANCH   7   8
ENDBRANCH   1   7
TORSDOF 2
ENDMDL
