MODEL 1
REMARK minimizedAffinity 0.0692435205
REMARK minimizedRMSD -1
REMARK  2 active torsions:
REMARK  status: ('A' for Active; 'I' for Inactive)
REMARK    1  A    between atoms: C1_2  and  C2_3 
REMARK    2  A    between atoms: C2_3  and  C3_4 
ROOT
ATOM      1  C3  UNL d   1      -0.291   1.102   1.000  0.00  0.00    -0.075 A 
ATOM      2  C4  UNL d   1       0.093  -0.176   1.433  0.00  0.00     0.002 A 
ATOM      3  C5  UNL d   1       0.877  -0.993   0.618  0.00  0.00     0.002 A 
ATOM      4  C6  UNL d   1       1.277  -0.550  -0.640  0.00  0.00    -0.004 A 
ATOM      5  C7  UNL d   1       0.888   0.711  -1.087  0.00  0.00     0.002 A 
ATOM      6  C8  UNL d   1       0.107   1.533  -0.273  0.00  0.00     0.002 A 
ENDROOT
BRANCH   1   7
ATOM      7  C2  UNL d   1      -1.115   2.003   1.888  0.00  0.00     0.056 C 
BRANCH   7   8
ATOM      8  C1  UNL d   1      -0.555   2.162   3.306  0.00  0.00     0.007 C 
ATOM      9  C   UNL d   1       0.052   3.535   3.562  0.00  0.00     0.009 C 
ENDBRANCH   7   8
ENDBRANCH   1   7
TORSDOF 2
ENDMDL
