MODEL 1
REMARK minimizedAffinity -6.10313988
REMARK minimizedRMSD -1
REMARK  2 active torsions:
REMARK  status: ('A' for Active; 'I' for Inactive)
REMARK    1  A    between atoms: C1_2  and  C2_3 
REMARK    2  A    between atoms: C2_3  and  C3_4 
ROOT
ATOM      1  C3  UNL d   1      -0.136   0.464   0.333  0.00  0.00    -0.075 A 
ATOM      2  C4  UNL d   1      -0.250   1.761  -0.186  0.00  0.00     0.002 A 
ATOM      3  C5  UNL d   1      -1.120   2.684   0.396  0.00  0.00     0.002 A 
ATOM      4  C6  UNL d   1      -1.893   2.318   1.495  0.00  0.00    -0.004 A 
ATOM      5  C7  UNL d   1      -1.801   1.027   2.009  0.00  0.00     0.002 A 
ATOM      6  C8  UNL d   1      -0.928   0.103   1.432  0.00  0.00     0.002 A 
ENDROOT
BRANCH   1   7
ATOM      7  C2  UNL d   1       0.826  -0.530  -0.273  0.00  0.00     0.056 C 
BRANCH   7   8
ATOM      8  C1  UNL d   1       0.176  -1.502  -1.263  0.00  0.00     0.007 C 
ATOM      9  C   UNL d   1       1.188  -2.324  -2.050  0.00  0.00     0.009 C 
ENDBRANCH   7   8
ENDBRANCH   1   7
TORSDOF 2
ENDMDL
