MODEL 1
REMARK minimizedAffinity -4.74624872
REMARK minimizedRMSD -1
REMARK  2 active torsions:
REMARK  status: ('A' for Active; 'I' for Inactive)
REMARK    1  A    between atoms: C1_2  and  C2_3 
REMARK    2  A    between atoms: C2_3  and  C3_4 
ROOT
ATOM      1  C3  UNL d   1       0.183  -0.132   0.259  0.00  0.00    -0.075 A 
ATOM      2  C4  UNL d   1      -0.465   1.098   0.068  0.00  0.00     0.002 A 
ATOM      3  C5  UNL d   1      -1.245   1.652   1.083  0.00  0.00     0.002 A 
ATOM      4  C6  UNL d   1      -1.397   0.981   2.295  0.00  0.00    -0.004 A 
ATOM      5  C7  UNL d   1      -0.772  -0.249   2.489  0.00  0.00     0.002 A 
ATOM      6  C8  UNL d   1       0.013  -0.804   1.477  0.00  0.00     0.002 A 
ENDROOT
BRANCH   1   7
ATOM      7  C2  UNL d   1       1.053  -0.723  -0.824  0.00  0.00     0.056 C 
BRANCH   7   8
ATOM      8  C1  UNL d   1       0.967  -2.249  -0.930  0.00  0.00     0.007 C 
ATOM      9  C   UNL d   1       0.358  -2.727  -2.241  0.00  0.00     0.009 C 
ENDBRANCH   7   8
ENDBRANCH   1   7
TORSDOF 2
ENDMDL
