MODEL 1
REMARK minimizedAffinity -3.97471762
REMARK minimizedRMSD -1
REMARK  2 active torsions:
REMARK  status: ('A' for Active; 'I' for Inactive)
REMARK    1  A    between atoms: C1_2  and  C2_3 
REMARK    2  A    between atoms: C2_3  and  C3_4 
ROOT
ATOM      1  C3  UNL d   1      -0.652   0.061   0.831  0.00  0.00    -0.075 A 
ATOM      2  C4  UNL d   1      -1.374   0.916  -0.014  0.00  0.00     0.002 A 
ATOM      3  C5  UNL d   1      -1.928   2.097   0.480  0.00  0.00     0.002 A 
ATOM      4  C6  UNL d   1      -1.777   2.433   1.824  0.00  0.00    -0.004 A 
ATOM      5  C7  UNL d   1      -1.076   1.583   2.676  0.00  0.00     0.002 A 
ATOM      6  C8  UNL d   1      -0.516   0.402   2.183  0.00  0.00     0.002 A 
ENDROOT
BRANCH   1   7
ATOM      7  C2  UNL d   1      -0.025  -1.204   0.296  0.00  0.00     0.056 C 
BRANCH   7   8
ATOM      8  C1  UNL d   1       0.759  -1.010  -1.006  0.00  0.00     0.007 C 
ATOM      9  C   UNL d   1       0.953  -2.302  -1.788  0.00  0.00     0.009 C 
ENDBRANCH   7   8
ENDBRANCH   1   7
TORSDOF 2
ENDMDL
