MODEL 1
REMARK minimizedAffinity -5.64790106
REMARK minimizedRMSD -1
REMARK  2 active torsions:
REMARK  status: ('A' for Active; 'I' for Inactive)
REMARK    1  A    between atoms: C1_2  and  C2_3 
REMARK    2  A    between atoms: C2_3  and  C3_4 
ROOT
ATOM      1  C3  UNL d   1       0.342  -0.157  -0.114  0.00  0.00    -0.075 A 
ATOM      2  C4  UNL d   1       0.314  -0.709   1.175  0.00  0.00     0.002 A 
ATOM      3  C5  UNL d   1      -0.583  -0.230   2.131  0.00  0.00     0.002 A 
ATOM      4  C6  UNL d   1      -1.453   0.811   1.815  0.00  0.00    -0.004 A 
ATOM      5  C7  UNL d   1      -1.422   1.378   0.543  0.00  0.00     0.002 A 
ATOM      6  C8  UNL d   1      -0.529   0.898  -0.417  0.00  0.00     0.002 A 
ENDROOT
BRANCH   1   7
ATOM      7  C2  UNL d   1       1.290  -0.690  -1.162  0.00  0.00     0.056 C 
BRANCH   7   8
ATOM      8  C1  UNL d   1       1.024  -2.145  -1.561  0.00  0.00     0.007 C 
ATOM      9  C   UNL d   1       0.465  -2.288  -2.971  0.00  0.00     0.009 C 
ENDBRANCH   7   8
ENDBRANCH   1   7
TORSDOF 2
ENDMDL
