MODEL 1
REMARK minimizedAffinity -4.53835154
REMARK minimizedRMSD -1
REMARK  2 active torsions:
REMARK  status: ('A' for Active; 'I' for Inactive)
REMARK    1  A    between atoms: C1_2  and  C2_3 
REMARK    2  A    between atoms: C2_3  and  C3_4 
ROOT
ATOM      1  C3  UNL d   1       0.072   0.144   0.166  0.00  0.00    -0.075 A 
ATOM      2  C4  UNL d   1       0.112  -0.625   1.338  0.00  0.00     0.002 A 
ATOM      3  C5  UNL d   1      -0.634  -0.251   2.456  0.00  0.00     0.002 A 
ATOM      4  C6  UNL d   1      -1.418   0.900   2.421  0.00  0.00    -0.004 A 
ATOM      5  C7  UNL d   1      -1.452   1.681   1.267  0.00  0.00     0.002 A 
ATOM      6  C8  UNL d   1      -0.710   1.306   0.145  0.00  0.00     0.002 A 
ENDROOT
BRANCH   1   7
ATOM      7  C2  UNL d   1       0.854  -0.273  -1.057  0.00  0.00     0.056 C 
BRANCH   7   8
ATOM      8  C1  UNL d   1       0.953  -1.790  -1.248  0.00  0.00     0.007 C 
ATOM      9  C   UNL d   1       0.437  -2.260  -2.601  0.00  0.00     0.009 C 
ENDBRANCH   7   8
ENDBRANCH   1   7
TORSDOF 2
ENDMDL
