MODEL 1
REMARK minimizedAffinity -3.33884549
REMARK minimizedRMSD -1
REMARK  2 active torsions:
REMARK  status: ('A' for Active; 'I' for Inactive)
REMARK    1  A    between atoms: C1_2  and  C2_3 
REMARK    2  A    between atoms: C2_3  and  C3_4 
ROOT
ATOM      1  C3  UNL d   1       0.217  -0.332  -0.805  0.00  0.00    -0.075 A 
ATOM      2  C4  UNL d   1      -0.672  -0.090   0.252  0.00  0.00     0.002 A 
ATOM      3  C5  UNL d   1      -1.176   1.191   0.475  0.00  0.00     0.002 A 
ATOM      4  C6  UNL d   1      -0.791   2.247  -0.348  0.00  0.00    -0.004 A 
ATOM      5  C7  UNL d   1       0.104   2.022  -1.392  0.00  0.00     0.002 A 
ATOM      6  C8  UNL d   1       0.607   0.739  -1.619  0.00  0.00     0.002 A 
ENDROOT
BRANCH   1   7
ATOM      7  C2  UNL d   1       0.742  -1.723  -1.069  0.00  0.00     0.056 C 
BRANCH   7   8
ATOM      8  C1  UNL d   1       0.154  -2.386  -2.319  0.00  0.00     0.007 C 
ATOM      9  C   UNL d   1       0.037  -3.899  -2.198  0.00  0.00     0.009 C 
ENDBRANCH   7   8
ENDBRANCH   1   7
TORSDOF 2
ENDMDL
