MODEL 1
REMARK minimizedAffinity -3.45388293
REMARK minimizedRMSD -1
REMARK  2 active torsions:
REMARK  status: ('A' for Active; 'I' for Inactive)
REMARK    1  A    between atoms: C1_2  and  C2_3 
REMARK    2  A    between atoms: C2_3  and  C3_4 
ROOT
ATOM      1  C3  UNL d   1      -0.249   1.021  -0.305  0.00  0.00    -0.075 A 
ATOM      2  C4  UNL d   1      -0.281   2.352  -0.748  0.00  0.00     0.002 A 
ATOM      3  C5  UNL d   1      -1.013   3.313  -0.051  0.00  0.00     0.002 A 
ATOM      4  C6  UNL d   1      -1.730   2.956   1.088  0.00  0.00    -0.004 A 
ATOM      5  C7  UNL d   1      -1.719   1.634   1.528  0.00  0.00     0.002 A 
ATOM      6  C8  UNL d   1      -0.984   0.671   0.836  0.00  0.00     0.002 A 
ENDROOT
BRANCH   1   7
ATOM      7  C2  UNL d   1       0.565  -0.018  -1.038  0.00  0.00     0.056 C 
BRANCH   7   8
ATOM      8  C1  UNL d   1       0.501  -1.415  -0.412  0.00  0.00     0.007 C 
ATOM      9  C   UNL d   1       0.788  -2.532  -1.407  0.00  0.00     0.009 C 
ENDBRANCH   7   8
ENDBRANCH   1   7
TORSDOF 2
ENDMDL
