MODEL 1
REMARK minimizedAffinity -4.08980989
REMARK minimizedRMSD -1
REMARK  0 active torsions:
REMARK  status: ('A' for Active; 'I' for Inactive)
ROOT
ATOM      1  C1  BNZ d   1       0.691  -1.323   2.514  0.00  0.00     0.000 A 
ATOM      2  C2  BNZ d   1      -0.641  -1.260   2.199  0.00  0.00     0.000 A 
ATOM      3  C3  BNZ d   1      -1.076  -0.500   1.150  0.00  0.00     0.000 A 
ATOM      4  C4  BNZ d   1      -0.187   0.227   0.444  0.00  0.00     0.000 A 
ATOM      5  C5  BNZ d   1       1.158   0.182   0.755  0.00  0.00     0.000 A 
ATOM      6  C6  BNZ d   1       1.597  -0.615   1.787  0.00  0.00     0.000 A 
ENDROOT
TORSDOF 0
ENDMDL
