MODEL 1
REMARK minimizedAffinity -3.82078052
REMARK minimizedRMSD -1
REMARK  0 active torsions:
REMARK  status: ('A' for Active; 'I' for Inactive)
ROOT
ATOM      1  C1  BNZ d   1       0.229  -1.353   2.567  0.00  0.00     0.000 A 
ATOM      2  C2  BNZ d   1       1.457  -1.059   3.096  0.00  0.00     0.000 A 
ATOM      3  C3  BNZ d   1       2.409  -0.428   2.346  0.00  0.00     0.000 A 
ATOM      4  C4  BNZ d   1       2.148  -0.129   1.058  0.00  0.00     0.000 A 
ATOM      5  C5  BNZ d   1       0.918  -0.427   0.506  0.00  0.00     0.000 A 
ATOM      6  C6  BNZ d   1      -0.053  -1.027   1.276  0.00  0.00     0.000 A 
ENDROOT
TORSDOF 0
ENDMDL
