MODEL 1
REMARK minimizedAffinity -1.06008935
REMARK minimizedRMSD -1
REMARK  0 active torsions:
REMARK  status: ('A' for Active; 'I' for Inactive)
ROOT
ATOM      1  C1  BNZ d   1       4.917   4.510   2.950  0.00  0.00     0.000 A 
ATOM      2  C2  BNZ d   1       5.970   4.524   2.075  0.00  0.00     0.000 A 
ATOM      3  C3  BNZ d   1       5.927   5.286   0.940  0.00  0.00     0.000 A 
ATOM      4  C4  BNZ d   1       4.817   6.000   0.662  0.00  0.00     0.000 A 
ATOM      5  C5  BNZ d   1       3.744   5.989   1.530  0.00  0.00     0.000 A 
ATOM      6  C6  BNZ d   1       3.805   5.252   2.690  0.00  0.00     0.000 A 
ENDROOT
TORSDOF 0
ENDMDL
