MODEL 1
REMARK minimizedAffinity -4.67867279
REMARK minimizedRMSD -1
REMARK  0 active torsions:
REMARK  status: ('A' for Active; 'I' for Inactive)
ROOT
ATOM      1  C1  BNZ d   1       1.867  -1.220   2.023  0.00  0.00     0.000 A 
ATOM      2  C2  BNZ d   1       0.684  -0.531   2.054  0.00  0.00     0.000 A 
ATOM      3  C3  BNZ d   1      -0.059  -0.367   0.919  0.00  0.00     0.000 A 
ATOM      4  C4  BNZ d   1       0.399  -0.856  -0.251  0.00  0.00     0.000 A 
ATOM      5  C5  BNZ d   1       1.595  -1.545  -0.300  0.00  0.00     0.000 A 
ATOM      6  C6  BNZ d   1       2.322  -1.743   0.852  0.00  0.00     0.000 A 
ENDROOT
TORSDOF 0
ENDMDL
