MODEL 1
REMARK minimizedAffinity -3.22174358
REMARK minimizedRMSD -1
REMARK  0 active torsions:
REMARK  status: ('A' for Active; 'I' for Inactive)
ROOT
ATOM      1  C1  BNZ d   1      -0.590  -0.803   2.094  0.00  0.00     0.000 A 
ATOM      2  C2  BNZ d   1      -1.354  -0.382   1.038  0.00  0.00     0.000 A 
ATOM      3  C3  BNZ d   1      -0.775   0.197  -0.057  0.00  0.00     0.000 A 
ATOM      4  C4  BNZ d   1       0.559   0.390  -0.077  0.00  0.00     0.000 A 
ATOM      5  C5  BNZ d   1       1.342  -0.021   0.984  0.00  0.00     0.000 A 
ATOM      6  C6  BNZ d   1       0.760  -0.638   2.067  0.00  0.00     0.000 A 
ENDROOT
TORSDOF 0
ENDMDL
