MODEL 1
REMARK minimizedAffinity -4.94602585
REMARK minimizedRMSD -1
REMARK  0 active torsions:
REMARK  status: ('A' for Active; 'I' for Inactive)
ROOT
ATOM      1  C1  BNZ d   1       2.119  -1.422   2.292  0.00  0.00     0.000 A 
ATOM      2  C2  BNZ d   1       2.397  -1.412   0.951  0.00  0.00     0.000 A 
ATOM      3  C3  BNZ d   1       1.560  -0.789   0.067  0.00  0.00     0.000 A 
ATOM      4  C4  BNZ d   1       0.428  -0.213   0.520  0.00  0.00     0.000 A 
ATOM      5  C5  BNZ d   1       0.129  -0.223   1.868  0.00  0.00     0.000 A 
ATOM      6  C6  BNZ d   1       0.993  -0.817   2.759  0.00  0.00     0.000 A 
ENDROOT
TORSDOF 0
ENDMDL
