MODEL 1
REMARK minimizedAffinity -0.755053282
REMARK minimizedRMSD -1
REMARK  0 active torsions:
REMARK  status: ('A' for Active; 'I' for Inactive)
ROOT
ATOM      1  C1  BNZ d   1       0.365  -0.357  -0.070  0.00  0.00     0.000 A 
ATOM      2  C2  BNZ d   1      -0.650   0.230   0.637  0.00  0.00     0.000 A 
ATOM      3  C3  BNZ d   1      -0.887  -0.115   1.939  0.00  0.00     0.000 A 
ATOM      4  C4  BNZ d   1      -0.135  -1.073   2.518  0.00  0.00     0.000 A 
ATOM      5  C5  BNZ d   1       0.887  -1.680   1.816  0.00  0.00     0.000 A 
ATOM      6  C6  BNZ d   1       1.147  -1.303   0.518  0.00  0.00     0.000 A 
ENDROOT
TORSDOF 0
ENDMDL
