MODEL 1
REMARK minimizedAffinity -3.20422125
REMARK minimizedRMSD -1
REMARK  0 active torsions:
REMARK  status: ('A' for Active; 'I' for Inactive)
ROOT
ATOM      1  C1  BNZ d   1      -0.090  -0.744   2.473  0.00  0.00     0.000 A 
ATOM      2  C2  BNZ d   1      -0.751  -0.233   1.388  0.00  0.00     0.000 A 
ATOM      3  C3  BNZ d   1      -0.202  -0.298   0.138  0.00  0.00     0.000 A 
ATOM      4  C4  BNZ d   1       1.024  -0.838  -0.019  0.00  0.00     0.000 A 
ATOM      5  C5  BNZ d   1       1.708  -1.349   1.066  0.00  0.00     0.000 A 
ATOM      6  C6  BNZ d   1       1.135  -1.316   2.316  0.00  0.00     0.000 A 
ENDROOT
TORSDOF 0
ENDMDL
