MODEL 1
REMARK minimizedAffinity -4.85182667
REMARK minimizedRMSD -1
REMARK  0 active torsions:
REMARK  status: ('A' for Active; 'I' for Inactive)
ROOT
ATOM      1  C1  BNZ d   1       2.112  -0.392   1.616  0.00  0.00     0.000 A 
ATOM      2  C2  BNZ d   1       1.718  -0.327   0.306  0.00  0.00     0.000 A 
ATOM      3  C3  BNZ d   1       0.429  -0.604  -0.052  0.00  0.00     0.000 A 
ATOM      4  C4  BNZ d   1      -0.454  -0.985   0.894  0.00  0.00     0.000 A 
ATOM      5  C5  BNZ d   1      -0.070  -1.065   2.217  0.00  0.00     0.000 A 
ATOM      6  C6  BNZ d   1       1.219  -0.747   2.579  0.00  0.00     0.000 A 
ENDROOT
TORSDOF 0
ENDMDL
