MODEL 1
REMARK minimizedAffinity -2.04459381
REMARK minimizedRMSD -1
REMARK  0 active torsions:
REMARK  status: ('A' for Active; 'I' for Inactive)
ROOT
ATOM      1  C1  BNZ d   1      -2.011   3.477  -3.879  0.00  0.00     0.000 A 
ATOM      2  C2  BNZ d   1      -1.072   2.588  -4.329  0.00  0.00     0.000 A 
ATOM      3  C3  BNZ d   1      -0.457   1.723  -3.468  0.00  0.00     0.000 A 
ATOM      4  C4  BNZ d   1      -0.752   1.774  -2.153  0.00  0.00     0.000 A 
ATOM      5  C5  BNZ d   1      -1.690   2.671  -1.682  0.00  0.00     0.000 A 
ATOM      6  C6  BNZ d   1      -2.335   3.514  -2.558  0.00  0.00     0.000 A 
ENDROOT
TORSDOF 0
ENDMDL
