MODEL 1
REMARK minimizedAffinity 13.9255714
REMARK minimizedRMSD -1
REMARK  0 active torsions:
REMARK  status: ('A' for Active; 'I' for Inactive)
ROOT
ATOM      1  C   UNL d   1      -5.995   2.984  -2.928  0.00  0.00    -0.002 A 
ATOM      2  C1  UNL d   1      -5.162   3.036  -4.037  0.00  0.00     0.010 A 
ATOM      3  C2  UNL d   1      -4.309   1.972  -4.335  0.00  0.00     0.041 A 
ATOM      4  C3  UNL d   1      -4.308   0.842  -3.493  0.00  0.00    -0.075 A 
ATOM      5  S   UNL d   1      -3.348  -0.580  -3.662  0.00  0.00     0.015 SA
ATOM      6  C4  UNL d   1      -4.021  -1.290  -2.267  0.00  0.00     0.022 A 
ATOM      7  C5  UNL d   1      -4.957  -0.476  -1.674  0.00  0.00     0.026 A 
ATOM      8  C6  UNL d   1      -5.138   0.766  -2.371  0.00  0.00    -0.082 A 
ATOM      9  C7  UNL d   1      -5.991   1.862  -2.095  0.00  0.00     0.045 A 
ENDROOT
TORSDOF 0
ENDMDL
