MODEL 1
REMARK minimizedAffinity 12.1475697
REMARK minimizedRMSD -1
REMARK  0 active torsions:
REMARK  status: ('A' for Active; 'I' for Inactive)
ROOT
ATOM      1  C   UNL d   1      -4.208   3.370   0.540  0.00  0.00    -0.002 A 
ATOM      2  C1  UNL d   1      -5.381   4.084   0.342  0.00  0.00     0.010 A 
ATOM      3  C2  UNL d   1      -6.000   4.101  -0.910  0.00  0.00     0.041 A 
ATOM      4  C3  UNL d   1      -5.415   3.379  -1.969  0.00  0.00    -0.075 A 
ATOM      5  S   UNL d   1      -5.995   3.254  -3.587  0.00  0.00     0.015 SA
ATOM      6  C4  UNL d   1      -4.700   2.248  -4.053  0.00  0.00     0.022 A 
ATOM      7  C5  UNL d   1      -3.837   2.004  -3.012  0.00  0.00     0.026 A 
ATOM      8  C6  UNL d   1      -4.234   2.651  -1.793  0.00  0.00    -0.082 A 
ATOM      9  C7  UNL d   1      -3.631   2.655  -0.513  0.00  0.00     0.045 A 
ENDROOT
TORSDOF 0
ENDMDL
