MODEL 1
REMARK minimizedAffinity 5.99030018
REMARK minimizedRMSD -1
REMARK  0 active torsions:
REMARK  status: ('A' for Active; 'I' for Inactive)
ROOT
ATOM      1  C   UNL d   1       1.158  -2.369   3.010  0.00  0.00    -0.002 A 
ATOM      2  C1  UNL d   1       1.644  -1.175   2.496  0.00  0.00     0.010 A 
ATOM      3  C2  UNL d   1       3.018  -0.943   2.419  0.00  0.00     0.041 A 
ATOM      4  C3  UNL d   1       3.905  -1.941   2.870  0.00  0.00    -0.075 A 
ATOM      5  S   UNL d   1       5.628  -1.877   2.871  0.00  0.00     0.015 SA
ATOM      6  C4  UNL d   1       5.759  -3.434   3.553  0.00  0.00     0.022 A 
ATOM      7  C5  UNL d   1       4.528  -4.002   3.780  0.00  0.00     0.026 A 
ATOM      8  C6  UNL d   1       3.439  -3.152   3.390  0.00  0.00    -0.082 A 
ATOM      9  C7  UNL d   1       2.040  -3.357   3.455  0.00  0.00     0.045 A 
ENDROOT
TORSDOF 0
ENDMDL
