MODEL 1
REMARK minimizedAffinity 18.414175
REMARK minimizedRMSD -1
REMARK  0 active torsions:
REMARK  status: ('A' for Active; 'I' for Inactive)
ROOT
ATOM      1  C   UNL d   1       4.379  -5.999  -1.689  0.00  0.00    -0.002 A 
ATOM      2  C1  UNL d   1       3.279  -5.833  -0.859  0.00  0.00     0.010 A 
ATOM      3  C2  UNL d   1       2.645  -4.594  -0.760  0.00  0.00     0.041 A 
ATOM      4  C3  UNL d   1       3.137  -3.513  -1.518  0.00  0.00    -0.075 A 
ATOM      5  S   UNL d   1       2.520  -1.904  -1.557  0.00  0.00     0.015 SA
ATOM      6  C4  UNL d   1       3.701  -1.398  -2.677  0.00  0.00     0.022 A 
ATOM      7  C5  UNL d   1       4.554  -2.419  -3.023  0.00  0.00     0.026 A 
ATOM      8  C6  UNL d   1       4.243  -3.655  -2.361  0.00  0.00    -0.082 A 
ATOM      9  C7  UNL d   1       4.865  -4.924  -2.439  0.00  0.00     0.045 A 
ENDROOT
TORSDOF 0
ENDMDL
