MODEL 1
REMARK minimizedAffinity -3.86156058
REMARK minimizedRMSD -1
REMARK  1 active torsions:
REMARK  status: ('A' for Active; 'I' for Inactive)
REMARK    1  A    between atoms: C3_4  and  O_7 
ROOT
ATOM      1  C   UNL d   1       1.154  -1.930   3.494  0.00  0.00    -0.033 A 
ATOM      2  C1  UNL d   1      -0.152  -1.928   3.988  0.00  0.00     0.039 A 
ATOM      3  C2  UNL d   1      -1.105  -1.067   3.441  0.00  0.00    -0.080 A 
ATOM      4  C3  UNL d   1      -0.741  -0.215   2.402  0.00  0.00     0.150 A 
ATOM      5  C4  UNL d   1       0.558  -0.215   1.903  0.00  0.00    -0.007 A 
ATOM      6  C5  UNL d   1       1.509  -1.074   2.451  0.00  0.00     0.039 A 
ENDROOT
BRANCH   4   7
ATOM      7  O   UNL d   1      -1.635   0.646   1.840  0.00  0.00    -0.526 OA
ATOM      8  H5  UNL d   1      -2.484   0.555   2.305  0.00  0.00     0.418 HD
ENDBRANCH   4   7
TORSDOF 1
ENDMDL
