MODEL 1
REMARK minimizedAffinity -1.53370738
REMARK minimizedRMSD -1
REMARK  1 active torsions:
REMARK  status: ('A' for Active; 'I' for Inactive)
REMARK    1  A    between atoms: C3_4  and  O_7 
ROOT
ATOM      1  C   UNL d   1       1.872  -1.547   3.359  0.00  0.00    -0.033 A 
ATOM      2  C1  UNL d   1       0.712  -1.691   4.123  0.00  0.00     0.039 A 
ATOM      3  C2  UNL d   1      -0.480  -1.097   3.704  0.00  0.00    -0.080 A 
ATOM      4  C3  UNL d   1      -0.499  -0.363   2.521  0.00  0.00     0.150 A 
ATOM      5  C4  UNL d   1       0.652  -0.219   1.753  0.00  0.00    -0.007 A 
ATOM      6  C5  UNL d   1       1.841  -0.812   2.174  0.00  0.00     0.039 A 
ENDROOT
BRANCH   4   7
ATOM      7  O   UNL d   1      -1.638   0.239   2.074  0.00  0.00    -0.526 OA
ATOM      8  H5  UNL d   1      -2.345   0.078   2.721  0.00  0.00     0.418 HD
ENDBRANCH   4   7
TORSDOF 1
ENDMDL
