MODEL 1
REMARK minimizedAffinity 3.24721527
REMARK minimizedRMSD -1
REMARK  1 active torsions:
REMARK  status: ('A' for Active; 'I' for Inactive)
REMARK    1  A    between atoms: C3_4  and  O_7 
ROOT
ATOM      1  C   UNL d   1       0.366  -2.066   3.696  0.00  0.00    -0.033 A 
ATOM      2  C1  UNL d   1       0.775  -1.144   2.730  0.00  0.00     0.039 A 
ATOM      3  C2  UNL d   1       1.924  -0.378   2.936  0.00  0.00    -0.080 A 
ATOM      4  C3  UNL d   1       2.654  -0.544   4.109  0.00  0.00     0.150 A 
ATOM      5  C4  UNL d   1       2.255  -1.462   5.074  0.00  0.00    -0.007 A 
ATOM      6  C5  UNL d   1       1.107  -2.226   4.867  0.00  0.00     0.039 A 
ENDROOT
BRANCH   4   7
ATOM      7  O   UNL d   1       3.780   0.185   4.357  0.00  0.00    -0.526 OA
ATOM      8  H5  UNL d   1       3.918   0.799   3.616  0.00  0.00     0.418 HD
ENDBRANCH   4   7
TORSDOF 1
ENDMDL
