MODEL 1
REMARK minimizedAffinity 1.06747162
REMARK minimizedRMSD -1
REMARK  1 active torsions:
REMARK  status: ('A' for Active; 'I' for Inactive)
REMARK    1  A    between atoms: C3_4  and  O_7 
ROOT
ATOM      1  C   UNL d   1       0.927  -0.586   2.292  0.00  0.00    -0.033 A 
ATOM      2  C1  UNL d   1       1.850  -1.304   3.056  0.00  0.00     0.039 A 
ATOM      3  C2  UNL d   1       1.425  -2.380   3.837  0.00  0.00    -0.080 A 
ATOM      4  C3  UNL d   1       0.078  -2.730   3.844  0.00  0.00     0.150 A 
ATOM      5  C4  UNL d   1      -0.846  -2.022   3.082  0.00  0.00    -0.007 A 
ATOM      6  C5  UNL d   1      -0.421  -0.947   2.304  0.00  0.00     0.039 A 
ENDROOT
BRANCH   4   7
ATOM      7  O   UNL d   1      -0.385  -3.770   4.594  0.00  0.00    -0.526 OA
ATOM      8  H5  UNL d   1       0.361  -4.147   5.090  0.00  0.00     0.418 HD
ENDBRANCH   4   7
TORSDOF 1
ENDMDL
