MODEL 1
REMARK minimizedAffinity 1.78355014
REMARK minimizedRMSD -1
REMARK  1 active torsions:
REMARK  status: ('A' for Active; 'I' for Inactive)
REMARK    1  A    between atoms: C3_4  and  O_7 
ROOT
ATOM      1  C   UNL d   1      -3.890  -2.061  -1.571  0.00  0.00    -0.033 A 
ATOM      2  C1  UNL d   1      -3.074  -3.078  -1.071  0.00  0.00     0.039 A 
ATOM      3  C2  UNL d   1      -3.342  -4.411  -1.388  0.00  0.00    -0.080 A 
ATOM      4  C3  UNL d   1      -4.427  -4.714  -2.206  0.00  0.00     0.150 A 
ATOM      5  C4  UNL d   1      -5.242  -3.706  -2.711  0.00  0.00    -0.007 A 
ATOM      6  C5  UNL d   1      -4.973  -2.375  -2.392  0.00  0.00     0.039 A 
ENDROOT
BRANCH   4   7
ATOM      7  O   UNL d   1      -4.731  -6.000  -2.539  0.00  0.00    -0.526 OA
ATOM      8  H5  UNL d   1      -4.099  -6.590  -2.095  0.00  0.00     0.418 HD
ENDBRANCH   4   7
TORSDOF 1
ENDMDL
