MODEL 1
REMARK minimizedAffinity 3.31464815
REMARK minimizedRMSD -1
REMARK  1 active torsions:
REMARK  status: ('A' for Active; 'I' for Inactive)
REMARK    1  A    between atoms: C3_4  and  O_7 
ROOT
ATOM      1  C   UNL d   1      -2.827   0.512  -1.216  0.00  0.00    -0.033 A 
ATOM      2  C1  UNL d   1      -2.522  -0.829  -0.977  0.00  0.00     0.039 A 
ATOM      3  C2  UNL d   1      -1.806  -1.191   0.166  0.00  0.00    -0.080 A 
ATOM      4  C3  UNL d   1      -1.403  -0.203   1.061  0.00  0.00     0.150 A 
ATOM      5  C4  UNL d   1      -1.706   1.135   0.830  0.00  0.00    -0.007 A 
ATOM      6  C5  UNL d   1      -2.420   1.494  -0.312  0.00  0.00     0.039 A 
ENDROOT
BRANCH   4   7
ATOM      7  O   UNL d   1      -0.698  -0.507   2.187  0.00  0.00    -0.526 OA
ATOM      8  H5  UNL d   1      -0.537  -1.465   2.200  0.00  0.00     0.418 HD
ENDBRANCH   4   7
TORSDOF 1
ENDMDL
