MODEL 1
REMARK minimizedAffinity -2.91831899
REMARK minimizedRMSD -1
REMARK  1 active torsions:
REMARK  status: ('A' for Active; 'I' for Inactive)
REMARK    1  A    between atoms: C3_4  and  O_7 
ROOT
ATOM      1  C   UNL d   1       0.374  -5.998  -5.646  0.00  0.00    -0.033 A 
ATOM      2  C1  UNL d   1      -0.629  -5.612  -4.755  0.00  0.00     0.039 A 
ATOM      3  C2  UNL d   1      -0.299  -5.230  -3.453  0.00  0.00    -0.080 A 
ATOM      4  C3  UNL d   1       1.035  -5.238  -3.056  0.00  0.00     0.150 A 
ATOM      5  C4  UNL d   1       2.040  -5.617  -3.940  0.00  0.00    -0.007 A 
ATOM      6  C5  UNL d   1       1.708  -5.999  -5.240  0.00  0.00     0.039 A 
ENDROOT
BRANCH   4   7
ATOM      7  O   UNL d   1       1.405  -4.878  -1.795  0.00  0.00    -0.526 OA
ATOM      8  H5  UNL d   1       0.604  -4.668  -1.287  0.00  0.00     0.418 HD
ENDBRANCH   4   7
TORSDOF 1
ENDMDL
