MODEL 1
REMARK minimizedAffinity -0.197802484
REMARK minimizedRMSD -1
REMARK  1 active torsions:
REMARK  status: ('A' for Active; 'I' for Inactive)
REMARK    1  A    between atoms: C3_4  and  O_7 
ROOT
ATOM      1  C   UNL d   1       0.995  -5.999  -5.952  0.00  0.00    -0.033 A 
ATOM      2  C1  UNL d   1       1.971  -5.640  -5.020  0.00  0.00     0.039 A 
ATOM      3  C2  UNL d   1       1.601  -5.277  -3.723  0.00  0.00    -0.080 A 
ATOM      4  C3  UNL d   1       0.255  -5.278  -3.372  0.00  0.00     0.150 A 
ATOM      5  C4  UNL d   1      -0.723  -5.637  -4.294  0.00  0.00    -0.007 A 
ATOM      6  C5  UNL d   1      -0.352  -5.999  -5.588  0.00  0.00     0.039 A 
ENDROOT
BRANCH   4   7
ATOM      7  O   UNL d   1      -0.155  -4.926  -2.120  0.00  0.00    -0.526 OA
ATOM      8  H5  UNL d   1       0.626  -4.675  -1.600  0.00  0.00     0.418 HD
ENDBRANCH   4   7
TORSDOF 1
ENDMDL
