MODEL 1
REMARK minimizedAffinity 1.74012601
REMARK minimizedRMSD -1
REMARK  1 active torsions:
REMARK  status: ('A' for Active; 'I' for Inactive)
REMARK    1  A    between atoms: C3_4  and  O_7 
ROOT
ATOM      1  C   UNL d   1       0.212  -5.630  -5.608  0.00  0.00    -0.033 A 
ATOM      2  C1  UNL d   1      -0.652  -6.000  -4.575  0.00  0.00     0.039 A 
ATOM      3  C2  UNL d   1      -0.338  -5.681  -3.252  0.00  0.00    -0.080 A 
ATOM      4  C3  UNL d   1       0.840  -4.992  -2.976  0.00  0.00     0.150 A 
ATOM      5  C4  UNL d   1       1.703  -4.617  -4.000  0.00  0.00    -0.007 A 
ATOM      6  C5  UNL d   1       1.389  -4.938  -5.320  0.00  0.00     0.039 A 
ENDROOT
BRANCH   4   7
ATOM      7  O   UNL d   1       1.190  -4.663  -1.701  0.00  0.00    -0.526 OA
ATOM      8  H5  UNL d   1       0.514  -5.011  -1.096  0.00  0.00     0.418 HD
ENDBRANCH   4   7
TORSDOF 1
ENDMDL
