MODEL 1
REMARK minimizedAffinity 0.900296748
REMARK minimizedRMSD -1
REMARK  2 active torsions:
REMARK  status: ('A' for Active; 'I' for Inactive)
REMARK    1  A    between atoms: C2'_3  and  C1'_4 
REMARK    2  A    between atoms: C1'_4  and  C1_5 
ROOT
ATOM      1  C1  I4B d   1      -2.901   5.854  -3.658  0.00  0.00    -0.075 A 
ATOM      2  C2  I4B d   1      -3.677   5.742  -2.531  0.00  0.00     0.003 A 
ATOM      3  C3  I4B d   1      -5.089   5.743  -2.634  0.00  0.00     0.002 A 
ATOM      4  C4  I4B d   1      -5.680   5.908  -3.870  0.00  0.00    -0.004 A 
ATOM      5  C5  I4B d   1      -4.892   5.999  -5.014  0.00  0.00     0.002 A 
ATOM      6  C6  I4B d   1      -3.494   5.959  -4.909  0.00  0.00     0.003 A 
ENDROOT
BRANCH   1   7
ATOM      7  C1' I4B d   1      -1.413   5.882  -3.509  0.00  0.00     0.060 C 
BRANCH   7   8
ATOM      8  C2' I4B d   1      -0.834   4.811  -4.410  0.00  0.00    -0.013 C 
ATOM      9  C4' I4B d   1      -0.484   5.368  -5.765  0.00  0.00     0.013 C 
ATOM     10  C3' I4B d   1       0.375   4.239  -3.731  0.00  0.00     0.013 C 
ENDBRANCH   7   8
ENDBRANCH   1   7
TORSDOF 2
ENDMDL
