MODEL 1
REMARK minimizedAffinity 11.3879709
REMARK minimizedRMSD -1
REMARK  2 active torsions:
REMARK  status: ('A' for Active; 'I' for Inactive)
REMARK    1  A    between atoms: C2'_3  and  C1'_4 
REMARK    2  A    between atoms: C1'_4  and  C1_5 
ROOT
ATOM      1  C1  I4B d   1      -2.819  -0.256   3.567  0.00  0.00    -0.075 A 
ATOM      2  C2  I4B d   1      -1.630  -0.061   2.909  0.00  0.00     0.003 A 
ATOM      3  C3  I4B d   1      -1.406  -0.664   1.648  0.00  0.00     0.002 A 
ATOM      4  C4  I4B d   1      -2.371  -1.490   1.109  0.00  0.00    -0.004 A 
ATOM      5  C5  I4B d   1      -3.585  -1.668   1.767  0.00  0.00     0.002 A 
ATOM      6  C6  I4B d   1      -3.815  -1.037   2.998  0.00  0.00     0.003 A 
ENDROOT
BRANCH   1   7
ATOM      7  C1' I4B d   1      -3.009   0.370   4.913  0.00  0.00     0.060 C 
BRANCH   7   8
ATOM      8  C2' I4B d   1      -4.492   0.368   5.223  0.00  0.00    -0.013 C 
ATOM      9  C4' I4B d   1      -4.885  -0.862   5.999  0.00  0.00     0.013 C 
ATOM     10  C3' I4B d   1      -4.805   1.617   5.992  0.00  0.00     0.013 C 
ENDBRANCH   7   8
ENDBRANCH   1   7
TORSDOF 2
ENDMDL
