MODEL 1
REMARK minimizedAffinity 12.7077923
REMARK minimizedRMSD -1
REMARK  2 active torsions:
REMARK  status: ('A' for Active; 'I' for Inactive)
REMARK    1  A    between atoms: C2'_3  and  C1'_4 
REMARK    2  A    between atoms: C1'_4  and  C1_5 
ROOT
ATOM      1  C1  I4B d   1      -1.402  -1.240   1.760  0.00  0.00    -0.075 A 
ATOM      2  C2  I4B d   1      -1.361  -0.098   2.521  0.00  0.00     0.003 A 
ATOM      3  C3  I4B d   1      -2.320   0.924   2.324  0.00  0.00     0.002 A 
ATOM      4  C4  I4B d   1      -3.266   0.787   1.328  0.00  0.00    -0.004 A 
ATOM      5  C5  I4B d   1      -3.320  -0.382   0.574  0.00  0.00     0.002 A 
ATOM      6  C6  I4B d   1      -2.390  -1.407   0.799  0.00  0.00     0.003 A 
ENDROOT
BRANCH   1   7
ATOM      7  C1' I4B d   1      -0.353  -2.285   1.972  0.00  0.00     0.060 C 
BRANCH   7   8
ATOM      8  C2' I4B d   1       0.690  -1.716   2.911  0.00  0.00    -0.013 C 
ATOM      9  C4' I4B d   1       0.969  -2.659   4.052  0.00  0.00     0.013 C 
ATOM     10  C3' I4B d   1       1.932  -1.447   2.115  0.00  0.00     0.013 C 
ENDBRANCH   7   8
ENDBRANCH   1   7
TORSDOF 2
ENDMDL
