MODEL 1
REMARK minimizedAffinity 6.29459953
REMARK minimizedRMSD -1
REMARK  2 active torsions:
REMARK  status: ('A' for Active; 'I' for Inactive)
REMARK    1  A    between atoms: C2'_3  and  C1'_4 
REMARK    2  A    between atoms: C1'_4  and  C1_5 
ROOT
ATOM      1  C1  I4B d   1      -3.157   0.046   0.972  0.00  0.00    -0.075 A 
ATOM      2  C2  I4B d   1      -2.593  -1.160   0.638  0.00  0.00     0.003 A 
ATOM      3  C3  I4B d   1      -1.273  -1.468   1.049  0.00  0.00     0.002 A 
ATOM      4  C4  I4B d   1      -0.542  -0.527   1.745  0.00  0.00    -0.004 A 
ATOM      5  C5  I4B d   1      -1.124   0.686   2.103  0.00  0.00     0.002 A 
ATOM      6  C6  I4B d   1      -2.444   0.969   1.725  0.00  0.00     0.003 A 
ENDROOT
BRANCH   1   7
ATOM      7  C1' I4B d   1      -4.541   0.351   0.493  0.00  0.00     0.060 C 
BRANCH   7   8
ATOM      8  C2' I4B d   1      -4.429   1.021  -0.861  0.00  0.00    -0.013 C 
ATOM      9  C4' I4B d   1      -5.072   0.187  -1.937  0.00  0.00     0.013 C 
ATOM     10  C3' I4B d   1      -5.075   2.371  -0.764  0.00  0.00     0.013 C 
ENDBRANCH   7   8
ENDBRANCH   1   7
TORSDOF 2
ENDMDL
