MODEL 1
REMARK minimizedAffinity 12.5670509
REMARK minimizedRMSD -1
REMARK  2 active torsions:
REMARK  status: ('A' for Active; 'I' for Inactive)
REMARK    1  A    between atoms: C2'_3  and  C1'_4 
REMARK    2  A    between atoms: C1'_4  and  C1_5 
ROOT
ATOM      1  C1  I4B d   1       3.820   2.001   1.101  0.00  0.00    -0.075 A 
ATOM      2  C2  I4B d   1       4.630   2.108  -0.003  0.00  0.00     0.003 A 
ATOM      3  C3  I4B d   1       5.753   2.970   0.018  0.00  0.00     0.002 A 
ATOM      4  C4  I4B d   1       5.999   3.739   1.137  0.00  0.00    -0.004 A 
ATOM      5  C5  I4B d   1       5.191   3.612   2.263  0.00  0.00     0.002 A 
ATOM      6  C6  I4B d   1       4.101   2.729   2.250  0.00  0.00     0.003 A 
ENDROOT
BRANCH   1   7
ATOM      7  C1' I4B d   1       2.624   1.107   1.033  0.00  0.00     0.060 C 
BRANCH   7   8
ATOM      8  C2' I4B d   1       2.968  -0.188   1.740  0.00  0.00    -0.013 C 
ATOM      9  C4' I4B d   1       1.731  -0.870   2.261  0.00  0.00     0.013 C 
ATOM     10  C3' I4B d   1       3.702  -1.065   0.770  0.00  0.00     0.013 C 
ENDBRANCH   7   8
ENDBRANCH   1   7
TORSDOF 2
ENDMDL
