MODEL 1
REMARK minimizedAffinity 14.9140911
REMARK minimizedRMSD -1
REMARK  2 active torsions:
REMARK  status: ('A' for Active; 'I' for Inactive)
REMARK    1  A    between atoms: C2'_3  and  C1'_4 
REMARK    2  A    between atoms: C1'_4  and  C1_5 
ROOT
ATOM      1  C1  I4B d   1      -0.908   5.884  -3.966  0.00  0.00    -0.075 A 
ATOM      2  C2  I4B d   1      -1.597   5.952  -2.780  0.00  0.00     0.003 A 
ATOM      3  C3  I4B d   1      -3.013   5.976  -2.779  0.00  0.00     0.002 A 
ATOM      4  C4  I4B d   1      -3.693   5.982  -3.979  0.00  0.00    -0.004 A 
ATOM      5  C5  I4B d   1      -2.994   5.891  -5.179  0.00  0.00     0.002 A 
ATOM      6  C6  I4B d   1      -1.593   5.829  -5.172  0.00  0.00     0.003 A 
ENDROOT
BRANCH   1   7
ATOM      7  C1' I4B d   1       0.587   5.894  -3.932  0.00  0.00     0.060 C 
BRANCH   7   8
ATOM      8  C2' I4B d   1       1.032   5.102  -2.719  0.00  0.00    -0.013 C 
ATOM      9  C4' I4B d   1       1.792   3.866  -3.124  0.00  0.00     0.013 C 
ATOM     10  C3' I4B d   1       1.874   6.000  -1.863  0.00  0.00     0.013 C 
ENDBRANCH   7   8
ENDBRANCH   1   7
TORSDOF 2
ENDMDL
