MODEL 1
REMARK minimizedAffinity 13.8859291
REMARK minimizedRMSD -1
REMARK  2 active torsions:
REMARK  status: ('A' for Active; 'I' for Inactive)
REMARK    1  A    between atoms: C2'_3  and  C1'_4 
REMARK    2  A    between atoms: C1'_4  and  C1_5 
ROOT
ATOM      1  C1  I4B d   1      -0.983  -1.347   2.046  0.00  0.00    -0.075 A 
ATOM      2  C2  I4B d   1      -1.206  -0.578   3.161  0.00  0.00     0.003 A 
ATOM      3  C3  I4B d   1      -2.258   0.368   3.176  0.00  0.00     0.002 A 
ATOM      4  C4  I4B d   1      -3.027   0.548   2.044  0.00  0.00    -0.004 A 
ATOM      5  C5  I4B d   1      -2.814  -0.248   0.922  0.00  0.00     0.002 A 
ATOM      6  C6  I4B d   1      -1.794  -1.210   0.927  0.00  0.00     0.003 A 
ENDROOT
BRANCH   1   7
ATOM      7  C1' I4B d   1       0.158  -2.314   2.053  0.00  0.00     0.060 C 
BRANCH   7   8
ATOM      8  C2' I4B d   1       1.060  -1.963   3.219  0.00  0.00    -0.013 C 
ATOM      9  C4' I4B d   1       1.344  -3.172   4.072  0.00  0.00     0.013 C 
ATOM     10  C3' I4B d   1       2.327  -1.381   2.667  0.00  0.00     0.013 C 
ENDBRANCH   7   8
ENDBRANCH   1   7
TORSDOF 2
ENDMDL
