MODEL 1
REMARK minimizedAffinity 15.3256989
REMARK minimizedRMSD -1
REMARK  2 active torsions:
REMARK  status: ('A' for Active; 'I' for Inactive)
REMARK    1  A    between atoms: C2'_3  and  C1'_4 
REMARK    2  A    between atoms: C1'_4  and  C1_5 
ROOT
ATOM      1  C1  I4B d   1      -3.488   0.164   1.176  0.00  0.00    -0.075 A 
ATOM      2  C2  I4B d   1      -3.154   0.928   2.267  0.00  0.00     0.003 A 
ATOM      3  C3  I4B d   1      -1.961   0.666   2.982  0.00  0.00     0.002 A 
ATOM      4  C4  I4B d   1      -1.161  -0.393   2.605  0.00  0.00    -0.004 A 
ATOM      5  C5  I4B d   1      -1.489  -1.152   1.485  0.00  0.00     0.002 A 
ATOM      6  C6  I4B d   1      -2.654  -0.864   0.758  0.00  0.00     0.003 A 
ENDROOT
BRANCH   1   7
ATOM      7  C1' I4B d   1      -4.773   0.447   0.464  0.00  0.00     0.060 C 
BRANCH   7   8
ATOM      8  C2' I4B d   1      -4.927   1.950   0.358  0.00  0.00    -0.013 C 
ATOM      9  C4' I4B d   1      -5.259   2.366  -1.051  0.00  0.00     0.013 C 
ATOM     10  C3' I4B d   1      -6.000   2.375   1.315  0.00  0.00     0.013 C 
ENDBRANCH   7   8
ENDBRANCH   1   7
TORSDOF 2
ENDMDL
