MODEL 1
REMARK minimizedAffinity 14.2436724
REMARK minimizedRMSD -1
REMARK  2 active torsions:
REMARK  status: ('A' for Active; 'I' for Inactive)
REMARK    1  A    between atoms: C2'_3  and  C1'_4 
REMARK    2  A    between atoms: C1'_4  and  C1_5 
ROOT
ATOM      1  C1  I4B d   1       4.593   4.939  -2.920  0.00  0.00    -0.075 A 
ATOM      2  C2  I4B d   1       5.580   4.683  -3.839  0.00  0.00     0.003 A 
ATOM      3  C3  I4B d   1       5.381   3.706  -4.845  0.00  0.00     0.002 A 
ATOM      4  C4  I4B d   1       4.208   2.979  -4.863  0.00  0.00    -0.004 A 
ATOM      5  C5  I4B d   1       3.200   3.256  -3.945  0.00  0.00     0.002 A 
ATOM      6  C6  I4B d   1       3.388   4.251  -2.974  0.00  0.00     0.003 A 
ENDROOT
BRANCH   1   7
ATOM      7  C1' I4B d   1       4.850   5.954  -1.852  0.00  0.00     0.060 C 
BRANCH   7   8
ATOM      8  C2' I4B d   1       5.994   5.452  -0.996  0.00  0.00    -0.013 C 
ATOM      9  C4' I4B d   1       5.909   5.999   0.405  0.00  0.00     0.013 C 
ATOM     10  C3' I4B d   1       5.949   3.953  -0.995  0.00  0.00     0.013 C 
ENDBRANCH   7   8
ENDBRANCH   1   7
TORSDOF 2
ENDMDL
