MODEL 1
REMARK minimizedAffinity 14.4875183
REMARK minimizedRMSD -1
REMARK  2 active torsions:
REMARK  status: ('A' for Active; 'I' for Inactive)
REMARK    1  A    between atoms: C2'_3  and  C1'_4 
REMARK    2  A    between atoms: C1'_4  and  C1_5 
ROOT
ATOM      1  C1  I4B d   1      -0.887  -1.044   2.012  0.00  0.00    -0.075 A 
ATOM      2  C2  I4B d   1      -1.805  -1.123   0.995  0.00  0.00     0.003 A 
ATOM      3  C3  I4B d   1      -2.963  -0.310   1.015  0.00  0.00     0.002 A 
ATOM      4  C4  I4B d   1      -3.188   0.526   2.089  0.00  0.00    -0.004 A 
ATOM      5  C5  I4B d   1      -2.245   0.622   3.109  0.00  0.00     0.002 A 
ATOM      6  C6  I4B d   1      -1.081  -0.158   3.064  0.00  0.00     0.003 A 
ENDROOT
BRANCH   1   7
ATOM      7  C1' I4B d   1       0.310  -1.941   1.975  0.00  0.00     0.060 C 
BRANCH   7   8
ATOM      8  C2' I4B d   1       0.973  -1.891   3.337  0.00  0.00    -0.013 C 
ATOM      9  C4' I4B d   1       0.921  -3.233   4.018  0.00  0.00     0.013 C 
ATOM     10  C3' I4B d   1       2.389  -1.435   3.146  0.00  0.00     0.013 C 
ENDBRANCH   7   8
ENDBRANCH   1   7
TORSDOF 2
ENDMDL
