MODEL 1
REMARK minimizedAffinity 14.1725569
REMARK minimizedRMSD -1
REMARK  2 active torsions:
REMARK  status: ('A' for Active; 'I' for Inactive)
REMARK    1  A    between atoms: C2'_3  and  C1'_4 
REMARK    2  A    between atoms: C1'_4  and  C1_5 
ROOT
ATOM      1  C1  I4B d   1       3.492   3.774  -3.922  0.00  0.00    -0.075 A 
ATOM      2  C2  I4B d   1       3.846   3.441  -5.206  0.00  0.00     0.003 A 
ATOM      3  C3  I4B d   1       5.073   3.895  -5.748  0.00  0.00     0.002 A 
ATOM      4  C4  I4B d   1       5.886   4.716  -4.995  0.00  0.00    -0.004 A 
ATOM      5  C5  I4B d   1       5.537   5.035  -3.686  0.00  0.00     0.002 A 
ATOM      6  C6  I4B d   1       4.339   4.551  -3.141  0.00  0.00     0.003 A 
ENDROOT
BRANCH   1   7
ATOM      7  C1' I4B d   1       2.175   3.305  -3.393  0.00  0.00     0.060 C 
BRANCH   7   8
ATOM      8  C2' I4B d   1       1.171   4.425  -3.580  0.00  0.00    -0.013 C 
ATOM      9  C4' I4B d   1      -0.051   3.944  -4.318  0.00  0.00     0.013 C 
ATOM     10  C3' I4B d   1       0.811   4.955  -2.224  0.00  0.00     0.013 C 
ENDBRANCH   7   8
ENDBRANCH   1   7
TORSDOF 2
ENDMDL
