MODEL 1
REMARK minimizedAffinity 10.3565798
REMARK minimizedRMSD -1
REMARK  2 active torsions:
REMARK  status: ('A' for Active; 'I' for Inactive)
REMARK    1  A    between atoms: C2'_3  and  C1'_4 
REMARK    2  A    between atoms: C1'_4  and  C1_5 
ROOT
ATOM      1  C1  I4B d   1       3.981   2.342  -0.283  0.00  0.00    -0.075 A 
ATOM      2  C2  I4B d   1       5.260   2.749  -0.570  0.00  0.00     0.003 A 
ATOM      3  C3  I4B d   1       5.999   3.498   0.378  0.00  0.00     0.002 A 
ATOM      4  C4  I4B d   1       5.406   3.859   1.570  0.00  0.00    -0.004 A 
ATOM      5  C5  I4B d   1       4.117   3.425   1.869  0.00  0.00     0.002 A 
ATOM      6  C6  I4B d   1       3.404   2.652   0.942  0.00  0.00     0.003 A 
ENDROOT
BRANCH   1   7
ATOM      7  C1' I4B d   1       3.217   1.580  -1.320  0.00  0.00     0.060 C 
BRANCH   7   8
ATOM      8  C2' I4B d   1       2.330   2.560  -2.060  0.00  0.00    -0.013 C 
ATOM      9  C4' I4B d   1       3.049   3.165  -3.237  0.00  0.00     0.013 C 
ATOM     10  C3' I4B d   1       1.096   1.829  -2.497  0.00  0.00     0.013 C 
ENDBRANCH   7   8
ENDBRANCH   1   7
TORSDOF 2
ENDMDL
