MODEL 1
REMARK minimizedAffinity 8.94500923
REMARK minimizedRMSD -1
REMARK  2 active torsions:
REMARK  status: ('A' for Active; 'I' for Inactive)
REMARK    1  A    between atoms: C2'_3  and  C1'_4 
REMARK    2  A    between atoms: C1'_4  and  C1_5 
ROOT
ATOM      1  C1  I4B d   1       1.966   3.233  -2.118  0.00  0.00    -0.075 A 
ATOM      2  C2  I4B d   1       1.099   4.290  -1.989  0.00  0.00     0.003 A 
ATOM      3  C3  I4B d   1       1.564   5.617  -2.156  0.00  0.00     0.002 A 
ATOM      4  C4  I4B d   1       2.904   5.843  -2.398  0.00  0.00    -0.004 A 
ATOM      5  C5  I4B d   1       3.776   4.769  -2.551  0.00  0.00     0.002 A 
ATOM      6  C6  I4B d   1       3.302   3.455  -2.422  0.00  0.00     0.003 A 
ENDROOT
BRANCH   1   7
ATOM      7  C1' I4B d   1       1.447   1.847  -1.903  0.00  0.00     0.060 C 
BRANCH   7   8
ATOM      8  C2' I4B d   1       2.197   1.244  -0.733  0.00  0.00    -0.013 C 
ATOM      9  C4' I4B d   1       3.643   1.003  -1.078  0.00  0.00     0.013 C 
ATOM     10  C3' I4B d   1       2.068   2.181   0.431  0.00  0.00     0.013 C 
ENDBRANCH   7   8
ENDBRANCH   1   7
TORSDOF 2
ENDMDL
