MODEL 1
REMARK minimizedAffinity 13.5463858
REMARK minimizedRMSD -1
REMARK  0 active torsions:
REMARK  status: ('A' for Active; 'I' for Inactive)
ROOT
ATOM      1  C2' OXE d   1       4.036  -2.321   3.757  0.00  0.00     0.078 C 
ATOM      2  C1' OXE d   1       4.658  -2.630   1.037  0.00  0.00     0.078 C 
ATOM      3  C1  OXE d   1       3.263  -2.179   1.393  0.00  0.00    -0.078 A 
ATOM      4  C2  OXE d   1       2.954  -2.075   2.728  0.00  0.00    -0.078 A 
ATOM      5  C3  OXE d   1       1.698  -1.611   3.110  0.00  0.00     0.003 A 
ATOM      6  C4  OXE d   1       0.700  -1.396   2.152  0.00  0.00    -0.002 A 
ATOM      7  C5  OXE d   1       0.982  -1.535   0.789  0.00  0.00    -0.002 A 
ATOM      8  C6  OXE d   1       2.268  -1.883   0.392  0.00  0.00     0.003 A 
ENDROOT
TORSDOF 0
ENDMDL
