MODEL 1
REMARK minimizedAffinity 12.9249611
REMARK minimizedRMSD -1
REMARK  0 active torsions:
REMARK  status: ('A' for Active; 'I' for Inactive)
ROOT
ATOM      1  C2' OXE d   1       3.574  -2.352   2.055  0.00  0.00     0.078 C 
ATOM      2  C1' OXE d   1       2.320  -4.430   0.645  0.00  0.00     0.078 C 
ATOM      3  C1  OXE d   1       1.777  -3.033   0.470  0.00  0.00    -0.078 A 
ATOM      4  C2  OXE d   1       2.367  -2.030   1.200  0.00  0.00    -0.078 A 
ATOM      5  C3  OXE d   1       1.941  -0.715   1.035  0.00  0.00     0.003 A 
ATOM      6  C4  OXE d   1       0.817  -0.428   0.251  0.00  0.00    -0.002 A 
ATOM      7  C5  OXE d   1       0.177  -1.441  -0.470  0.00  0.00    -0.002 A 
ATOM      8  C6  OXE d   1       0.669  -2.740  -0.405  0.00  0.00     0.003 A 
ENDROOT
TORSDOF 0
ENDMDL
