MODEL 1
REMARK minimizedAffinity 7.05121851
REMARK minimizedRMSD -1
REMARK  0 active torsions:
REMARK  status: ('A' for Active; 'I' for Inactive)
ROOT
ATOM      1  C2' OXE d   1       0.489  -0.351   3.306  0.00  0.00     0.078 C 
ATOM      2  C1' OXE d   1      -1.166  -2.543   2.724  0.00  0.00     0.078 C 
ATOM      3  C1  OXE d   1       0.163  -2.456   2.014  0.00  0.00    -0.078 A 
ATOM      4  C2  OXE d   1       0.946  -1.356   2.270  0.00  0.00    -0.078 A 
ATOM      5  C3  OXE d   1       2.204  -1.254   1.684  0.00  0.00     0.003 A 
ATOM      6  C4  OXE d   1       2.614  -2.183   0.720  0.00  0.00    -0.002 A 
ATOM      7  C5  OXE d   1       1.815  -3.290   0.415  0.00  0.00    -0.002 A 
ATOM      8  C6  OXE d   1       0.608  -3.463   1.083  0.00  0.00     0.003 A 
ENDROOT
TORSDOF 0
ENDMDL
