MODEL 1
REMARK minimizedAffinity 5.88803244
REMARK minimizedRMSD -1
REMARK  0 active torsions:
REMARK  status: ('A' for Active; 'I' for Inactive)
ROOT
ATOM      1  C2' OXE d   1       5.818   3.339  -4.446  0.00  0.00     0.078 C 
ATOM      2  C1' OXE d   1       5.990   5.929  -5.514  0.00  0.00     0.078 C 
ATOM      3  C1  OXE d   1       4.633   5.272  -5.479  0.00  0.00    -0.078 A 
ATOM      4  C2  OXE d   1       4.565   3.987  -4.997  0.00  0.00    -0.078 A 
ATOM      5  C3  OXE d   1       3.330   3.354  -4.891  0.00  0.00     0.003 A 
ATOM      6  C4  OXE d   1       2.178   3.956  -5.412  0.00  0.00    -0.002 A 
ATOM      7  C5  OXE d   1       2.232   5.249  -5.943  0.00  0.00    -0.002 A 
ATOM      8  C6  OXE d   1       3.441   5.936  -5.945  0.00  0.00     0.003 A 
ENDROOT
TORSDOF 0
ENDMDL
