MODEL 1
REMARK minimizedAffinity 15.6951647
REMARK minimizedRMSD -1
REMARK  0 active torsions:
REMARK  status: ('A' for Active; 'I' for Inactive)
ROOT
ATOM      1  C2' OXE d   1       5.587  -5.968   5.981  0.00  0.00     0.078 C 
ATOM      2  C1' OXE d   1       2.985  -5.999   4.928  0.00  0.00     0.078 C 
ATOM      3  C1  OXE d   1       3.645  -4.658   5.135  0.00  0.00    -0.078 A 
ATOM      4  C2  OXE d   1       4.900  -4.651   5.694  0.00  0.00    -0.078 A 
ATOM      5  C3  OXE d   1       5.575  -3.444   5.856  0.00  0.00     0.003 A 
ATOM      6  C4  OXE d   1       4.929  -2.230   5.598  0.00  0.00    -0.002 A 
ATOM      7  C5  OXE d   1       3.635  -2.213   5.065  0.00  0.00    -0.002 A 
ATOM      8  C6  OXE d   1       2.997  -3.417   4.788  0.00  0.00     0.003 A 
ENDROOT
TORSDOF 0
ENDMDL
