MODEL 1
REMARK minimizedAffinity 5.56072664
REMARK minimizedRMSD -1
REMARK  0 active torsions:
REMARK  status: ('A' for Active; 'I' for Inactive)
ROOT
ATOM      1  C2' OXE d   1       1.754  -4.576   0.164  0.00  0.00     0.078 C 
ATOM      2  C1' OXE d   1       2.593  -2.028   0.992  0.00  0.00     0.078 C 
ATOM      3  C1  OXE d   1       1.150  -2.402   1.220  0.00  0.00    -0.078 A 
ATOM      4  C2  OXE d   1       0.737  -3.633   0.769  0.00  0.00    -0.078 A 
ATOM      5  C3  OXE d   1      -0.571  -4.049   1.003  0.00  0.00     0.003 A 
ATOM      6  C4  OXE d   1      -1.508  -3.167   1.555  0.00  0.00    -0.002 A 
ATOM      7  C5  OXE d   1      -1.117  -1.894   1.984  0.00  0.00    -0.002 A 
ATOM      8  C6  OXE d   1       0.214  -1.513   1.863  0.00  0.00     0.003 A 
ENDROOT
TORSDOF 0
ENDMDL
