MODEL 1
REMARK minimizedAffinity 16.2374477
REMARK minimizedRMSD -1
REMARK  0 active torsions:
REMARK  status: ('A' for Active; 'I' for Inactive)
ROOT
ATOM      1  C2' OXE d   1      -5.311   0.816  -5.625  0.00  0.00     0.078 C 
ATOM      2  C1' OXE d   1      -6.000   3.536  -5.733  0.00  0.00     0.078 C 
ATOM      3  C1  OXE d   1      -4.807   3.145  -4.896  0.00  0.00    -0.078 A 
ATOM      4  C2  OXE d   1      -4.505   1.807  -4.812  0.00  0.00    -0.078 A 
ATOM      5  C3  OXE d   1      -3.383   1.397  -4.098  0.00  0.00     0.003 A 
ATOM      6  C4  OXE d   1      -2.649   2.319  -3.341  0.00  0.00    -0.002 A 
ATOM      7  C5  OXE d   1      -2.964   3.681  -3.381  0.00  0.00    -0.002 A 
ATOM      8  C6  OXE d   1      -4.011   4.115  -4.186  0.00  0.00     0.003 A 
ENDROOT
TORSDOF 0
ENDMDL
