MODEL 1
REMARK minimizedAffinity 8.04535389
REMARK minimizedRMSD -1
REMARK  0 active torsions:
REMARK  status: ('A' for Active; 'I' for Inactive)
ROOT
ATOM      1  C2' OXE d   1       5.944   3.136  -4.839  0.00  0.00     0.078 C 
ATOM      2  C1' OXE d   1       5.968   5.746  -5.872  0.00  0.00     0.078 C 
ATOM      3  C1  OXE d   1       4.659   5.208  -5.351  0.00  0.00    -0.078 A 
ATOM      4  C2  OXE d   1       4.646   3.913  -4.890  0.00  0.00    -0.078 A 
ATOM      5  C3  OXE d   1       3.477   3.385  -4.349  0.00  0.00     0.003 A 
ATOM      6  C4  OXE d   1       2.279   4.107  -4.409  0.00  0.00    -0.002 A 
ATOM      7  C5  OXE d   1       2.262   5.413  -4.911  0.00  0.00    -0.002 A 
ATOM      8  C6  OXE d   1       3.449   5.992  -5.345  0.00  0.00     0.003 A 
ENDROOT
TORSDOF 0
ENDMDL
