MODEL 1
REMARK minimizedAffinity -4.12134123
REMARK minimizedRMSD -1
REMARK  1 active torsions:
REMARK  status: ('A' for Active; 'I' for Inactive)
REMARK    1  A    between atoms: N_2  and  C1_3 
ROOT
ATOM      1  C1  UNL d   1      -0.608  -0.092  -0.472  0.00  0.00     0.143 A 
ATOM      2  C2  UNL d   1       0.757  -0.392  -0.426  0.00  0.00    -0.057 A 
ATOM      3  C3  UNL d   1       1.383  -0.746   0.775  0.00  0.00     0.033 A 
ATOM      4  C4  UNL d   1       0.657  -0.778   1.961  0.00  0.00    -0.042 A 
ATOM      5  C5  UNL d   1      -0.696  -0.459   1.944  0.00  0.00     0.033 A 
ATOM      6  C6  UNL d   1      -1.317  -0.113   0.740  0.00  0.00    -0.057 A 
ENDROOT
BRANCH   1   7
ATOM      7  N   UNL d   1      -1.267   0.362  -1.617  0.00  0.00    -0.732 N 
ATOM      8  C   UNL d   1      -1.135   1.738  -2.046  0.00  0.00     0.284 C 
ATOM      9  H3  UNL d   1      -1.238  -0.314  -2.376  0.00  0.00     0.395 HD
ENDBRANCH   1   7
TORSDOF 1
ENDMDL
