MODEL 1
REMARK minimizedAffinity -3.8656528
REMARK minimizedRMSD -1
REMARK  1 active torsions:
REMARK  status: ('A' for Active; 'I' for Inactive)
REMARK    1  A    between atoms: N_2  and  C1_3 
ROOT
ATOM      1  C1  UNL d   1      -0.154   0.820  -1.750  0.00  0.00     0.143 A 
ATOM      2  C2  UNL d   1       0.909   1.728  -1.706  0.00  0.00    -0.057 A 
ATOM      3  C3  UNL d   1       0.732   3.072  -2.057  0.00  0.00     0.033 A 
ATOM      4  C4  UNL d   1      -0.510   3.526  -2.487  0.00  0.00    -0.042 A 
ATOM      5  C5  UNL d   1      -1.575   2.636  -2.563  0.00  0.00     0.033 A 
ATOM      6  C6  UNL d   1      -1.394   1.297  -2.205  0.00  0.00    -0.057 A 
ENDROOT
BRANCH   1   7
ATOM      7  N   UNL d   1      -0.019  -0.549  -1.509  0.00  0.00    -0.732 N 
ATOM      8  C   UNL d   1       1.269  -1.197  -1.641  0.00  0.00     0.284 C 
ATOM      9  H3  UNL d   1      -0.558  -0.857  -0.703  0.00  0.00     0.395 HD
ENDBRANCH   1   7
TORSDOF 1
ENDMDL
