MODEL 1
REMARK minimizedAffinity -3.50065994
REMARK minimizedRMSD -1
REMARK  1 active torsions:
REMARK  status: ('A' for Active; 'I' for Inactive)
REMARK    1  A    between atoms: N_2  and  C1_3 
ROOT
ATOM      1  C1  UNL d   1      -2.193   3.476  -2.409  0.00  0.00     0.143 A 
ATOM      2  C2  UNL d   1      -1.196   4.145  -3.127  0.00  0.00    -0.057 A 
ATOM      3  C3  UNL d   1       0.152   3.784  -3.007  0.00  0.00     0.033 A 
ATOM      4  C4  UNL d   1       0.530   2.763  -2.141  0.00  0.00    -0.042 A 
ATOM      5  C5  UNL d   1      -0.441   2.100  -1.399  0.00  0.00     0.033 A 
ATOM      6  C6  UNL d   1      -1.786   2.461  -1.528  0.00  0.00    -0.057 A 
ENDROOT
BRANCH   1   7
ATOM      7  N   UNL d   1      -3.538   3.852  -2.411  0.00  0.00    -0.732 N 
ATOM      8  C   UNL d   1      -4.579   2.869  -2.623  0.00  0.00     0.284 C 
ATOM      9  H3  UNL d   1      -3.752   4.534  -1.686  0.00  0.00     0.395 HD
ENDBRANCH   1   7
TORSDOF 1
ENDMDL
