MODEL 1
REMARK minimizedAffinity -3.02392554
REMARK minimizedRMSD -1
REMARK  1 active torsions:
REMARK  status: ('A' for Active; 'I' for Inactive)
REMARK    1  A    between atoms: N_2  and  C1_3 
ROOT
ATOM      1  C1  UNL d   1      -0.092  -0.198   0.221  0.00  0.00     0.143 A 
ATOM      2  C2  UNL d   1      -0.706   0.250   1.396  0.00  0.00    -0.057 A 
ATOM      3  C3  UNL d   1      -0.086   0.097   2.642  0.00  0.00     0.033 A 
ATOM      4  C4  UNL d   1       1.150  -0.535   2.739  0.00  0.00    -0.042 A 
ATOM      5  C5  UNL d   1       1.766  -1.010   1.587  0.00  0.00     0.033 A 
ATOM      6  C6  UNL d   1       1.145  -0.849   0.344  0.00  0.00    -0.057 A 
ENDROOT
BRANCH   1   7
ATOM      7  N   UNL d   1      -0.701  -0.164  -1.036  0.00  0.00    -0.732 N 
ATOM      8  C   UNL d   1      -0.612   1.019  -1.866  0.00  0.00     0.284 C 
ATOM      9  H3  UNL d   1      -0.592  -1.038  -1.545  0.00  0.00     0.395 HD
ENDBRANCH   1   7
TORSDOF 1
ENDMDL
