MODEL 1
REMARK minimizedAffinity -2.39643264
REMARK minimizedRMSD -1
REMARK  1 active torsions:
REMARK  status: ('A' for Active; 'I' for Inactive)
REMARK    1  A    between atoms: N_2  and  C1_3 
ROOT
ATOM      1  C1  UNL d   1      -0.586   0.718  -1.113  0.00  0.00     0.143 A 
ATOM      2  C2  UNL d   1      -1.711   1.308  -1.699  0.00  0.00    -0.057 A 
ATOM      3  C3  UNL d   1      -1.599   2.455  -2.495  0.00  0.00     0.033 A 
ATOM      4  C4  UNL d   1      -0.357   3.049  -2.696  0.00  0.00    -0.042 A 
ATOM      5  C5  UNL d   1       0.771   2.494  -2.104  0.00  0.00     0.033 A 
ATOM      6  C6  UNL d   1       0.653   1.346  -1.315  0.00  0.00    -0.057 A 
ENDROOT
BRANCH   1   7
ATOM      7  N   UNL d   1      -0.646  -0.364  -0.232  0.00  0.00    -0.732 N 
ATOM      8  C   UNL d   1      -0.853  -0.151   1.184  0.00  0.00     0.284 C 
ATOM      9  H3  UNL d   1      -1.168  -1.149  -0.615  0.00  0.00     0.395 HD
ENDBRANCH   1   7
TORSDOF 1
ENDMDL
