MODEL 1
REMARK minimizedAffinity -2.40674281
REMARK minimizedRMSD -1
REMARK  1 active torsions:
REMARK  status: ('A' for Active; 'I' for Inactive)
REMARK    1  A    between atoms: N_2  and  C1_3 
ROOT
ATOM      1  C1  UNL d   1       1.058  -0.451   0.621  0.00  0.00     0.143 A 
ATOM      2  C2  UNL d   1       0.249  -0.139   1.720  0.00  0.00    -0.057 A 
ATOM      3  C3  UNL d   1       0.450  -0.747   2.965  0.00  0.00     0.033 A 
ATOM      4  C4  UNL d   1       1.448  -1.703   3.126  0.00  0.00    -0.042 A 
ATOM      5  C5  UNL d   1       2.247  -2.047   2.042  0.00  0.00     0.033 A 
ATOM      6  C6  UNL d   1       2.046  -1.431   0.803  0.00  0.00    -0.057 A 
ENDROOT
BRANCH   1   7
ATOM      7  N   UNL d   1       0.846   0.046  -0.667  0.00  0.00    -0.732 N 
ATOM      8  C   UNL d   1      -0.497   0.219  -1.178  0.00  0.00     0.284 C 
ATOM      9  H3  UNL d   1       1.481   0.806  -0.899  0.00  0.00     0.395 HD
ENDBRANCH   1   7
TORSDOF 1
ENDMDL
