MODEL 1
REMARK minimizedAffinity 10.3821945
REMARK minimizedRMSD -1
REMARK  1 active torsions:
REMARK  status: ('A' for Active; 'I' for Inactive)
REMARK    1  A    between atoms: C1_2  and  C2_3 
ROOT
ATOM      1  C2  UNL d   1       4.565   0.466  -1.482  0.00  0.00    -0.081 A 
ATOM      2  C3  UNL d   1       3.742   0.029  -0.437  0.00  0.00     0.006 A 
ATOM      3  C4  UNL d   1       2.869  -1.046  -0.626  0.00  0.00     0.002 A 
ATOM      4  C5  UNL d   1       2.812  -1.706  -1.858  0.00  0.00    -0.080 A 
ATOM      5  C6  UNL d   1       1.902  -2.880  -2.064  0.00  0.00     0.076 C 
ATOM      6  C7  UNL d   1       3.622  -1.257  -2.907  0.00  0.00     0.002 A 
ATOM      7  C8  UNL d   1       4.493  -0.182  -2.720  0.00  0.00     0.006 A 
ENDROOT
BRANCH   1   8
ATOM      8  C1  UNL d   1       5.553   1.583  -1.263  0.00  0.00     0.054 C 
ATOM      9  C   UNL d   1       4.952   2.933  -1.627  0.00  0.00     0.018 C 
ENDBRANCH   1   8
TORSDOF 1
ENDMDL
