MODEL 1
REMARK minimizedAffinity 14.3648958
REMARK minimizedRMSD -1
REMARK  1 active torsions:
REMARK  status: ('A' for Active; 'I' for Inactive)
REMARK    1  A    between atoms: C1_2  and  C2_3 
ROOT
ATOM      1  C2  UNL d   1      -0.975  -2.193  -2.538  0.00  0.00    -0.081 A 
ATOM      2  C3  UNL d   1      -1.878  -3.251  -2.378  0.00  0.00     0.006 A 
ATOM      3  C4  UNL d   1      -1.445  -4.483  -1.883  0.00  0.00     0.002 A 
ATOM      4  C5  UNL d   1      -0.104  -4.675  -1.532  0.00  0.00    -0.080 A 
ATOM      5  C6  UNL d   1       0.368  -5.983  -0.970  0.00  0.00     0.076 C 
ATOM      6  C7  UNL d   1       0.802  -3.624  -1.708  0.00  0.00     0.002 A 
ATOM      7  C8  UNL d   1       0.369  -2.392  -2.204  0.00  0.00     0.006 A 
ENDROOT
BRANCH   1   8
ATOM      8  C1  UNL d   1      -1.452  -0.843  -3.011  0.00  0.00     0.054 C 
ATOM      9  C   UNL d   1      -2.969  -0.743  -2.959  0.00  0.00     0.018 C 
ENDBRANCH   1   8
TORSDOF 1
ENDMDL
