MODEL 1
REMARK minimizedAffinity 3.53905535
REMARK minimizedRMSD -1
REMARK  1 active torsions:
REMARK  status: ('A' for Active; 'I' for Inactive)
REMARK    1  A    between atoms: C1_2  and  C2_3 
ROOT
ATOM      1  C2  UNL d   1      -4.215   2.124  -0.638  0.00  0.00    -0.081 A 
ATOM      2  C3  UNL d   1      -3.342   3.170  -0.313  0.00  0.00     0.006 A 
ATOM      3  C4  UNL d   1      -2.043   2.899   0.123  0.00  0.00     0.002 A 
ATOM      4  C5  UNL d   1      -1.593   1.579   0.236  0.00  0.00    -0.080 A 
ATOM      5  C6  UNL d   1      -0.191   1.276   0.674  0.00  0.00     0.076 C 
ATOM      6  C7  UNL d   1      -2.470   0.534  -0.071  0.00  0.00     0.002 A 
ATOM      7  C8  UNL d   1      -3.769   0.804  -0.507  0.00  0.00     0.006 A 
ENDROOT
BRANCH   1   8
ATOM      8  C1  UNL d   1      -5.595   2.414  -1.171  0.00  0.00     0.054 C 
ATOM      9  C   UNL d   1      -5.615   3.704  -1.979  0.00  0.00     0.018 C 
ENDBRANCH   1   8
TORSDOF 1
ENDMDL
