MODEL 1
REMARK minimizedAffinity 13.9015942
REMARK minimizedRMSD -1
REMARK  1 active torsions:
REMARK  status: ('A' for Active; 'I' for Inactive)
REMARK    1  A    between atoms: C1_2  and  C2_3 
ROOT
ATOM      1  C2  UNL d   1       0.458   0.621   1.379  0.00  0.00    -0.081 A 
ATOM      2  C3  UNL d   1       1.638  -0.123   1.263  0.00  0.00     0.006 A 
ATOM      3  C4  UNL d   1       1.893  -1.186   2.133  0.00  0.00     0.002 A 
ATOM      4  C5  UNL d   1       0.970  -1.527   3.127  0.00  0.00    -0.080 A 
ATOM      5  C6  UNL d   1       1.218  -2.685   4.047  0.00  0.00     0.076 C 
ATOM      6  C7  UNL d   1      -0.202  -0.773   3.254  0.00  0.00     0.002 A 
ATOM      7  C8  UNL d   1      -0.457   0.290   2.385  0.00  0.00     0.006 A 
ENDROOT
BRANCH   1   8
ATOM      8  C1  UNL d   1       0.150   1.727   0.402  0.00  0.00     0.054 C 
ATOM      9  C   UNL d   1       0.073   1.200  -1.024  0.00  0.00     0.018 C 
ENDBRANCH   1   8
TORSDOF 1
ENDMDL
