MODEL 1
REMARK minimizedAffinity 13.9070959
REMARK minimizedRMSD -1
REMARK  1 active torsions:
REMARK  status: ('A' for Active; 'I' for Inactive)
REMARK    1  A    between atoms: C1_2  and  C2_3 
ROOT
ATOM      1  C2  UNL d   1      -3.871  -4.813  -4.977  0.00  0.00    -0.081 A 
ATOM      2  C3  UNL d   1      -3.009  -5.916  -4.927  0.00  0.00     0.006 A 
ATOM      3  C4  UNL d   1      -2.022  -6.000  -3.942  0.00  0.00     0.002 A 
ATOM      4  C5  UNL d   1      -1.885  -4.987  -2.986  0.00  0.00    -0.080 A 
ATOM      5  C6  UNL d   1      -0.850  -5.080  -1.905  0.00  0.00     0.076 C 
ATOM      6  C7  UNL d   1      -2.735  -3.877  -3.047  0.00  0.00     0.002 A 
ATOM      7  C8  UNL d   1      -3.721  -3.792  -4.032  0.00  0.00     0.006 A 
ENDROOT
BRANCH   1   8
ATOM      8  C1  UNL d   1      -4.977  -4.751  -5.998  0.00  0.00     0.054 C 
ATOM      9  C   UNL d   1      -5.908  -5.949  -5.879  0.00  0.00     0.018 C 
ENDBRANCH   1   8
TORSDOF 1
ENDMDL
