MODEL 1
REMARK minimizedAffinity 6.35473633
REMARK minimizedRMSD -1
REMARK  1 active torsions:
REMARK  status: ('A' for Active; 'I' for Inactive)
REMARK    1  A    between atoms: C1_2  and  C2_3 
ROOT
ATOM      1  C2  UNL d   1       1.769  -2.872  -0.897  0.00  0.00    -0.081 A 
ATOM      2  C3  UNL d   1       1.871  -2.433   0.429  0.00  0.00     0.006 A 
ATOM      3  C4  UNL d   1       2.630  -1.303   0.744  0.00  0.00     0.002 A 
ATOM      4  C5  UNL d   1       3.292  -0.590  -0.261  0.00  0.00    -0.080 A 
ATOM      5  C6  UNL d   1       4.085   0.642   0.061  0.00  0.00     0.076 C 
ATOM      6  C7  UNL d   1       3.205  -1.038  -1.583  0.00  0.00     0.002 A 
ATOM      7  C8  UNL d   1       2.447  -2.168  -1.899  0.00  0.00     0.006 A 
ENDROOT
BRANCH   1   8
ATOM      8  C1  UNL d   1       0.899  -4.052  -1.249  0.00  0.00     0.054 C 
ATOM      9  C   UNL d   1       1.021  -4.409  -2.723  0.00  0.00     0.018 C 
ENDBRANCH   1   8
TORSDOF 1
ENDMDL
