MODEL 1
REMARK minimizedAffinity 20.8491306
REMARK minimizedRMSD -1
REMARK  1 active torsions:
REMARK  status: ('A' for Active; 'I' for Inactive)
REMARK    1  A    between atoms: C1_2  and  C2_3 
ROOT
ATOM      1  C2  UNL d   1       4.219   0.313  -1.107  0.00  0.00    -0.081 A 
ATOM      2  C3  UNL d   1       3.072   0.031  -0.356  0.00  0.00     0.006 A 
ATOM      3  C4  UNL d   1       2.192  -0.977  -0.758  0.00  0.00     0.002 A 
ATOM      4  C5  UNL d   1       2.449  -1.725  -1.912  0.00  0.00    -0.080 A 
ATOM      5  C6  UNL d   1       1.529  -2.830  -2.338  0.00  0.00     0.076 C 
ATOM      6  C7  UNL d   1       3.587  -1.432  -2.672  0.00  0.00     0.002 A 
ATOM      7  C8  UNL d   1       4.466  -0.423  -2.271  0.00  0.00     0.006 A 
ENDROOT
BRANCH   1   8
ATOM      8  C1  UNL d   1       5.203   1.356  -0.641  0.00  0.00     0.054 C 
ATOM      9  C   UNL d   1       5.308   1.378   0.877  0.00  0.00     0.018 C 
ENDBRANCH   1   8
TORSDOF 1
ENDMDL
