MODEL 1
REMARK minimizedAffinity 14.9425125
REMARK minimizedRMSD -1
REMARK  1 active torsions:
REMARK  status: ('A' for Active; 'I' for Inactive)
REMARK    1  A    between atoms: C1_2  and  C2_3 
ROOT
ATOM      1  C2  UNL d   1      -1.024  -2.150  -1.906  0.00  0.00    -0.081 A 
ATOM      2  C3  UNL d   1      -1.367  -1.281  -2.950  0.00  0.00     0.006 A 
ATOM      3  C4  UNL d   1      -1.858  -1.784  -4.157  0.00  0.00     0.002 A 
ATOM      4  C5  UNL d   1      -2.022  -3.162  -4.338  0.00  0.00    -0.080 A 
ATOM      5  C6  UNL d   1      -2.576  -3.713  -5.618  0.00  0.00     0.076 C 
ATOM      6  C7  UNL d   1      -1.663  -4.030  -3.302  0.00  0.00     0.002 A 
ATOM      7  C8  UNL d   1      -1.171  -3.529  -2.095  0.00  0.00     0.006 A 
ENDROOT
BRANCH   1   8
ATOM      8  C1  UNL d   1      -0.556  -1.607  -0.580  0.00  0.00     0.054 C 
ATOM      9  C   UNL d   1      -0.132  -0.150  -0.697  0.00  0.00     0.018 C 
ENDBRANCH   1   8
TORSDOF 1
ENDMDL
