MODEL 1
REMARK minimizedAffinity 0.871317804
REMARK minimizedRMSD -1
REMARK  0 active torsions:
REMARK  status: ('A' for Active; 'I' for Inactive)
ROOT
ATOM      1  O1  BZF d   1      -5.921   3.270  -5.278  0.00  0.00    -0.204 OA
ATOM      2  C2  BZF d   1      -5.922   4.562  -5.769  0.00  0.00     0.174 A 
ATOM      3  C3  BZF d   1      -6.000   5.456  -4.762  0.00  0.00    -0.012 A 
ATOM      4  C3A BZF d   1      -5.957   4.678  -3.563  0.00  0.00    -0.107 A 
ATOM      5  C4  BZF d   1      -5.982   4.997  -2.235  0.00  0.00     0.055 A 
ATOM      6  C5  BZF d   1      -6.000   3.996  -1.316  0.00  0.00    -0.016 A 
ATOM      7  C6  BZF d   1      -5.999   2.668  -1.688  0.00  0.00     0.022 A 
ATOM      8  C7  BZF d   1      -5.969   2.302  -2.993  0.00  0.00     0.029 A 
ATOM      9  C7A BZF d   1      -5.918   3.311  -3.923  0.00  0.00     0.058 A 
ENDROOT
TORSDOF 0
ENDMDL
