MODEL 1
REMARK minimizedAffinity 3.03212094
REMARK minimizedRMSD -1
REMARK  0 active torsions:
REMARK  status: ('A' for Active; 'I' for Inactive)
ROOT
ATOM      1  O1  BZF d   1       0.589   2.178   3.647  0.00  0.00    -0.204 OA
ATOM      2  C2  BZF d   1       1.921   2.153   4.014  0.00  0.00     0.174 A 
ATOM      3  C3  BZF d   1       2.670   2.862   3.144  0.00  0.00    -0.012 A 
ATOM      4  C3A BZF d   1       1.736   3.438   2.226  0.00  0.00    -0.107 A 
ATOM      5  C4  BZF d   1       1.869   4.259   1.143  0.00  0.00     0.055 A 
ATOM      6  C5  BZF d   1       0.766   4.579   0.417  0.00  0.00    -0.016 A 
ATOM      7  C6  BZF d   1      -0.483   4.092   0.742  0.00  0.00     0.022 A 
ATOM      8  C7  BZF d   1      -0.666   3.278   1.810  0.00  0.00     0.029 A 
ATOM      9  C7A BZF d   1       0.442   2.980   2.565  0.00  0.00     0.058 A 
ENDROOT
TORSDOF 0
ENDMDL
