MODEL 1
REMARK minimizedAffinity 2.6112752
REMARK minimizedRMSD -1
REMARK  0 active torsions:
REMARK  status: ('A' for Active; 'I' for Inactive)
ROOT
ATOM      1  O1  BZF d   1      -4.170   3.712  -2.235  0.00  0.00    -0.204 OA
ATOM      2  C2  BZF d   1      -5.107   2.759  -1.886  0.00  0.00     0.174 A 
ATOM      3  C3  BZF d   1      -6.000   2.578  -2.881  0.00  0.00    -0.012 A 
ATOM      4  C3A BZF d   1      -5.542   3.408  -3.952  0.00  0.00    -0.107 A 
ATOM      5  C4  BZF d   1      -6.000   3.647  -5.217  0.00  0.00     0.055 A 
ATOM      6  C5  BZF d   1      -5.364   4.569  -5.986  0.00  0.00    -0.016 A 
ATOM      7  C6  BZF d   1      -4.272   5.273  -5.523  0.00  0.00     0.022 A 
ATOM      8  C7  BZF d   1      -3.778   5.067  -4.278  0.00  0.00     0.029 A 
ATOM      9  C7A BZF d   1      -4.398   4.112  -3.509  0.00  0.00     0.058 A 
ENDROOT
TORSDOF 0
ENDMDL
