MODEL 1
REMARK minimizedAffinity -1.80744553
REMARK minimizedRMSD -1
REMARK  0 active torsions:
REMARK  status: ('A' for Active; 'I' for Inactive)
ROOT
ATOM      1  O1  BZF d   1      -5.625   3.629  -1.920  0.00  0.00    -0.204 OA
ATOM      2  C2  BZF d   1      -5.768   2.255  -1.880  0.00  0.00     0.174 A 
ATOM      3  C3  BZF d   1      -5.989   1.761  -3.115  0.00  0.00    -0.012 A 
ATOM      4  C3A BZF d   1      -5.892   2.886  -3.993  0.00  0.00    -0.107 A 
ATOM      5  C4  BZF d   1      -6.000   3.032  -5.347  0.00  0.00     0.055 A 
ATOM      6  C5  BZF d   1      -5.926   4.278  -5.884  0.00  0.00    -0.016 A 
ATOM      7  C6  BZF d   1      -5.750   5.399  -5.099  0.00  0.00     0.022 A 
ATOM      8  C7  BZF d   1      -5.632   5.303  -3.752  0.00  0.00     0.029 A 
ATOM      9  C7A BZF d   1      -5.673   4.042  -3.209  0.00  0.00     0.058 A 
ENDROOT
TORSDOF 0
ENDMDL
