MODEL 1
REMARK minimizedAffinity -1.75573218
REMARK minimizedRMSD -1
REMARK  0 active torsions:
REMARK  status: ('A' for Active; 'I' for Inactive)
ROOT
ATOM      1  O1  BZF d   1       0.144  -0.118  -2.714  0.00  0.00    -0.204 OA
ATOM      2  C2  BZF d   1       0.695   0.470  -1.592  0.00  0.00     0.174 A 
ATOM      3  C3  BZF d   1       0.934  -0.453  -0.638  0.00  0.00    -0.012 A 
ATOM      4  C3A BZF d   1       0.592  -1.708  -1.234  0.00  0.00    -0.107 A 
ATOM      5  C4  BZF d   1       0.628  -2.999  -0.790  0.00  0.00     0.055 A 
ATOM      6  C5  BZF d   1       0.156  -3.987  -1.594  0.00  0.00    -0.016 A 
ATOM      7  C6  BZF d   1      -0.364  -3.720  -2.843  0.00  0.00     0.022 A 
ATOM      8  C7  BZF d   1      -0.416  -2.456  -3.329  0.00  0.00     0.029 A 
ATOM      9  C7A BZF d   1       0.091  -1.459  -2.532  0.00  0.00     0.058 A 
ENDROOT
TORSDOF 0
ENDMDL
