MODEL 1
REMARK minimizedAffinity -1.95180118
REMARK minimizedRMSD -1
REMARK  0 active torsions:
REMARK  status: ('A' for Active; 'I' for Inactive)
ROOT
ATOM      1  O1  BZF d   1      -4.133   0.122  -5.779  0.00  0.00    -0.204 OA
ATOM      2  C2  BZF d   1      -5.382  -0.292  -5.360  0.00  0.00     0.174 A 
ATOM      3  C3  BZF d   1      -6.000   0.682  -4.662  0.00  0.00    -0.012 A 
ATOM      4  C3A BZF d   1      -5.116   1.806  -4.722  0.00  0.00    -0.107 A 
ATOM      5  C4  BZF d   1      -5.181   3.079  -4.231  0.00  0.00     0.055 A 
ATOM      6  C5  BZF d   1      -4.118   3.908  -4.403  0.00  0.00    -0.016 A 
ATOM      7  C6  BZF d   1      -2.975   3.497  -5.056  0.00  0.00     0.022 A 
ATOM      8  C7  BZF d   1      -2.866   2.246  -5.566  0.00  0.00     0.029 A 
ATOM      9  C7A BZF d   1      -3.951   1.416  -5.422  0.00  0.00     0.058 A 
ENDROOT
TORSDOF 0
ENDMDL
