MODEL 1
REMARK minimizedAffinity -3.91615462
REMARK minimizedRMSD -1
REMARK  1 active torsions:
REMARK  status: ('A' for Active; 'I' for Inactive)
REMARK    1  A    between atoms: N_2  and  C1_3 
ROOT
ATOM      1  C1  UNL d   1       4.877  -4.447   4.078  0.00  0.00     0.143 A 
ATOM      2  C2  UNL d   1       5.191  -4.515   2.716  0.00  0.00    -0.057 A 
ATOM      3  C3  UNL d   1       5.760  -3.425   2.047  0.00  0.00     0.033 A 
ATOM      4  C4  UNL d   1       5.999  -2.233   2.724  0.00  0.00    -0.042 A 
ATOM      5  C5  UNL d   1       5.673  -2.135   4.071  0.00  0.00     0.033 A 
ATOM      6  C6  UNL d   1       5.111  -3.229   4.736  0.00  0.00    -0.057 A 
ENDROOT
BRANCH   1   7
ATOM      7  N   UNL d   1       4.220  -5.463   4.776  0.00  0.00    -0.732 N 
ATOM      8  C   UNL d   1       4.778  -5.997   6.000  0.00  0.00     0.284 C 
ATOM      9  H3  UNL d   1       3.212  -5.325   4.805  0.00  0.00     0.395 HD
ENDBRANCH   1   7
TORSDOF 1
ENDMDL
