MODEL 1
REMARK minimizedAffinity -3.07734203
REMARK minimizedRMSD -1
REMARK  1 active torsions:
REMARK  status: ('A' for Active; 'I' for Inactive)
REMARK    1  A    between atoms: N_2  and  C1_3 
ROOT
ATOM      1  C1  UNL d   1       5.593  -4.800   4.282  0.00  0.00     0.143 A 
ATOM      2  C2  UNL d   1       5.792  -4.721   2.900  0.00  0.00    -0.057 A 
ATOM      3  C3  UNL d   1       5.998  -3.490   2.265  0.00  0.00     0.033 A 
ATOM      4  C4  UNL d   1       5.980  -2.310   3.001  0.00  0.00    -0.042 A 
ATOM      5  C5  UNL d   1       5.758  -2.362   4.372  0.00  0.00     0.033 A 
ATOM      6  C6  UNL d   1       5.560  -3.595   5.001  0.00  0.00    -0.057 A 
ENDROOT
BRANCH   1   7
ATOM      7  N   UNL d   1       5.285  -5.984   4.957  0.00  0.00    -0.732 N 
ATOM      8  C   UNL d   1       4.276  -6.000   5.994  0.00  0.00     0.284 C 
ATOM      9  H3  UNL d   1       5.254  -6.789   4.335  0.00  0.00     0.395 HD
ENDBRANCH   1   7
TORSDOF 1
ENDMDL
