MODEL 1
REMARK minimizedAffinity -1.64607286
REMARK minimizedRMSD -1
REMARK  1 active torsions:
REMARK  status: ('A' for Active; 'I' for Inactive)
REMARK    1  A    between atoms: N_2  and  C1_3 
ROOT
ATOM      1  C1  UNL d   1       5.774  -4.780   3.289  0.00  0.00     0.143 A 
ATOM      2  C2  UNL d   1       5.990  -5.644   4.368  0.00  0.00    -0.057 A 
ATOM      3  C3  UNL d   1       5.843  -5.206   5.690  0.00  0.00     0.033 A 
ATOM      4  C4  UNL d   1       5.504  -3.884   5.957  0.00  0.00    -0.042 A 
ATOM      5  C5  UNL d   1       5.308  -3.001   4.901  0.00  0.00     0.033 A 
ATOM      6  C6  UNL d   1       5.450  -3.446   3.583  0.00  0.00    -0.057 A 
ENDROOT
BRANCH   1   7
ATOM      7  N   UNL d   1       6.000  -5.128   1.955  0.00  0.00    -0.732 N 
ATOM      8  C   UNL d   1       5.999  -4.118   0.919  0.00  0.00     0.284 C 
ATOM      9  H3  UNL d   1       6.734  -5.826   1.855  0.00  0.00     0.395 HD
ENDBRANCH   1   7
TORSDOF 1
ENDMDL
