MODEL 1
REMARK minimizedAffinity -1.85639644
REMARK minimizedRMSD -1
REMARK  1 active torsions:
REMARK  status: ('A' for Active; 'I' for Inactive)
REMARK    1  A    between atoms: N_2  and  C1_3 
ROOT
ATOM      1  C1  UNL d   1       5.696  -4.307   3.489  0.00  0.00     0.143 A 
ATOM      2  C2  UNL d   1       5.325  -2.966   3.634  0.00  0.00    -0.057 A 
ATOM      3  C3  UNL d   1       4.949  -2.446   4.879  0.00  0.00     0.033 A 
ATOM      4  C4  UNL d   1       4.910  -3.270   6.000  0.00  0.00    -0.042 A 
ATOM      5  C5  UNL d   1       5.251  -4.612   5.874  0.00  0.00     0.033 A 
ATOM      6  C6  UNL d   1       5.631  -5.123   4.630  0.00  0.00    -0.057 A 
ENDROOT
BRANCH   1   7
ATOM      7  N   UNL d   1       5.984  -4.906   2.261  0.00  0.00    -0.732 N 
ATOM      8  C   UNL d   1       6.000  -4.122   1.044  0.00  0.00     0.284 C 
ATOM      9  H3  UNL d   1       6.738  -5.586   2.327  0.00  0.00     0.395 HD
ENDBRANCH   1   7
TORSDOF 1
ENDMDL
