MODEL 1
REMARK minimizedAffinity -2.72385645
REMARK minimizedRMSD -1
REMARK  1 active torsions:
REMARK  status: ('A' for Active; 'I' for Inactive)
REMARK    1  A    between atoms: N_2  and  C1_3 
ROOT
ATOM      1  C1  UNL d   1       5.588  -4.627   4.275  0.00  0.00     0.143 A 
ATOM      2  C2  UNL d   1       5.341  -3.283   4.571  0.00  0.00    -0.057 A 
ATOM      3  C3  UNL d   1       5.394  -2.299   3.577  0.00  0.00     0.033 A 
ATOM      4  C4  UNL d   1       5.725  -2.639   2.269  0.00  0.00    -0.042 A 
ATOM      5  C5  UNL d   1       6.000  -3.966   1.957  0.00  0.00     0.033 A 
ATOM      6  C6  UNL d   1       5.939  -4.945   2.953  0.00  0.00    -0.057 A 
ENDROOT
BRANCH   1   7
ATOM      7  N   UNL d   1       5.648  -5.638   5.238  0.00  0.00    -0.732 N 
ATOM      8  C   UNL d   1       4.472  -6.000   6.000  0.00  0.00     0.284 C 
ATOM      9  H3  UNL d   1       6.207  -6.432   4.934  0.00  0.00     0.395 HD
ENDBRANCH   1   7
TORSDOF 1
ENDMDL
