MODEL 1
REMARK minimizedAffinity -1.01225805
REMARK minimizedRMSD -1
REMARK  1 active torsions:
REMARK  status: ('A' for Active; 'I' for Inactive)
REMARK    1  A    between atoms: N_2  and  C1_3 
ROOT
ATOM      1  C1  UNL d   1       5.223  -4.531   3.862  0.00  0.00     0.143 A 
ATOM      2  C2  UNL d   1       3.865  -4.866   3.862  0.00  0.00    -0.057 A 
ATOM      3  C3  UNL d   1       3.293  -5.581   4.921  0.00  0.00     0.033 A 
ATOM      4  C4  UNL d   1       4.078  -5.999   5.990  0.00  0.00    -0.042 A 
ATOM      5  C5  UNL d   1       5.436  -5.699   6.000  0.00  0.00     0.033 A 
ATOM      6  C6  UNL d   1       6.000  -4.979   4.942  0.00  0.00    -0.057 A 
ENDROOT
BRANCH   1   7
ATOM      7  N   UNL d   1       5.871  -3.909   2.792  0.00  0.00    -0.732 N 
ATOM      8  C   UNL d   1       5.996  -4.579   1.516  0.00  0.00     0.284 C 
ATOM      9  H3  UNL d   1       5.642  -2.920   2.722  0.00  0.00     0.395 HD
ENDBRANCH   1   7
TORSDOF 1
ENDMDL
