MODEL 1
REMARK minimizedAffinity -3.35571003
REMARK minimizedRMSD -1
REMARK  1 active torsions:
REMARK  status: ('A' for Active; 'I' for Inactive)
REMARK    1  A    between atoms: N_2  and  C1_3 
ROOT
ATOM      1  C1  UNL d   1       5.490  -4.121   4.210  0.00  0.00     0.143 A 
ATOM      2  C2  UNL d   1       5.674  -3.057   5.100  0.00  0.00    -0.057 A 
ATOM      3  C3  UNL d   1       5.896  -1.754   4.638  0.00  0.00     0.033 A 
ATOM      4  C4  UNL d   1       5.967  -1.496   3.272  0.00  0.00    -0.042 A 
ATOM      5  C5  UNL d   1       5.812  -2.543   2.370  0.00  0.00     0.033 A 
ATOM      6  C6  UNL d   1       5.584  -3.840   2.838  0.00  0.00    -0.057 A 
ENDROOT
BRANCH   1   7
ATOM      7  N   UNL d   1       5.365  -5.454   4.608  0.00  0.00    -0.732 N 
ATOM      8  C   UNL d   1       4.887  -5.786   5.933  0.00  0.00     0.284 C 
ATOM      9  H3  UNL d   1       4.989  -6.045   3.870  0.00  0.00     0.395 HD
ENDBRANCH   1   7
TORSDOF 1
ENDMDL
