MODEL 1
REMARK minimizedAffinity -3.22532058
REMARK minimizedRMSD -1
REMARK  1 active torsions:
REMARK  status: ('A' for Active; 'I' for Inactive)
REMARK    1  A    between atoms: N_2  and  C1_3 
ROOT
ATOM      1  C1  UNL d   1       5.304  -4.780   4.453  0.00  0.00     0.143 A 
ATOM      2  C2  UNL d   1       5.666  -5.025   3.124  0.00  0.00    -0.057 A 
ATOM      3  C3  UNL d   1       6.000  -3.976   2.258  0.00  0.00     0.033 A 
ATOM      4  C4  UNL d   1       5.948  -2.658   2.699  0.00  0.00    -0.042 A 
ATOM      5  C5  UNL d   1       5.567  -2.390   4.009  0.00  0.00     0.033 A 
ATOM      6  C6  UNL d   1       5.242  -3.442   4.871  0.00  0.00    -0.057 A 
ENDROOT
BRANCH   1   7
ATOM      7  N   UNL d   1       4.867  -5.772   5.335  0.00  0.00    -0.732 N 
ATOM      8  C   UNL d   1       3.454  -5.983   5.564  0.00  0.00     0.284 C 
ATOM      9  H3  UNL d   1       5.408  -6.629   5.254  0.00  0.00     0.395 HD
ENDBRANCH   1   7
TORSDOF 1
ENDMDL
