MODEL 1
REMARK minimizedAffinity -3.54667568
REMARK minimizedRMSD -1
REMARK  1 active torsions:
REMARK  status: ('A' for Active; 'I' for Inactive)
REMARK    1  A    between atoms: N_2  and  C1_3 
ROOT
ATOM      1  C1  UNL d   1       4.843  -4.584   5.236  0.00  0.00     0.143 A 
ATOM      2  C2  UNL d   1       5.260  -4.542   3.901  0.00  0.00    -0.057 A 
ATOM      3  C3  UNL d   1       5.846  -3.391   3.359  0.00  0.00     0.033 A 
ATOM      4  C4  UNL d   1       6.000  -2.249   4.138  0.00  0.00    -0.042 A 
ATOM      5  C5  UNL d   1       5.570  -2.260   5.460  0.00  0.00     0.033 A 
ATOM      6  C6  UNL d   1       4.991  -3.414   5.997  0.00  0.00    -0.057 A 
ENDROOT
BRANCH   1   7
ATOM      7  N   UNL d   1       4.163  -5.664   5.805  0.00  0.00    -0.732 N 
ATOM      8  C   UNL d   1       2.736  -5.816   5.621  0.00  0.00     0.284 C 
ATOM      9  H3  UNL d   1       4.687  -6.533   5.733  0.00  0.00     0.395 HD
ENDBRANCH   1   7
TORSDOF 1
ENDMDL
