MODEL 1
REMARK minimizedAffinity -1.6084038
REMARK minimizedRMSD -1
REMARK  1 active torsions:
REMARK  status: ('A' for Active; 'I' for Inactive)
REMARK    1  A    between atoms: N_2  and  C1_3 
ROOT
ATOM      1  C1  UNL d   1       5.135  -4.610   4.897  0.00  0.00     0.143 A 
ATOM      2  C2  UNL d   1       5.509  -4.200   3.613  0.00  0.00    -0.057 A 
ATOM      3  C3  UNL d   1       5.939  -2.891   3.365  0.00  0.00     0.033 A 
ATOM      4  C4  UNL d   1       5.974  -1.957   4.396  0.00  0.00    -0.042 A 
ATOM      5  C5  UNL d   1       5.583  -2.336   5.675  0.00  0.00     0.033 A 
ATOM      6  C6  UNL d   1       5.161  -3.647   5.918  0.00  0.00    -0.057 A 
ENDROOT
BRANCH   1   7
ATOM      7  N   UNL d   1       4.606  -5.870   5.188  0.00  0.00    -0.732 N 
ATOM      8  C   UNL d   1       3.413  -5.999   5.998  0.00  0.00     0.284 C 
ATOM      9  H3  UNL d   1       4.635  -6.498   4.388  0.00  0.00     0.395 HD
ENDBRANCH   1   7
TORSDOF 1
ENDMDL
