MODEL 1
REMARK minimizedAffinity -3.43134379
REMARK minimizedRMSD -1
REMARK  1 active torsions:
REMARK  status: ('A' for Active; 'I' for Inactive)
REMARK    1  A    between atoms: N_2  and  C1_3 
ROOT
ATOM      1  C1  UNL d   1       5.233  -4.327   4.690  0.00  0.00     0.143 A 
ATOM      2  C2  UNL d   1       5.263  -3.143   5.433  0.00  0.00    -0.057 A 
ATOM      3  C3  UNL d   1       5.628  -1.926   4.845  0.00  0.00     0.033 A 
ATOM      4  C4  UNL d   1       5.998  -1.877   3.505  0.00  0.00    -0.042 A 
ATOM      5  C5  UNL d   1       6.000  -3.046   2.753  0.00  0.00     0.033 A 
ATOM      6  C6  UNL d   1       5.628  -4.258   3.344  0.00  0.00    -0.057 A 
ENDROOT
BRANCH   1   7
ATOM      7  N   UNL d   1       4.974  -5.585   5.240  0.00  0.00    -0.732 N 
ATOM      8  C   UNL d   1       3.630  -5.959   5.624  0.00  0.00     0.284 C 
ATOM      9  H3  UNL d   1       5.497  -6.326   4.779  0.00  0.00     0.395 HD
ENDBRANCH   1   7
TORSDOF 1
ENDMDL
