MODEL 1
REMARK minimizedAffinity -2.86771488
REMARK minimizedRMSD -1
REMARK  1 active torsions:
REMARK  status: ('A' for Active; 'I' for Inactive)
REMARK    1  A    between atoms: N_2  and  C1_3 
ROOT
ATOM      1  C1  UNL d   1       5.542  -4.917   3.712  0.00  0.00     0.143 A 
ATOM      2  C2  UNL d   1       5.371  -3.575   3.354  0.00  0.00    -0.057 A 
ATOM      3  C3  UNL d   1       5.014  -2.610   4.303  0.00  0.00     0.033 A 
ATOM      4  C4  UNL d   1       4.792  -2.976   5.626  0.00  0.00    -0.042 A 
ATOM      5  C5  UNL d   1       4.931  -4.309   6.000  0.00  0.00     0.033 A 
ATOM      6  C6  UNL d   1       5.294  -5.266   5.048  0.00  0.00    -0.057 A 
ENDROOT
BRANCH   1   7
ATOM      7  N   UNL d   1       5.800  -5.939   2.795  0.00  0.00    -0.732 N 
ATOM      8  C   UNL d   1       6.000  -5.640   1.394  0.00  0.00     0.284 C 
ATOM      9  H3  UNL d   1       6.437  -6.641   3.166  0.00  0.00     0.395 HD
ENDBRANCH   1   7
TORSDOF 1
ENDMDL
