MODEL 1
REMARK minimizedAffinity -3.56479144
REMARK minimizedRMSD -1
REMARK  1 active torsions:
REMARK  status: ('A' for Active; 'I' for Inactive)
REMARK    1  A    between atoms: N_2  and  C1_3 
ROOT
ATOM      1  C1  UNL d   1       5.353  -4.278   4.067  0.00  0.00     0.143 A 
ATOM      2  C2  UNL d   1       5.657  -4.099   2.714  0.00  0.00    -0.057 A 
ATOM      3  C3  UNL d   1       5.992  -2.838   2.204  0.00  0.00     0.033 A 
ATOM      4  C4  UNL d   1       6.000  -1.725   3.038  0.00  0.00    -0.042 A 
ATOM      5  C5  UNL d   1       5.677  -1.874   4.382  0.00  0.00     0.033 A 
ATOM      6  C6  UNL d   1       5.350  -3.137   4.886  0.00  0.00    -0.057 A 
ENDROOT
BRANCH   1   7
ATOM      7  N   UNL d   1       4.917  -5.487   4.614  0.00  0.00    -0.732 N 
ATOM      8  C   UNL d   1       5.253  -5.844   5.976  0.00  0.00     0.284 C 
ATOM      9  H3  UNL d   1       3.961  -5.710   4.349  0.00  0.00     0.395 HD
ENDBRANCH   1   7
TORSDOF 1
ENDMDL
