MODEL 1
REMARK minimizedAffinity 3.9602747
REMARK minimizedRMSD -1
REMARK  0 active torsions:
REMARK  status: ('A' for Active; 'I' for Inactive)
ROOT
ATOM      1  C   UNL d   1       2.723   1.399  -3.880  0.00  0.00     0.023 A 
ATOM      2  C1  UNL d   1       3.166   1.229  -2.568  0.00  0.00     0.003 A 
ATOM      3  C2  UNL d   1       2.546   0.294  -1.737  0.00  0.00     0.048 A 
ATOM      4  C3  UNL d   1       1.484  -0.467  -2.224  0.00  0.00     0.023 A 
ATOM      5  C4  UNL d   1       1.038  -0.301  -3.536  0.00  0.00     0.048 A 
ATOM      6  C5  UNL d   1       1.661   0.635  -4.363  0.00  0.00     0.003 A 
ATOM      7  I   UNL d   1       0.559  -1.859  -0.988  0.00  0.00    -0.146 I 
ENDROOT
TORSDOF 0
ENDMDL
