MODEL 1
REMARK minimizedAffinity 9.59918213
REMARK minimizedRMSD -1
REMARK  0 active torsions:
REMARK  status: ('A' for Active; 'I' for Inactive)
ROOT
ATOM      1  C   UNL d   1       5.979   4.753  -4.106  0.00  0.00     0.023 A 
ATOM      2  C1  UNL d   1       4.888   5.305  -4.778  0.00  0.00     0.003 A 
ATOM      3  C2  UNL d   1       3.813   4.495  -5.151  0.00  0.00     0.048 A 
ATOM      4  C3  UNL d   1       3.836   3.134  -4.847  0.00  0.00     0.023 A 
ATOM      5  C4  UNL d   1       4.925   2.578  -4.173  0.00  0.00     0.048 A 
ATOM      6  C5  UNL d   1       5.997   3.392  -3.804  0.00  0.00     0.003 A 
ATOM      7  I   UNL d   1       2.237   1.926  -5.399  0.00  0.00    -0.146 I 
ENDROOT
TORSDOF 0
ENDMDL
