MODEL 1
REMARK minimizedAffinity -1.46751845
REMARK minimizedRMSD -1
REMARK  0 active torsions:
REMARK  status: ('A' for Active; 'I' for Inactive)
ROOT
ATOM      1  C   UNL d   1       5.272  -2.327   2.640  0.00  0.00     0.023 A 
ATOM      2  C1  UNL d   1       5.790  -1.087   2.266  0.00  0.00     0.003 A 
ATOM      3  C2  UNL d   1       5.999  -0.097   3.229  0.00  0.00     0.048 A 
ATOM      4  C3  UNL d   1       5.689  -0.354   4.564  0.00  0.00     0.023 A 
ATOM      5  C4  UNL d   1       5.171  -1.593   4.943  0.00  0.00     0.048 A 
ATOM      6  C5  UNL d   1       4.963  -2.580   3.977  0.00  0.00     0.003 A 
ATOM      7  I   UNL d   1       5.999   1.118   5.998  0.00  0.00    -0.146 I 
ENDROOT
TORSDOF 0
ENDMDL
