MODEL 1
REMARK minimizedAffinity -3.48534298
REMARK minimizedRMSD -1
REMARK  0 active torsions:
REMARK  status: ('A' for Active; 'I' for Inactive)
ROOT
ATOM      1  C   UNL d   1       5.866   3.402   2.878  0.00  0.00     0.023 A 
ATOM      2  C1  UNL d   1       5.700   3.511   4.259  0.00  0.00     0.003 A 
ATOM      3  C2  UNL d   1       5.666   2.362   5.052  0.00  0.00     0.048 A 
ATOM      4  C3  UNL d   1       5.801   1.108   4.458  0.00  0.00     0.023 A 
ATOM      5  C4  UNL d   1       5.968   0.994   3.077  0.00  0.00     0.048 A 
ATOM      6  C5  UNL d   1       6.000   2.145   2.288  0.00  0.00     0.003 A 
ATOM      7  I   UNL d   1       5.752  -0.603   5.637  0.00  0.00    -0.146 I 
ENDROOT
TORSDOF 0
ENDMDL
