MODEL 1
REMARK minimizedAffinity -2.91551304
REMARK minimizedRMSD -1
REMARK  0 active torsions:
REMARK  status: ('A' for Active; 'I' for Inactive)
ROOT
ATOM      1  C   UNL d   1       5.297  -0.010   5.172  0.00  0.00     0.023 A 
ATOM      2  C1  UNL d   1       4.799   0.350   3.920  0.00  0.00     0.003 A 
ATOM      3  C2  UNL d   1       4.895   1.673   3.483  0.00  0.00     0.048 A 
ATOM      4  C3  UNL d   1       5.492   2.630   4.302  0.00  0.00     0.023 A 
ATOM      5  C4  UNL d   1       5.994   2.274   5.555  0.00  0.00     0.048 A 
ATOM      6  C5  UNL d   1       5.894   0.950   5.988  0.00  0.00     0.003 A 
ATOM      7  I   UNL d   1       5.637   4.599   3.654  0.00  0.00    -0.146 I 
ENDROOT
TORSDOF 0
ENDMDL
