MODEL 1
REMARK minimizedAffinity -4.25353432
REMARK minimizedRMSD -1
REMARK  0 active torsions:
REMARK  status: ('A' for Active; 'I' for Inactive)
ROOT
ATOM      1  C   UNL d   1       5.664  -1.502   4.725  0.00  0.00     0.023 A 
ATOM      2  C1  UNL d   1       5.891  -0.438   5.599  0.00  0.00     0.003 A 
ATOM      3  C2  UNL d   1       5.988   0.865   5.105  0.00  0.00     0.048 A 
ATOM      4  C3  UNL d   1       5.856   1.096   3.736  0.00  0.00     0.023 A 
ATOM      5  C4  UNL d   1       5.628   0.035   2.858  0.00  0.00     0.048 A 
ATOM      6  C5  UNL d   1       5.533  -1.265   3.357  0.00  0.00     0.003 A 
ATOM      7  I   UNL d   1       6.000   3.034   2.998  0.00  0.00    -0.146 I 
ENDROOT
TORSDOF 0
ENDMDL
