MODEL 1
REMARK minimizedAffinity -3.79405689
REMARK minimizedRMSD -1
REMARK  0 active torsions:
REMARK  status: ('A' for Active; 'I' for Inactive)
ROOT
ATOM      1  C   UNL d   1       5.264  -3.049   3.606  0.00  0.00     0.023 A 
ATOM      2  C1  UNL d   1       5.634  -1.900   2.907  0.00  0.00     0.003 A 
ATOM      3  C2  UNL d   1       5.844  -0.701   3.592  0.00  0.00     0.048 A 
ATOM      4  C3  UNL d   1       5.684  -0.659   4.977  0.00  0.00     0.023 A 
ATOM      5  C4  UNL d   1       5.315  -1.806   5.681  0.00  0.00     0.048 A 
ATOM      6  C5  UNL d   1       5.105  -3.002   4.991  0.00  0.00     0.003 A 
ATOM      7  I   UNL d   1       5.996   1.124   5.999  0.00  0.00    -0.146 I 
ENDROOT
TORSDOF 0
ENDMDL
