MODEL 1
REMARK minimizedAffinity -3.60801196
REMARK minimizedRMSD -1
REMARK  0 active torsions:
REMARK  status: ('A' for Active; 'I' for Inactive)
ROOT
ATOM      1  C   UNL d   1       5.707   4.537   3.114  0.00  0.00     0.023 A 
ATOM      2  C1  UNL d   1       5.882   4.340   4.484  0.00  0.00     0.003 A 
ATOM      3  C2  UNL d   1       5.965   3.045   4.999  0.00  0.00     0.048 A 
ATOM      4  C3  UNL d   1       5.875   1.951   4.139  0.00  0.00     0.023 A 
ATOM      5  C4  UNL d   1       5.701   2.143   2.767  0.00  0.00     0.048 A 
ATOM      6  C5  UNL d   1       5.617   3.440   2.257  0.00  0.00     0.003 A 
ATOM      7  I   UNL d   1       6.000   0.022   4.904  0.00  0.00    -0.146 I 
ENDROOT
TORSDOF 0
ENDMDL
