MODEL 1
REMARK minimizedAffinity -1.20131028
REMARK minimizedRMSD -1
REMARK  0 active torsions:
REMARK  status: ('A' for Active; 'I' for Inactive)
ROOT
ATOM      1  C   UNL d   1       5.250   2.930   3.667  0.00  0.00     0.023 A 
ATOM      2  C1  UNL d   1       4.519   2.671   4.826  0.00  0.00     0.003 A 
ATOM      3  C2  UNL d   1       4.525   1.392   5.387  0.00  0.00     0.048 A 
ATOM      4  C3  UNL d   1       5.266   0.377   4.783  0.00  0.00     0.023 A 
ATOM      5  C4  UNL d   1       6.000   0.631   3.623  0.00  0.00     0.048 A 
ATOM      6  C5  UNL d   1       5.989   1.911   3.066  0.00  0.00     0.003 A 
ATOM      7  I   UNL d   1       5.278  -1.527   5.616  0.00  0.00    -0.146 I 
ENDROOT
TORSDOF 0
ENDMDL
