MODEL 1
REMARK minimizedAffinity -2.10809445
REMARK minimizedRMSD -1
REMARK  0 active torsions:
REMARK  status: ('A' for Active; 'I' for Inactive)
ROOT
ATOM      1  C   UNL d   1       5.991   0.839   4.154  0.00  0.00     0.023 A 
ATOM      2  C1  UNL d   1       5.984   1.491   5.387  0.00  0.00     0.003 A 
ATOM      3  C2  UNL d   1       5.986   2.887   5.441  0.00  0.00     0.048 A 
ATOM      4  C3  UNL d   1       5.994   3.624   4.257  0.00  0.00     0.023 A 
ATOM      5  C4  UNL d   1       6.000   2.976   3.021  0.00  0.00     0.048 A 
ATOM      6  C5  UNL d   1       5.999   1.580   2.972  0.00  0.00     0.003 A 
ATOM      7  I   UNL d   1       5.996   5.701   4.334  0.00  0.00    -0.146 I 
ENDROOT
TORSDOF 0
ENDMDL
