MODEL 1
REMARK minimizedAffinity -2.04796433
REMARK minimizedRMSD -1
REMARK  0 active torsions:
REMARK  status: ('A' for Active; 'I' for Inactive)
ROOT
ATOM      1  C   UNL d   1       5.950  -0.350   4.877  0.00  0.00     0.023 A 
ATOM      2  C1  UNL d   1       5.928   0.479   5.998  0.00  0.00     0.003 A 
ATOM      3  C2  UNL d   1       5.942   1.867   5.842  0.00  0.00     0.048 A 
ATOM      4  C3  UNL d   1       5.978   2.418   4.562  0.00  0.00     0.023 A 
ATOM      5  C4  UNL d   1       6.000   1.593   3.437  0.00  0.00     0.048 A 
ATOM      6  C5  UNL d   1       5.986   0.206   3.598  0.00  0.00     0.003 A 
ATOM      7  I   UNL d   1       6.000   4.483   4.328  0.00  0.00    -0.146 I 
ENDROOT
TORSDOF 0
ENDMDL
