MODEL 1
REMARK minimizedAffinity -2.17783737
REMARK minimizedRMSD -1
REMARK  0 active torsions:
REMARK  status: ('A' for Active; 'I' for Inactive)
ROOT
ATOM      1  C   UNL d   1       5.995   5.945   2.675  0.00  0.00     0.023 A 
ATOM      2  C1  UNL d   1       5.949   4.894   1.759  0.00  0.00     0.003 A 
ATOM      3  C2  UNL d   1       5.909   3.573   2.212  0.00  0.00     0.048 A 
ATOM      4  C3  UNL d   1       5.913   3.312   3.581  0.00  0.00     0.023 A 
ATOM      5  C4  UNL d   1       5.958   4.360   4.501  0.00  0.00     0.048 A 
ATOM      6  C5  UNL d   1       6.000   5.679   4.044  0.00  0.00     0.003 A 
ATOM      7  I   UNL d   1       5.853   1.347   4.257  0.00  0.00    -0.146 I 
ENDROOT
TORSDOF 0
ENDMDL
