MODEL 1
REMARK minimizedAffinity -2.57659554
REMARK minimizedRMSD -1
REMARK  0 active torsions:
REMARK  status: ('A' for Active; 'I' for Inactive)
ROOT
ATOM      1  C   UNL d   1       0.774  -5.736   0.868  0.00  0.00     0.077 C 
ATOM      2  C1  UNL d   1       0.968  -4.307   0.457  0.00  0.00    -0.074 A 
ATOM      3  C2  UNL d   1       2.250  -3.775   0.289  0.00  0.00    -0.005 A 
ATOM      4  C3  UNL d   1       2.415  -2.446  -0.103  0.00  0.00     0.006 A 
ATOM      5  C4  UNL d   1       1.300  -1.637  -0.328  0.00  0.00    -0.005 A 
ATOM      6  C5  UNL d   1       0.010  -2.152  -0.166  0.00  0.00    -0.074 A 
ATOM      7  C6  UNL d   1      -1.198  -1.299  -0.414  0.00  0.00     0.077 C 
ATOM      8  C7  UNL d   1      -0.147  -3.490   0.221  0.00  0.00    -0.001 A 
ENDROOT
TORSDOF 0
ENDMDL
