MODEL 1
REMARK minimizedAffinity -1.35453606
REMARK minimizedRMSD -1
REMARK  0 active torsions:
REMARK  status: ('A' for Active; 'I' for Inactive)
ROOT
ATOM      1  C   UNL d   1       0.769  -5.618   1.409  0.00  0.00     0.077 C 
ATOM      2  C1  UNL d   1       0.820  -4.276   0.740  0.00  0.00    -0.074 A 
ATOM      3  C2  UNL d   1       2.021  -3.772   0.231  0.00  0.00    -0.005 A 
ATOM      4  C3  UNL d   1       2.052  -2.527  -0.397  0.00  0.00     0.006 A 
ATOM      5  C4  UNL d   1       0.883  -1.775  -0.522  0.00  0.00    -0.005 A 
ATOM      6  C5  UNL d   1      -0.327  -2.263  -0.020  0.00  0.00    -0.074 A 
ATOM      7  C6  UNL d   1      -1.594  -1.471  -0.155  0.00  0.00     0.077 C 
ATOM      8  C7  UNL d   1      -0.351  -3.518   0.604  0.00  0.00    -0.001 A 
ENDROOT
TORSDOF 0
ENDMDL
