MODEL 1
REMARK minimizedAffinity 1.97985339
REMARK minimizedRMSD -1
REMARK  0 active torsions:
REMARK  status: ('A' for Active; 'I' for Inactive)
ROOT
ATOM      1  C   UNL d   1       2.142  -3.704  -0.719  0.00  0.00     0.077 C 
ATOM      2  C1  UNL d   1       1.553  -2.386  -1.124  0.00  0.00    -0.074 A 
ATOM      3  C2  UNL d   1       1.683  -1.259  -0.307  0.00  0.00    -0.005 A 
ATOM      4  C3  UNL d   1       1.138  -0.037  -0.701  0.00  0.00     0.006 A 
ATOM      5  C4  UNL d   1       0.457   0.070  -1.915  0.00  0.00    -0.005 A 
ATOM      6  C5  UNL d   1       0.318  -1.046  -2.746  0.00  0.00    -0.074 A 
ATOM      7  C6  UNL d   1      -0.402  -0.947  -4.058  0.00  0.00     0.077 C 
ATOM      8  C7  UNL d   1       0.874  -2.269  -2.346  0.00  0.00    -0.001 A 
ENDROOT
TORSDOF 0
ENDMDL
