MODEL 1
REMARK minimizedAffinity 0.448136061
REMARK minimizedRMSD -1
REMARK  0 active torsions:
REMARK  status: ('A' for Active; 'I' for Inactive)
ROOT
ATOM      1  C   UNL d   1       2.642  -2.923  -0.393  0.00  0.00     0.077 C 
ATOM      2  C1  UNL d   1       1.901  -1.744  -0.951  0.00  0.00    -0.074 A 
ATOM      3  C2  UNL d   1       1.766  -0.565  -0.211  0.00  0.00    -0.005 A 
ATOM      4  C3  UNL d   1       1.082   0.527  -0.747  0.00  0.00     0.006 A 
ATOM      5  C4  UNL d   1       0.528   0.450  -2.025  0.00  0.00    -0.005 A 
ATOM      6  C5  UNL d   1       0.654  -0.721  -2.780  0.00  0.00    -0.074 A 
ATOM      7  C6  UNL d   1       0.072  -0.816  -4.159  0.00  0.00     0.077 C 
ATOM      8  C7  UNL d   1       1.348  -1.811  -2.237  0.00  0.00    -0.001 A 
ENDROOT
TORSDOF 0
ENDMDL
