MODEL 1
REMARK minimizedAffinity -2.53619909
REMARK minimizedRMSD -1
REMARK  0 active torsions:
REMARK  status: ('A' for Active; 'I' for Inactive)
ROOT
ATOM      1  C   UNL d   1       2.338  -0.392  -1.410  0.00  0.00     0.077 C 
ATOM      2  C1  UNL d   1       1.349  -1.441  -0.997  0.00  0.00    -0.074 A 
ATOM      3  C2  UNL d   1       0.034  -1.416  -1.474  0.00  0.00    -0.005 A 
ATOM      4  C3  UNL d   1      -0.872  -2.404  -1.090  0.00  0.00     0.006 A 
ATOM      5  C4  UNL d   1      -0.474  -3.425  -0.225  0.00  0.00    -0.005 A 
ATOM      6  C5  UNL d   1       0.837  -3.466   0.262  0.00  0.00    -0.074 A 
ATOM      7  C6  UNL d   1       1.284  -4.561   1.184  0.00  0.00     0.077 C 
ATOM      8  C7  UNL d   1       1.743  -2.474  -0.135  0.00  0.00    -0.001 A 
ENDROOT
TORSDOF 0
ENDMDL
