MODEL 1
REMARK minimizedAffinity -5.74962139
REMARK minimizedRMSD -1
REMARK  0 active torsions:
REMARK  status: ('A' for Active; 'I' for Inactive)
ROOT
ATOM      1  C   UNL d   1      -1.227  -1.517   0.095  0.00  0.00     0.077 C 
ATOM      2  C1  UNL d   1       0.202  -1.839  -0.227  0.00  0.00    -0.074 A 
ATOM      3  C2  UNL d   1       0.811  -2.992   0.280  0.00  0.00    -0.005 A 
ATOM      4  C3  UNL d   1       2.138  -3.283  -0.036  0.00  0.00     0.006 A 
ATOM      5  C4  UNL d   1       2.868  -2.426  -0.860  0.00  0.00    -0.005 A 
ATOM      6  C5  UNL d   1       2.276  -1.270  -1.377  0.00  0.00    -0.074 A 
ATOM      7  C6  UNL d   1       3.043  -0.344  -2.273  0.00  0.00     0.077 C 
ATOM      8  C7  UNL d   1       0.940  -0.988  -1.061  0.00  0.00    -0.001 A 
ENDROOT
TORSDOF 0
ENDMDL
