MODEL 1
REMARK minimizedAffinity -1.71895218
REMARK minimizedRMSD -1
REMARK  0 active torsions:
REMARK  status: ('A' for Active; 'I' for Inactive)
ROOT
ATOM      1  C   UNL d   1       0.739  -5.169   1.567  0.00  0.00     0.077 C 
ATOM      2  C1  UNL d   1       0.935  -3.964   0.696  0.00  0.00    -0.074 A 
ATOM      3  C2  UNL d   1       2.199  -3.636   0.196  0.00  0.00    -0.005 A 
ATOM      4  C3  UNL d   1       2.365  -2.517  -0.620  0.00  0.00     0.006 A 
ATOM      5  C4  UNL d   1       1.270  -1.716  -0.944  0.00  0.00    -0.005 A 
ATOM      6  C5  UNL d   1      -0.002  -2.028  -0.454  0.00  0.00    -0.074 A 
ATOM      7  C6  UNL d   1      -1.192  -1.182  -0.800  0.00  0.00     0.077 C 
ATOM      8  C7  UNL d   1      -0.162  -3.158   0.360  0.00  0.00    -0.001 A 
ENDROOT
TORSDOF 0
ENDMDL
