MODEL 1
REMARK minimizedAffinity 5.41335011
REMARK minimizedRMSD -1
REMARK  0 active torsions:
REMARK  status: ('A' for Active; 'I' for Inactive)
ROOT
ATOM      1  C   UNL d   1       2.644  -3.012   0.264  0.00  0.00     0.077 C 
ATOM      2  C1  UNL d   1       1.391  -2.332  -0.202  0.00  0.00    -0.074 A 
ATOM      3  C2  UNL d   1       0.131  -2.833   0.141  0.00  0.00    -0.005 A 
ATOM      4  C3  UNL d   1      -1.026  -2.184  -0.292  0.00  0.00     0.006 A 
ATOM      5  C4  UNL d   1      -0.934  -1.030  -1.071  0.00  0.00    -0.005 A 
ATOM      6  C5  UNL d   1       0.317  -0.513  -1.423  0.00  0.00    -0.074 A 
ATOM      7  C6  UNL d   1       0.433   0.732  -2.251  0.00  0.00     0.077 C 
ATOM      8  C7  UNL d   1       1.474  -1.167  -0.978  0.00  0.00    -0.001 A 
ENDROOT
TORSDOF 0
ENDMDL
