MODEL 1
REMARK minimizedAffinity 7.28928804
REMARK minimizedRMSD -1
REMARK  0 active torsions:
REMARK  status: ('A' for Active; 'I' for Inactive)
ROOT
ATOM      1  C   UNL d   1       3.715  -2.470   2.994  0.00  0.00     0.077 C 
ATOM      2  C1  UNL d   1       2.896  -2.913   1.818  0.00  0.00    -0.074 A 
ATOM      3  C2  UNL d   1       2.714  -2.076   0.712  0.00  0.00    -0.005 A 
ATOM      4  C3  UNL d   1       1.958  -2.506  -0.378  0.00  0.00     0.006 A 
ATOM      5  C4  UNL d   1       1.378  -3.775  -0.375  0.00  0.00    -0.005 A 
ATOM      6  C5  UNL d   1       1.550  -4.626   0.721  0.00  0.00    -0.074 A 
ATOM      7  C6  UNL d   1       0.941  -5.997   0.737  0.00  0.00     0.077 C 
ATOM      8  C7  UNL d   1       2.317  -4.190   1.811  0.00  0.00    -0.001 A 
ENDROOT
TORSDOF 0
ENDMDL
