MODEL 1
REMARK minimizedAffinity -4.91716766
REMARK minimizedRMSD -1
REMARK  0 active torsions:
REMARK  status: ('A' for Active; 'I' for Inactive)
ROOT
ATOM      1  C   UNL d   1      -1.297  -1.155  -0.607  0.00  0.00     0.077 C 
ATOM      2  C1  UNL d   1      -0.038  -1.912  -0.304  0.00  0.00    -0.074 A 
ATOM      3  C2  UNL d   1       1.212  -1.291  -0.385  0.00  0.00    -0.005 A 
ATOM      4  C3  UNL d   1       2.373  -2.005  -0.091  0.00  0.00     0.006 A 
ATOM      5  C4  UNL d   1       2.297  -3.346   0.286  0.00  0.00    -0.005 A 
ATOM      6  C5  UNL d   1       1.055  -3.985   0.374  0.00  0.00    -0.074 A 
ATOM      7  C6  UNL d   1       0.954  -5.423   0.787  0.00  0.00     0.077 C 
ATOM      8  C7  UNL d   1      -0.108  -3.258   0.083  0.00  0.00    -0.001 A 
ENDROOT
TORSDOF 0
ENDMDL
