MODEL 1
REMARK minimizedAffinity -2.20081806
REMARK minimizedRMSD -1
REMARK  0 active torsions:
REMARK  status: ('A' for Active; 'I' for Inactive)
ROOT
ATOM      1  C   UNL d   1       2.623  -1.500  -1.001  0.00  0.00     0.077 C 
ATOM      2  C1  UNL d   1       1.627  -2.407  -0.341  0.00  0.00    -0.074 A 
ATOM      3  C2  UNL d   1       0.297  -2.010  -0.168  0.00  0.00    -0.005 A 
ATOM      4  C3  UNL d   1      -0.620  -2.869   0.438  0.00  0.00     0.006 A 
ATOM      5  C4  UNL d   1      -0.217  -4.130   0.878  0.00  0.00    -0.005 A 
ATOM      6  C5  UNL d   1       1.109  -4.545   0.713  0.00  0.00    -0.074 A 
ATOM      7  C6  UNL d   1       1.556  -5.901   1.171  0.00  0.00     0.077 C 
ATOM      8  C7  UNL d   1       2.022  -3.679   0.096  0.00  0.00    -0.001 A 
ENDROOT
TORSDOF 0
ENDMDL
