MODEL 1
REMARK minimizedAffinity -2.28572059
REMARK minimizedRMSD -1
REMARK  0 active torsions:
REMARK  status: ('A' for Active; 'I' for Inactive)
ROOT
ATOM      1  C   UNL d   1       0.975  -4.725   0.648  0.00  0.00     0.077 C 
ATOM      2  C1  UNL d   1       0.540  -3.376   0.158  0.00  0.00    -0.074 A 
ATOM      3  C2  UNL d   1      -0.816  -3.073  -0.003  0.00  0.00    -0.005 A 
ATOM      4  C3  UNL d   1      -1.206  -1.811  -0.450  0.00  0.00     0.006 A 
ATOM      5  C4  UNL d   1      -0.246  -0.841  -0.742  0.00  0.00    -0.005 A 
ATOM      6  C5  UNL d   1       1.114  -1.126  -0.587  0.00  0.00    -0.074 A 
ATOM      7  C6  UNL d   1       2.159  -0.092  -0.887  0.00  0.00     0.077 C 
ATOM      8  C7  UNL d   1       1.498  -2.394  -0.130  0.00  0.00    -0.001 A 
ENDROOT
TORSDOF 0
ENDMDL
