MODEL 1
REMARK minimizedAffinity -0.575257897
REMARK minimizedRMSD -1
REMARK  0 active torsions:
REMARK  status: ('A' for Active; 'I' for Inactive)
ROOT
ATOM      1  C   UNL d   1       1.885  -0.036  -1.338  0.00  0.00     0.077 C 
ATOM      2  C1  UNL d   1       0.997  -1.109  -0.782  0.00  0.00    -0.074 A 
ATOM      3  C2  UNL d   1      -0.395  -0.984  -0.824  0.00  0.00    -0.005 A 
ATOM      4  C3  UNL d   1      -1.208  -1.995  -0.311  0.00  0.00     0.006 A 
ATOM      5  C4  UNL d   1      -0.638  -3.139   0.248  0.00  0.00    -0.005 A 
ATOM      6  C5  UNL d   1       0.753  -3.282   0.298  0.00  0.00    -0.074 A 
ATOM      7  C6  UNL d   1       1.382  -4.510   0.887  0.00  0.00     0.077 C 
ATOM      8  C7  UNL d   1       1.563  -2.265  -0.226  0.00  0.00    -0.001 A 
ENDROOT
TORSDOF 0
ENDMDL
