MODEL 1
REMARK minimizedAffinity 2.15190148
REMARK minimizedRMSD -1
REMARK  0 active torsions:
REMARK  status: ('A' for Active; 'I' for Inactive)
ROOT
ATOM      1  C   UNL d   1       1.193   0.529  -1.557  0.00  0.00     0.077 C 
ATOM      2  C1  UNL d   1       0.791  -0.756  -0.897  0.00  0.00    -0.074 A 
ATOM      3  C2  UNL d   1      -0.558  -1.088  -0.733  0.00  0.00    -0.005 A 
ATOM      4  C3  UNL d   1      -0.917  -2.292  -0.126  0.00  0.00     0.006 A 
ATOM      5  C4  UNL d   1       0.068  -3.173   0.323  0.00  0.00    -0.005 A 
ATOM      6  C5  UNL d   1       1.421  -2.858   0.166  0.00  0.00    -0.074 A 
ATOM      7  C6  UNL d   1       2.492  -3.799   0.634  0.00  0.00     0.077 C 
ATOM      8  C7  UNL d   1       1.774  -1.650  -0.451  0.00  0.00    -0.001 A 
ENDROOT
TORSDOF 0
ENDMDL
