MODEL 1
REMARK minimizedAffinity -3.50939775
REMARK minimizedRMSD -1
REMARK  0 active torsions:
REMARK  status: ('A' for Active; 'I' for Inactive)
ROOT
ATOM      1  C   UNL d   1      -5.999  -0.746   2.258  0.00  0.00     0.077 C 
ATOM      2  C1  UNL d   1      -4.831  -0.363   3.116  0.00  0.00    -0.074 A 
ATOM      3  C2  UNL d   1      -3.576  -0.952   2.927  0.00  0.00    -0.005 A 
ATOM      4  C3  UNL d   1      -2.496  -0.579   3.727  0.00  0.00     0.006 A 
ATOM      5  C4  UNL d   1      -2.659   0.385   4.723  0.00  0.00    -0.005 A 
ATOM      6  C5  UNL d   1      -3.906   0.986   4.926  0.00  0.00    -0.074 A 
ATOM      7  C6  UNL d   1      -4.096   2.031   5.985  0.00  0.00     0.077 C 
ATOM      8  C7  UNL d   1      -4.985   0.611   4.113  0.00  0.00    -0.001 A 
ENDROOT
TORSDOF 0
ENDMDL
