MODEL 1
REMARK minimizedAffinity 1.82657528
REMARK minimizedRMSD -1
REMARK  0 active torsions:
REMARK  status: ('A' for Active; 'I' for Inactive)
ROOT
ATOM      1  C   UNL d   1      -2.100  -1.749  -0.767  0.00  0.00     0.077 C 
ATOM      2  C1  UNL d   1      -0.624  -1.485  -0.808  0.00  0.00    -0.074 A 
ATOM      3  C2  UNL d   1      -0.128  -0.238  -1.202  0.00  0.00    -0.005 A 
ATOM      4  C3  UNL d   1       1.247  -0.004  -1.226  0.00  0.00     0.006 A 
ATOM      5  C4  UNL d   1       2.138  -1.013  -0.857  0.00  0.00    -0.005 A 
ATOM      6  C5  UNL d   1       1.660  -2.265  -0.460  0.00  0.00    -0.074 A 
ATOM      7  C6  UNL d   1       2.604  -3.357  -0.051  0.00  0.00     0.077 C 
ATOM      8  C7  UNL d   1       0.277  -2.491  -0.431  0.00  0.00    -0.001 A 
ENDROOT
TORSDOF 0
ENDMDL
