MODEL 1
REMARK minimizedAffinity -0.174243689
REMARK minimizedRMSD -1
REMARK  0 active torsions:
REMARK  status: ('A' for Active; 'I' for Inactive)
ROOT
ATOM      1  C   UNL d   1       0.920  -6.000   0.746  0.00  0.00     0.077 C 
ATOM      2  C1  UNL d   1       1.617  -4.678   0.612  0.00  0.00    -0.074 A 
ATOM      3  C2  UNL d   1       1.446  -3.888  -0.529  0.00  0.00    -0.005 A 
ATOM      4  C3  UNL d   1       2.093  -2.656  -0.635  0.00  0.00     0.006 A 
ATOM      5  C4  UNL d   1       2.915  -2.203   0.397  0.00  0.00    -0.005 A 
ATOM      6  C5  UNL d   1       3.097  -2.979   1.546  0.00  0.00    -0.074 A 
ATOM      7  C6  UNL d   1       3.969  -2.503   2.669  0.00  0.00     0.077 C 
ATOM      8  C7  UNL d   1       2.438  -4.212   1.648  0.00  0.00    -0.001 A 
ENDROOT
TORSDOF 0
ENDMDL
