MODEL 1
REMARK minimizedAffinity -3.97891974
REMARK minimizedRMSD -1
REMARK  0 active torsions:
REMARK  status: ('A' for Active; 'I' for Inactive)
ROOT
ATOM      1  C   UNL d   1       2.150   0.955  -1.246  0.00  0.00     0.077 C 
ATOM      2  C1  UNL d   1       1.211  -0.158  -0.888  0.00  0.00    -0.074 A 
ATOM      3  C2  UNL d   1      -0.049  -0.257  -1.488  0.00  0.00    -0.005 A 
ATOM      4  C3  UNL d   1      -0.908  -1.303  -1.152  0.00  0.00     0.006 A 
ATOM      5  C4  UNL d   1      -0.516  -2.260  -0.215  0.00  0.00    -0.005 A 
ATOM      6  C5  UNL d   1       0.740  -2.178   0.395  0.00  0.00    -0.074 A 
ATOM      7  C6  UNL d   1       1.180  -3.204   1.397  0.00  0.00     0.077 C 
ATOM      8  C7  UNL d   1       1.600  -1.128   0.047  0.00  0.00    -0.001 A 
ENDROOT
TORSDOF 0
ENDMDL
