MODEL 1
REMARK minimizedAffinity -5.73417377
REMARK minimizedRMSD -1
REMARK  0 active torsions:
REMARK  status: ('A' for Active; 'I' for Inactive)
ROOT
ATOM      1  C   UNL d   1       0.714  -5.354   1.025  0.00  0.00     0.077 C 
ATOM      2  C1  UNL d   1       1.068  -3.981   0.534  0.00  0.00    -0.074 A 
ATOM      3  C2  UNL d   1       2.403  -3.594   0.383  0.00  0.00    -0.005 A 
ATOM      4  C3  UNL d   1       2.717  -2.318  -0.084  0.00  0.00     0.006 A 
ATOM      5  C4  UNL d   1       1.701  -1.417  -0.404  0.00  0.00    -0.005 A 
ATOM      6  C5  UNL d   1       0.360  -1.786  -0.260  0.00  0.00    -0.074 A 
ATOM      7  C6  UNL d   1      -0.745  -0.834  -0.608  0.00  0.00     0.077 C 
ATOM      8  C7  UNL d   1       0.052  -3.073   0.203  0.00  0.00    -0.001 A 
ENDROOT
TORSDOF 0
ENDMDL
