MODEL 1
REMARK minimizedAffinity 0.303247988
REMARK minimizedRMSD -1
REMARK  1 active torsions:
REMARK  status: ('A' for Active; 'I' for Inactive)
REMARK    1  A    between atoms: C1_2  and  C2_3 
ROOT
ATOM      1  C2  UNL d   1      -1.795  -0.602   1.224  0.00  0.00    -0.077 A 
ATOM      2  C3  UNL d   1      -2.166  -1.616   0.330  0.00  0.00     0.002 A 
ATOM      3  C4  UNL d   1      -1.359  -1.918  -0.769  0.00  0.00     0.002 A 
ATOM      4  C5  UNL d   1      -0.175  -1.214  -0.981  0.00  0.00    -0.004 A 
ATOM      5  C6  UNL d   1       0.201  -0.203  -0.098  0.00  0.00     0.002 A 
ATOM      6  C7  UNL d   1      -0.605   0.101   1.000  0.00  0.00     0.002 A 
ENDROOT
BRANCH   1   7
ATOM      7  C1  UNL d   1      -2.639  -0.308   2.437  0.00  0.00     0.055 C 
ATOM      8  C   UNL d   1      -3.671   0.771   2.145  0.00  0.00     0.019 C 
ENDBRANCH   1   7
TORSDOF 1
ENDMDL
