MODEL 1
REMARK minimizedAffinity 3.60543394
REMARK minimizedRMSD -1
REMARK  1 active torsions:
REMARK  status: ('A' for Active; 'I' for Inactive)
REMARK    1  A    between atoms: C1_2  and  C2_3 
ROOT
ATOM      1  C2  UNL d   1      -2.254  -3.247  -3.314  0.00  0.00    -0.077 A 
ATOM      2  C3  UNL d   1      -1.671  -2.601  -4.413  0.00  0.00     0.002 A 
ATOM      3  C4  UNL d   1      -1.501  -3.279  -5.622  0.00  0.00     0.002 A 
ATOM      4  C5  UNL d   1      -1.914  -4.604  -5.744  0.00  0.00    -0.004 A 
ATOM      5  C6  UNL d   1      -2.493  -5.256  -4.655  0.00  0.00     0.002 A 
ATOM      6  C7  UNL d   1      -2.663  -4.580  -3.446  0.00  0.00     0.002 A 
ENDROOT
BRANCH   1   7
ATOM      7  C1  UNL d   1      -2.484  -2.502  -2.025  0.00  0.00     0.055 C 
ATOM      8  C   UNL d   1      -1.226  -1.775  -1.574  0.00  0.00     0.019 C 
ENDBRANCH   1   7
TORSDOF 1
ENDMDL
