MODEL 1
REMARK minimizedAffinity -0.396316081
REMARK minimizedRMSD -1
REMARK  1 active torsions:
REMARK  status: ('A' for Active; 'I' for Inactive)
REMARK    1  A    between atoms: C1_2  and  C2_3 
ROOT
ATOM      1  C2  UNL d   1       5.032  -3.301  -3.971  0.00  0.00    -0.077 A 
ATOM      2  C3  UNL d   1       5.994  -4.048  -3.277  0.00  0.00     0.002 A 
ATOM      3  C4  UNL d   1       6.000  -4.068  -1.881  0.00  0.00     0.002 A 
ATOM      4  C5  UNL d   1       5.044  -3.347  -1.168  0.00  0.00    -0.004 A 
ATOM      5  C6  UNL d   1       4.085  -2.599  -1.849  0.00  0.00     0.002 A 
ATOM      6  C7  UNL d   1       4.078  -2.577  -3.245  0.00  0.00     0.002 A 
ENDROOT
BRANCH   1   7
ATOM      7  C1  UNL d   1       4.994  -3.317  -5.477  0.00  0.00     0.055 C 
ATOM      8  C   UNL d   1       3.706  -3.944  -5.991  0.00  0.00     0.019 C 
ENDBRANCH   1   7
TORSDOF 1
ENDMDL
