MODEL 1
REMARK minimizedAffinity 11.5854988
REMARK minimizedRMSD -1
REMARK  1 active torsions:
REMARK  status: ('A' for Active; 'I' for Inactive)
REMARK    1  A    between atoms: C1_2  and  C2_3 
ROOT
ATOM      1  C2  UNL d   1       0.529  -1.012  -1.427  0.00  0.00    -0.077 A 
ATOM      2  C3  UNL d   1       0.409  -0.428  -0.158  0.00  0.00     0.002 A 
ATOM      3  C4  UNL d   1      -0.712  -0.686   0.635  0.00  0.00     0.002 A 
ATOM      4  C5  UNL d   1      -1.717  -1.531   0.169  0.00  0.00    -0.004 A 
ATOM      5  C6  UNL d   1      -1.607  -2.115  -1.092  0.00  0.00     0.002 A 
ATOM      6  C7  UNL d   1      -0.489  -1.858  -1.886  0.00  0.00     0.002 A 
ENDROOT
BRANCH   1   7
ATOM      7  C1  UNL d   1       1.760  -0.775  -2.263  0.00  0.00     0.055 C 
ATOM      8  C   UNL d   1       1.762   0.625  -2.859  0.00  0.00     0.019 C 
ENDBRANCH   1   7
TORSDOF 1
ENDMDL
