MODEL 1
REMARK minimizedAffinity 3.1588757
REMARK minimizedRMSD -1
REMARK  1 active torsions:
REMARK  status: ('A' for Active; 'I' for Inactive)
REMARK    1  A    between atoms: C1_2  and  C2_3 
ROOT
ATOM      1  C2  UNL d   1      -1.882  -2.740  -2.787  0.00  0.00    -0.077 A 
ATOM      2  C3  UNL d   1      -2.950  -3.054  -1.935  0.00  0.00     0.002 A 
ATOM      3  C4  UNL d   1      -3.014  -2.508  -0.652  0.00  0.00     0.002 A 
ATOM      4  C5  UNL d   1      -2.017  -1.641  -0.211  0.00  0.00    -0.004 A 
ATOM      5  C6  UNL d   1      -0.949  -1.323  -1.050  0.00  0.00     0.002 A 
ATOM      6  C7  UNL d   1      -0.882  -1.870  -2.333  0.00  0.00     0.002 A 
ENDROOT
BRANCH   1   7
ATOM      7  C1  UNL d   1      -1.836  -3.290  -4.189  0.00  0.00     0.055 C 
ATOM      8  C   UNL d   1      -2.184  -4.771  -4.214  0.00  0.00     0.019 C 
ENDBRANCH   1   7
TORSDOF 1
ENDMDL
