MODEL 1
REMARK minimizedAffinity 8.26074982
REMARK minimizedRMSD -1
REMARK  1 active torsions:
REMARK  status: ('A' for Active; 'I' for Inactive)
REMARK    1  A    between atoms: C1_2  and  C2_3 
ROOT
ATOM      1  C2  UNL d   1      -0.930  -1.783  -0.874  0.00  0.00    -0.077 A 
ATOM      2  C3  UNL d   1       0.462  -1.874  -1.017  0.00  0.00     0.002 A 
ATOM      3  C4  UNL d   1       1.269  -0.756  -0.797  0.00  0.00     0.002 A 
ATOM      4  C5  UNL d   1       0.695   0.459  -0.430  0.00  0.00    -0.004 A 
ATOM      5  C6  UNL d   1      -0.689   0.560  -0.287  0.00  0.00     0.002 A 
ATOM      6  C7  UNL d   1      -1.497  -0.556  -0.507  0.00  0.00     0.002 A 
ENDROOT
BRANCH   1   7
ATOM      7  C1  UNL d   1      -1.798  -2.999  -1.062  0.00  0.00     0.055 C 
ATOM      8  C   UNL d   1      -2.576  -2.928  -2.367  0.00  0.00     0.019 C 
ENDBRANCH   1   7
TORSDOF 1
ENDMDL
