MODEL 1
REMARK minimizedAffinity 3.48460412
REMARK minimizedRMSD -1
REMARK  1 active torsions:
REMARK  status: ('A' for Active; 'I' for Inactive)
REMARK    1  A    between atoms: C1_2  and  C2_3 
ROOT
ATOM      1  C2  UNL d   1      -1.624  -3.066  -3.034  0.00  0.00    -0.077 A 
ATOM      2  C3  UNL d   1      -0.535  -2.327  -2.551  0.00  0.00     0.002 A 
ATOM      3  C4  UNL d   1      -0.555  -1.802  -1.257  0.00  0.00     0.002 A 
ATOM      4  C5  UNL d   1      -1.660  -2.014  -0.435  0.00  0.00    -0.004 A 
ATOM      5  C6  UNL d   1      -2.749  -2.746  -0.907  0.00  0.00     0.002 A 
ATOM      6  C7  UNL d   1      -2.731  -3.270  -2.200  0.00  0.00     0.002 A 
ENDROOT
BRANCH   1   7
ATOM      7  C1  UNL d   1      -1.583  -3.674  -4.412  0.00  0.00     0.055 C 
ATOM      8  C   UNL d   1      -2.229  -5.052  -4.428  0.00  0.00     0.019 C 
ENDBRANCH   1   7
TORSDOF 1
ENDMDL
