MODEL 1
REMARK minimizedAffinity 6.44105482
REMARK minimizedRMSD -1
REMARK  1 active torsions:
REMARK  status: ('A' for Active; 'I' for Inactive)
REMARK    1  A    between atoms: C1_2  and  C2_3 
ROOT
ATOM      1  C2  UNL d   1      -2.233   0.149   1.242  0.00  0.00    -0.077 A 
ATOM      2  C3  UNL d   1      -3.326   1.022   1.157  0.00  0.00     0.002 A 
ATOM      3  C4  UNL d   1      -4.253   1.097   2.198  0.00  0.00     0.002 A 
ATOM      4  C5  UNL d   1      -4.094   0.304   3.333  0.00  0.00    -0.004 A 
ATOM      5  C6  UNL d   1      -3.011  -0.569   3.426  0.00  0.00     0.002 A 
ATOM      6  C7  UNL d   1      -2.084  -0.645   2.386  0.00  0.00     0.002 A 
ENDROOT
BRANCH   1   7
ATOM      7  C1  UNL d   1      -1.205   0.103   0.142  0.00  0.00     0.055 C 
ATOM      8  C   UNL d   1      -0.987  -1.319  -0.353  0.00  0.00     0.019 C 
ENDBRANCH   1   7
TORSDOF 1
ENDMDL
