MODEL 1
REMARK minimizedAffinity 8.82539749
REMARK minimizedRMSD -1
REMARK  1 active torsions:
REMARK  status: ('A' for Active; 'I' for Inactive)
REMARK    1  A    between atoms: C1_2  and  C2_3 
ROOT
ATOM      1  C2  UNL d   1      -3.136  -0.887   4.033  0.00  0.00    -0.077 A 
ATOM      2  C3  UNL d   1      -4.021   0.046   4.591  0.00  0.00     0.002 A 
ATOM      3  C4  UNL d   1      -4.567   1.060   3.802  0.00  0.00     0.002 A 
ATOM      4  C5  UNL d   1      -4.239   1.147   2.450  0.00  0.00    -0.004 A 
ATOM      5  C6  UNL d   1      -3.359   0.225   1.887  0.00  0.00     0.002 A 
ATOM      6  C7  UNL d   1      -2.811  -0.789   2.674  0.00  0.00     0.002 A 
ENDROOT
BRANCH   1   7
ATOM      7  C1  UNL d   1      -2.584  -2.011   4.871  0.00  0.00     0.055 C 
ATOM      8  C   UNL d   1      -3.547  -2.396   5.985  0.00  0.00     0.019 C 
ENDBRANCH   1   7
TORSDOF 1
ENDMDL
