MODEL 1
REMARK minimizedAffinity -0.640971363
REMARK minimizedRMSD -1
REMARK  1 active torsions:
REMARK  status: ('A' for Active; 'I' for Inactive)
REMARK    1  A    between atoms: C1_2  and  C2_3 
ROOT
ATOM      1  C2  UNL d   1       0.600   1.798   0.159  0.00  0.00    -0.077 A 
ATOM      2  C3  UNL d   1       1.928   1.583  -0.237  0.00  0.00     0.002 A 
ATOM      3  C4  UNL d   1       2.923   2.502   0.100  0.00  0.00     0.002 A 
ATOM      4  C5  UNL d   1       2.603   3.639   0.839  0.00  0.00    -0.004 A 
ATOM      5  C6  UNL d   1       1.285   3.863   1.235  0.00  0.00     0.002 A 
ATOM      6  C7  UNL d   1       0.288   2.946   0.898  0.00  0.00     0.002 A 
ENDROOT
BRANCH   1   7
ATOM      7  C1  UNL d   1      -0.466   0.784  -0.162  0.00  0.00     0.055 C 
ATOM      8  C   UNL d   1      -1.160   0.292   1.100  0.00  0.00     0.019 C 
ENDBRANCH   1   7
TORSDOF 1
ENDMDL
