MODEL 1
REMARK minimizedAffinity -3.77193809
REMARK minimizedRMSD -1
REMARK  1 active torsions:
REMARK  status: ('A' for Active; 'I' for Inactive)
REMARK    1  A    between atoms: C1_2  and  C2_3 
ROOT
ATOM      1  C2  UNL d   1      -0.341   0.230  -0.297  0.00  0.00    -0.077 A 
ATOM      2  C3  UNL d   1      -1.111   0.180   0.873  0.00  0.00     0.002 A 
ATOM      3  C4  UNL d   1      -1.431  -1.048   1.455  0.00  0.00     0.002 A 
ATOM      4  C5  UNL d   1      -0.983  -2.234   0.876  0.00  0.00    -0.004 A 
ATOM      5  C6  UNL d   1      -0.218  -2.194  -0.289  0.00  0.00     0.002 A 
ATOM      6  C7  UNL d   1       0.102  -0.968  -0.873  0.00  0.00     0.002 A 
ENDROOT
BRANCH   1   7
ATOM      7  C1  UNL d   1       0.047   1.556  -0.899  0.00  0.00     0.055 C 
ATOM      8  C   UNL d   1       0.507   2.536   0.170  0.00  0.00     0.019 C 
ENDBRANCH   1   7
TORSDOF 1
ENDMDL
