MODEL 1
REMARK minimizedAffinity -0.587096095
REMARK minimizedRMSD -1
REMARK  0 active torsions:
REMARK  status: ('A' for Active; 'I' for Inactive)
ROOT
ATOM      1  C   UNL d   1      -0.365  -0.496   1.140  0.00  0.00     0.020 A 
ATOM      2  C1  UNL d   1      -1.429  -1.103   0.474  0.00  0.00     0.020 A 
ATOM      3  C2  UNL d   1      -2.007  -0.479  -0.633  0.00  0.00     0.034 A 
ATOM      4  C3  UNL d   1      -1.521   0.756  -1.078  0.00  0.00     0.017 A 
ATOM      5  C4  UNL d   1      -0.453   1.365  -0.409  0.00  0.00     0.017 A 
ATOM      6  C5  UNL d   1       0.122   0.735   0.699  0.00  0.00     0.034 A 
ATOM      7 Cl   UNL d   1       0.200   2.888  -0.900  0.00  0.00    -0.070 Cl
ATOM      8 Cl1  UNL d   1      -2.284   1.470  -2.455  0.00  0.00    -0.070 Cl
ENDROOT
TORSDOF 0
ENDMDL
