MODEL 1
REMARK minimizedAffinity 7.12520456
REMARK minimizedRMSD -1
REMARK  0 active torsions:
REMARK  status: ('A' for Active; 'I' for Inactive)
ROOT
ATOM      1  C   UNL d   1      -0.005  -0.963   1.504  0.00  0.00     0.020 A 
ATOM      2  C1  UNL d   1      -0.329  -0.953   2.859  0.00  0.00     0.020 A 
ATOM      3  C2  UNL d   1      -1.575  -0.478   3.276  0.00  0.00     0.034 A 
ATOM      4  C3  UNL d   1      -2.500  -0.009   2.336  0.00  0.00     0.017 A 
ATOM      5  C4  UNL d   1      -2.173  -0.019   0.975  0.00  0.00     0.017 A 
ATOM      6  C5  UNL d   1      -0.925  -0.497   0.563  0.00  0.00     0.034 A 
ATOM      7 Cl   UNL d   1      -3.262   0.542  -0.244  0.00  0.00    -0.070 Cl
ATOM      8 Cl1  UNL d   1      -4.021   0.564   2.922  0.00  0.00    -0.070 Cl
ENDROOT
TORSDOF 0
ENDMDL
