MODEL 1
REMARK minimizedAffinity 14.2894659
REMARK minimizedRMSD -1
REMARK  0 active torsions:
REMARK  status: ('A' for Active; 'I' for Inactive)
ROOT
ATOM      1  C   UNL d   1       2.391  -2.575   3.793  0.00  0.00     0.020 A 
ATOM      2  C1  UNL d   1       1.157  -2.391   4.414  0.00  0.00     0.020 A 
ATOM      3  C2  UNL d   1       0.120  -1.753   3.730  0.00  0.00     0.034 A 
ATOM      4  C3  UNL d   1       0.316  -1.296   2.422  0.00  0.00     0.017 A 
ATOM      5  C4  UNL d   1       1.556  -1.481   1.800  0.00  0.00     0.017 A 
ATOM      6  C5  UNL d   1       2.591  -2.121   2.489  0.00  0.00     0.034 A 
ATOM      7 Cl   UNL d   1       1.873  -0.945   0.187  0.00  0.00    -0.070 Cl
ATOM      8 Cl1  UNL d   1      -1.010  -0.515   1.636  0.00  0.00    -0.070 Cl
ENDROOT
TORSDOF 0
ENDMDL
