MODEL 1
REMARK minimizedAffinity 4.36474752
REMARK minimizedRMSD -1
REMARK  0 active torsions:
REMARK  status: ('A' for Active; 'I' for Inactive)
ROOT
ATOM      1  C   UNL d   1       3.261   1.402  -2.675  0.00  0.00     0.020 A 
ATOM      2  C1  UNL d   1       4.222   2.323  -2.261  0.00  0.00     0.020 A 
ATOM      3  C2  UNL d   1       4.522   2.456  -0.903  0.00  0.00     0.034 A 
ATOM      4  C3  UNL d   1       3.860   1.667   0.044  0.00  0.00     0.017 A 
ATOM      5  C4  UNL d   1       2.895   0.743  -0.373  0.00  0.00     0.017 A 
ATOM      6  C5  UNL d   1       2.599   0.614  -1.733  0.00  0.00     0.034 A 
ATOM      7 Cl   UNL d   1       2.037  -0.266   0.738  0.00  0.00    -0.070 Cl
ATOM      8 Cl1  UNL d   1       4.281   1.885   1.706  0.00  0.00    -0.070 Cl
ENDROOT
TORSDOF 0
ENDMDL
