MODEL 1
REMARK minimizedAffinity 13.1224127
REMARK minimizedRMSD -1
REMARK  0 active torsions:
REMARK  status: ('A' for Active; 'I' for Inactive)
ROOT
ATOM      1  C   UNL d   1      -4.770   1.054  -2.655  0.00  0.00     0.020 A 
ATOM      2  C1  UNL d   1      -5.981   0.416  -2.919  0.00  0.00     0.020 A 
ATOM      3  C2  UNL d   1      -6.000  -0.764  -3.666  0.00  0.00     0.034 A 
ATOM      4  C3  UNL d   1      -4.806  -1.310  -4.150  0.00  0.00     0.017 A 
ATOM      5  C4  UNL d   1      -3.590  -0.669  -3.883  0.00  0.00     0.017 A 
ATOM      6  C5  UNL d   1      -3.577   0.512  -3.136  0.00  0.00     0.034 A 
ATOM      7 Cl   UNL d   1      -2.076  -1.282  -4.447  0.00  0.00    -0.070 Cl
ATOM      8 Cl1  UNL d   1      -4.903  -2.772  -5.065  0.00  0.00    -0.070 Cl
ENDROOT
TORSDOF 0
ENDMDL
