MODEL 1
REMARK minimizedAffinity 21.9344978
REMARK minimizedRMSD -1
REMARK  0 active torsions:
REMARK  status: ('A' for Active; 'I' for Inactive)
ROOT
ATOM      1  C   UNL d   1       1.843  -2.581   3.810  0.00  0.00     0.020 A 
ATOM      2  C1  UNL d   1       0.639  -1.971   3.461  0.00  0.00     0.020 A 
ATOM      3  C2  UNL d   1       0.543  -1.245   2.272  0.00  0.00     0.034 A 
ATOM      4  C3  UNL d   1       1.653  -1.128   1.427  0.00  0.00     0.017 A 
ATOM      5  C4  UNL d   1       2.861  -1.741   1.778  0.00  0.00     0.017 A 
ATOM      6  C5  UNL d   1       2.952  -2.467   2.970  0.00  0.00     0.034 A 
ATOM      7 Cl   UNL d   1       4.273  -1.641   0.787  0.00  0.00    -0.070 Cl
ATOM      8 Cl1  UNL d   1       1.462  -0.215  -0.028  0.00  0.00    -0.070 Cl
ENDROOT
TORSDOF 0
ENDMDL
