MODEL 1
REMARK minimizedAffinity 9.66455841
REMARK minimizedRMSD -1
REMARK  0 active torsions:
REMARK  status: ('A' for Active; 'I' for Inactive)
ROOT
ATOM      1  C   UNL d   1      -1.883  -0.429   1.048  0.00  0.00     0.020 A 
ATOM      2  C1  UNL d   1      -2.060  -1.510   0.186  0.00  0.00     0.020 A 
ATOM      3  C2  UNL d   1      -0.951  -2.208  -0.295  0.00  0.00     0.034 A 
ATOM      4  C3  UNL d   1       0.341  -1.826   0.085  0.00  0.00     0.017 A 
ATOM      5  C4  UNL d   1       0.518  -0.740   0.950  0.00  0.00     0.017 A 
ATOM      6  C5  UNL d   1      -0.597  -0.045   1.429  0.00  0.00     0.034 A 
ATOM      7 Cl   UNL d   1       2.080  -0.209   1.464  0.00  0.00    -0.070 Cl
ATOM      8 Cl1  UNL d   1       1.667  -2.735  -0.549  0.00  0.00    -0.070 Cl
ENDROOT
TORSDOF 0
ENDMDL
