MODEL 1
REMARK minimizedAffinity 6.66084957
REMARK minimizedRMSD -1
REMARK  0 active torsions:
REMARK  status: ('A' for Active; 'I' for Inactive)
ROOT
ATOM      1  C   UNL d   1      -0.319  -1.700   1.499  0.00  0.00     0.020 A 
ATOM      2  C1  UNL d   1      -1.387  -2.235   0.779  0.00  0.00     0.020 A 
ATOM      3  C2  UNL d   1      -2.372  -1.391   0.261  0.00  0.00     0.034 A 
ATOM      4  C3  UNL d   1      -2.291  -0.008   0.461  0.00  0.00     0.017 A 
ATOM      5  C4  UNL d   1      -1.219   0.528   1.184  0.00  0.00     0.017 A 
ATOM      6  C5  UNL d   1      -0.235  -0.321   1.701  0.00  0.00     0.034 A 
ATOM      7 Cl   UNL d   1      -1.051   2.224   1.472  0.00  0.00    -0.070 Cl
ATOM      8 Cl1  UNL d   1      -3.544   0.975  -0.209  0.00  0.00    -0.070 Cl
ENDROOT
TORSDOF 0
ENDMDL
