MODEL 1
REMARK minimizedAffinity 10.1328535
REMARK minimizedRMSD -1
REMARK  0 active torsions:
REMARK  status: ('A' for Active; 'I' for Inactive)
ROOT
ATOM      1  C   UNL d   1      -1.631  -0.694   1.255  0.00  0.00     0.020 A 
ATOM      2  C1  UNL d   1      -2.024  -1.601   0.272  0.00  0.00     0.020 A 
ATOM      3  C2  UNL d   1      -1.182  -1.867  -0.810  0.00  0.00     0.034 A 
ATOM      4  C3  UNL d   1       0.058  -1.226  -0.911  0.00  0.00     0.017 A 
ATOM      5  C4  UNL d   1       0.452  -0.316   0.077  0.00  0.00     0.017 A 
ATOM      6  C5  UNL d   1      -0.395  -0.053   1.158  0.00  0.00     0.034 A 
ATOM      7 Cl   UNL d   1       1.968   0.513   0.021  0.00  0.00    -0.070 Cl
ATOM      8 Cl1  UNL d   1       1.049  -1.604  -2.275  0.00  0.00    -0.070 Cl
ENDROOT
TORSDOF 0
ENDMDL
