MODEL 1
REMARK minimizedAffinity 2.29310155
REMARK minimizedRMSD -1
REMARK  0 active torsions:
REMARK  status: ('A' for Active; 'I' for Inactive)
ROOT
ATOM      1  C   UNL d   1      -0.036   1.405   0.065  0.00  0.00     0.020 A 
ATOM      2  C1  UNL d   1      -1.190   0.864   0.630  0.00  0.00     0.020 A 
ATOM      3  C2  UNL d   1      -1.210  -0.473   1.033  0.00  0.00     0.034 A 
ATOM      4  C3  UNL d   1      -0.073  -1.273   0.870  0.00  0.00     0.017 A 
ATOM      5  C4  UNL d   1       1.084  -0.729   0.302  0.00  0.00     0.017 A 
ATOM      6  C5  UNL d   1       1.098   0.610  -0.099  0.00  0.00     0.034 A 
ATOM      7 Cl   UNL d   1       2.526  -1.655   0.070  0.00  0.00    -0.070 Cl
ATOM      8 Cl1  UNL d   1      -0.168  -2.918   1.390  0.00  0.00    -0.070 Cl
ENDROOT
TORSDOF 0
ENDMDL
