MODEL 1
REMARK minimizedAffinity 13.3490238
REMARK minimizedRMSD -1
REMARK  0 active torsions:
REMARK  status: ('A' for Active; 'I' for Inactive)
ROOT
ATOM      1  C   UNL d   1       4.816   2.733  -2.498  0.00  0.00     0.020 A 
ATOM      2  C1  UNL d   1       4.975   1.431  -2.024  0.00  0.00     0.020 A 
ATOM      3  C2  UNL d   1       4.204   0.396  -2.555  0.00  0.00     0.034 A 
ATOM      4  C3  UNL d   1       3.269   0.660  -3.563  0.00  0.00     0.017 A 
ATOM      5  C4  UNL d   1       3.110   1.967  -4.038  0.00  0.00     0.017 A 
ATOM      6  C5  UNL d   1       3.886   3.000  -3.503  0.00  0.00     0.034 A 
ATOM      7 Cl   UNL d   1       1.978   2.370  -5.280  0.00  0.00    -0.070 Cl
ATOM      8 Cl1  UNL d   1       2.349  -0.669  -4.174  0.00  0.00    -0.070 Cl
ENDROOT
TORSDOF 0
ENDMDL
