MODEL 1
REMARK minimizedAffinity 4.22532988
REMARK minimizedRMSD -1
REMARK  0 active torsions:
REMARK  status: ('A' for Active; 'I' for Inactive)
ROOT
ATOM      1  C   UNL d   1       2.619   1.471  -0.452  0.00  0.00     0.020 A 
ATOM      2  C1  UNL d   1       3.912   1.956  -0.645  0.00  0.00     0.020 A 
ATOM      3  C2  UNL d   1       4.427   2.075  -1.938  0.00  0.00     0.034 A 
ATOM      4  C3  UNL d   1       3.648   1.710  -3.042  0.00  0.00     0.017 A 
ATOM      5  C4  UNL d   1       2.350   1.224  -2.847  0.00  0.00     0.017 A 
ATOM      6  C5  UNL d   1       1.840   1.106  -1.550  0.00  0.00     0.034 A 
ATOM      7 Cl   UNL d   1       1.329   0.753  -4.159  0.00  0.00    -0.070 Cl
ATOM      8 Cl1  UNL d   1       4.348   1.884  -4.612  0.00  0.00    -0.070 Cl
ENDROOT
TORSDOF 0
ENDMDL
