MODEL 1
REMARK minimizedAffinity 6.23543692
REMARK minimizedRMSD -1
REMARK  0 active torsions:
REMARK  status: ('A' for Active; 'I' for Inactive)
ROOT
ATOM      1  C   UNL d   1      -2.042  -1.485   0.382  0.00  0.00     0.020 A 
ATOM      2  C1  UNL d   1      -1.360  -2.700   0.434  0.00  0.00     0.020 A 
ATOM      3  C2  UNL d   1       0.031  -2.715   0.558  0.00  0.00     0.034 A 
ATOM      4  C3  UNL d   1       0.744  -1.514   0.630  0.00  0.00     0.017 A 
ATOM      5  C4  UNL d   1       0.059  -0.294   0.578  0.00  0.00     0.017 A 
ATOM      6  C5  UNL d   1      -1.334  -0.284   0.453  0.00  0.00     0.034 A 
ATOM      7 Cl   UNL d   1       0.871   1.229   0.661  0.00  0.00    -0.070 Cl
ATOM      8 Cl1  UNL d   1       2.463  -1.608   0.783  0.00  0.00    -0.070 Cl
ENDROOT
TORSDOF 0
ENDMDL
