MODEL 1
REMARK minimizedAffinity -1.76514554
REMARK minimizedRMSD -1
REMARK  0 active torsions:
REMARK  status: ('A' for Active; 'I' for Inactive)
ROOT
ATOM      1  C   UNL d   1       0.218   1.650   0.032  0.00  0.00     0.020 A 
ATOM      2  C1  UNL d   1      -0.083   0.357   0.460  0.00  0.00     0.020 A 
ATOM      3  C2  UNL d   1       0.935  -0.590   0.591  0.00  0.00     0.034 A 
ATOM      4  C3  UNL d   1       2.259  -0.246   0.294  0.00  0.00     0.017 A 
ATOM      5  C4  UNL d   1       2.560   1.052  -0.135  0.00  0.00     0.017 A 
ATOM      6  C5  UNL d   1       1.537   1.996  -0.264  0.00  0.00     0.034 A 
ATOM      7 Cl   UNL d   1       4.170   1.551  -0.520  0.00  0.00    -0.070 Cl
ATOM      8 Cl1  UNL d   1       3.467  -1.467   0.479  0.00  0.00    -0.070 Cl
ENDROOT
TORSDOF 0
ENDMDL
