MODEL 1
REMARK minimizedAffinity 10.9989738
REMARK minimizedRMSD -1
REMARK  0 active torsions:
REMARK  status: ('A' for Active; 'I' for Inactive)
ROOT
ATOM      1  C   UNL d   1       1.818  -0.887   0.364  0.00  0.00     0.020 A 
ATOM      2  C1  UNL d   1       2.936  -0.066   0.501  0.00  0.00     0.020 A 
ATOM      3  C2  UNL d   1       4.218  -0.611   0.405  0.00  0.00     0.034 A 
ATOM      4  C3  UNL d   1       4.385  -1.981   0.172  0.00  0.00     0.017 A 
ATOM      5  C4  UNL d   1       3.261  -2.804   0.035  0.00  0.00     0.017 A 
ATOM      6  C5  UNL d   1       1.980  -2.253   0.131  0.00  0.00     0.034 A 
ATOM      7 Cl   UNL d   1       3.387  -4.504  -0.255  0.00  0.00    -0.070 Cl
ATOM      8 Cl1  UNL d   1       5.999  -2.588   0.065  0.00  0.00    -0.070 Cl
ENDROOT
TORSDOF 0
ENDMDL
