MODEL 1
REMARK minimizedAffinity 11.4005165
REMARK minimizedRMSD -1
REMARK  0 active torsions:
REMARK  status: ('A' for Active; 'I' for Inactive)
ROOT
ATOM      1  C   UNL d   1      -2.174  -2.719   0.569  0.00  0.00     0.020 A 
ATOM      2  C1  UNL d   1      -3.015  -1.615   0.434  0.00  0.00     0.020 A 
ATOM      3  C2  UNL d   1      -2.574  -0.349   0.826  0.00  0.00     0.034 A 
ATOM      4  C3  UNL d   1      -1.289  -0.185   1.355  0.00  0.00     0.017 A 
ATOM      5  C4  UNL d   1      -0.446  -1.294   1.491  0.00  0.00     0.017 A 
ATOM      6  C5  UNL d   1      -0.893  -2.559   1.096  0.00  0.00     0.034 A 
ATOM      7 Cl   UNL d   1       1.153  -1.170   2.135  0.00  0.00    -0.070 Cl
ATOM      8 Cl1  UNL d   1      -0.809   1.409   1.820  0.00  0.00    -0.070 Cl
ENDROOT
TORSDOF 0
ENDMDL
