MODEL 1
REMARK minimizedAffinity 0.592246056
REMARK minimizedRMSD -1
REMARK  0 active torsions:
REMARK  status: ('A' for Active; 'I' for Inactive)
ROOT
ATOM      1  C   UNL d   1       4.367   4.203   2.822  0.00  0.00     0.020 A 
ATOM      2  C1  UNL d   1       5.020   4.982   1.868  0.00  0.00     0.020 A 
ATOM      3  C2  UNL d   1       5.335   4.439   0.620  0.00  0.00     0.034 A 
ATOM      4  C3  UNL d   1       4.997   3.114   0.323  0.00  0.00     0.017 A 
ATOM      5  C4  UNL d   1       4.341   2.333   1.281  0.00  0.00     0.017 A 
ATOM      6  C5  UNL d   1       4.028   2.881   2.529  0.00  0.00     0.034 A 
ATOM      7 Cl   UNL d   1       3.891   0.690   0.988  0.00  0.00    -0.070 Cl
ATOM      8 Cl1  UNL d   1       5.416   2.509  -1.240  0.00  0.00    -0.070 Cl
ENDROOT
TORSDOF 0
ENDMDL
