MODEL 1
REMARK minimizedAffinity -0.585614741
REMARK minimizedRMSD -1
REMARK  0 active torsions:
REMARK  status: ('A' for Active; 'I' for Inactive)
ROOT
ATOM      1  C1  BNZ d   1       3.721  -4.543  -0.434  0.00  0.00     0.000 A 
ATOM      2  C2  BNZ d   1       2.666  -3.715  -0.709  0.00  0.00     0.000 A 
ATOM      3  C3  BNZ d   1       2.274  -3.484  -1.998  0.00  0.00     0.000 A 
ATOM      4  C4  BNZ d   1       2.963  -4.049  -3.011  0.00  0.00     0.000 A 
ATOM      5  C5  BNZ d   1       4.035  -4.878  -2.751  0.00  0.00     0.000 A 
ATOM      6  C6  BNZ d   1       4.402  -5.139  -1.450  0.00  0.00     0.000 A 
ENDROOT
TORSDOF 0
ENDMDL
