MODEL 1
REMARK minimizedAffinity -2.26845407
REMARK minimizedRMSD -1
REMARK  0 active torsions:
REMARK  status: ('A' for Active; 'I' for Inactive)
ROOT
ATOM      1  C1  BNZ d   1       2.179  -2.964  -2.304  0.00  0.00     0.000 A 
ATOM      2  C2  BNZ d   1       2.459  -2.974  -3.645  0.00  0.00     0.000 A 
ATOM      3  C3  BNZ d   1       3.593  -3.572  -4.119  0.00  0.00     0.000 A 
ATOM      4  C4  BNZ d   1       4.464  -4.123  -3.249  0.00  0.00     0.000 A 
ATOM      5  C5  BNZ d   1       4.201  -4.113  -1.894  0.00  0.00     0.000 A 
ATOM      6  C6  BNZ d   1       3.039  -3.545  -1.424  0.00  0.00     0.000 A 
ENDROOT
TORSDOF 0
ENDMDL
