MODEL 1
REMARK minimizedAffinity -2.11050868
REMARK minimizedRMSD -1
REMARK  0 active torsions:
REMARK  status: ('A' for Active; 'I' for Inactive)
ROOT
ATOM      1  C1  BNZ d   1       3.777  -4.112  -0.976  0.00  0.00     0.000 A 
ATOM      2  C2  BNZ d   1       4.178  -4.455  -2.240  0.00  0.00     0.000 A 
ATOM      3  C3  BNZ d   1       3.630  -3.849  -3.336  0.00  0.00     0.000 A 
ATOM      4  C4  BNZ d   1       2.656  -2.932  -3.169  0.00  0.00     0.000 A 
ATOM      5  C5  BNZ d   1       2.234  -2.582  -1.902  0.00  0.00     0.000 A 
ATOM      6  C6  BNZ d   1       2.815  -3.166  -0.799  0.00  0.00     0.000 A 
ENDROOT
TORSDOF 0
ENDMDL
