MODEL 1
REMARK minimizedAffinity 2.06434321
REMARK minimizedRMSD -1
REMARK  0 active torsions:
REMARK  status: ('A' for Active; 'I' for Inactive)
ROOT
ATOM      1  C1  BNZ d   1       4.387  -5.196  -1.818  0.00  0.00     0.000 A 
ATOM      2  C2  BNZ d   1       3.769  -5.032  -3.030  0.00  0.00     0.000 A 
ATOM      3  C3  BNZ d   1       2.706  -4.184  -3.164  0.00  0.00     0.000 A 
ATOM      4  C4  BNZ d   1       2.236  -3.533  -2.080  0.00  0.00     0.000 A 
ATOM      5  C5  BNZ d   1       2.842  -3.695  -0.850  0.00  0.00     0.000 A 
ATOM      6  C6  BNZ d   1       3.937  -4.519  -0.727  0.00  0.00     0.000 A 
ENDROOT
TORSDOF 0
ENDMDL
