MODEL 1
REMARK minimizedAffinity -1.92988145
REMARK minimizedRMSD -1
REMARK  0 active torsions:
REMARK  status: ('A' for Active; 'I' for Inactive)
ROOT
ATOM      1  C1  BNZ d   1       4.053  -4.928  -1.826  0.00  0.00     0.000 A 
ATOM      2  C2  BNZ d   1       4.718  -5.057  -3.016  0.00  0.00     0.000 A 
ATOM      3  C3  BNZ d   1       4.254  -4.445  -4.147  0.00  0.00     0.000 A 
ATOM      4  C4  BNZ d   1       3.106  -3.740  -4.096  0.00  0.00     0.000 A 
ATOM      5  C5  BNZ d   1       2.418  -3.609  -2.906  0.00  0.00     0.000 A 
ATOM      6  C6  BNZ d   1       2.909  -4.194  -1.761  0.00  0.00     0.000 A 
ENDROOT
TORSDOF 0
ENDMDL
