MODEL 1
REMARK minimizedAffinity -1.6043371
REMARK minimizedRMSD -1
REMARK  0 active torsions:
REMARK  status: ('A' for Active; 'I' for Inactive)
ROOT
ATOM      1  C1  BNZ d   1      -5.999  -4.190   2.403  0.00  0.00     0.000 A 
ATOM      2  C2  BNZ d   1      -5.139  -5.228   2.649  0.00  0.00     0.000 A 
ATOM      3  C3  BNZ d   1      -4.280  -5.187   3.710  0.00  0.00     0.000 A 
ATOM      4  C4  BNZ d   1      -4.252  -4.095   4.500  0.00  0.00     0.000 A 
ATOM      5  C5  BNZ d   1      -5.106  -3.037   4.260  0.00  0.00     0.000 A 
ATOM      6  C6  BNZ d   1      -5.998  -3.097   3.214  0.00  0.00     0.000 A 
ENDROOT
TORSDOF 0
ENDMDL
