MODEL 1
REMARK minimizedAffinity 2.94470572
REMARK minimizedRMSD -1
REMARK  0 active torsions:
REMARK  status: ('A' for Active; 'I' for Inactive)
ROOT
ATOM      1  C1  BNZ d   1       3.693  -4.652  -3.968  0.00  0.00     0.000 A 
ATOM      2  C2  BNZ d   1       4.366  -5.166  -2.891  0.00  0.00     0.000 A 
ATOM      3  C3  BNZ d   1       3.845  -5.074  -1.631  0.00  0.00     0.000 A 
ATOM      4  C4  BNZ d   1       2.673  -4.434  -1.443  0.00  0.00     0.000 A 
ATOM      5  C5  BNZ d   1       1.987  -3.902  -2.517  0.00  0.00     0.000 A 
ATOM      6  C6  BNZ d   1       2.496  -4.031  -3.789  0.00  0.00     0.000 A 
ENDROOT
TORSDOF 0
ENDMDL
