MODEL 1
REMARK minimizedAffinity -2.54899073
REMARK minimizedRMSD -1
REMARK  0 active torsions:
REMARK  status: ('A' for Active; 'I' for Inactive)
ROOT
ATOM      1  C1  BNZ d   1      -5.074  -1.965   3.118  0.00  0.00     0.000 A 
ATOM      2  C2  BNZ d   1      -4.145  -2.802   3.678  0.00  0.00     0.000 A 
ATOM      3  C3  BNZ d   1      -4.122  -4.132   3.364  0.00  0.00     0.000 A 
ATOM      4  C4  BNZ d   1      -5.051  -4.631   2.523  0.00  0.00     0.000 A 
ATOM      5  C5  BNZ d   1      -6.000  -3.802   1.958  0.00  0.00     0.000 A 
ATOM      6  C6  BNZ d   1      -5.996  -2.456   2.246  0.00  0.00     0.000 A 
ENDROOT
TORSDOF 0
ENDMDL
