MODEL 1
REMARK minimizedAffinity 2.27502441
REMARK minimizedRMSD -1
REMARK  0 active torsions:
REMARK  status: ('A' for Active; 'I' for Inactive)
ROOT
ATOM      1  C1  BNZ d   1       4.014  -4.119  -4.048  0.00  0.00     0.000 A 
ATOM      2  C2  BNZ d   1       4.283  -4.819  -2.901  0.00  0.00     0.000 A 
ATOM      3  C3  BNZ d   1       3.450  -4.738  -1.820  0.00  0.00     0.000 A 
ATOM      4  C4  BNZ d   1       2.373  -3.927  -1.872  0.00  0.00     0.000 A 
ATOM      5  C5  BNZ d   1       2.094  -3.208  -3.017  0.00  0.00     0.000 A 
ATOM      6  C6  BNZ d   1       2.913  -3.322  -4.117  0.00  0.00     0.000 A 
ENDROOT
TORSDOF 0
ENDMDL
