MODEL 1
REMARK minimizedAffinity 6.05128717
REMARK minimizedRMSD -1
REMARK  0 active torsions:
REMARK  status: ('A' for Active; 'I' for Inactive)
ROOT
ATOM      1  C1  BNZ d   1       3.782  -4.982  -3.394  0.00  0.00     0.000 A 
ATOM      2  C2  BNZ d   1       3.055  -4.218  -4.267  0.00  0.00     0.000 A 
ATOM      3  C3  BNZ d   1       2.009  -3.455  -3.826  0.00  0.00     0.000 A 
ATOM      4  C4  BNZ d   1       1.668  -3.489  -2.522  0.00  0.00     0.000 A 
ATOM      5  C5  BNZ d   1       2.386  -4.262  -1.631  0.00  0.00     0.000 A 
ATOM      6  C6  BNZ d   1       3.462  -4.998  -2.072  0.00  0.00     0.000 A 
ENDROOT
TORSDOF 0
ENDMDL
