MODEL 1
REMARK minimizedAffinity 0.89281255
REMARK minimizedRMSD -1
REMARK  0 active torsions:
REMARK  status: ('A' for Active; 'I' for Inactive)
ROOT
ATOM      1  C1  BNZ d   1       3.736  -5.260  -1.841  0.00  0.00     0.000 A 
ATOM      2  C2  BNZ d   1       4.359  -5.098  -3.050  0.00  0.00     0.000 A 
ATOM      3  C3  BNZ d   1       3.717  -4.490  -4.092  0.00  0.00     0.000 A 
ATOM      4  C4  BNZ d   1       2.441  -4.081  -3.938  0.00  0.00     0.000 A 
ATOM      5  C5  BNZ d   1       1.796  -4.246  -2.728  0.00  0.00     0.000 A 
ATOM      6  C6  BNZ d   1       2.458  -4.823  -1.670  0.00  0.00     0.000 A 
ENDROOT
TORSDOF 0
ENDMDL
