MODEL 1
REMARK minimizedAffinity -0.938523114
REMARK minimizedRMSD -1
REMARK  0 active torsions:
REMARK  status: ('A' for Active; 'I' for Inactive)
ROOT
ATOM      1  C1  BNZ d   1       2.202  -3.558  -3.097  0.00  0.00     0.000 A 
ATOM      2  C2  BNZ d   1       3.403  -3.618  -2.442  0.00  0.00     0.000 A 
ATOM      3  C3  BNZ d   1       3.867  -4.800  -1.937  0.00  0.00     0.000 A 
ATOM      4  C4  BNZ d   1       3.112  -5.912  -2.052  0.00  0.00     0.000 A 
ATOM      5  C5  BNZ d   1       1.894  -5.866  -2.701  0.00  0.00     0.000 A 
ATOM      6  C6  BNZ d   1       1.448  -4.682  -3.242  0.00  0.00     0.000 A 
ENDROOT
TORSDOF 0
ENDMDL
