MODEL 1
REMARK minimizedAffinity 10.8129816
REMARK minimizedRMSD -1
REMARK  0 active torsions:
REMARK  status: ('A' for Active; 'I' for Inactive)
ROOT
ATOM      1  C1  BNZ d   1       0.500   5.934   0.364  0.00  0.00     0.000 A 
ATOM      2  C2  BNZ d   1       1.011   5.860  -0.905  0.00  0.00     0.000 A 
ATOM      3  C3  BNZ d   1       1.644   4.729  -1.339  0.00  0.00     0.000 A 
ATOM      4  C4  BNZ d   1       1.800   3.690  -0.494  0.00  0.00     0.000 A 
ATOM      5  C5  BNZ d   1       1.298   3.753   0.791  0.00  0.00     0.000 A 
ATOM      6  C6  BNZ d   1       0.628   4.878   1.213  0.00  0.00     0.000 A 
ENDROOT
TORSDOF 0
ENDMDL
