MODEL 1
REMARK minimizedAffinity 8.97783089
REMARK minimizedRMSD -1
REMARK  0 active torsions:
REMARK  status: ('A' for Active; 'I' for Inactive)
ROOT
ATOM      1  C1  BNZ d   1      -5.456  -3.539  -5.999  0.00  0.00     0.000 A 
ATOM      2  C2  BNZ d   1      -4.692  -2.403  -5.993  0.00  0.00     0.000 A 
ATOM      3  C3  BNZ d   1      -3.327  -2.477  -5.998  0.00  0.00     0.000 A 
ATOM      4  C4  BNZ d   1      -2.729  -3.686  -5.969  0.00  0.00     0.000 A 
ATOM      5  C5  BNZ d   1      -3.486  -4.840  -5.966  0.00  0.00     0.000 A 
ATOM      6  C6  BNZ d   1      -4.859  -4.762  -6.000  0.00  0.00     0.000 A 
ENDROOT
TORSDOF 0
ENDMDL
