MODEL 1
REMARK minimizedAffinity 12.8667231
REMARK minimizedRMSD -1
REMARK  0 active torsions:
REMARK  status: ('A' for Active; 'I' for Inactive)
ROOT
ATOM      1  C1  BNZ d   1      -3.442   2.679  -5.999  0.00  0.00     0.000 A 
ATOM      2  C2  BNZ d   1      -2.653   2.226  -4.976  0.00  0.00     0.000 A 
ATOM      3  C3  BNZ d   1      -2.320   3.046  -3.934  0.00  0.00     0.000 A 
ATOM      4  C4  BNZ d   1      -2.741   4.327  -3.937  0.00  0.00     0.000 A 
ATOM      5  C5  BNZ d   1      -3.529   4.801  -4.967  0.00  0.00     0.000 A 
ATOM      6  C6  BNZ d   1      -3.895   3.962  -5.994  0.00  0.00     0.000 A 
ENDROOT
TORSDOF 0
ENDMDL
