MODEL 1
REMARK minimizedAffinity 17.450058
REMARK minimizedRMSD -1
REMARK  0 active torsions:
REMARK  status: ('A' for Active; 'I' for Inactive)
ROOT
ATOM      1  C   UNL d   1       1.226   4.904   0.743  0.00  0.00     0.124 A 
ATOM      2  C1  UNL d   1       0.400   4.975  -0.370  0.00  0.00     0.062 A 
ATOM      3  C2  UNL d   1      -0.552   3.986  -0.599  0.00  0.00     0.162 A 
ATOM      4  C3  UNL d   1      -0.684   2.917   0.287  0.00  0.00    -0.034 A 
ATOM      5  C4  UNL d   1       0.151   2.852   1.404  0.00  0.00     0.162 A 
ATOM      6  C5  UNL d   1       1.101   3.843   1.629  0.00  0.00     0.062 A 
ATOM      7  F   UNL d   1       1.898   3.773   2.705  0.00  0.00    -0.097 F 
ATOM      8  F1  UNL d   1       0.051   1.838   2.276  0.00  0.00    -0.096 F 
ATOM      9  I   UNL d   1      -2.106   1.436  -0.053  0.00  0.00    -0.060 I 
ATOM     10  F2  UNL d   1      -1.337   4.080  -1.683  0.00  0.00    -0.096 F 
ATOM     11  F3  UNL d   1       0.520   5.999  -1.227  0.00  0.00    -0.097 F 
ATOM     12  F4  UNL d   1       2.142   5.857   0.961  0.00  0.00    -0.092 F 
ENDROOT
TORSDOF 0
ENDMDL
