MODEL 1
REMARK minimizedAffinity 26.856329
REMARK minimizedRMSD -1
REMARK  0 active torsions:
REMARK  status: ('A' for Active; 'I' for Inactive)
ROOT
ATOM      1  C   UNL d   1      -0.673   2.758   2.415  0.00  0.00     0.124 A 
ATOM      2  C1  UNL d   1       0.220   2.499   1.385  0.00  0.00     0.062 A 
ATOM      3  C2  UNL d   1       0.385   3.419   0.353  0.00  0.00     0.162 A 
ATOM      4  C3  UNL d   1      -0.345   4.608   0.348  0.00  0.00    -0.034 A 
ATOM      5  C4  UNL d   1      -1.242   4.861   1.387  0.00  0.00     0.162 A 
ATOM      6  C5  UNL d   1      -1.403   3.938   2.415  0.00  0.00     0.062 A 
ATOM      7  F   UNL d   1      -2.267   4.190   3.410  0.00  0.00    -0.097 F 
ATOM      8  F1  UNL d   1      -1.960   5.993   1.412  0.00  0.00    -0.096 F 
ATOM      9  I   UNL d   1      -0.102   5.986  -1.193  0.00  0.00    -0.060 I 
ATOM     10  F2  UNL d   1       1.255   3.143  -0.629  0.00  0.00    -0.096 F 
ATOM     11  F3  UNL d   1       0.926   1.359   1.382  0.00  0.00    -0.097 F 
ATOM     12  F4  UNL d   1      -0.830   1.871   3.406  0.00  0.00    -0.092 F 
ENDROOT
TORSDOF 0
ENDMDL
