MODEL 1
REMARK minimizedAffinity 15.3839169
REMARK minimizedRMSD -1
REMARK  0 active torsions:
REMARK  status: ('A' for Active; 'I' for Inactive)
ROOT
ATOM      1  C   UNL d   1       0.987  -0.099   1.071  0.00  0.00     0.124 A 
ATOM      2  C1  UNL d   1       0.057   0.645   1.783  0.00  0.00     0.062 A 
ATOM      3  C2  UNL d   1      -1.170   0.966   1.210  0.00  0.00     0.162 A 
ATOM      4  C3  UNL d   1      -1.476   0.541  -0.083  0.00  0.00    -0.034 A 
ATOM      5  C4  UNL d   1      -0.535  -0.207  -0.793  0.00  0.00     0.162 A 
ATOM      6  C5  UNL d   1       0.690  -0.524  -0.216  0.00  0.00     0.062 A 
ATOM      7  F   UNL d   1       1.587  -1.244  -0.906  0.00  0.00    -0.097 F 
ATOM      8  F1  UNL d   1      -0.797  -0.631  -2.039  0.00  0.00    -0.096 F 
ATOM      9  I   UNL d   1      -3.310   1.019  -0.943  0.00  0.00    -0.060 I 
ATOM     10  F2  UNL d   1      -2.050   1.687   1.922  0.00  0.00    -0.096 F 
ATOM     11  F3  UNL d   1       0.342   1.058   3.027  0.00  0.00    -0.097 F 
ATOM     12  F4  UNL d   1       2.167  -0.406   1.624  0.00  0.00    -0.092 F 
ENDROOT
TORSDOF 0
ENDMDL
