MODEL 1
REMARK minimizedAffinity 16.5159664
REMARK minimizedRMSD -1
REMARK  0 active torsions:
REMARK  status: ('A' for Active; 'I' for Inactive)
ROOT
ATOM      1  C   UNL d   1      -4.823  -0.682   3.857  0.00  0.00     0.124 A 
ATOM      2  C1  UNL d   1      -3.865  -1.668   4.045  0.00  0.00     0.062 A 
ATOM      3  C2  UNL d   1      -2.642  -1.592   3.385  0.00  0.00     0.162 A 
ATOM      4  C3  UNL d   1      -2.370  -0.524   2.530  0.00  0.00    -0.034 A 
ATOM      5  C4  UNL d   1      -3.339   0.464   2.344  0.00  0.00     0.162 A 
ATOM      6  C5  UNL d   1      -4.559   0.383   3.007  0.00  0.00     0.062 A 
ATOM      7  F   UNL d   1      -5.484   1.337   2.823  0.00  0.00    -0.097 F 
ATOM      8  F1  UNL d   1      -3.110   1.504   1.529  0.00  0.00    -0.096 F 
ATOM      9  I   UNL d   1      -0.542  -0.406   1.541  0.00  0.00    -0.060 I 
ATOM     10  F2  UNL d   1      -1.735  -2.559   3.586  0.00  0.00    -0.096 F 
ATOM     11  F3  UNL d   1      -4.118  -2.698   4.865  0.00  0.00    -0.097 F 
ATOM     12  F4  UNL d   1      -5.999  -0.759   4.492  0.00  0.00    -0.092 F 
ENDROOT
TORSDOF 0
ENDMDL
