MODEL 1
REMARK minimizedAffinity 21.0754471
REMARK minimizedRMSD -1
REMARK  0 active torsions:
REMARK  status: ('A' for Active; 'I' for Inactive)
ROOT
ATOM      1  C   UNL d   1      -0.158   0.825   0.947  0.00  0.00     0.124 A 
ATOM      2  C1  UNL d   1       0.737  -0.236   0.927  0.00  0.00     0.062 A 
ATOM      3  C2  UNL d   1       0.459  -1.372   0.173  0.00  0.00     0.162 A 
ATOM      4  C3  UNL d   1      -0.720  -1.454  -0.567  0.00  0.00    -0.034 A 
ATOM      5  C4  UNL d   1      -1.616  -0.384  -0.541  0.00  0.00     0.162 A 
ATOM      6  C5  UNL d   1      -1.333   0.750   0.214  0.00  0.00     0.062 A 
ATOM      7  F   UNL d   1      -2.199   1.774   0.232  0.00  0.00    -0.097 F 
ATOM      8  F1  UNL d   1      -2.759  -0.429  -1.241  0.00  0.00    -0.096 F 
ATOM      9  I   UNL d   1      -1.140  -3.152  -1.695  0.00  0.00    -0.060 I 
ATOM     10  F2  UNL d   1       1.342  -2.382   0.172  0.00  0.00    -0.096 F 
ATOM     11  F3  UNL d   1       1.873  -0.166   1.636  0.00  0.00    -0.097 F 
ATOM     12  F4  UNL d   1       0.112   1.917   1.674  0.00  0.00    -0.092 F 
ENDROOT
TORSDOF 0
ENDMDL
