MODEL 1
REMARK minimizedAffinity 13.6053009
REMARK minimizedRMSD -1
REMARK  0 active torsions:
REMARK  status: ('A' for Active; 'I' for Inactive)
ROOT
ATOM      1  C1  DEN d   1      -5.827   5.998   4.621  0.00  0.00     0.130 A 
ATOM      2  C2  DEN d   1      -5.999   5.532   5.994  0.00  0.00    -0.031 A 
ATOM      3  C3  DEN d   1      -5.950   4.056   5.985  0.00  0.00     0.027 A 
ATOM      4  C4  DEN d   1      -5.621   2.456   3.988  0.00  0.00     0.027 A 
ATOM      5  C5  DEN d   1      -5.444   2.385   2.624  0.00  0.00    -0.003 A 
ATOM      6  C6  DEN d   1      -5.416   3.502   1.832  0.00  0.00     0.001 A 
ATOM      7  C7  DEN d   1      -5.523   4.742   2.404  0.00  0.00     0.017 A 
ATOM      8  C8  DEN d   1      -5.709   4.822   3.778  0.00  0.00    -0.094 A 
ATOM      9  C9  DEN d   1      -5.722   3.681   4.563  0.00  0.00    -0.072 A 
ENDROOT
TORSDOF 0
ENDMDL
