MODEL 1
REMARK minimizedAffinity 11.5141315
REMARK minimizedRMSD -1
REMARK  0 active torsions:
REMARK  status: ('A' for Active; 'I' for Inactive)
ROOT
ATOM      1  C1  DEN d   1       2.907  -2.192  -2.636  0.00  0.00     0.130 A 
ATOM      2  C2  DEN d   1       2.233  -2.786  -3.788  0.00  0.00    -0.031 A 
ATOM      3  C3  DEN d   1       0.816  -2.373  -3.751  0.00  0.00     0.027 A 
ATOM      4  C4  DEN d   1      -0.393  -0.876  -2.033  0.00  0.00     0.027 A 
ATOM      5  C5  DEN d   1      -0.240  -0.149  -0.874  0.00  0.00    -0.003 A 
ATOM      6  C6  DEN d   1       0.954  -0.080  -0.208  0.00  0.00     0.001 A 
ATOM      7  C7  DEN d   1       2.055  -0.713  -0.721  0.00  0.00     0.017 A 
ATOM      8  C8  DEN d   1       1.907  -1.455  -1.885  0.00  0.00    -0.094 A 
ATOM      9  C9  DEN d   1       0.694  -1.502  -2.551  0.00  0.00    -0.072 A 
ENDROOT
TORSDOF 0
ENDMDL
