MODEL 1
REMARK minimizedAffinity 10.8047476
REMARK minimizedRMSD -1
REMARK  0 active torsions:
REMARK  status: ('A' for Active; 'I' for Inactive)
ROOT
ATOM      1  C1  DEN d   1      -0.426  -5.037  -0.290  0.00  0.00     0.130 A 
ATOM      2  C2  DEN d   1      -1.515  -4.838  -1.242  0.00  0.00    -0.031 A 
ATOM      3  C3  DEN d   1      -1.349  -3.503  -1.853  0.00  0.00     0.027 A 
ATOM      4  C4  DEN d   1       0.481  -1.738  -1.423  0.00  0.00     0.027 A 
ATOM      5  C5  DEN d   1       1.613  -1.450  -0.693  0.00  0.00    -0.003 A 
ATOM      6  C6  DEN d   1       2.121  -2.315   0.240  0.00  0.00     0.001 A 
ATOM      7  C7  DEN d   1       1.522  -3.531   0.434  0.00  0.00     0.017 A 
ATOM      8  C8  DEN d   1       0.376  -3.826  -0.292  0.00  0.00    -0.094 A 
ATOM      9  C9  DEN d   1      -0.115  -2.943  -1.239  0.00  0.00    -0.072 A 
ENDROOT
TORSDOF 0
ENDMDL
