MODEL 1
REMARK minimizedAffinity 20.2176895
REMARK minimizedRMSD -1
REMARK  0 active torsions:
REMARK  status: ('A' for Active; 'I' for Inactive)
ROOT
ATOM      1  C1  DEN d   1       2.773  -2.209   0.977  0.00  0.00     0.130 A 
ATOM      2  C2  DEN d   1       3.527  -1.166   0.287  0.00  0.00    -0.031 A 
ATOM      3  C3  DEN d   1       3.000  -1.057  -1.089  0.00  0.00     0.027 A 
ATOM      4  C4  DEN d   1       1.098  -2.392  -2.208  0.00  0.00     0.027 A 
ATOM      5  C5  DEN d   1       0.169  -3.393  -2.024  0.00  0.00    -0.003 A 
ATOM      6  C6  DEN d   1       0.067  -4.086  -0.847  0.00  0.00     0.001 A 
ATOM      7  C7  DEN d   1       0.878  -3.758   0.207  0.00  0.00     0.017 A 
ATOM      8  C8  DEN d   1       1.822  -2.755   0.026  0.00  0.00    -0.094 A 
ATOM      9  C9  DEN d   1       1.901  -2.057  -1.167  0.00  0.00    -0.072 A 
ENDROOT
TORSDOF 0
ENDMDL
