MODEL 1
REMARK minimizedAffinity 9.78989887
REMARK minimizedRMSD -1
REMARK  0 active torsions:
REMARK  status: ('A' for Active; 'I' for Inactive)
ROOT
ATOM      1  C1  DEN d   1       4.504   2.775   0.470  0.00  0.00     0.130 A 
ATOM      2  C2  DEN d   1       5.830   2.327   0.051  0.00  0.00    -0.031 A 
ATOM      3  C3  DEN d   1       5.743   0.890  -0.278  0.00  0.00     0.027 A 
ATOM      4  C4  DEN d   1       3.696  -0.675  -0.185  0.00  0.00     0.027 A 
ATOM      5  C5  DEN d   1       2.355  -0.753   0.121  0.00  0.00    -0.003 A 
ATOM      6  C6  DEN d   1       1.650   0.323   0.593  0.00  0.00     0.001 A 
ATOM      7  C7  DEN d   1       2.273   1.535   0.730  0.00  0.00     0.017 A 
ATOM      8  C8  DEN d   1       3.627   1.619   0.431  0.00  0.00    -0.094 A 
ATOM      9  C9  DEN d   1       4.319   0.524  -0.057  0.00  0.00    -0.072 A 
ENDROOT
TORSDOF 0
ENDMDL
