MODEL 1
REMARK minimizedAffinity 3.85490394
REMARK minimizedRMSD -1
REMARK  0 active torsions:
REMARK  status: ('A' for Active; 'I' for Inactive)
ROOT
ATOM      1  C1  DEN d   1       3.178   3.750   3.036  0.00  0.00     0.130 A 
ATOM      2  C2  DEN d   1       2.481   2.901   3.998  0.00  0.00    -0.031 A 
ATOM      3  C3  DEN d   1       3.062   3.151   5.333  0.00  0.00     0.027 A 
ATOM      4  C4  DEN d   1       4.961   4.764   5.999  0.00  0.00     0.027 A 
ATOM      5  C5  DEN d   1       5.869   5.686   5.527  0.00  0.00    -0.003 A 
ATOM      6  C6  DEN d   1       5.965   6.000   4.197  0.00  0.00     0.001 A 
ATOM      7  C7  DEN d   1       5.109   5.420   3.299  0.00  0.00     0.017 A 
ATOM      8  C8  DEN d   1       4.196   4.483   3.767  0.00  0.00    -0.094 A 
ATOM      9  C9  DEN d   1       4.106   4.189   5.116  0.00  0.00    -0.072 A 
ENDROOT
TORSDOF 0
ENDMDL
