MODEL 1
REMARK minimizedAffinity 11.1405869
REMARK minimizedRMSD -1
REMARK  0 active torsions:
REMARK  status: ('A' for Active; 'I' for Inactive)
ROOT
ATOM      1  C1  DEN d   1       3.598  -1.873  -0.162  0.00  0.00     0.130 A 
ATOM      2  C2  DEN d   1       2.153  -1.715  -0.307  0.00  0.00    -0.031 A 
ATOM      3  C3  DEN d   1       1.849  -0.270  -0.299  0.00  0.00     0.027 A 
ATOM      4  C4  DEN d   1       3.466   1.727  -0.081  0.00  0.00     0.027 A 
ATOM      5  C5  DEN d   1       4.785   2.092   0.076  0.00  0.00    -0.003 A 
ATOM      6  C6  DEN d   1       5.789   1.167   0.199  0.00  0.00     0.001 A 
ATOM      7  C7  DEN d   1       5.494  -0.168   0.121  0.00  0.00     0.017 A 
ATOM      8  C8  DEN d   1       4.166  -0.544  -0.031  0.00  0.00    -0.094 A 
ATOM      9  C9  DEN d   1       3.168   0.406  -0.166  0.00  0.00    -0.072 A 
ENDROOT
TORSDOF 0
ENDMDL
