MODEL 1
REMARK minimizedAffinity 15.1798239
REMARK minimizedRMSD -1
REMARK  0 active torsions:
REMARK  status: ('A' for Active; 'I' for Inactive)
ROOT
ATOM      1  C1  DEN d   1      -4.092   2.161   4.506  0.00  0.00     0.130 A 
ATOM      2  C2  DEN d   1      -5.037   1.351   5.270  0.00  0.00    -0.031 A 
ATOM      3  C3  DEN d   1      -5.952   2.266   5.982  0.00  0.00     0.027 A 
ATOM      4  C4  DEN d   1      -5.997   4.845   5.973  0.00  0.00     0.027 A 
ATOM      5  C5  DEN d   1      -5.384   5.977   5.483  0.00  0.00    -0.003 A 
ATOM      6  C6  DEN d   1      -4.285   5.917   4.668  0.00  0.00     0.001 A 
ATOM      7  C7  DEN d   1      -3.793   4.699   4.280  0.00  0.00     0.017 A 
ATOM      8  C8  DEN d   1      -4.401   3.553   4.776  0.00  0.00    -0.094 A 
ATOM      9  C9  DEN d   1      -5.518   3.634   5.590  0.00  0.00    -0.072 A 
ENDROOT
TORSDOF 0
ENDMDL
