MODEL 1
REMARK minimizedAffinity 18.7111683
REMARK minimizedRMSD -1
REMARK  0 active torsions:
REMARK  status: ('A' for Active; 'I' for Inactive)
ROOT
ATOM      1  C1  DEN d   1       1.898   1.583   3.240  0.00  0.00     0.130 A 
ATOM      2  C2  DEN d   1       2.132   3.013   3.420  0.00  0.00    -0.031 A 
ATOM      3  C3  DEN d   1       2.336   3.613   2.086  0.00  0.00     0.027 A 
ATOM      4  C4  DEN d   1       2.308   2.473  -0.228  0.00  0.00     0.027 A 
ATOM      5  C5  DEN d   1       2.161   1.272  -0.886  0.00  0.00    -0.003 A 
ATOM      6  C6  DEN d   1       1.952   0.095  -0.218  0.00  0.00     0.001 A 
ATOM      7  C7  DEN d   1       1.838   0.100   1.147  0.00  0.00     0.017 A 
ATOM      8  C8  DEN d   1       1.993   1.306   1.818  0.00  0.00    -0.094 A 
ATOM      9  C9  DEN d   1       2.192   2.487   1.124  0.00  0.00    -0.072 A 
ENDROOT
TORSDOF 0
ENDMDL
