MODEL 1
REMARK minimizedAffinity 1.66714752
REMARK minimizedRMSD -1
REMARK  0 active torsions:
REMARK  status: ('A' for Active; 'I' for Inactive)
ROOT
ATOM      1  C1  DEN d   1      -2.501   5.972   2.003  0.00  0.00     0.130 A 
ATOM      2  C2  DEN d   1      -3.051   5.922   0.651  0.00  0.00    -0.031 A 
ATOM      3  C3  DEN d   1      -4.524   5.909   0.757  0.00  0.00     0.027 A 
ATOM      4  C4  DEN d   1      -5.998   5.965   2.873  0.00  0.00     0.027 A 
ATOM      5  C5  DEN d   1      -5.985   5.999   4.250  0.00  0.00    -0.003 A 
ATOM      6  C6  DEN d   1      -4.819   5.991   4.969  0.00  0.00     0.001 A 
ATOM      7  C7  DEN d   1      -3.617   5.995   4.313  0.00  0.00     0.017 A 
ATOM      8  C8  DEN d   1      -3.622   5.954   2.925  0.00  0.00    -0.094 A 
ATOM      9  C9  DEN d   1      -4.811   5.974   2.216  0.00  0.00    -0.072 A 
ENDROOT
TORSDOF 0
ENDMDL
