MODEL 1
REMARK minimizedAffinity -4.69310474
REMARK minimizedRMSD -1
REMARK  1 active torsions:
REMARK  status: ('A' for Active; 'I' for Inactive)
REMARK    1  A    between atoms: C1_2  and  C2_3 
ROOT
ATOM      1  C2  UNL d   1      -0.171   0.616  -0.070  0.00  0.00    -0.081 A 
ATOM      2  C3  UNL d   1      -0.816   0.050   1.036  0.00  0.00     0.006 A 
ATOM      3  C4  UNL d   1      -0.964  -1.336   1.138  0.00  0.00     0.002 A 
ATOM      4  C5  UNL d   1      -0.462  -2.178   0.140  0.00  0.00    -0.080 A 
ATOM      5  C6  UNL d   1      -0.587  -3.668   0.252  0.00  0.00     0.076 C 
ATOM      6  C7  UNL d   1       0.167  -1.612  -0.974  0.00  0.00     0.002 A 
ATOM      7  C8  UNL d   1       0.314  -0.227  -1.076  0.00  0.00     0.006 A 
ENDROOT
BRANCH   1   8
ATOM      8  C1  UNL d   1       0.047   2.105  -0.152  0.00  0.00     0.054 C 
ATOM      9  C   UNL d   1       1.454   2.483   0.288  0.00  0.00     0.018 C 
ENDBRANCH   1   8
TORSDOF 1
ENDMDL
