MODEL 1
REMARK minimizedAffinity -1.25969183
REMARK minimizedRMSD -1
REMARK  1 active torsions:
REMARK  status: ('A' for Active; 'I' for Inactive)
REMARK    1  A    between atoms: C1_2  and  C2_3 
ROOT
ATOM      1  C2  UNL d   1       0.762   1.711  -0.010  0.00  0.00    -0.081 A 
ATOM      2  C3  UNL d   1      -0.039   1.038   0.920  0.00  0.00     0.006 A 
ATOM      3  C4  UNL d   1      -0.102  -0.358   0.921  0.00  0.00     0.002 A 
ATOM      4  C5  UNL d   1       0.641  -1.103  -0.001  0.00  0.00    -0.080 A 
ATOM      5  C6  UNL d   1       0.606  -2.602   0.010  0.00  0.00     0.076 C 
ATOM      6  C7  UNL d   1       1.429  -0.429  -0.941  0.00  0.00     0.002 A 
ATOM      7  C8  UNL d   1       1.491   0.966  -0.943  0.00  0.00     0.006 A 
ENDROOT
BRANCH   1   8
ATOM      8  C1  UNL d   1       0.883   3.213   0.028  0.00  0.00     0.054 C 
ATOM      9  C   UNL d   1       2.293   3.647   0.402  0.00  0.00     0.018 C 
ENDBRANCH   1   8
TORSDOF 1
ENDMDL
