MODEL 1
REMARK minimizedAffinity -0.319009781
REMARK minimizedRMSD -1
REMARK  1 active torsions:
REMARK  status: ('A' for Active; 'I' for Inactive)
REMARK    1  A    between atoms: C1_2  and  C2_3 
ROOT
ATOM      1  C2  UNL d   1       0.297   1.577  -0.020  0.00  0.00    -0.081 A 
ATOM      2  C3  UNL d   1      -0.378   0.744   0.881  0.00  0.00     0.006 A 
ATOM      3  C4  UNL d   1      -0.383  -0.641   0.699  0.00  0.00     0.002 A 
ATOM      4  C5  UNL d   1       0.293  -1.217  -0.382  0.00  0.00    -0.080 A 
ATOM      5  C6  UNL d   1       0.322  -2.704  -0.572  0.00  0.00     0.076 C 
ATOM      6  C7  UNL d   1       0.954  -0.384  -1.292  0.00  0.00     0.002 A 
ATOM      7  C8  UNL d   1       0.958   1.001  -1.111  0.00  0.00     0.006 A 
ENDROOT
BRANCH   1   8
ATOM      8  C1  UNL d   1       0.358   3.065   0.209  0.00  0.00     0.054 C 
ATOM      9  C   UNL d   1       1.769   3.513   0.563  0.00  0.00     0.018 C 
ENDBRANCH   1   8
TORSDOF 1
ENDMDL
