MODEL 1
REMARK minimizedAffinity -3.1682303
REMARK minimizedRMSD -1
REMARK  1 active torsions:
REMARK  status: ('A' for Active; 'I' for Inactive)
REMARK    1  A    between atoms: C1_2  and  C2_3 
ROOT
ATOM      1  C2  UNL d   1       1.008   0.931  -0.246  0.00  0.00    -0.081 A 
ATOM      2  C3  UNL d   1       0.020   0.952   0.746  0.00  0.00     0.006 A 
ATOM      3  C4  UNL d   1      -0.651  -0.220   1.102  0.00  0.00     0.002 A 
ATOM      4  C5  UNL d   1      -0.342  -1.433   0.478  0.00  0.00    -0.080 A 
ATOM      5  C6  UNL d   1      -1.034  -2.704   0.872  0.00  0.00     0.076 C 
ATOM      6  C7  UNL d   1       0.632  -1.451  -0.526  0.00  0.00     0.002 A 
ATOM      7  C8  UNL d   1       1.304  -0.279  -0.883  0.00  0.00     0.006 A 
ENDROOT
BRANCH   1   8
ATOM      8  C1  UNL d   1       1.779   2.181  -0.587  0.00  0.00     0.054 C 
ATOM      9  C   UNL d   1       2.097   2.992   0.661  0.00  0.00     0.018 C 
ENDBRANCH   1   8
TORSDOF 1
ENDMDL
