MODEL 1
REMARK minimizedAffinity -5.38683128
REMARK minimizedRMSD -1
REMARK  1 active torsions:
REMARK  status: ('A' for Active; 'I' for Inactive)
REMARK    1  A    between atoms: C1_2  and  C2_3 
ROOT
ATOM      1  C2  UNL d   1       0.205   0.768   0.111  0.00  0.00    -0.081 A 
ATOM      2  C3  UNL d   1      -0.584   0.137   1.080  0.00  0.00     0.006 A 
ATOM      3  C4  UNL d   1      -0.631  -1.257   1.157  0.00  0.00     0.002 A 
ATOM      4  C5  UNL d   1       0.116  -2.042   0.273  0.00  0.00    -0.080 A 
ATOM      5  C6  UNL d   1       0.098  -3.539   0.364  0.00  0.00     0.076 C 
ATOM      6  C7  UNL d   1       0.891  -1.412  -0.706  0.00  0.00     0.002 A 
ATOM      7  C8  UNL d   1       0.938  -0.019  -0.785  0.00  0.00     0.006 A 
ENDROOT
BRANCH   1   8
ATOM      8  C1  UNL d   1       0.309   2.271   0.067  0.00  0.00     0.054 C 
ATOM      9  C   UNL d   1       1.672   2.747   0.549  0.00  0.00     0.018 C 
ENDBRANCH   1   8
TORSDOF 1
ENDMDL
