MODEL 1
REMARK minimizedAffinity -4.0843873
REMARK minimizedRMSD -1
REMARK  1 active torsions:
REMARK  status: ('A' for Active; 'I' for Inactive)
REMARK    1  A    between atoms: C1_2  and  C2_3 
ROOT
ATOM      1  C2  UNL d   1       0.020  -1.217  -0.819  0.00  0.00    -0.081 A 
ATOM      2  C3  UNL d   1      -0.456  -2.223   0.031  0.00  0.00     0.006 A 
ATOM      3  C4  UNL d   1      -1.294  -1.906   1.103  0.00  0.00     0.002 A 
ATOM      4  C5  UNL d   1      -1.675  -0.581   1.339  0.00  0.00    -0.080 A 
ATOM      5  C6  UNL d   1      -2.598  -0.231   2.468  0.00  0.00     0.076 C 
ATOM      6  C7  UNL d   1      -1.185   0.426   0.501  0.00  0.00     0.002 A 
ATOM      7  C8  UNL d   1      -0.347   0.110  -0.571  0.00  0.00     0.006 A 
ENDROOT
BRANCH   1   8
ATOM      8  C1  UNL d   1       0.871  -1.563  -2.014  0.00  0.00     0.054 C 
ATOM      9  C   UNL d   1       0.470  -0.746  -3.234  0.00  0.00     0.018 C 
ENDBRANCH   1   8
TORSDOF 1
ENDMDL
