MODEL 1
REMARK minimizedAffinity -2.89711905
REMARK minimizedRMSD -1
REMARK  1 active torsions:
REMARK  status: ('A' for Active; 'I' for Inactive)
REMARK    1  A    between atoms: C1_2  and  C2_3 
ROOT
ATOM      1  C2  UNL d   1      -0.280   0.422  -0.006  0.00  0.00    -0.081 A 
ATOM      2  C3  UNL d   1      -0.959  -0.151   1.076  0.00  0.00     0.006 A 
ATOM      3  C4  UNL d   1      -0.852  -1.520   1.334  0.00  0.00     0.002 A 
ATOM      4  C5  UNL d   1      -0.059  -2.336   0.520  0.00  0.00    -0.080 A 
ATOM      5  C6  UNL d   1       0.088  -3.801   0.804  0.00  0.00     0.076 C 
ATOM      6  C7  UNL d   1       0.605  -1.766  -0.572  0.00  0.00     0.002 A 
ATOM      7  C8  UNL d   1       0.498  -0.398  -0.830  0.00  0.00     0.006 A 
ENDROOT
BRANCH   1   8
ATOM      8  C1  UNL d   1      -0.341   1.909  -0.248  0.00  0.00     0.054 C 
ATOM      9  C   UNL d   1       0.771   2.636   0.493  0.00  0.00     0.018 C 
ENDBRANCH   1   8
TORSDOF 1
ENDMDL
