MODEL 1
REMARK minimizedAffinity -4.14949226
REMARK minimizedRMSD -1
REMARK  1 active torsions:
REMARK  status: ('A' for Active; 'I' for Inactive)
REMARK    1  A    between atoms: C1_2  and  C2_3 
ROOT
ATOM      1  C2  UNL d   1      -0.115   0.805  -0.019  0.00  0.00    -0.081 A 
ATOM      2  C3  UNL d   1      -0.758   0.264   1.101  0.00  0.00     0.006 A 
ATOM      3  C4  UNL d   1      -0.757  -1.116   1.320  0.00  0.00     0.002 A 
ATOM      4  C5  UNL d   1      -0.107  -1.976   0.429  0.00  0.00    -0.080 A 
ATOM      5  C6  UNL d   1      -0.073  -3.456   0.669  0.00  0.00     0.076 C 
ATOM      6  C7  UNL d   1       0.521  -1.437  -0.699  0.00  0.00     0.002 A 
ATOM      7  C8  UNL d   1       0.520  -0.057  -0.920  0.00  0.00     0.006 A 
ENDROOT
BRANCH   1   8
ATOM      8  C1  UNL d   1      -0.059   2.297  -0.224  0.00  0.00     0.054 C 
ATOM      9  C   UNL d   1       1.257   2.876   0.277  0.00  0.00     0.018 C 
ENDBRANCH   1   8
TORSDOF 1
ENDMDL
