MODEL 1
REMARK minimizedAffinity -3.48203754
REMARK minimizedRMSD -1
REMARK  1 active torsions:
REMARK  status: ('A' for Active; 'I' for Inactive)
REMARK    1  A    between atoms: C1_2  and  C2_3 
ROOT
ATOM      1  C2  UNL d   1       0.519   1.682  -0.074  0.00  0.00    -0.081 A 
ATOM      2  C3  UNL d   1      -0.076   1.022  -1.155  0.00  0.00     0.006 A 
ATOM      3  C4  UNL d   1      -0.315  -0.353  -1.101  0.00  0.00     0.002 A 
ATOM      4  C5  UNL d   1       0.030  -1.089   0.038  0.00  0.00    -0.080 A 
ATOM      5  C6  UNL d   1      -0.249  -2.560   0.122  0.00  0.00     0.076 C 
ATOM      6  C7  UNL d   1       0.641  -0.432   1.112  0.00  0.00     0.002 A 
ATOM      7  C8  UNL d   1       0.880   0.942   1.058  0.00  0.00     0.006 A 
ENDROOT
BRANCH   1   8
ATOM      8  C1  UNL d   1       0.720   3.176  -0.104  0.00  0.00     0.054 C 
ATOM      9  C   UNL d   1       2.121   3.556   0.352  0.00  0.00     0.018 C 
ENDBRANCH   1   8
TORSDOF 1
ENDMDL
