MODEL 1
REMARK minimizedAffinity -4.56258297
REMARK minimizedRMSD -1
REMARK  1 active torsions:
REMARK  status: ('A' for Active; 'I' for Inactive)
REMARK    1  A    between atoms: C1_2  and  C2_3 
ROOT
ATOM      1  C2  UNL d   1      -0.187   1.280   0.018  0.00  0.00    -0.081 A 
ATOM      2  C3  UNL d   1      -1.146   0.828   0.932  0.00  0.00     0.006 A 
ATOM      3  C4  UNL d   1      -1.331  -0.540   1.147  0.00  0.00     0.002 A 
ATOM      4  C5  UNL d   1      -0.556  -1.477   0.456  0.00  0.00    -0.080 A 
ATOM      5  C6  UNL d   1      -0.724  -2.948   0.699  0.00  0.00     0.076 C 
ATOM      6  C7  UNL d   1       0.390  -1.027  -0.471  0.00  0.00     0.002 A 
ATOM      7  C8  UNL d   1       0.575   0.341  -0.686  0.00  0.00     0.006 A 
ENDROOT
BRANCH   1   8
ATOM      8  C1  UNL d   1       0.060   2.756  -0.168  0.00  0.00     0.054 C 
ATOM      9  C   UNL d   1       1.526   3.103   0.050  0.00  0.00     0.018 C 
ENDBRANCH   1   8
TORSDOF 1
ENDMDL
