MODEL 1
REMARK minimizedAffinity -3.94886231
REMARK minimizedRMSD -1
REMARK  1 active torsions:
REMARK  status: ('A' for Active; 'I' for Inactive)
REMARK    1  A    between atoms: C1_2  and  C2_3 
ROOT
ATOM      1  C2  UNL d   1       0.042   0.748   0.056  0.00  0.00    -0.081 A 
ATOM      2  C3  UNL d   1      -0.617   0.085   1.098  0.00  0.00     0.006 A 
ATOM      3  C4  UNL d   1      -0.486  -1.297   1.253  0.00  0.00     0.002 A 
ATOM      4  C5  UNL d   1       0.312  -2.037   0.374  0.00  0.00    -0.080 A 
ATOM      5  C6  UNL d   1       0.485  -3.517   0.548  0.00  0.00     0.076 C 
ATOM      6  C7  UNL d   1       0.957  -1.377  -0.677  0.00  0.00     0.002 A 
ATOM      7  C8  UNL d   1       0.826   0.004  -0.833  0.00  0.00     0.006 A 
ENDROOT
BRANCH   1   8
ATOM      8  C1  UNL d   1      -0.045   2.248  -0.075  0.00  0.00     0.054 C 
ATOM      9  C   UNL d   1       1.229   2.921   0.416  0.00  0.00     0.018 C 
ENDBRANCH   1   8
TORSDOF 1
ENDMDL
