MODEL 1
REMARK minimizedAffinity -2.82142019
REMARK minimizedRMSD -1
REMARK  1 active torsions:
REMARK  status: ('A' for Active; 'I' for Inactive)
REMARK    1  A    between atoms: C1_2  and  C2_3 
ROOT
ATOM      1  C2  UNL d   1       0.136   0.993   0.545  0.00  0.00    -0.081 A 
ATOM      2  C3  UNL d   1      -0.688   0.277   1.423  0.00  0.00     0.006 A 
ATOM      3  C4  UNL d   1      -0.865  -1.099   1.264  0.00  0.00     0.002 A 
ATOM      4  C5  UNL d   1      -0.216  -1.784   0.232  0.00  0.00    -0.080 A 
ATOM      5  C6  UNL d   1      -0.373  -3.267   0.070  0.00  0.00     0.076 C 
ATOM      6  C7  UNL d   1       0.594  -1.067  -0.655  0.00  0.00     0.002 A 
ATOM      7  C8  UNL d   1       0.771   0.309  -0.497  0.00  0.00     0.006 A 
ENDROOT
BRANCH   1   8
ATOM      8  C1  UNL d   1       0.380   2.466   0.752  0.00  0.00     0.054 C 
ATOM      9  C   UNL d   1       1.869   2.773   0.838  0.00  0.00     0.018 C 
ENDBRANCH   1   8
TORSDOF 1
ENDMDL
