MODEL 1
REMARK minimizedAffinity -2.91504478
REMARK minimizedRMSD -1
REMARK  1 active torsions:
REMARK  status: ('A' for Active; 'I' for Inactive)
REMARK    1  A    between atoms: C1_2  and  C2_3 
ROOT
ATOM      1  C2  UNL d   1       0.156   1.479   0.254  0.00  0.00    -0.081 A 
ATOM      2  C3  UNL d   1      -0.731   1.020   1.235  0.00  0.00     0.006 A 
ATOM      3  C4  UNL d   1      -0.982  -0.346   1.379  0.00  0.00     0.002 A 
ATOM      4  C5  UNL d   1      -0.346  -1.276   0.550  0.00  0.00    -0.080 A 
ATOM      5  C6  UNL d   1      -0.584  -2.748   0.714  0.00  0.00     0.076 C 
ATOM      6  C7  UNL d   1       0.527  -0.817  -0.441  0.00  0.00     0.002 A 
ATOM      7  C8  UNL d   1       0.779   0.549  -0.586  0.00  0.00     0.006 A 
ENDROOT
BRANCH   1   8
ATOM      8  C1  UNL d   1       0.479   2.947   0.139  0.00  0.00     0.054 C 
ATOM      9  C   UNL d   1       1.620   3.337   1.067  0.00  0.00     0.018 C 
ENDBRANCH   1   8
TORSDOF 1
ENDMDL
