MODEL 1
REMARK minimizedAffinity -1.87398469
REMARK minimizedRMSD -1
REMARK  0 active torsions:
REMARK  status: ('A' for Active; 'I' for Inactive)
ROOT
ATOM      1  C   UNL d   1      -2.953   2.287  -5.994  0.00  0.00    -0.002 A 
ATOM      2  C1  UNL d   1      -4.326   2.492  -5.993  0.00  0.00     0.010 A 
ATOM      3  C2  UNL d   1      -5.206   1.408  -5.995  0.00  0.00     0.041 A 
ATOM      4  C3  UNL d   1      -4.678   0.102  -5.997  0.00  0.00    -0.075 A 
ATOM      5  S   UNL d   1      -5.564  -1.377  -5.998  0.00  0.00     0.015 SA
ATOM      6  C4  UNL d   1      -4.141  -2.316  -6.000  0.00  0.00     0.022 A 
ATOM      7  C5  UNL d   1      -3.009  -1.536  -6.000  0.00  0.00     0.026 A 
ATOM      8  C6  UNL d   1      -3.300  -0.130  -5.997  0.00  0.00    -0.082 A 
ATOM      9  C7  UNL d   1      -2.434   0.990  -5.996  0.00  0.00     0.045 A 
ENDROOT
TORSDOF 0
ENDMDL
