MODEL 1
REMARK minimizedAffinity 4.49207926
REMARK minimizedRMSD -1
REMARK  0 active torsions:
REMARK  status: ('A' for Active; 'I' for Inactive)
ROOT
ATOM      1  C   UNL d   1      -0.663  -1.391  -1.384  0.00  0.00    -0.002 A 
ATOM      2  C1  UNL d   1      -0.993  -1.221  -0.047  0.00  0.00     0.010 A 
ATOM      3  C2  UNL d   1      -0.387  -0.218   0.712  0.00  0.00     0.041 A 
ATOM      4  C3  UNL d   1       0.564   0.621   0.099  0.00  0.00    -0.075 A 
ATOM      5  S   UNL d   1       1.433   1.917   0.832  0.00  0.00     0.015 SA
ATOM      6  C4  UNL d   1       2.262   2.277  -0.613  0.00  0.00     0.022 A 
ATOM      7  C5  UNL d   1       1.897   1.439  -1.640  0.00  0.00     0.026 A 
ATOM      8  C6  UNL d   1       0.912   0.471  -1.247  0.00  0.00    -0.082 A 
ATOM      9  C7  UNL d   1       0.281  -0.556  -1.989  0.00  0.00     0.045 A 
ENDROOT
TORSDOF 0
ENDMDL
