MODEL 1
REMARK minimizedAffinity 3.03955078
REMARK minimizedRMSD -1
REMARK  0 active torsions:
REMARK  status: ('A' for Active; 'I' for Inactive)
ROOT
ATOM      1  C   UNL d   1      -4.561   5.315  -5.963  0.00  0.00    -0.002 A 
ATOM      2  C1  UNL d   1      -5.822   4.735  -5.967  0.00  0.00     0.010 A 
ATOM      3  C2  UNL d   1      -5.965   3.346  -5.979  0.00  0.00     0.041 A 
ATOM      4  C3  UNL d   1      -4.809   2.542  -5.985  0.00  0.00    -0.075 A 
ATOM      5  S   UNL d   1      -4.740   0.819  -5.999  0.00  0.00     0.015 SA
ATOM      6  C4  UNL d   1      -3.036   0.813  -6.000  0.00  0.00     0.022 A 
ATOM      7  C5  UNL d   1      -2.515   2.085  -5.990  0.00  0.00     0.026 A 
ATOM      8  C6  UNL d   1      -3.528   3.103  -5.981  0.00  0.00    -0.082 A 
ATOM      9  C7  UNL d   1      -3.416   4.514  -5.970  0.00  0.00     0.045 A 
ENDROOT
TORSDOF 0
ENDMDL
