MODEL 1
REMARK minimizedAffinity -1.29166067
REMARK minimizedRMSD -1
REMARK  0 active torsions:
REMARK  status: ('A' for Active; 'I' for Inactive)
ROOT
ATOM      1  C   UNL d   1      -2.694   1.579  -5.985  0.00  0.00    -0.002 A 
ATOM      2  C1  UNL d   1      -3.996   1.099  -5.991  0.00  0.00     0.010 A 
ATOM      3  C2  UNL d   1      -5.078   1.982  -5.994  0.00  0.00     0.041 A 
ATOM      4  C3  UNL d   1      -4.828   3.368  -5.994  0.00  0.00    -0.075 A 
ATOM      5  S   UNL d   1      -5.996   4.636  -5.999  0.00  0.00     0.015 SA
ATOM      6  C4  UNL d   1      -4.794   5.844  -5.994  0.00  0.00     0.022 A 
ATOM      7  C5  UNL d   1      -3.527   5.311  -5.989  0.00  0.00     0.026 A 
ATOM      8  C6  UNL d   1      -3.525   3.875  -5.989  0.00  0.00    -0.082 A 
ATOM      9  C7  UNL d   1      -2.449   2.955  -5.985  0.00  0.00     0.045 A 
ENDROOT
TORSDOF 0
ENDMDL
