MODEL 1
REMARK minimizedAffinity 6.60052204
REMARK minimizedRMSD -1
REMARK  0 active torsions:
REMARK  status: ('A' for Active; 'I' for Inactive)
ROOT
ATOM      1  C   UNL d   1      -4.855   1.912  -5.981  0.00  0.00    -0.002 A 
ATOM      2  C1  UNL d   1      -3.491   1.680  -5.874  0.00  0.00     0.010 A 
ATOM      3  C2  UNL d   1      -2.997   0.377  -5.781  0.00  0.00     0.041 A 
ATOM      4  C3  UNL d   1      -3.906  -0.699  -5.800  0.00  0.00    -0.075 A 
ATOM      5  S   UNL d   1      -3.531  -2.379  -5.700  0.00  0.00     0.015 SA
ATOM      6  C4  UNL d   1      -5.172  -2.828  -5.798  0.00  0.00     0.022 A 
ATOM      7  C5  UNL d   1      -6.000  -1.735  -5.905  0.00  0.00     0.026 A 
ATOM      8  C6  UNL d   1      -5.284  -0.490  -5.908  0.00  0.00    -0.082 A 
ATOM      9  C7  UNL d   1      -5.753   0.842  -6.000  0.00  0.00     0.045 A 
ENDROOT
TORSDOF 0
ENDMDL
