MODEL 1
REMARK minimizedAffinity 1.7696538
REMARK minimizedRMSD -1
REMARK  0 active torsions:
REMARK  status: ('A' for Active; 'I' for Inactive)
ROOT
ATOM      1  C   UNL d   1      -4.900   5.907  -5.921  0.00  0.00    -0.002 A 
ATOM      2  C1  UNL d   1      -5.999   5.060  -5.947  0.00  0.00     0.010 A 
ATOM      3  C2  UNL d   1      -5.828   3.674  -5.955  0.00  0.00     0.041 A 
ATOM      4  C3  UNL d   1      -4.521   3.149  -5.934  0.00  0.00    -0.075 A 
ATOM      5  S   UNL d   1      -4.070   1.485  -5.937  0.00  0.00     0.015 SA
ATOM      6  C4  UNL d   1      -2.407   1.859  -5.903  0.00  0.00     0.022 A 
ATOM      7  C5  UNL d   1      -2.184   3.216  -5.889  0.00  0.00     0.026 A 
ATOM      8  C6  UNL d   1      -3.399   3.982  -5.906  0.00  0.00    -0.082 A 
ATOM      9  C7  UNL d   1      -3.605   5.382  -5.900  0.00  0.00     0.045 A 
ENDROOT
TORSDOF 0
ENDMDL
