MODEL 1
REMARK minimizedAffinity -1.12668812
REMARK minimizedRMSD -1
REMARK  0 active torsions:
REMARK  status: ('A' for Active; 'I' for Inactive)
ROOT
ATOM      1  C   UNL d   1      -4.353  -0.320  -5.996  0.00  0.00    -0.002 A 
ATOM      2  C1  UNL d   1      -3.032   0.105  -6.000  0.00  0.00     0.010 A 
ATOM      3  C2  UNL d   1      -2.725   1.467  -5.999  0.00  0.00     0.041 A 
ATOM      4  C3  UNL d   1      -3.777   2.403  -5.992  0.00  0.00    -0.075 A 
ATOM      5  S   UNL d   1      -3.640   4.122  -5.989  0.00  0.00     0.015 SA
ATOM      6  C4  UNL d   1      -5.331   4.332  -5.982  0.00  0.00     0.022 A 
ATOM      7  C5  UNL d   1      -6.000   3.131  -5.982  0.00  0.00     0.026 A 
ATOM      8  C6  UNL d   1      -5.115   1.999  -5.988  0.00  0.00    -0.082 A 
ATOM      9  C7  UNL d   1      -5.394   0.611  -5.990  0.00  0.00     0.045 A 
ENDROOT
TORSDOF 0
ENDMDL
