MODEL 1
REMARK minimizedAffinity 8.30762291
REMARK minimizedRMSD -1
REMARK  0 active torsions:
REMARK  status: ('A' for Active; 'I' for Inactive)
ROOT
ATOM      1  C   UNL d   1      -1.546   1.139  -5.987  0.00  0.00    -0.002 A 
ATOM      2  C1  UNL d   1      -2.624   0.265  -5.997  0.00  0.00     0.010 A 
ATOM      3  C2  UNL d   1      -3.932   0.751  -5.999  0.00  0.00     0.041 A 
ATOM      4  C3  UNL d   1      -4.142   2.144  -5.993  0.00  0.00    -0.075 A 
ATOM      5  S   UNL d   1      -5.656   2.968  -5.995  0.00  0.00     0.015 SA
ATOM      6  C4  UNL d   1      -4.908   4.499  -5.985  0.00  0.00     0.022 A 
ATOM      7  C5  UNL d   1      -3.537   4.403  -5.979  0.00  0.00     0.026 A 
ATOM      8  C6  UNL d   1      -3.072   3.044  -5.985  0.00  0.00    -0.082 A 
ATOM      9  C7  UNL d   1      -1.757   2.520  -5.982  0.00  0.00     0.045 A 
ENDROOT
TORSDOF 0
ENDMDL
