MODEL 1
REMARK minimizedAffinity -2.06264544
REMARK minimizedRMSD -1
REMARK  0 active torsions:
REMARK  status: ('A' for Active; 'I' for Inactive)
ROOT
ATOM      1  C   UNL d   1      -3.085  -1.004  -5.998  0.00  0.00    -0.002 A 
ATOM      2  C1  UNL d   1      -4.473  -1.016  -5.997  0.00  0.00     0.010 A 
ATOM      3  C2  UNL d   1      -5.193   0.180  -5.987  0.00  0.00     0.041 A 
ATOM      4  C3  UNL d   1      -4.489   1.400  -5.979  0.00  0.00    -0.075 A 
ATOM      5  S   UNL d   1      -5.160   2.988  -5.967  0.00  0.00     0.015 SA
ATOM      6  C4  UNL d   1      -3.621   3.720  -5.965  0.00  0.00     0.022 A 
ATOM      7  C5  UNL d   1      -2.608   2.790  -5.972  0.00  0.00     0.026 A 
ATOM      8  C6  UNL d   1      -3.092   1.438  -5.982  0.00  0.00    -0.082 A 
ATOM      9  C7  UNL d   1      -2.390   0.208  -5.991  0.00  0.00     0.045 A 
ENDROOT
TORSDOF 0
ENDMDL
