MODEL 1
REMARK minimizedAffinity 1.18604898
REMARK minimizedRMSD -1
REMARK  0 active torsions:
REMARK  status: ('A' for Active; 'I' for Inactive)
ROOT
ATOM      1  C   UNL d   1      -4.399   2.939  -5.933  0.00  0.00    -0.002 A 
ATOM      2  C1  UNL d   1      -3.073   2.531  -5.972  0.00  0.00     0.010 A 
ATOM      3  C2  UNL d   1      -2.748   1.173  -5.994  0.00  0.00     0.041 A 
ATOM      4  C3  UNL d   1      -3.788   0.223  -5.977  0.00  0.00    -0.075 A 
ATOM      5  S   UNL d   1      -3.628  -1.493  -5.999  0.00  0.00     0.015 SA
ATOM      6  C4  UNL d   1      -5.316  -1.726  -5.958  0.00  0.00     0.022 A 
ATOM      7  C5  UNL d   1      -6.000  -0.534  -5.928  0.00  0.00     0.026 A 
ATOM      8  C6  UNL d   1      -5.131   0.609  -5.939  0.00  0.00    -0.082 A 
ATOM      9  C7  UNL d   1      -5.428   1.993  -5.917  0.00  0.00     0.045 A 
ENDROOT
TORSDOF 0
ENDMDL
