MODEL 1
REMARK minimizedAffinity -2.9821763
REMARK minimizedRMSD -1
REMARK  0 active torsions:
REMARK  status: ('A' for Active; 'I' for Inactive)
ROOT
ATOM      1  C   UNL d   1      -2.548  -0.047  -6.000  0.00  0.00    -0.002 A 
ATOM      2  C1  UNL d   1      -3.892  -0.391  -6.000  0.00  0.00     0.010 A 
ATOM      3  C2  UNL d   1      -4.879   0.597  -5.995  0.00  0.00     0.041 A 
ATOM      4  C3  UNL d   1      -4.487   1.951  -5.993  0.00  0.00    -0.075 A 
ATOM      5  S   UNL d   1      -5.519   3.331  -5.989  0.00  0.00     0.015 SA
ATOM      6  C4  UNL d   1      -4.200   4.411  -5.988  0.00  0.00     0.022 A 
ATOM      7  C5  UNL d   1      -2.994   3.751  -5.991  0.00  0.00     0.026 A 
ATOM      8  C6  UNL d   1      -3.139   2.322  -5.994  0.00  0.00    -0.082 A 
ATOM      9  C7  UNL d   1      -2.164   1.296  -5.997  0.00  0.00     0.045 A 
ENDROOT
TORSDOF 0
ENDMDL
