MODEL 1
REMARK minimizedAffinity -1.56454515
REMARK minimizedRMSD -1
REMARK  0 active torsions:
REMARK  status: ('A' for Active; 'I' for Inactive)
ROOT
ATOM      1  C   UNL d   1      -5.960   4.460  -5.883  0.00  0.00    -0.002 A 
ATOM      2  C1  UNL d   1      -5.460   5.739  -5.681  0.00  0.00     0.010 A 
ATOM      3  C2  UNL d   1      -4.084   5.957  -5.590  0.00  0.00     0.041 A 
ATOM      4  C3  UNL d   1      -3.211   4.858  -5.709  0.00  0.00    -0.075 A 
ATOM      5  S   UNL d   1      -1.489   4.886  -5.630  0.00  0.00     0.015 SA
ATOM      6  C4  UNL d   1      -1.376   3.202  -5.864  0.00  0.00     0.022 A 
ATOM      7  C5  UNL d   1      -2.613   2.616  -6.000  0.00  0.00     0.026 A 
ATOM      8  C6  UNL d   1      -3.690   3.561  -5.913  0.00  0.00    -0.082 A 
ATOM      9  C7  UNL d   1      -5.091   3.373  -6.000  0.00  0.00     0.045 A 
ENDROOT
TORSDOF 0
ENDMDL
