MODEL 1
REMARK minimizedAffinity 9.61676311
REMARK minimizedRMSD -1
REMARK  0 active torsions:
REMARK  status: ('A' for Active; 'I' for Inactive)
ROOT
ATOM      1  C   UNL d   1      -0.307  -1.617  -2.445  0.00  0.00    -0.002 A 
ATOM      2  C1  UNL d   1       0.748  -0.957  -3.059  0.00  0.00     0.010 A 
ATOM      3  C2  UNL d   1       1.525  -0.042  -2.345  0.00  0.00     0.041 A 
ATOM      4  C3  UNL d   1       1.222   0.199  -0.991  0.00  0.00    -0.075 A 
ATOM      5  S   UNL d   1       2.037   1.275   0.081  0.00  0.00     0.015 SA
ATOM      6  C4  UNL d   1       1.005   0.883   1.379  0.00  0.00     0.022 A 
ATOM      7  C5  UNL d   1       0.055  -0.044   1.021  0.00  0.00     0.026 A 
ATOM      8  C6  UNL d   1       0.165  -0.455  -0.350  0.00  0.00    -0.082 A 
ATOM      9  C7  UNL d   1      -0.605  -1.376  -1.101  0.00  0.00     0.045 A 
ENDROOT
TORSDOF 0
ENDMDL
