MODEL 1
REMARK minimizedAffinity 3.59308195
REMARK minimizedRMSD -1
REMARK  0 active torsions:
REMARK  status: ('A' for Active; 'I' for Inactive)
ROOT
ATOM      1  C   UNL d   1      -0.008  -0.900  -1.816  0.00  0.00    -0.002 A 
ATOM      2  C1  UNL d   1       1.186  -0.681  -2.486  0.00  0.00     0.010 A 
ATOM      3  C2  UNL d   1       2.116   0.240  -2.000  0.00  0.00     0.041 A 
ATOM      4  C3  UNL d   1       1.821   0.943  -0.815  0.00  0.00    -0.075 A 
ATOM      5  S   UNL d   1       2.809   2.119  -0.032  0.00  0.00     0.015 SA
ATOM      6  C4  UNL d   1       1.669   2.358   1.212  0.00  0.00     0.022 A 
ATOM      7  C5  UNL d   1       0.556   1.568   1.050  0.00  0.00     0.026 A 
ATOM      8  C6  UNL d   1       0.625   0.739  -0.121  0.00  0.00    -0.082 A 
ATOM      9  C7  UNL d   1      -0.297  -0.201  -0.641  0.00  0.00     0.045 A 
ENDROOT
TORSDOF 0
ENDMDL
