MODEL 1
REMARK minimizedAffinity -2.76855636
REMARK minimizedRMSD -1
REMARK  1 active torsions:
REMARK  status: ('A' for Active; 'I' for Inactive)
REMARK    1  A    between atoms: C3_4  and  O_7 
ROOT
ATOM      1  C   UNL d   1      -0.668   0.001   0.768  0.00  0.00    -0.033 A 
ATOM      2  C1  UNL d   1       0.194   1.048   1.100  0.00  0.00     0.039 A 
ATOM      3  C2  UNL d   1       1.541   0.790   1.362  0.00  0.00    -0.080 A 
ATOM      4  C3  UNL d   1       2.013  -0.517   1.288  0.00  0.00     0.150 A 
ATOM      5  C4  UNL d   1       1.161  -1.565   0.954  0.00  0.00    -0.007 A 
ATOM      6  C5  UNL d   1      -0.184  -1.306   0.693  0.00  0.00     0.039 A 
ENDROOT
BRANCH   4   7
ATOM      7  O   UNL d   1       3.318  -0.819   1.541  0.00  0.00    -0.526 OA
ATOM      8  H5  UNL d   1       3.781  -0.001   1.786  0.00  0.00     0.418 HD
ENDBRANCH   4   7
TORSDOF 1
ENDMDL
