MODEL 1
REMARK minimizedAffinity -5.35287857
REMARK minimizedRMSD -1
REMARK  1 active torsions:
REMARK  status: ('A' for Active; 'I' for Inactive)
REMARK    1  A    between atoms: C3_4  and  O_7 
ROOT
ATOM      1  C   UNL d   1       2.392   0.682   0.806  0.00  0.00    -0.033 A 
ATOM      2  C1  UNL d   1       2.828  -0.443   1.509  0.00  0.00     0.039 A 
ATOM      3  C2  UNL d   1       1.940  -1.485   1.783  0.00  0.00    -0.080 A 
ATOM      4  C3  UNL d   1       0.621  -1.390   1.348  0.00  0.00     0.150 A 
ATOM      5  C4  UNL d   1       0.181  -0.275   0.644  0.00  0.00    -0.007 A 
ATOM      6  C5  UNL d   1       1.069   0.765   0.372  0.00  0.00     0.039 A 
ENDROOT
BRANCH   4   7
ATOM      7  O   UNL d   1      -0.283  -2.380   1.596  0.00  0.00    -0.526 OA
ATOM      8  H5  UNL d   1       0.155  -3.074   2.116  0.00  0.00     0.418 HD
ENDBRANCH   4   7
TORSDOF 1
ENDMDL
