MODEL 1
REMARK minimizedAffinity -1.58954573
REMARK minimizedRMSD -1
REMARK  1 active torsions:
REMARK  status: ('A' for Active; 'I' for Inactive)
REMARK    1  A    between atoms: C3_4  and  O_7 
ROOT
ATOM      1  C   UNL d   1       2.691   2.122   2.495  0.00  0.00    -0.033 A 
ATOM      2  C1  UNL d   1       2.560   1.200   1.456  0.00  0.00     0.039 A 
ATOM      3  C2  UNL d   1       2.220  -0.126   1.734  0.00  0.00    -0.080 A 
ATOM      4  C3  UNL d   1       2.013  -0.515   3.055  0.00  0.00     0.150 A 
ATOM      5  C4  UNL d   1       2.138   0.400   4.095  0.00  0.00    -0.007 A 
ATOM      6  C5  UNL d   1       2.479   1.722   3.815  0.00  0.00     0.039 A 
ENDROOT
BRANCH   4   7
ATOM      7  O   UNL d   1       1.685  -1.798   3.376  0.00  0.00    -0.526 OA
ATOM      8  H5  UNL d   1       1.662  -2.324   2.559  0.00  0.00     0.418 HD
ENDBRANCH   4   7
TORSDOF 1
ENDMDL
