MODEL 1
REMARK minimizedAffinity 5.03008509
REMARK minimizedRMSD -1
REMARK  1 active torsions:
REMARK  status: ('A' for Active; 'I' for Inactive)
REMARK    1  A    between atoms: C3_4  and  O_7 
ROOT
ATOM      1  C   UNL d   1       1.741  -2.567   4.281  0.00  0.00    -0.033 A 
ATOM      2  C1  UNL d   1       2.410  -3.346   5.226  0.00  0.00     0.039 A 
ATOM      3  C2  UNL d   1       3.771  -3.618   5.072  0.00  0.00    -0.080 A 
ATOM      4  C3  UNL d   1       4.450  -3.105   3.970  0.00  0.00     0.150 A 
ATOM      5  C4  UNL d   1       3.790  -2.325   3.026  0.00  0.00    -0.007 A 
ATOM      6  C5  UNL d   1       2.431  -2.055   3.181  0.00  0.00     0.039 A 
ENDROOT
BRANCH   4   7
ATOM      7  O   UNL d   1       5.777  -3.348   3.774  0.00  0.00    -0.526 OA
ATOM      8  H5  UNL d   1       6.093  -3.924   4.490  0.00  0.00     0.418 HD
ENDBRANCH   4   7
TORSDOF 1
ENDMDL
