MODEL 1
REMARK minimizedAffinity 6.90319586
REMARK minimizedRMSD -1
REMARK  1 active torsions:
REMARK  status: ('A' for Active; 'I' for Inactive)
REMARK    1  A    between atoms: C3_4  and  O_7 
ROOT
ATOM      1  C   UNL d   1      -6.000   4.170   0.048  0.00  0.00    -0.033 A 
ATOM      2  C1  UNL d   1      -5.984   3.662   1.349  0.00  0.00     0.039 A 
ATOM      3  C2  UNL d   1      -4.852   2.998   1.827  0.00  0.00    -0.080 A 
ATOM      4  C3  UNL d   1      -3.745   2.850   0.996  0.00  0.00     0.150 A 
ATOM      5  C4  UNL d   1      -3.753   3.357  -0.300  0.00  0.00    -0.007 A 
ATOM      6  C5  UNL d   1      -4.884   4.019  -0.775  0.00  0.00     0.039 A 
ENDROOT
BRANCH   4   7
ATOM      7  O   UNL d   1      -2.619   2.206   1.416  0.00  0.00    -0.526 OA
ATOM      8  H5  UNL d   1      -2.769   1.884   2.321  0.00  0.00     0.418 HD
ENDBRANCH   4   7
TORSDOF 1
ENDMDL
