MODEL 1
REMARK minimizedAffinity 0.988810837
REMARK minimizedRMSD -1
REMARK  1 active torsions:
REMARK  status: ('A' for Active; 'I' for Inactive)
REMARK    1  A    between atoms: C3_4  and  O_7 
ROOT
ATOM      1  C   UNL d   1      -1.151   0.369  -0.034  0.00  0.00    -0.033 A 
ATOM      2  C1  UNL d   1      -0.474   1.576  -0.214  0.00  0.00     0.039 A 
ATOM      3  C2  UNL d   1       0.829   1.727   0.264  0.00  0.00    -0.080 A 
ATOM      4  C3  UNL d   1       1.443   0.663   0.919  0.00  0.00     0.150 A 
ATOM      5  C4  UNL d   1       0.777  -0.544   1.099  0.00  0.00    -0.007 A 
ATOM      6  C5  UNL d   1      -0.525  -0.692   0.621  0.00  0.00     0.039 A 
ENDROOT
BRANCH   4   7
ATOM      7  O   UNL d   1       2.712   0.764   1.408  0.00  0.00    -0.526 OA
ATOM      8  H5  UNL d   1       3.037   1.664   1.236  0.00  0.00     0.418 HD
ENDBRANCH   4   7
TORSDOF 1
ENDMDL
