MODEL 1
REMARK minimizedAffinity 1.87119818
REMARK minimizedRMSD -1
REMARK  1 active torsions:
REMARK  status: ('A' for Active; 'I' for Inactive)
REMARK    1  A    between atoms: C3_4  and  O_7 
ROOT
ATOM      1  C   UNL d   1       0.951   2.821   0.360  0.00  0.00    -0.033 A 
ATOM      2  C1  UNL d   1      -0.350   2.556  -0.072  0.00  0.00     0.039 A 
ATOM      3  C2  UNL d   1      -0.856   1.256  -0.015  0.00  0.00    -0.080 A 
ATOM      4  C3  UNL d   1      -0.052   0.231   0.475  0.00  0.00     0.150 A 
ATOM      5  C4  UNL d   1       1.244   0.488   0.911  0.00  0.00    -0.007 A 
ATOM      6  C5  UNL d   1       1.748   1.787   0.853  0.00  0.00     0.039 A 
ENDROOT
BRANCH   4   7
ATOM      7  O   UNL d   1      -0.500  -1.055   0.545  0.00  0.00    -0.526 OA
ATOM      8  H5  UNL d   1      -1.401  -1.087   0.183  0.00  0.00     0.418 HD
ENDBRANCH   4   7
TORSDOF 1
ENDMDL
