MODEL 1
REMARK minimizedAffinity 6.38756895
REMARK minimizedRMSD -1
REMARK  1 active torsions:
REMARK  status: ('A' for Active; 'I' for Inactive)
REMARK    1  A    between atoms: C3_4  and  O_7 
ROOT
ATOM      1  C   UNL d   1      -0.216  -2.484   0.257  0.00  0.00    -0.033 A 
ATOM      2  C1  UNL d   1      -1.476  -2.125  -0.225  0.00  0.00     0.039 A 
ATOM      3  C2  UNL d   1      -1.934  -2.642  -1.438  0.00  0.00    -0.080 A 
ATOM      4  C3  UNL d   1      -1.125  -3.516  -2.158  0.00  0.00     0.150 A 
ATOM      5  C4  UNL d   1       0.130  -3.882  -1.681  0.00  0.00    -0.007 A 
ATOM      6  C5  UNL d   1       0.586  -3.364  -0.470  0.00  0.00     0.039 A 
ENDROOT
BRANCH   4   7
ATOM      7  O   UNL d   1      -1.527  -4.043  -3.349  0.00  0.00    -0.526 OA
ATOM      8  H5  UNL d   1      -2.402  -3.679  -3.567  0.00  0.00     0.418 HD
ENDBRANCH   4   7
TORSDOF 1
ENDMDL
