MODEL 1
REMARK minimizedAffinity 5.57210255
REMARK minimizedRMSD -1
REMARK  1 active torsions:
REMARK  status: ('A' for Active; 'I' for Inactive)
REMARK    1  A    between atoms: C3_4  and  O_7 
ROOT
ATOM      1  C   UNL d   1      -4.685   1.611  -4.084  0.00  0.00    -0.033 A 
ATOM      2  C1  UNL d   1      -5.859   2.315  -4.359  0.00  0.00     0.039 A 
ATOM      3  C2  UNL d   1      -5.856   3.711  -4.352  0.00  0.00    -0.080 A 
ATOM      4  C3  UNL d   1      -4.674   4.391  -4.068  0.00  0.00     0.150 A 
ATOM      5  C4  UNL d   1      -3.500   3.696  -3.796  0.00  0.00    -0.007 A 
ATOM      6  C5  UNL d   1      -3.505   2.301  -3.803  0.00  0.00     0.039 A 
ENDROOT
BRANCH   4   7
ATOM      7  O   UNL d   1      -4.623   5.753  -4.044  0.00  0.00    -0.526 OA
ATOM      8  H5  UNL d   1      -5.514   6.097  -4.222  0.00  0.00     0.418 HD
ENDBRANCH   4   7
TORSDOF 1
ENDMDL
