MODEL 1
REMARK minimizedAffinity 6.35290909
REMARK minimizedRMSD -1
REMARK  1 active torsions:
REMARK  status: ('A' for Active; 'I' for Inactive)
REMARK    1  A    between atoms: C3_4  and  O_7 
ROOT
ATOM      1  C   UNL d   1       1.621  -3.813   1.799  0.00  0.00    -0.033 A 
ATOM      2  C1  UNL d   1       2.281  -2.658   1.375  0.00  0.00     0.039 A 
ATOM      3  C2  UNL d   1       3.664  -2.673   1.183  0.00  0.00    -0.080 A 
ATOM      4  C3  UNL d   1       4.374  -3.847   1.418  0.00  0.00     0.150 A 
ATOM      5  C4  UNL d   1       3.722  -5.002   1.837  0.00  0.00    -0.007 A 
ATOM      6  C5  UNL d   1       2.342  -4.986   2.029  0.00  0.00     0.039 A 
ENDROOT
BRANCH   4   7
ATOM      7  O   UNL d   1       5.725  -3.908   1.249  0.00  0.00    -0.526 OA
ATOM      8  H5  UNL d   1       6.043  -3.028   0.985  0.00  0.00     0.418 HD
ENDBRANCH   4   7
TORSDOF 1
ENDMDL
