MODEL 1
REMARK minimizedAffinity 5.00880766
REMARK minimizedRMSD -1
REMARK  1 active torsions:
REMARK  status: ('A' for Active; 'I' for Inactive)
REMARK    1  A    between atoms: C3_4  and  O_7 
ROOT
ATOM      1  C   UNL d   1      -4.922   3.102  -4.134  0.00  0.00    -0.033 A 
ATOM      2  C1  UNL d   1      -3.745   3.213  -3.390  0.00  0.00     0.039 A 
ATOM      3  C2  UNL d   1      -2.616   3.813  -3.951  0.00  0.00    -0.080 A 
ATOM      4  C3  UNL d   1      -2.677   4.298  -5.254  0.00  0.00     0.150 A 
ATOM      5  C4  UNL d   1      -3.847   4.195  -6.000  0.00  0.00    -0.007 A 
ATOM      6  C5  UNL d   1      -4.973   3.595  -5.438  0.00  0.00     0.039 A 
ENDROOT
BRANCH   4   7
ATOM      7  O   UNL d   1      -1.599   4.887  -5.846  0.00  0.00    -0.526 OA
ATOM      8  H5  UNL d   1      -0.854   4.863  -5.222  0.00  0.00     0.418 HD
ENDBRANCH   4   7
TORSDOF 1
ENDMDL
