MODEL 1
REMARK minimizedAffinity 4.81206846
REMARK minimizedRMSD -1
REMARK  1 active torsions:
REMARK  status: ('A' for Active; 'I' for Inactive)
REMARK    1  A    between atoms: C3_4  and  O_7 
ROOT
ATOM      1  C   UNL d   1      -5.181  -1.419  -3.719  0.00  0.00    -0.033 A 
ATOM      2  C1  UNL d   1      -4.912  -0.905  -2.449  0.00  0.00     0.039 A 
ATOM      3  C2  UNL d   1      -3.634  -1.028  -1.900  0.00  0.00    -0.080 A 
ATOM      4  C3  UNL d   1      -2.635  -1.664  -2.631  0.00  0.00     0.150 A 
ATOM      5  C4  UNL d   1      -2.894  -2.175  -3.899  0.00  0.00    -0.007 A 
ATOM      6  C5  UNL d   1      -4.172  -2.053  -4.444  0.00  0.00     0.039 A 
ENDROOT
BRANCH   4   7
ATOM      7  O   UNL d   1      -1.373  -1.812  -2.135  0.00  0.00    -0.526 OA
ATOM      8  H5  UNL d   1      -1.349  -1.437  -1.239  0.00  0.00     0.418 HD
ENDBRANCH   4   7
TORSDOF 1
ENDMDL
