MODEL 1
REMARK minimizedAffinity 0.311953783
REMARK minimizedRMSD -1
REMARK  1 active torsions:
REMARK  status: ('A' for Active; 'I' for Inactive)
REMARK    1  A    between atoms: C3_4  and  O_7 
ROOT
ATOM      1  C   UNL d   1       1.741  -2.646   1.983  0.00  0.00    -0.033 A 
ATOM      2  C1  UNL d   1       0.700  -1.955   2.606  0.00  0.00     0.039 A 
ATOM      3  C2  UNL d   1      -0.495  -2.613   2.907  0.00  0.00    -0.080 A 
ATOM      4  C3  UNL d   1      -0.635  -3.959   2.580  0.00  0.00     0.150 A 
ATOM      5  C4  UNL d   1       0.400  -4.654   1.963  0.00  0.00    -0.007 A 
ATOM      6  C5  UNL d   1       1.592  -3.996   1.663  0.00  0.00     0.039 A 
ENDROOT
BRANCH   4   7
ATOM      7  O   UNL d   1      -1.784  -4.642   2.850  0.00  0.00    -0.526 OA
ATOM      8  H5  UNL d   1      -2.420  -4.027   3.251  0.00  0.00     0.418 HD
ENDBRANCH   4   7
TORSDOF 1
ENDMDL
