MODEL 1
REMARK minimizedAffinity 10.4123135
REMARK minimizedRMSD -1
REMARK  1 active torsions:
REMARK  status: ('A' for Active; 'I' for Inactive)
REMARK    1  A    between atoms: C3_4  and  O_7 
ROOT
ATOM      1  C   UNL d   1       1.189  -0.600   0.834  0.00  0.00    -0.033 A 
ATOM      2  C1  UNL d   1       1.548   0.718   0.544  0.00  0.00     0.039 A 
ATOM      3  C2  UNL d   1       1.722   1.640   1.578  0.00  0.00    -0.080 A 
ATOM      4  C3  UNL d   1       1.536   1.232   2.896  0.00  0.00     0.150 A 
ATOM      5  C4  UNL d   1       1.182  -0.080   3.193  0.00  0.00    -0.007 A 
ATOM      6  C5  UNL d   1       1.008  -0.999   2.159  0.00  0.00     0.039 A 
ENDROOT
BRANCH   4   7
ATOM      7  O   UNL d   1       1.690   2.098   3.938  0.00  0.00    -0.526 OA
ATOM      8  H5  UNL d   1       1.906   2.975   3.580  0.00  0.00     0.418 HD
ENDBRANCH   4   7
TORSDOF 1
ENDMDL
