MODEL 1
REMARK minimizedAffinity 1.90685725
REMARK minimizedRMSD -1
REMARK  1 active torsions:
REMARK  status: ('A' for Active; 'I' for Inactive)
REMARK    1  A    between atoms: C3_4  and  O_7 
ROOT
ATOM      1  C   UNL d   1       4.040  -5.746   5.367  0.00  0.00    -0.033 A 
ATOM      2  C1  UNL d   1       5.368  -5.700   5.793  0.00  0.00     0.039 A 
ATOM      3  C2  UNL d   1       5.998  -4.470   5.991  0.00  0.00    -0.080 A 
ATOM      4  C3  UNL d   1       5.289  -3.294   5.761  0.00  0.00     0.150 A 
ATOM      5  C4  UNL d   1       3.964  -3.332   5.340  0.00  0.00    -0.007 A 
ATOM      6  C5  UNL d   1       3.337  -4.561   5.142  0.00  0.00     0.039 A 
ENDROOT
BRANCH   4   7
ATOM      7  O   UNL d   1       5.863  -2.070   5.936  0.00  0.00    -0.526 OA
ATOM      8  H5  UNL d   1       6.789  -2.200   6.200  0.00  0.00     0.418 HD
ENDBRANCH   4   7
TORSDOF 1
ENDMDL
