MODEL 1
REMARK minimizedAffinity -4.19641924
REMARK minimizedRMSD -1
REMARK  0 active torsions:
REMARK  status: ('A' for Active; 'I' for Inactive)
ROOT
ATOM      1  C   UNL d   1      -1.710   0.910   1.761  0.00  0.00     0.078 C 
ATOM      2  C1  UNL d   1      -1.072   0.672   0.425  0.00  0.00    -0.077 A 
ATOM      3  C2  UNL d   1      -1.545   1.315  -0.725  0.00  0.00    -0.001 A 
ATOM      4  C3  UNL d   1      -0.947   1.076  -1.963  0.00  0.00     0.003 A 
ATOM      5  C4  UNL d   1       0.125   0.192  -2.064  0.00  0.00    -0.005 A 
ATOM      6  C5  UNL d   1       0.601  -0.455  -0.925  0.00  0.00     0.003 A 
ATOM      7  C6  UNL d   1       0.004  -0.217   0.314  0.00  0.00    -0.001 A 
ENDROOT
TORSDOF 0
ENDMDL
