MODEL 1
REMARK minimizedAffinity -3.39570451
REMARK minimizedRMSD -1
REMARK  0 active torsions:
REMARK  status: ('A' for Active; 'I' for Inactive)
ROOT
ATOM      1  C   UNL d   1      -0.915   1.229   2.426  0.00  0.00     0.078 C 
ATOM      2  C1  UNL d   1      -0.510   0.397   1.245  0.00  0.00    -0.077 A 
ATOM      3  C2  UNL d   1      -1.439   0.045   0.259  0.00  0.00    -0.001 A 
ATOM      4  C3  UNL d   1      -1.051  -0.738  -0.830  0.00  0.00     0.003 A 
ATOM      5  C4  UNL d   1       0.267  -1.176  -0.941  0.00  0.00    -0.005 A 
ATOM      6  C5  UNL d   1       1.198  -0.833   0.037  0.00  0.00     0.003 A 
ATOM      7  C6  UNL d   1       0.812  -0.050   1.126  0.00  0.00    -0.001 A 
ENDROOT
TORSDOF 0
ENDMDL
