MODEL 1
REMARK minimizedAffinity -4.27256584
REMARK minimizedRMSD -1
REMARK  0 active torsions:
REMARK  status: ('A' for Active; 'I' for Inactive)
ROOT
ATOM      1  C   UNL d   1       0.363  -0.222  -1.385  0.00  0.00     0.078 C 
ATOM      2  C1  UNL d   1      -0.034  -0.021   0.047  0.00  0.00    -0.077 A 
ATOM      3  C2  UNL d   1      -1.113   0.804   0.387  0.00  0.00    -0.001 A 
ATOM      4  C3  UNL d   1      -1.466   0.989   1.724  0.00  0.00     0.003 A 
ATOM      5  C4  UNL d   1      -0.744   0.355   2.733  0.00  0.00    -0.005 A 
ATOM      6  C5  UNL d   1       0.333  -0.466   2.405  0.00  0.00     0.003 A 
ATOM      7  C6  UNL d   1       0.687  -0.653   1.068  0.00  0.00    -0.001 A 
ENDROOT
TORSDOF 0
ENDMDL
