MODEL 1
REMARK minimizedAffinity -2.95892811
REMARK minimizedRMSD -1
REMARK  0 active torsions:
REMARK  status: ('A' for Active; 'I' for Inactive)
ROOT
ATOM      1  C   UNL d   1       0.419  -1.093  -0.761  0.00  0.00     0.078 C 
ATOM      2  C1  UNL d   1      -0.417  -0.246   0.151  0.00  0.00    -0.077 A 
ATOM      3  C2  UNL d   1      -0.172  -0.211   1.529  0.00  0.00    -0.001 A 
ATOM      4  C3  UNL d   1      -0.964   0.574   2.367  0.00  0.00     0.003 A 
ATOM      5  C4  UNL d   1      -2.009   1.330   1.837  0.00  0.00    -0.005 A 
ATOM      6  C5  UNL d   1      -2.262   1.299   0.468  0.00  0.00     0.003 A 
ATOM      7  C6  UNL d   1      -1.470   0.514  -0.372  0.00  0.00    -0.001 A 
ENDROOT
TORSDOF 0
ENDMDL
