MODEL 1
REMARK minimizedAffinity -0.72257489
REMARK minimizedRMSD -1
REMARK  0 active torsions:
REMARK  status: ('A' for Active; 'I' for Inactive)
ROOT
ATOM      1  C   UNL d   1       0.042  -0.238  -1.359  0.00  0.00     0.078 C 
ATOM      2  C1  UNL d   1      -0.299  -0.000   0.082  0.00  0.00    -0.077 A 
ATOM      3  C2  UNL d   1      -1.520   0.580   0.447  0.00  0.00    -0.001 A 
ATOM      4  C3  UNL d   1      -1.821   0.805   1.791  0.00  0.00     0.003 A 
ATOM      5  C4  UNL d   1      -0.905   0.453   2.781  0.00  0.00    -0.005 A 
ATOM      6  C5  UNL d   1       0.313  -0.123   2.427  0.00  0.00     0.003 A 
ATOM      7  C6  UNL d   1       0.615  -0.348   1.083  0.00  0.00    -0.001 A 
ENDROOT
TORSDOF 0
ENDMDL
