MODEL 1
REMARK minimizedAffinity -2.57387471
REMARK minimizedRMSD -1
REMARK  0 active torsions:
REMARK  status: ('A' for Active; 'I' for Inactive)
ROOT
ATOM      1  C   UNL d   1       0.499  -0.869  -0.779  0.00  0.00     0.078 C 
ATOM      2  C1  UNL d   1       0.742  -0.109  -2.049  0.00  0.00    -0.077 A 
ATOM      3  C2  UNL d   1       2.022   0.355  -2.377  0.00  0.00    -0.001 A 
ATOM      4  C3  UNL d   1       2.233   1.069  -3.558  0.00  0.00     0.003 A 
ATOM      5  C4  UNL d   1       1.168   1.327  -4.419  0.00  0.00    -0.005 A 
ATOM      6  C5  UNL d   1      -0.109   0.871  -4.100  0.00  0.00     0.003 A 
ATOM      7  C6  UNL d   1      -0.322   0.157  -2.919  0.00  0.00    -0.001 A 
ENDROOT
TORSDOF 0
ENDMDL
