MODEL 1
REMARK minimizedAffinity -2.47546697
REMARK minimizedRMSD -1
REMARK  0 active torsions:
REMARK  status: ('A' for Active; 'I' for Inactive)
ROOT
ATOM      1  C   UNL d   1      -0.200   0.251   3.732  0.00  0.00     0.078 C 
ATOM      2  C1  UNL d   1      -0.257   0.068   2.245  0.00  0.00    -0.077 A 
ATOM      3  C2  UNL d   1       0.859  -0.384   1.531  0.00  0.00    -0.001 A 
ATOM      4  C3  UNL d   1       0.795  -0.540   0.145  0.00  0.00     0.003 A 
ATOM      5  C4  UNL d   1      -0.383  -0.244  -0.538  0.00  0.00    -0.005 A 
ATOM      6  C5  UNL d   1      -1.498   0.209   0.164  0.00  0.00     0.003 A 
ATOM      7  C6  UNL d   1      -1.435   0.365   1.549  0.00  0.00    -0.001 A 
ENDROOT
TORSDOF 0
ENDMDL
