MODEL 1
REMARK minimizedAffinity -1.95402384
REMARK minimizedRMSD -1
REMARK  0 active torsions:
REMARK  status: ('A' for Active; 'I' for Inactive)
ROOT
ATOM      1  C   UNL d   1       0.050  -0.680  -0.496  0.00  0.00     0.078 C 
ATOM      2  C1  UNL d   1       0.589  -0.226  -1.819  0.00  0.00    -0.077 A 
ATOM      3  C2  UNL d   1       1.755   0.545  -1.897  0.00  0.00    -0.001 A 
ATOM      4  C3  UNL d   1       2.240   0.968  -3.135  0.00  0.00     0.003 A 
ATOM      5  C4  UNL d   1       1.565   0.626  -4.305  0.00  0.00    -0.005 A 
ATOM      6  C5  UNL d   1       0.402  -0.139  -4.238  0.00  0.00     0.003 A 
ATOM      7  C6  UNL d   1      -0.084  -0.563  -3.000  0.00  0.00    -0.001 A 
ENDROOT
TORSDOF 0
ENDMDL
