MODEL 1
REMARK minimizedAffinity -1.53697205
REMARK minimizedRMSD -1
REMARK  0 active torsions:
REMARK  status: ('A' for Active; 'I' for Inactive)
ROOT
ATOM      1  C   UNL d   1      -3.912   0.368  -1.136  0.00  0.00     0.078 C 
ATOM      2  C1  UNL d   1      -2.931   0.414  -0.003  0.00  0.00    -0.077 A 
ATOM      3  C2  UNL d   1      -2.078  -0.666   0.256  0.00  0.00    -0.001 A 
ATOM      4  C3  UNL d   1      -1.177  -0.613   1.321  0.00  0.00     0.003 A 
ATOM      5  C4  UNL d   1      -1.121   0.517   2.135  0.00  0.00    -0.005 A 
ATOM      6  C5  UNL d   1      -1.967   1.595   1.886  0.00  0.00     0.003 A 
ATOM      7  C6  UNL d   1      -2.870   1.544   0.822  0.00  0.00    -0.001 A 
ENDROOT
TORSDOF 0
ENDMDL
