MODEL 1
REMARK minimizedAffinity 8.62862587
REMARK minimizedRMSD -1
REMARK  1 active torsions:
REMARK  status: ('A' for Active; 'I' for Inactive)
REMARK    1  A    between atoms: C1_2  and  C2_3 
ROOT
ATOM      1  C2  UNL d   1      -1.975   0.041   2.194  0.00  0.00    -0.077 A 
ATOM      2  C3  UNL d   1      -0.900  -0.216   3.057  0.00  0.00     0.002 A 
ATOM      3  C4  UNL d   1      -1.004  -1.199   4.042  0.00  0.00     0.002 A 
ATOM      4  C5  UNL d   1      -2.180  -1.936   4.171  0.00  0.00    -0.004 A 
ATOM      5  C6  UNL d   1      -3.255  -1.687   3.319  0.00  0.00     0.002 A 
ATOM      6  C7  UNL d   1      -3.153  -0.704   2.334  0.00  0.00     0.002 A 
ENDROOT
BRANCH   1   7
ATOM      7  C1  UNL d   1      -1.846   1.067   1.099  0.00  0.00     0.055 C 
ATOM      8  C   UNL d   1      -1.898   0.418  -0.277  0.00  0.00     0.019 C 
ENDBRANCH   1   7
TORSDOF 1
ENDMDL
