MODEL 1
REMARK minimizedAffinity 4.05967045
REMARK minimizedRMSD -1
REMARK  1 active torsions:
REMARK  status: ('A' for Active; 'I' for Inactive)
REMARK    1  A    between atoms: C1_2  and  C2_3 
ROOT
ATOM      1  C2  UNL d   1      -0.131   0.021   0.525  0.00  0.00    -0.077 A 
ATOM      2  C3  UNL d   1      -1.120  -0.240  -0.434  0.00  0.00     0.002 A 
ATOM      3  C4  UNL d   1      -2.465  -0.002  -0.143  0.00  0.00     0.002 A 
ATOM      4  C5  UNL d   1      -2.832   0.502   1.103  0.00  0.00    -0.004 A 
ATOM      5  C6  UNL d   1      -1.856   0.763   2.063  0.00  0.00     0.002 A 
ATOM      6  C7  UNL d   1      -0.511   0.524   1.775  0.00  0.00     0.002 A 
ENDROOT
BRANCH   1   7
ATOM      7  C1  UNL d   1       1.324  -0.189   0.196  0.00  0.00     0.055 C 
ATOM      8  C   UNL d   1       2.122   1.095   0.373  0.00  0.00     0.019 C 
ENDBRANCH   1   7
TORSDOF 1
ENDMDL
