MODEL 1
REMARK minimizedAffinity 8.23037624
REMARK minimizedRMSD -1
REMARK  1 active torsions:
REMARK  status: ('A' for Active; 'I' for Inactive)
REMARK    1  A    between atoms: C1_2  and  C2_3 
ROOT
ATOM      1  C2  UNL d   1       3.404   2.694   1.384  0.00  0.00    -0.077 A 
ATOM      2  C3  UNL d   1       2.399   1.753   1.647  0.00  0.00     0.002 A 
ATOM      3  C4  UNL d   1       2.014   0.837   0.665  0.00  0.00     0.002 A 
ATOM      4  C5  UNL d   1       2.633   0.850  -0.583  0.00  0.00    -0.004 A 
ATOM      5  C6  UNL d   1       3.633   1.783  -0.855  0.00  0.00     0.002 A 
ATOM      6  C7  UNL d   1       4.017   2.700   0.124  0.00  0.00     0.002 A 
ENDROOT
BRANCH   1   7
ATOM      7  C1  UNL d   1       3.854   3.650   2.457  0.00  0.00     0.055 C 
ATOM      8  C   UNL d   1       4.710   2.948   3.501  0.00  0.00     0.019 C 
ENDBRANCH   1   7
TORSDOF 1
ENDMDL
