MODEL 1
REMARK minimizedAffinity 1.3680042
REMARK minimizedRMSD -1
REMARK  1 active torsions:
REMARK  status: ('A' for Active; 'I' for Inactive)
REMARK    1  A    between atoms: C1_2  and  C2_3 
ROOT
ATOM      1  C2  UNL d   1      -2.231  -0.220   2.471  0.00  0.00    -0.077 A 
ATOM      2  C3  UNL d   1      -0.921  -0.519   2.870  0.00  0.00     0.002 A 
ATOM      3  C4  UNL d   1      -0.689  -1.369   3.953  0.00  0.00     0.002 A 
ATOM      4  C5  UNL d   1      -1.762  -1.930   4.643  0.00  0.00    -0.004 A 
ATOM      5  C6  UNL d   1      -3.069  -1.636   4.255  0.00  0.00     0.002 A 
ATOM      6  C7  UNL d   1      -3.302  -0.786   3.173  0.00  0.00     0.002 A 
ENDROOT
BRANCH   1   7
ATOM      7  C1  UNL d   1      -2.482   0.658   1.273  0.00  0.00     0.055 C 
ATOM      8  C   UNL d   1      -2.472  -0.150  -0.017  0.00  0.00     0.019 C 
ENDBRANCH   1   7
TORSDOF 1
ENDMDL
