MODEL 1
REMARK minimizedAffinity 6.20122957
REMARK minimizedRMSD -1
REMARK  1 active torsions:
REMARK  status: ('A' for Active; 'I' for Inactive)
REMARK    1  A    between atoms: C1_2  and  C2_3 
ROOT
ATOM      1  C2  UNL d   1      -1.310   0.248   1.249  0.00  0.00    -0.077 A 
ATOM      2  C3  UNL d   1      -2.015  -0.074   0.080  0.00  0.00     0.002 A 
ATOM      3  C4  UNL d   1      -1.328  -0.405  -1.090  0.00  0.00     0.002 A 
ATOM      4  C5  UNL d   1       0.065  -0.420  -1.102  0.00  0.00    -0.004 A 
ATOM      5  C6  UNL d   1       0.775  -0.099   0.055  0.00  0.00     0.002 A 
ATOM      6  C7  UNL d   1       0.090   0.233   1.225  0.00  0.00     0.002 A 
ENDROOT
BRANCH   1   7
ATOM      7  C1  UNL d   1      -2.048   0.557   2.525  0.00  0.00     0.055 C 
ATOM      8  C   UNL d   1      -2.940  -0.603   2.943  0.00  0.00     0.019 C 
ENDBRANCH   1   7
TORSDOF 1
ENDMDL
