MODEL 1
REMARK minimizedAffinity 5.73478842
REMARK minimizedRMSD -1
REMARK  1 active torsions:
REMARK  status: ('A' for Active; 'I' for Inactive)
REMARK    1  A    between atoms: C1_2  and  C2_3 
ROOT
ATOM      1  C2  UNL d   1      -1.731  -0.119   2.245  0.00  0.00    -0.077 A 
ATOM      2  C3  UNL d   1      -0.460  -0.376   2.776  0.00  0.00     0.002 A 
ATOM      3  C4  UNL d   1      -0.316  -1.186   3.904  0.00  0.00     0.002 A 
ATOM      4  C5  UNL d   1      -1.439  -1.748   4.508  0.00  0.00    -0.004 A 
ATOM      5  C6  UNL d   1      -2.708  -1.497   3.989  0.00  0.00     0.002 A 
ATOM      6  C7  UNL d   1      -2.854  -0.686   2.862  0.00  0.00     0.002 A 
ENDROOT
BRANCH   1   7
ATOM      7  C1  UNL d   1      -1.884   0.714   0.999  0.00  0.00     0.055 C 
ATOM      8  C   UNL d   1      -2.209  -0.152  -0.209  0.00  0.00     0.019 C 
ENDBRANCH   1   7
TORSDOF 1
ENDMDL
