MODEL 1
REMARK minimizedAffinity 11.4114914
REMARK minimizedRMSD -1
REMARK  0 active torsions:
REMARK  status: ('A' for Active; 'I' for Inactive)
ROOT
ATOM      1  N1  IND d   1       2.800  -4.439   4.782  0.00  0.00    -0.196 N 
ATOM      2  C2  IND d   1       3.246  -5.478   5.550  0.00  0.00     0.054 A 
ATOM      3  C3  IND d   1       4.498  -5.229   5.997  0.00  0.00    -0.031 A 
ATOM      4  C4  IND d   1       5.962  -3.136   5.677  0.00  0.00     0.051 A 
ATOM      5  C5  IND d   1       5.999  -1.937   5.021  0.00  0.00    -0.031 A 
ATOM      6  C6  IND d   1       4.949  -1.501   4.238  0.00  0.00     0.015 A 
ATOM      7  C7  IND d   1       3.814  -2.246   4.091  0.00  0.00    -0.016 A 
ATOM      8  C8  IND d   1       3.775  -3.467   4.750  0.00  0.00    -0.047 A 
ATOM      9  C9  IND d   1       4.855  -3.934   5.511  0.00  0.00    -0.096 A 
ATOM     10  HN1 IND d   1       2.038  -4.399   4.386  0.00  0.00     0.298 HD
ENDROOT
TORSDOF 0
ENDMDL
