MODEL 1
REMARK minimizedAffinity -2.84206223
REMARK minimizedRMSD -1
REMARK  0 active torsions:
REMARK  status: ('A' for Active; 'I' for Inactive)
ROOT
ATOM      1  N1  IND d   1       0.026  -1.007  -2.323  0.00  0.00    -0.196 N 
ATOM      2  C2  IND d   1       0.295   0.327  -2.452  0.00  0.00     0.054 A 
ATOM      3  C3  IND d   1      -0.017   0.983  -1.312  0.00  0.00    -0.031 A 
ATOM      4  C4  IND d   1      -0.887   0.051   0.925  0.00  0.00     0.051 A 
ATOM      5  C5  IND d   1      -1.320  -1.102   1.516  0.00  0.00    -0.031 A 
ATOM      6  C6  IND d   1      -1.325  -2.308   0.844  0.00  0.00     0.015 A 
ATOM      7  C7  IND d   1      -0.883  -2.407  -0.445  0.00  0.00    -0.016 A 
ATOM      8  C8  IND d   1      -0.449  -1.237  -1.050  0.00  0.00    -0.047 A 
ATOM      9  C9  IND d   1      -0.482  -0.003  -0.388  0.00  0.00    -0.096 A 
ATOM     10  HN1 IND d   1       0.134  -1.602  -2.933  0.00  0.00     0.298 HD
ENDROOT
TORSDOF 0
ENDMDL
