MODEL 1
REMARK minimizedAffinity -6.17990065
REMARK minimizedRMSD -1
REMARK  0 active torsions:
REMARK  status: ('A' for Active; 'I' for Inactive)
ROOT
ATOM      1  N1  IND d   1      -0.093   0.083  -0.719  0.00  0.00    -0.196 N 
ATOM      2  C2  IND d   1      -0.798   0.998   0.011  0.00  0.00     0.054 A 
ATOM      3  C3  IND d   1      -1.333   0.415   1.107  0.00  0.00    -0.031 A 
ATOM      4  C4  IND d   1      -1.093  -2.004   1.954  0.00  0.00     0.051 A 
ATOM      5  C5  IND d   1      -0.575  -3.220   1.607  0.00  0.00    -0.031 A 
ATOM      6  C6  IND d   1       0.147  -3.401   0.446  0.00  0.00     0.015 A 
ATOM      7  C7  IND d   1       0.389  -2.364  -0.411  0.00  0.00    -0.016 A 
ATOM      8  C8  IND d   1      -0.142  -1.129  -0.066  0.00  0.00    -0.047 A 
ATOM      9  C9  IND d   1      -0.911  -0.950   1.091  0.00  0.00    -0.096 A 
ATOM     10  HN1 IND d   1       0.313   0.238  -1.461  0.00  0.00     0.298 HD
ENDROOT
TORSDOF 0
ENDMDL
