MODEL 1
REMARK minimizedAffinity -4.04927015
REMARK minimizedRMSD -1
REMARK  0 active torsions:
REMARK  status: ('A' for Active; 'I' for Inactive)
ROOT
ATOM      1  N1  IND d   1       0.828   0.037  -0.822  0.00  0.00    -0.196 N 
ATOM      2  C2  IND d   1       0.236   1.191  -0.391  0.00  0.00     0.054 A 
ATOM      3  C3  IND d   1      -0.838   0.910   0.380  0.00  0.00    -0.031 A 
ATOM      4  C4  IND d   1      -1.747  -1.373   1.147  0.00  0.00     0.051 A 
ATOM      5  C5  IND d   1      -1.563  -2.717   0.981  0.00  0.00    -0.031 A 
ATOM      6  C6  IND d   1      -0.550  -3.222   0.192  0.00  0.00     0.015 A 
ATOM      7  C7  IND d   1       0.327  -2.398  -0.455  0.00  0.00    -0.016 A 
ATOM      8  C8  IND d   1       0.139  -1.033  -0.294  0.00  0.00    -0.047 A 
ATOM      9  C9  IND d   1      -0.913  -0.514   0.472  0.00  0.00    -0.096 A 
ATOM     10  HN1 IND d   1       1.515  -0.013  -1.336  0.00  0.00     0.298 HD
ENDROOT
TORSDOF 0
ENDMDL
