MODEL 1
REMARK minimizedAffinity -0.427300543
REMARK minimizedRMSD -1
REMARK  0 active torsions:
REMARK  status: ('A' for Active; 'I' for Inactive)
ROOT
ATOM      1  N1  IND d   1      -1.076   0.449   0.386  0.00  0.00    -0.196 N 
ATOM      2  C2  IND d   1       0.108   1.132   0.366  0.00  0.00     0.054 A 
ATOM      3  C3  IND d   1       1.148   0.274   0.477  0.00  0.00    -0.031 A 
ATOM      4  C4  IND d   1       1.141  -2.297   0.601  0.00  0.00     0.051 A 
ATOM      5  C5  IND d   1       0.298  -3.369   0.689  0.00  0.00    -0.031 A 
ATOM      6  C6  IND d   1      -1.074  -3.220   0.677  0.00  0.00     0.015 A 
ATOM      7  C7  IND d   1      -1.656  -1.989   0.566  0.00  0.00    -0.016 A 
ATOM      8  C8  IND d   1      -0.803  -0.898   0.483  0.00  0.00    -0.047 A 
ATOM      9  C9  IND d   1       0.589  -1.039   0.537  0.00  0.00    -0.096 A 
ATOM     10  HN1 IND d   1      -1.859   0.801   0.345  0.00  0.00     0.298 HD
ENDROOT
TORSDOF 0
ENDMDL
