MODEL 1
REMARK minimizedAffinity -4.8140316
REMARK minimizedRMSD -1
REMARK  0 active torsions:
REMARK  status: ('A' for Active; 'I' for Inactive)
ROOT
ATOM      1  N1  IND d   1       1.527   0.177   0.009  0.00  0.00    -0.196 N 
ATOM      2  C2  IND d   1       0.919   1.345   0.377  0.00  0.00     0.054 A 
ATOM      3  C3  IND d   1      -0.354   1.110   0.766  0.00  0.00    -0.031 A 
ATOM      4  C4  IND d   1      -1.615  -1.125   0.976  0.00  0.00     0.051 A 
ATOM      5  C5  IND d   1      -1.487  -2.462   0.721  0.00  0.00    -0.031 A 
ATOM      6  C6  IND d   1      -0.324  -2.998   0.208  0.00  0.00     0.015 A 
ATOM      7  C7  IND d   1       0.763  -2.216  -0.060  0.00  0.00    -0.016 A 
ATOM      8  C8  IND d   1       0.635  -0.858   0.191  0.00  0.00    -0.047 A 
ATOM      9  C9  IND d   1      -0.557  -0.301   0.672  0.00  0.00    -0.096 A 
ATOM     10  HN1 IND d   1       2.331   0.101  -0.286  0.00  0.00     0.298 HD
ENDROOT
TORSDOF 0
ENDMDL
