MODEL 1
REMARK minimizedAffinity -2.04366612
REMARK minimizedRMSD -1
REMARK  0 active torsions:
REMARK  status: ('A' for Active; 'I' for Inactive)
ROOT
ATOM      1  N1  IND d   1      -0.611   0.919  -0.386  0.00  0.00    -0.196 N 
ATOM      2  C2  IND d   1       0.360   1.054  -1.339  0.00  0.00     0.054 A 
ATOM      3  C3  IND d   1       1.080  -0.086  -1.442  0.00  0.00    -0.031 A 
ATOM      4  C4  IND d   1       0.774  -2.330  -0.219  0.00  0.00     0.051 A 
ATOM      5  C5  IND d   1       0.044  -2.927   0.771  0.00  0.00    -0.031 A 
ATOM      6  C6  IND d   1      -0.964  -2.260   1.436  0.00  0.00     0.015 A 
ATOM      7  C7  IND d   1      -1.288  -0.969   1.128  0.00  0.00    -0.016 A 
ATOM      8  C8  IND d   1      -0.544  -0.357   0.129  0.00  0.00    -0.047 A 
ATOM      9  C9  IND d   1       0.508  -1.015  -0.521  0.00  0.00    -0.096 A 
ATOM     10  HN1 IND d   1      -1.169   1.528  -0.149  0.00  0.00     0.298 HD
ENDROOT
TORSDOF 0
ENDMDL
