MODEL 1
REMARK minimizedAffinity -5.31371641
REMARK minimizedRMSD -1
REMARK  0 active torsions:
REMARK  status: ('A' for Active; 'I' for Inactive)
ROOT
ATOM      1  N1  IND d   1      -0.065   0.735  -0.936  0.00  0.00    -0.196 N 
ATOM      2  C2  IND d   1       0.467   0.352  -2.135  0.00  0.00     0.054 A 
ATOM      3  C3  IND d   1       0.728  -0.974  -2.133  0.00  0.00    -0.031 A 
ATOM      4  C4  IND d   1       0.267  -2.728  -0.305  0.00  0.00     0.051 A 
ATOM      5  C5  IND d   1      -0.175  -2.852   0.982  0.00  0.00    -0.031 A 
ATOM      6  C6  IND d   1      -0.614  -1.765   1.710  0.00  0.00     0.015 A 
ATOM      7  C7  IND d   1      -0.638  -0.509   1.171  0.00  0.00    -0.016 A 
ATOM      8  C8  IND d   1      -0.184  -0.379  -0.134  0.00  0.00    -0.047 A 
ATOM      9  C9  IND d   1       0.303  -1.472  -0.863  0.00  0.00    -0.096 A 
ATOM     10  HN1 IND d   1      -0.288   1.536  -0.719  0.00  0.00     0.298 HD
ENDROOT
TORSDOF 0
ENDMDL
