MODEL 1
REMARK minimizedAffinity -5.72458124
REMARK minimizedRMSD -1
REMARK  0 active torsions:
REMARK  status: ('A' for Active; 'I' for Inactive)
ROOT
ATOM      1  N1  IND d   1      -2.094  -1.248   1.988  0.00  0.00    -0.196 N 
ATOM      2  C2  IND d   1      -2.012   0.113   1.889  0.00  0.00     0.054 A 
ATOM      3  C3  IND d   1      -1.059   0.463   0.996  0.00  0.00    -0.031 A 
ATOM      4  C4  IND d   1       0.416  -1.032  -0.493  0.00  0.00     0.051 A 
ATOM      5  C5  IND d   1       0.728  -2.341  -0.732  0.00  0.00    -0.031 A 
ATOM      6  C6  IND d   1       0.100  -3.374  -0.066  0.00  0.00     0.015 A 
ATOM      7  C7  IND d   1      -0.874  -3.135   0.861  0.00  0.00    -0.016 A 
ATOM      8  C8  IND d   1      -1.189  -1.807   1.112  0.00  0.00    -0.047 A 
ATOM      9  C9  IND d   1      -0.526  -0.753   0.469  0.00  0.00    -0.096 A 
ATOM     10  HN1 IND d   1      -2.622  -1.683   2.509  0.00  0.00     0.298 HD
ENDROOT
TORSDOF 0
ENDMDL
