MODEL 1
REMARK minimizedAffinity -4.90188217
REMARK minimizedRMSD -1
REMARK  0 active torsions:
REMARK  status: ('A' for Active; 'I' for Inactive)
ROOT
ATOM      1  N1  IND d   1      -0.415  -1.198  -0.742  0.00  0.00    -0.196 N 
ATOM      2  C2  IND d   1      -0.318  -1.601   0.561  0.00  0.00     0.054 A 
ATOM      3  C3  IND d   1      -0.030  -0.548   1.358  0.00  0.00    -0.031 A 
ATOM      4  C4  IND d   1       0.224   1.941   0.752  0.00  0.00     0.051 A 
ATOM      5  C5  IND d   1       0.259   2.791  -0.317  0.00  0.00    -0.031 A 
ATOM      6  C6  IND d   1       0.064   2.347  -1.609  0.00  0.00     0.015 A 
ATOM      7  C7  IND d   1      -0.185   1.031  -1.879  0.00  0.00    -0.016 A 
ATOM      8  C8  IND d   1      -0.214   0.163  -0.796  0.00  0.00    -0.047 A 
ATOM      9  C9  IND d   1       0.025   0.602   0.512  0.00  0.00    -0.096 A 
ATOM     10  HN1 IND d   1      -0.574  -1.710  -1.415  0.00  0.00     0.298 HD
ENDROOT
TORSDOF 0
ENDMDL
