MODEL 1
REMARK minimizedAffinity -3.71201396
REMARK minimizedRMSD -1
REMARK  0 active torsions:
REMARK  status: ('A' for Active; 'I' for Inactive)
ROOT
ATOM      1  N1  IND d   1       1.648   0.405  -0.226  0.00  0.00    -0.196 N 
ATOM      2  C2  IND d   1       0.941   1.573  -0.295  0.00  0.00     0.054 A 
ATOM      3  C3  IND d   1      -0.361   1.352  -0.001  0.00  0.00    -0.031 A 
ATOM      4  C4  IND d   1      -1.528  -0.827   0.718  0.00  0.00     0.051 A 
ATOM      5  C5  IND d   1      -1.303  -2.164   0.888  0.00  0.00    -0.031 A 
ATOM      6  C6  IND d   1      -0.057  -2.724   0.693  0.00  0.00     0.015 A 
ATOM      7  C7  IND d   1       1.018  -1.962   0.331  0.00  0.00    -0.016 A 
ATOM      8  C8  IND d   1       0.791  -0.605   0.151  0.00  0.00    -0.047 A 
ATOM      9  C9  IND d   1      -0.480  -0.038   0.306  0.00  0.00    -0.096 A 
ATOM     10  HN1 IND d   1       2.487   0.317  -0.392  0.00  0.00     0.298 HD
ENDROOT
TORSDOF 0
ENDMDL
