MODEL 1
REMARK minimizedAffinity -4.43617582
REMARK minimizedRMSD -1
REMARK  0 active torsions:
REMARK  status: ('A' for Active; 'I' for Inactive)
ROOT
ATOM      1  N1  IND d   1      -1.577   0.561   0.204  0.00  0.00    -0.196 N 
ATOM      2  C2  IND d   1      -0.579   1.488   0.087  0.00  0.00     0.054 A 
ATOM      3  C3  IND d   1       0.629   0.900   0.236  0.00  0.00    -0.031 A 
ATOM      4  C4  IND d   1       1.208  -1.585   0.578  0.00  0.00     0.051 A 
ATOM      5  C5  IND d   1       0.631  -2.807   0.785  0.00  0.00    -0.031 A 
ATOM      6  C6  IND d   1      -0.739  -2.972   0.806  0.00  0.00     0.015 A 
ATOM      7  C7  IND d   1      -1.586  -1.919   0.609  0.00  0.00    -0.016 A 
ATOM      8  C8  IND d   1      -1.004  -0.676   0.406  0.00  0.00    -0.047 A 
ATOM      9  C9  IND d   1       0.385  -0.494   0.426  0.00  0.00    -0.096 A 
ATOM     10  HN1 IND d   1      -2.420   0.723   0.159  0.00  0.00     0.298 HD
ENDROOT
TORSDOF 0
ENDMDL
