MODEL 1
REMARK minimizedAffinity -6.26537561
REMARK minimizedRMSD -1
REMARK  0 active torsions:
REMARK  status: ('A' for Active; 'I' for Inactive)
ROOT
ATOM      1  N1  IND d   1      -0.727  -1.461   1.402  0.00  0.00    -0.196 N 
ATOM      2  C2  IND d   1      -0.618  -2.807   1.192  0.00  0.00     0.054 A 
ATOM      3  C3  IND d   1      -0.201  -3.054  -0.070  0.00  0.00    -0.031 A 
ATOM      4  C4  IND d   1       0.461  -1.398  -1.927  0.00  0.00     0.051 A 
ATOM      5  C5  IND d   1       0.493  -0.063  -2.219  0.00  0.00    -0.031 A 
ATOM      6  C6  IND d   1       0.114   0.894  -1.299  0.00  0.00     0.015 A 
ATOM      7  C7  IND d   1      -0.301   0.550  -0.043  0.00  0.00    -0.016 A 
ATOM      8  C8  IND d   1      -0.341  -0.805   0.254  0.00  0.00    -0.047 A 
ATOM      9  C9  IND d   1       0.001  -1.782  -0.689  0.00  0.00    -0.096 A 
ATOM     10  HN1 IND d   1      -0.992  -1.086   2.130  0.00  0.00     0.298 HD
ENDROOT
TORSDOF 0
ENDMDL
