MODEL 1
REMARK minimizedAffinity -4.26496601
REMARK minimizedRMSD -1
REMARK  0 active torsions:
REMARK  status: ('A' for Active; 'I' for Inactive)
ROOT
ATOM      1  N1  IND d   1       1.122   4.175   3.083  0.00  0.00    -0.196 N 
ATOM      2  C2  IND d   1      -0.232   4.303   3.225  0.00  0.00     0.054 A 
ATOM      3  C3  IND d   1      -0.869   3.787   2.149  0.00  0.00    -0.031 A 
ATOM      4  C4  IND d   1       0.108   2.592   0.089  0.00  0.00     0.051 A 
ATOM      5  C5  IND d   1       1.294   2.267  -0.506  0.00  0.00    -0.031 A 
ATOM      6  C6  IND d   1       2.509   2.565   0.078  0.00  0.00     0.015 A 
ATOM      7  C7  IND d   1       2.581   3.191   1.290  0.00  0.00    -0.016 A 
ATOM      8  C8  IND d   1       1.379   3.529   1.893  0.00  0.00    -0.047 A 
ATOM      9  C9  IND d   1       0.144   3.268   1.285  0.00  0.00    -0.096 A 
ATOM     10  HN1 IND d   1       1.713   4.451   3.643  0.00  0.00     0.298 HD
ENDROOT
TORSDOF 0
ENDMDL
