MODEL 1
REMARK minimizedAffinity -5.16165543
REMARK minimizedRMSD -1
REMARK  0 active torsions:
REMARK  status: ('A' for Active; 'I' for Inactive)
ROOT
ATOM      1  N1  IND d   1       0.130  -0.589  -2.220  0.00  0.00    -0.196 N 
ATOM      2  C2  IND d   1       0.041   0.657  -1.664  0.00  0.00     0.054 A 
ATOM      3  C3  IND d   1      -0.132   0.564  -0.327  0.00  0.00    -0.031 A 
ATOM      4  C4  IND d   1      -0.197  -1.527   1.173  0.00  0.00     0.051 A 
ATOM      5  C5  IND d   1      -0.194  -2.893   1.118  0.00  0.00    -0.031 A 
ATOM      6  C6  IND d   1      -0.078  -3.574  -0.077  0.00  0.00     0.015 A 
ATOM      7  C7  IND d   1       0.052  -2.912  -1.265  0.00  0.00    -0.016 A 
ATOM      8  C8  IND d   1       0.042  -1.525  -1.213  0.00  0.00    -0.047 A 
ATOM      9  C9  IND d   1      -0.118  -0.829  -0.009  0.00  0.00    -0.096 A 
ATOM     10  HN1 IND d   1       0.225  -0.759  -3.057  0.00  0.00     0.298 HD
ENDROOT
TORSDOF 0
ENDMDL
