MODEL 1
REMARK minimizedAffinity -3.80707717
REMARK minimizedRMSD -1
REMARK  0 active torsions:
REMARK  status: ('A' for Active; 'I' for Inactive)
ROOT
ATOM      1  N1  IND d   1       1.462   4.151   1.911  0.00  0.00    -0.196 N 
ATOM      2  C2  IND d   1       0.207   4.362   2.411  0.00  0.00     0.054 A 
ATOM      3  C3  IND d   1      -0.701   3.636   1.722  0.00  0.00    -0.031 A 
ATOM      4  C4  IND d   1      -0.339   1.956  -0.195  0.00  0.00     0.051 A 
ATOM      5  C5  IND d   1       0.629   1.454  -1.019  0.00  0.00    -0.031 A 
ATOM      6  C6  IND d   1       1.951   1.832  -0.905  0.00  0.00     0.015 A 
ATOM      7  C7  IND d   1       2.358   2.720   0.050  0.00  0.00    -0.016 A 
ATOM      8  C8  IND d   1       1.377   3.237   0.884  0.00  0.00    -0.047 A 
ATOM      9  C9  IND d   1       0.027   2.890   0.745  0.00  0.00    -0.096 A 
ATOM     10  HN1 IND d   1       2.183   4.527   2.191  0.00  0.00     0.298 HD
ENDROOT
TORSDOF 0
ENDMDL
