MODEL 1
REMARK minimizedAffinity 18.1503677
REMARK minimizedRMSD -1
REMARK  1 active torsions:
REMARK  status: ('A' for Active; 'I' for Inactive)
REMARK    1  A    between atoms: C1_2  and  C2_3 
ROOT
ATOM      1  C2  UNL d   1      -0.678  -2.574   2.633  0.00  0.00    -0.076 A 
ATOM      2  C3  UNL d   1      -1.347  -1.615   1.852  0.00  0.00     0.004 A 
ATOM      3  C4  UNL d   1      -1.794  -1.921   0.568  0.00  0.00    -0.003 A 
ATOM      4  C5  UNL d   1      -1.581  -3.192   0.044  0.00  0.00     0.000 A 
ATOM      5  C6  UNL d   1      -0.935  -4.161   0.811  0.00  0.00     0.000 A 
ATOM      6  C7  UNL d   1      -0.493  -3.874   2.114  0.00  0.00    -0.073 A 
ATOM      7  C8  UNL d   1       0.203  -4.955   2.894  0.00  0.00     0.078 C 
ENDROOT
BRANCH   1   8
ATOM      8  C1  UNL d   1      -0.192  -2.177   4.008  0.00  0.00     0.053 C 
ATOM      9  C   UNL d   1      -1.169  -1.263   4.730  0.00  0.00     0.018 C 
ENDBRANCH   1   8
TORSDOF 1
ENDMDL
