MODEL 1
REMARK minimizedAffinity 7.08430243
REMARK minimizedRMSD -1
REMARK  1 active torsions:
REMARK  status: ('A' for Active; 'I' for Inactive)
REMARK    1  A    between atoms: C1_2  and  C2_3 
ROOT
ATOM      1  C2  UNL d   1       4.906   2.495   5.294  0.00  0.00    -0.076 A 
ATOM      2  C3  UNL d   1       5.647   1.531   6.000  0.00  0.00     0.004 A 
ATOM      3  C4  UNL d   1       6.000   0.320   5.405  0.00  0.00    -0.003 A 
ATOM      4  C5  UNL d   1       5.618   0.055   4.095  0.00  0.00     0.000 A 
ATOM      5  C6  UNL d   1       4.898   1.007   3.374  0.00  0.00     0.000 A 
ATOM      6  C7  UNL d   1       4.549   2.239   3.953  0.00  0.00    -0.073 A 
ATOM      7  C8  UNL d   1       3.767   3.227   3.131  0.00  0.00     0.078 C 
ENDROOT
BRANCH   1   8
ATOM      8  C1  UNL d   1       4.530   3.778   6.000  0.00  0.00     0.053 C 
ATOM      9  C   UNL d   1       5.658   4.797   5.998  0.00  0.00     0.018 C 
ENDBRANCH   1   8
TORSDOF 1
ENDMDL
