MODEL 1
REMARK minimizedAffinity 20.9160328
REMARK minimizedRMSD -1
REMARK  1 active torsions:
REMARK  status: ('A' for Active; 'I' for Inactive)
REMARK    1  A    between atoms: C1_2  and  C2_3 
ROOT
ATOM      1  C2  UNL d   1      -1.444  -2.312   2.037  0.00  0.00    -0.076 A 
ATOM      2  C3  UNL d   1      -2.209  -1.308   1.419  0.00  0.00     0.004 A 
ATOM      3  C4  UNL d   1      -2.253  -1.190   0.030  0.00  0.00    -0.003 A 
ATOM      4  C5  UNL d   1      -1.531  -2.076  -0.763  0.00  0.00     0.000 A 
ATOM      5  C6  UNL d   1      -0.780  -3.089  -0.167  0.00  0.00     0.000 A 
ATOM      6  C7  UNL d   1      -0.739  -3.231   1.230  0.00  0.00    -0.073 A 
ATOM      7  C8  UNL d   1       0.092  -4.338   1.819  0.00  0.00     0.078 C 
ENDROOT
BRANCH   1   8
ATOM      8  C1  UNL d   1      -1.413  -2.373   3.547  0.00  0.00     0.053 C 
ATOM      9  C   UNL d   1      -2.486  -1.506   4.187  0.00  0.00     0.018 C 
ENDBRANCH   1   8
TORSDOF 1
ENDMDL
