MODEL 1
REMARK minimizedAffinity 5.68869352
REMARK minimizedRMSD -1
REMARK  1 active torsions:
REMARK  status: ('A' for Active; 'I' for Inactive)
REMARK    1  A    between atoms: C1_2  and  C2_3 
ROOT
ATOM      1  C2  UNL d   1      -4.507   4.781  -0.708  0.00  0.00    -0.076 A 
ATOM      2  C3  UNL d   1      -4.866   5.990  -0.089  0.00  0.00     0.004 A 
ATOM      3  C4  UNL d   1      -5.607   6.000   1.091  0.00  0.00    -0.003 A 
ATOM      4  C5  UNL d   1      -6.000   4.799   1.673  0.00  0.00     0.000 A 
ATOM      5  C6  UNL d   1      -5.636   3.589   1.082  0.00  0.00     0.000 A 
ATOM      6  C7  UNL d   1      -4.876   3.562  -0.099  0.00  0.00    -0.073 A 
ATOM      7  C8  UNL d   1      -4.518   2.229  -0.697  0.00  0.00     0.078 C 
ENDROOT
BRANCH   1   8
ATOM      8  C1  UNL d   1      -3.726   4.833  -2.002  0.00  0.00     0.053 C 
ATOM      9  C   UNL d   1      -4.210   5.936  -2.931  0.00  0.00     0.018 C 
ENDBRANCH   1   8
TORSDOF 1
ENDMDL
