MODEL 1
REMARK minimizedAffinity 18.939024
REMARK minimizedRMSD -1
REMARK  1 active torsions:
REMARK  status: ('A' for Active; 'I' for Inactive)
REMARK    1  A    between atoms: C1_2  and  C2_3 
ROOT
ATOM      1  C2  UNL d   1      -5.170   5.814  -1.672  0.00  0.00    -0.076 A 
ATOM      2  C3  UNL d   1      -5.821   5.999  -2.904  0.00  0.00     0.004 A 
ATOM      3  C4  UNL d   1      -5.119   5.918  -4.105  0.00  0.00    -0.003 A 
ATOM      4  C5  UNL d   1      -3.755   5.649  -4.094  0.00  0.00     0.000 A 
ATOM      5  C6  UNL d   1      -3.097   5.445  -2.882  0.00  0.00     0.000 A 
ATOM      6  C7  UNL d   1      -3.793   5.507  -1.663  0.00  0.00    -0.073 A 
ATOM      7  C8  UNL d   1      -3.031   5.285  -0.385  0.00  0.00     0.078 C 
ENDROOT
BRANCH   1   8
ATOM      8  C1  UNL d   1      -5.978   5.941  -0.400  0.00  0.00     0.053 C 
ATOM      9  C   UNL d   1      -5.596   4.898   0.639  0.00  0.00     0.018 C 
ENDBRANCH   1   8
TORSDOF 1
ENDMDL
