MODEL 1
REMARK minimizedAffinity 10.4081821
REMARK minimizedRMSD -1
REMARK  1 active torsions:
REMARK  status: ('A' for Active; 'I' for Inactive)
REMARK    1  A    between atoms: C1_2  and  C2_3 
ROOT
ATOM      1  C2  UNL d   1      -1.030  -0.909  -1.693  0.00  0.00    -0.076 A 
ATOM      2  C3  UNL d   1      -0.565  -1.812  -0.721  0.00  0.00     0.004 A 
ATOM      3  C4  UNL d   1      -1.453  -2.487   0.114  0.00  0.00    -0.003 A 
ATOM      4  C5  UNL d   1      -2.821  -2.271  -0.010  0.00  0.00     0.000 A 
ATOM      5  C6  UNL d   1      -3.301  -1.392  -0.980  0.00  0.00     0.000 A 
ATOM      6  C7  UNL d   1      -2.420  -0.716  -1.841  0.00  0.00    -0.073 A 
ATOM      7  C8  UNL d   1      -2.992   0.225  -2.866  0.00  0.00     0.078 C 
ENDROOT
BRANCH   1   8
ATOM      8  C1  UNL d   1      -0.018  -0.185  -2.552  0.00  0.00     0.053 C 
ATOM      9  C   UNL d   1       1.256   0.152  -1.793  0.00  0.00     0.018 C 
ENDBRANCH   1   8
TORSDOF 1
ENDMDL
