MODEL 1
REMARK minimizedAffinity 8.42836666
REMARK minimizedRMSD -1
REMARK  1 active torsions:
REMARK  status: ('A' for Active; 'I' for Inactive)
REMARK    1  A    between atoms: C1_2  and  C2_3 
ROOT
ATOM      1  C2  UNL d   1      -1.284  -0.924  -1.565  0.00  0.00    -0.076 A 
ATOM      2  C3  UNL d   1      -1.058  -1.670  -0.395  0.00  0.00     0.004 A 
ATOM      3  C4  UNL d   1      -2.084  -1.895   0.522  0.00  0.00    -0.003 A 
ATOM      4  C5  UNL d   1      -3.353  -1.379   0.283  0.00  0.00     0.000 A 
ATOM      5  C6  UNL d   1      -3.599  -0.652  -0.881  0.00  0.00     0.000 A 
ATOM      6  C7  UNL d   1      -2.580  -0.429  -1.824  0.00  0.00    -0.073 A 
ATOM      7  C8  UNL d   1      -2.900   0.367  -3.059  0.00  0.00     0.078 C 
ENDROOT
BRANCH   1   8
ATOM      8  C1  UNL d   1      -0.126  -0.690  -2.509  0.00  0.00     0.053 C 
ATOM      9  C   UNL d   1       1.045   0.006  -1.833  0.00  0.00     0.018 C 
ENDBRANCH   1   8
TORSDOF 1
ENDMDL
