MODEL 1
REMARK minimizedAffinity 20.1723518
REMARK minimizedRMSD -1
REMARK  1 active torsions:
REMARK  status: ('A' for Active; 'I' for Inactive)
REMARK    1  A    between atoms: C1_2  and  C2_3 
ROOT
ATOM      1  C2  UNL d   1      -1.029  -2.621  -1.534  0.00  0.00    -0.076 A 
ATOM      2  C3  UNL d   1      -1.070  -1.400  -2.229  0.00  0.00     0.004 A 
ATOM      3  C4  UNL d   1      -0.979  -1.362  -3.620  0.00  0.00    -0.003 A 
ATOM      4  C5  UNL d   1      -0.848  -2.546  -4.338  0.00  0.00     0.000 A 
ATOM      5  C6  UNL d   1      -0.824  -3.767  -3.666  0.00  0.00     0.000 A 
ATOM      6  C7  UNL d   1      -0.930  -3.824  -2.265  0.00  0.00    -0.073 A 
ATOM      7  C8  UNL d   1      -0.892  -5.168  -1.592  0.00  0.00     0.078 C 
ENDROOT
BRANCH   1   8
ATOM      8  C1  UNL d   1      -1.104  -2.597  -0.024  0.00  0.00     0.053 C 
ATOM      9  C   UNL d   1      -2.126  -1.597   0.493  0.00  0.00     0.018 C 
ENDBRANCH   1   8
TORSDOF 1
ENDMDL
