MODEL 1
REMARK minimizedAffinity 19.5319614
REMARK minimizedRMSD -1
REMARK  1 active torsions:
REMARK  status: ('A' for Active; 'I' for Inactive)
REMARK    1  A    between atoms: C1_2  and  C2_3 
ROOT
ATOM      1  C2  UNL d   1      -2.542  -0.475  -2.643  0.00  0.00    -0.076 A 
ATOM      2  C3  UNL d   1      -1.462  -1.208  -3.164  0.00  0.00     0.004 A 
ATOM      3  C4  UNL d   1      -0.776  -2.132  -2.378  0.00  0.00    -0.003 A 
ATOM      4  C5  UNL d   1      -1.160  -2.339  -1.058  0.00  0.00     0.000 A 
ATOM      5  C6  UNL d   1      -2.241  -1.634  -0.530  0.00  0.00     0.000 A 
ATOM      6  C7  UNL d   1      -2.953  -0.710  -1.314  0.00  0.00    -0.073 A 
ATOM      7  C8  UNL d   1      -4.107   0.027  -0.691  0.00  0.00     0.078 C 
ENDROOT
BRANCH   1   8
ATOM      8  C1  UNL d   1      -3.231   0.533  -3.535  0.00  0.00     0.053 C 
ATOM      9  C   UNL d   1      -2.336   1.715  -3.878  0.00  0.00     0.018 C 
ENDBRANCH   1   8
TORSDOF 1
ENDMDL
