MODEL 1
REMARK minimizedAffinity 11.3828793
REMARK minimizedRMSD -1
REMARK  1 active torsions:
REMARK  status: ('A' for Active; 'I' for Inactive)
REMARK    1  A    between atoms: C1_2  and  C2_3 
ROOT
ATOM      1  C2  UNL d   1       5.234   2.982  -1.131  0.00  0.00    -0.076 A 
ATOM      2  C3  UNL d   1       4.489   2.188  -0.241  0.00  0.00     0.004 A 
ATOM      3  C4  UNL d   1       3.785   2.763   0.815  0.00  0.00    -0.003 A 
ATOM      4  C5  UNL d   1       3.814   4.141   0.999  0.00  0.00     0.000 A 
ATOM      5  C6  UNL d   1       4.533   4.945   0.116  0.00  0.00     0.000 A 
ATOM      6  C7  UNL d   1       5.235   4.383  -0.964  0.00  0.00    -0.073 A 
ATOM      7  C8  UNL d   1       5.999   5.297  -1.883  0.00  0.00     0.078 C 
ENDROOT
BRANCH   1   8
ATOM      8  C1  UNL d   1       6.000   2.300  -2.242  0.00  0.00     0.053 C 
ATOM      9  C   UNL d   1       5.169   2.133  -3.505  0.00  0.00     0.018 C 
ENDBRANCH   1   8
TORSDOF 1
ENDMDL
