MODEL 1
REMARK minimizedAffinity 13.3761005
REMARK minimizedRMSD -1
REMARK  1 active torsions:
REMARK  status: ('A' for Active; 'I' for Inactive)
REMARK    1  A    between atoms: C1_2  and  C2_3 
ROOT
ATOM      1  C2  UNL d   1      -2.002  -1.887  -0.866  0.00  0.00    -0.076 A 
ATOM      2  C3  UNL d   1      -1.217  -3.019  -0.587  0.00  0.00     0.004 A 
ATOM      3  C4  UNL d   1      -1.051  -3.473   0.720  0.00  0.00    -0.003 A 
ATOM      4  C5  UNL d   1      -1.669  -2.803   1.770  0.00  0.00     0.000 A 
ATOM      5  C6  UNL d   1      -2.466  -1.689   1.510  0.00  0.00     0.000 A 
ATOM      6  C7  UNL d   1      -2.657  -1.227   0.196  0.00  0.00    -0.073 A 
ATOM      7  C8  UNL d   1      -3.522  -0.017  -0.026  0.00  0.00     0.078 C 
ENDROOT
BRANCH   1   8
ATOM      8  C1  UNL d   1      -2.123  -1.424  -2.301  0.00  0.00     0.053 C 
ATOM      9  C   UNL d   1      -1.716  -2.500  -3.296  0.00  0.00     0.018 C 
ENDBRANCH   1   8
TORSDOF 1
ENDMDL
