MODEL 1
REMARK minimizedAffinity 8.01782131
REMARK minimizedRMSD -1
REMARK  1 active torsions:
REMARK  status: ('A' for Active; 'I' for Inactive)
REMARK    1  A    between atoms: C1_2  and  C2_3 
ROOT
ATOM      1  C2  UNL d   1      -1.792  -1.934   2.453  0.00  0.00    -0.076 A 
ATOM      2  C3  UNL d   1      -0.615  -2.702   2.463  0.00  0.00     0.004 A 
ATOM      3  C4  UNL d   1      -0.073  -3.200   1.279  0.00  0.00    -0.003 A 
ATOM      4  C5  UNL d   1      -0.701  -2.938   0.066  0.00  0.00     0.000 A 
ATOM      5  C6  UNL d   1      -1.860  -2.163   0.036  0.00  0.00     0.000 A 
ATOM      6  C7  UNL d   1      -2.410  -1.640   1.219  0.00  0.00    -0.073 A 
ATOM      7  C8  UNL d   1      -3.665  -0.816   1.128  0.00  0.00     0.078 C 
ENDROOT
BRANCH   1   8
ATOM      8  C1  UNL d   1      -2.348  -1.443   3.771  0.00  0.00     0.053 C 
ATOM      9  C   UNL d   1      -1.609  -2.023   4.967  0.00  0.00     0.018 C 
ENDBRANCH   1   8
TORSDOF 1
ENDMDL
