MODEL 1
REMARK minimizedAffinity 16.6863575
REMARK minimizedRMSD -1
REMARK  1 active torsions:
REMARK  status: ('A' for Active; 'I' for Inactive)
REMARK    1  A    between atoms: C1_2  and  C2_3 
ROOT
ATOM      1  C2  UNL d   1       5.189   1.840  -2.136  0.00  0.00    -0.076 A 
ATOM      2  C3  UNL d   1       5.778   2.822  -1.321  0.00  0.00     0.004 A 
ATOM      3  C4  UNL d   1       5.095   3.350  -0.227  0.00  0.00    -0.003 A 
ATOM      4  C5  UNL d   1       3.811   2.905   0.070  0.00  0.00     0.000 A 
ATOM      5  C6  UNL d   1       3.218   1.919  -0.718  0.00  0.00     0.000 A 
ATOM      6  C7  UNL d   1       3.900   1.364  -1.815  0.00  0.00    -0.073 A 
ATOM      7  C8  UNL d   1       3.210   0.308  -2.635  0.00  0.00     0.078 C 
ENDROOT
BRANCH   1   8
ATOM      8  C1  UNL d   1       5.968   1.323  -3.325  0.00  0.00     0.053 C 
ATOM      9  C   UNL d   1       5.999   2.316  -4.477  0.00  0.00     0.018 C 
ENDBRANCH   1   8
TORSDOF 1
ENDMDL
