MODEL 1
REMARK minimizedAffinity 11.4405994
REMARK minimizedRMSD -1
REMARK  1 active torsions:
REMARK  status: ('A' for Active; 'I' for Inactive)
REMARK    1  A    between atoms: C1_2  and  C2_3 
ROOT
ATOM      1  C2  UNL d   1      -1.588  -2.506   2.792  0.00  0.00    -0.076 A 
ATOM      2  C3  UNL d   1      -2.814  -2.044   2.281  0.00  0.00     0.004 A 
ATOM      3  C4  UNL d   1      -3.040  -1.980   0.907  0.00  0.00    -0.003 A 
ATOM      4  C5  UNL d   1      -2.045  -2.378   0.022  0.00  0.00     0.000 A 
ATOM      5  C6  UNL d   1      -0.829  -2.856   0.511  0.00  0.00     0.000 A 
ATOM      6  C7  UNL d   1      -0.591  -2.942   1.893  0.00  0.00    -0.073 A 
ATOM      7  C8  UNL d   1       0.740  -3.460   2.365  0.00  0.00     0.078 C 
ENDROOT
BRANCH   1   8
ATOM      8  C1  UNL d   1      -1.390  -2.528   4.291  0.00  0.00     0.053 C 
ATOM      9  C   UNL d   1      -2.271  -1.518   5.009  0.00  0.00     0.018 C 
ENDBRANCH   1   8
TORSDOF 1
ENDMDL
