MODEL 1
REMARK minimizedAffinity 6.25360298
REMARK minimizedRMSD -1
REMARK  2 active torsions:
REMARK  status: ('A' for Active; 'I' for Inactive)
REMARK    1  A    between atoms: C1_2  and  C2_3 
REMARK    2  A    between atoms: C2_3  and  C3_4 
ROOT
ATOM      1  C3  UNL d   1       2.686  -1.717   1.791  0.00  0.00    -0.075 A 
ATOM      2  C4  UNL d   1       1.884  -0.601   1.514  0.00  0.00     0.002 A 
ATOM      3  C5  UNL d   1       1.122  -0.008   2.520  0.00  0.00     0.002 A 
ATOM      4  C6  UNL d   1       1.144  -0.528   3.812  0.00  0.00    -0.004 A 
ATOM      5  C7  UNL d   1       1.924  -1.647   4.096  0.00  0.00     0.002 A 
ATOM      6  C8  UNL d   1       2.691  -2.240   3.092  0.00  0.00     0.002 A 
ENDROOT
BRANCH   1   7
ATOM      7  C2  UNL d   1       3.536  -2.346   0.713  0.00  0.00     0.056 C 
BRANCH   7   8
ATOM      8  C1  UNL d   1       4.984  -1.846   0.690  0.00  0.00     0.007 C 
ATOM      9  C   UNL d   1       5.999  -2.930   1.030  0.00  0.00     0.009 C 
ENDBRANCH   7   8
ENDBRANCH   1   7
TORSDOF 2
ENDMDL
