MODEL 1
REMARK minimizedAffinity 3.54736304
REMARK minimizedRMSD -1
REMARK  2 active torsions:
REMARK  status: ('A' for Active; 'I' for Inactive)
REMARK    1  A    between atoms: C1_2  and  C2_3 
REMARK    2  A    between atoms: C2_3  and  C3_4 
ROOT
ATOM      1  C3  UNL d   1       1.158  -0.644   3.395  0.00  0.00    -0.075 A 
ATOM      2  C4  UNL d   1       1.810  -1.884   3.337  0.00  0.00     0.002 A 
ATOM      3  C5  UNL d   1       2.060  -2.608   4.502  0.00  0.00     0.002 A 
ATOM      4  C6  UNL d   1       1.672  -2.099   5.739  0.00  0.00    -0.004 A 
ATOM      5  C7  UNL d   1       1.037  -0.860   5.811  0.00  0.00     0.002 A 
ATOM      6  C8  UNL d   1       0.782  -0.135   4.646  0.00  0.00     0.002 A 
ENDROOT
BRANCH   1   7
ATOM      7  C2  UNL d   1       0.858   0.132   2.134  0.00  0.00     0.056 C 
BRANCH   7   8
ATOM      8  C1  UNL d   1      -0.432  -0.300   1.428  0.00  0.00     0.007 C 
ATOM      9  C   UNL d   1      -1.135   0.843   0.709  0.00  0.00     0.009 C 
ENDBRANCH   7   8
ENDBRANCH   1   7
TORSDOF 2
ENDMDL
