MODEL 1
REMARK minimizedAffinity 7.02579594
REMARK minimizedRMSD -1
REMARK  2 active torsions:
REMARK  status: ('A' for Active; 'I' for Inactive)
REMARK    1  A    between atoms: C1_2  and  C2_3 
REMARK    2  A    between atoms: C2_3  and  C3_4 
ROOT
ATOM      1  C3  UNL d   1       1.588  -2.202   3.548  0.00  0.00    -0.075 A 
ATOM      2  C4  UNL d   1       2.352  -3.378   3.582  0.00  0.00     0.002 A 
ATOM      3  C5  UNL d   1       2.705  -3.958   4.801  0.00  0.00     0.002 A 
ATOM      4  C6  UNL d   1       2.308  -3.367   5.998  0.00  0.00    -0.004 A 
ATOM      5  C7  UNL d   1       1.563  -2.190   5.976  0.00  0.00     0.002 A 
ATOM      6  C8  UNL d   1       1.204  -1.609   4.758  0.00  0.00     0.002 A 
ENDROOT
BRANCH   1   7
ATOM      7  C2  UNL d   1       1.177  -1.585   2.232  0.00  0.00     0.056 C 
BRANCH   7   8
ATOM      8  C1  UNL d   1       2.330  -0.928   1.465  0.00  0.00     0.007 C 
ATOM      9  C   UNL d   1       3.101  -1.906   0.588  0.00  0.00     0.009 C 
ENDBRANCH   7   8
ENDBRANCH   1   7
TORSDOF 2
ENDMDL
