MODEL 1
REMARK minimizedAffinity 1.48023677
REMARK minimizedRMSD -1
REMARK  2 active torsions:
REMARK  status: ('A' for Active; 'I' for Inactive)
REMARK    1  A    between atoms: C1_2  and  C2_3 
REMARK    2  A    between atoms: C2_3  and  C3_4 
ROOT
ATOM      1  C3  UNL d   1       5.512  -2.678  -4.748  0.00  0.00    -0.075 A 
ATOM      2  C4  UNL d   1       5.524  -3.426  -3.562  0.00  0.00     0.002 A 
ATOM      3  C5  UNL d   1       5.753  -4.802  -3.595  0.00  0.00     0.002 A 
ATOM      4  C6  UNL d   1       5.961  -5.448  -4.811  0.00  0.00    -0.004 A 
ATOM      5  C7  UNL d   1       5.935  -4.717  -5.997  0.00  0.00     0.002 A 
ATOM      6  C8  UNL d   1       5.711  -3.339  -5.967  0.00  0.00     0.002 A 
ENDROOT
BRANCH   1   7
ATOM      7  C2  UNL d   1       5.295  -1.184  -4.716  0.00  0.00     0.056 C 
BRANCH   7   8
ATOM      8  C1  UNL d   1       5.720  -0.519  -3.403  0.00  0.00     0.007 C 
ATOM      9  C   UNL d   1       4.544  -0.021  -2.574  0.00  0.00     0.009 C 
ENDBRANCH   7   8
ENDBRANCH   1   7
TORSDOF 2
ENDMDL
