MODEL 1
REMARK minimizedAffinity 15.4283495
REMARK minimizedRMSD -1
REMARK  0 active torsions:
REMARK  status: ('A' for Active; 'I' for Inactive)
ROOT
ATOM      1  C   UNL d   1      -0.039   3.125  -3.821  0.00  0.00     0.077 C 
ATOM      2  C1  UNL d   1      -1.115   2.406  -3.062  0.00  0.00    -0.074 A 
ATOM      3  C2  UNL d   1      -2.459   2.767  -3.204  0.00  0.00    -0.005 A 
ATOM      4  C3  UNL d   1      -3.449   2.083  -2.499  0.00  0.00     0.006 A 
ATOM      5  C4  UNL d   1      -3.106   1.033  -1.646  0.00  0.00    -0.005 A 
ATOM      6  C5  UNL d   1      -1.768   0.657  -1.492  0.00  0.00    -0.074 A 
ATOM      7  C6  UNL d   1      -1.383  -0.476  -0.588  0.00  0.00     0.077 C 
ATOM      8  C7  UNL d   1      -0.779   1.345  -2.209  0.00  0.00    -0.001 A 
ENDROOT
TORSDOF 0
ENDMDL
