MODEL 1
REMARK minimizedAffinity 7.64552021
REMARK minimizedRMSD -1
REMARK  0 active torsions:
REMARK  status: ('A' for Active; 'I' for Inactive)
ROOT
ATOM      1  C   UNL d   1       0.173   5.271   4.130  0.00  0.00     0.077 C 
ATOM      2  C1  UNL d   1      -1.200   4.876   4.584  0.00  0.00    -0.074 A 
ATOM      3  C2  UNL d   1      -1.858   5.591   5.590  0.00  0.00    -0.005 A 
ATOM      4  C3  UNL d   1      -3.139   5.217   5.996  0.00  0.00     0.006 A 
ATOM      5  C4  UNL d   1      -3.774   4.127   5.401  0.00  0.00    -0.005 A 
ATOM      6  C5  UNL d   1      -3.132   3.400   4.393  0.00  0.00    -0.074 A 
ATOM      7  C6  UNL d   1      -3.805   2.232   3.736  0.00  0.00     0.077 C 
ATOM      8  C7  UNL d   1      -1.848   3.786   3.986  0.00  0.00    -0.001 A 
ENDROOT
TORSDOF 0
ENDMDL
