MODEL 1
REMARK minimizedAffinity 9.68139648
REMARK minimizedRMSD -1
REMARK  0 active torsions:
REMARK  status: ('A' for Active; 'I' for Inactive)
ROOT
ATOM      1  C   UNL d   1      -3.361   6.000  -4.491  0.00  0.00     0.077 C 
ATOM      2  C1  UNL d   1      -3.279   4.508  -4.627  0.00  0.00    -0.074 A 
ATOM      3  C2  UNL d   1      -3.811   3.858  -5.745  0.00  0.00    -0.005 A 
ATOM      4  C3  UNL d   1      -3.718   2.471  -5.862  0.00  0.00     0.006 A 
ATOM      5  C4  UNL d   1      -3.094   1.722  -4.864  0.00  0.00    -0.005 A 
ATOM      6  C5  UNL d   1      -2.556   2.355  -3.739  0.00  0.00    -0.074 A 
ATOM      7  C6  UNL d   1      -1.873   1.565  -2.662  0.00  0.00     0.077 C 
ATOM      8  C7  UNL d   1      -2.646   3.749  -3.632  0.00  0.00    -0.001 A 
ENDROOT
TORSDOF 0
ENDMDL
