MODEL 1
REMARK minimizedAffinity 16.0821667
REMARK minimizedRMSD -1
REMARK  0 active torsions:
REMARK  status: ('A' for Active; 'I' for Inactive)
ROOT
ATOM      1  C   UNL d   1       5.989  -1.481   1.015  0.00  0.00     0.077 C 
ATOM      2  C1  UNL d   1       5.999  -0.240   0.174  0.00  0.00    -0.074 A 
ATOM      3  C2  UNL d   1       6.000  -0.318  -1.223  0.00  0.00    -0.005 A 
ATOM      4  C3  UNL d   1       5.999   0.845  -1.992  0.00  0.00     0.006 A 
ATOM      5  C4  UNL d   1       5.998   2.096  -1.375  0.00  0.00    -0.005 A 
ATOM      6  C5  UNL d   1       5.996   2.194   0.020  0.00  0.00    -0.074 A 
ATOM      7  C6  UNL d   1       5.984   3.531   0.700  0.00  0.00     0.077 C 
ATOM      8  C7  UNL d   1       5.989   1.021   0.787  0.00  0.00    -0.001 A 
ENDROOT
TORSDOF 0
ENDMDL
