MODEL 1
REMARK minimizedAffinity 12.958828
REMARK minimizedRMSD -1
REMARK  0 active torsions:
REMARK  status: ('A' for Active; 'I' for Inactive)
ROOT
ATOM      1  C   UNL d   1      -4.124   0.756   1.117  0.00  0.00     0.077 C 
ATOM      2  C1  UNL d   1      -3.362   0.426  -0.132  0.00  0.00    -0.074 A 
ATOM      3  C2  UNL d   1      -3.112  -0.902  -0.493  0.00  0.00    -0.005 A 
ATOM      4  C3  UNL d   1      -2.410  -1.193  -1.662  0.00  0.00     0.006 A 
ATOM      5  C4  UNL d   1      -1.951  -0.161  -2.481  0.00  0.00    -0.005 A 
ATOM      6  C5  UNL d   1      -2.192   1.173  -2.138  0.00  0.00    -0.074 A 
ATOM      7  C6  UNL d   1      -1.714   2.294  -3.012  0.00  0.00     0.077 C 
ATOM      8  C7  UNL d   1      -2.904   1.457  -0.965  0.00  0.00    -0.001 A 
ENDROOT
TORSDOF 0
ENDMDL
