MODEL 1
REMARK minimizedAffinity 2.99449921
REMARK minimizedRMSD -1
REMARK  0 active torsions:
REMARK  status: ('A' for Active; 'I' for Inactive)
ROOT
ATOM      1  C   UNL d   1       3.000   5.936   5.818  0.00  0.00     0.077 C 
ATOM      2  C1  UNL d   1       1.680   5.663   5.160  0.00  0.00    -0.074 A 
ATOM      3  C2  UNL d   1       1.617   5.113   3.875  0.00  0.00    -0.005 A 
ATOM      4  C3  UNL d   1       0.382   4.856   3.280  0.00  0.00     0.006 A 
ATOM      5  C4  UNL d   1      -0.800   5.144   3.962  0.00  0.00    -0.005 A 
ATOM      6  C5  UNL d   1      -0.757   5.692   5.248  0.00  0.00    -0.074 A 
ATOM      7  C6  UNL d   1      -2.019   5.999   5.999  0.00  0.00     0.077 C 
ATOM      8  C7  UNL d   1       0.488   5.942   5.842  0.00  0.00    -0.001 A 
ENDROOT
TORSDOF 0
ENDMDL
