MODEL 1
REMARK minimizedAffinity 3.92655635
REMARK minimizedRMSD -1
REMARK  0 active torsions:
REMARK  status: ('A' for Active; 'I' for Inactive)
ROOT
ATOM      1  C   UNL d   1       3.784  -2.604   5.046  0.00  0.00     0.077 C 
ATOM      2  C1  UNL d   1       2.806  -2.046   4.056  0.00  0.00    -0.074 A 
ATOM      3  C2  UNL d   1       1.934  -1.011   4.410  0.00  0.00    -0.005 A 
ATOM      4  C3  UNL d   1       1.036  -0.497   3.475  0.00  0.00     0.006 A 
ATOM      5  C4  UNL d   1       1.001  -1.011   2.178  0.00  0.00    -0.005 A 
ATOM      6  C5  UNL d   1       1.865  -2.046   1.805  0.00  0.00    -0.074 A 
ATOM      7  C6  UNL d   1       1.847  -2.603   0.413  0.00  0.00     0.077 C 
ATOM      8  C7  UNL d   1       2.769  -2.552   2.749  0.00  0.00    -0.001 A 
ENDROOT
TORSDOF 0
ENDMDL
