MODEL 1
REMARK minimizedAffinity 8.82918835
REMARK minimizedRMSD -1
REMARK  0 active torsions:
REMARK  status: ('A' for Active; 'I' for Inactive)
ROOT
ATOM      1  C   UNL d   1       0.877  -1.476   1.347  0.00  0.00     0.077 C 
ATOM      2  C1  UNL d   1       1.945  -2.513   1.160  0.00  0.00    -0.074 A 
ATOM      3  C2  UNL d   1       1.615  -3.855   0.950  0.00  0.00    -0.005 A 
ATOM      4  C3  UNL d   1       2.619  -4.806   0.768  0.00  0.00     0.006 A 
ATOM      5  C4  UNL d   1       3.961  -4.425   0.795  0.00  0.00    -0.005 A 
ATOM      6  C5  UNL d   1       4.310  -3.087   1.004  0.00  0.00    -0.074 A 
ATOM      7  C6  UNL d   1       5.747  -2.659   1.026  0.00  0.00     0.077 C 
ATOM      8  C7  UNL d   1       3.295  -2.136   1.178  0.00  0.00    -0.001 A 
ENDROOT
TORSDOF 0
ENDMDL
