MODEL 1
REMARK minimizedAffinity 7.90921593
REMARK minimizedRMSD -1
REMARK  0 active torsions:
REMARK  status: ('A' for Active; 'I' for Inactive)
ROOT
ATOM      1  C   UNL d   1       1.182  -1.073   1.876  0.00  0.00     0.077 C 
ATOM      2  C1  UNL d   1       2.042  -1.898   0.965  0.00  0.00    -0.074 A 
ATOM      3  C2  UNL d   1       1.556  -3.079   0.393  0.00  0.00    -0.005 A 
ATOM      4  C3  UNL d   1       2.364  -3.831  -0.460  0.00  0.00     0.006 A 
ATOM      5  C4  UNL d   1       3.663  -3.411  -0.749  0.00  0.00    -0.005 A 
ATOM      6  C5  UNL d   1       4.165  -2.233  -0.187  0.00  0.00    -0.074 A 
ATOM      7  C6  UNL d   1       5.555  -1.762  -0.496  0.00  0.00     0.077 C 
ATOM      8  C7  UNL d   1       3.345  -1.479   0.663  0.00  0.00    -0.001 A 
ENDROOT
TORSDOF 0
ENDMDL
