MODEL 1
REMARK minimizedAffinity 12.9026403
REMARK minimizedRMSD -1
REMARK  0 active torsions:
REMARK  status: ('A' for Active; 'I' for Inactive)
ROOT
ATOM      1  C   UNL d   1      -0.224   2.752  -4.363  0.00  0.00     0.077 C 
ATOM      2  C1  UNL d   1      -1.076   2.065  -3.338  0.00  0.00    -0.074 A 
ATOM      3  C2  UNL d   1      -2.354   2.540  -3.030  0.00  0.00    -0.005 A 
ATOM      4  C3  UNL d   1      -3.139   1.885  -2.081  0.00  0.00     0.006 A 
ATOM      5  C4  UNL d   1      -2.654   0.749  -1.432  0.00  0.00    -0.005 A 
ATOM      6  C5  UNL d   1      -1.378   0.258  -1.728  0.00  0.00    -0.074 A 
ATOM      7  C6  UNL d   1      -0.845  -0.967  -1.046  0.00  0.00     0.077 C 
ATOM      8  C7  UNL d   1      -0.598   0.918  -2.687  0.00  0.00    -0.001 A 
ENDROOT
TORSDOF 0
ENDMDL
