MODEL 1
REMARK minimizedAffinity 11.6371899
REMARK minimizedRMSD -1
REMARK  0 active torsions:
REMARK  status: ('A' for Active; 'I' for Inactive)
ROOT
ATOM      1  C   UNL d   1       1.770  -2.272   0.182  0.00  0.00     0.077 C 
ATOM      2  C1  UNL d   1       1.996  -1.465   1.425  0.00  0.00    -0.074 A 
ATOM      3  C2  UNL d   1       1.343  -0.243   1.617  0.00  0.00    -0.005 A 
ATOM      4  C3  UNL d   1       1.555   0.492   2.783  0.00  0.00     0.006 A 
ATOM      5  C4  UNL d   1       2.422   0.014   3.767  0.00  0.00    -0.005 A 
ATOM      6  C5  UNL d   1       3.082  -1.206   3.593  0.00  0.00    -0.074 A 
ATOM      7  C6  UNL d   1       4.009  -1.739   4.645  0.00  0.00     0.077 C 
ATOM      8  C7  UNL d   1       2.858  -1.942   2.422  0.00  0.00    -0.001 A 
ENDROOT
TORSDOF 0
ENDMDL
