MODEL 1
REMARK minimizedAffinity 11.8318863
REMARK minimizedRMSD -1
REMARK  0 active torsions:
REMARK  status: ('A' for Active; 'I' for Inactive)
ROOT
ATOM      1  C   UNL d   1       2.103  -4.520   0.106  0.00  0.00     0.077 C 
ATOM      2  C1  UNL d   1       1.803  -3.104   0.499  0.00  0.00    -0.074 A 
ATOM      3  C2  UNL d   1       1.094  -2.255  -0.357  0.00  0.00    -0.005 A 
ATOM      4  C3  UNL d   1       0.814  -0.944   0.027  0.00  0.00     0.006 A 
ATOM      5  C4  UNL d   1       1.239  -0.468   1.268  0.00  0.00    -0.005 A 
ATOM      6  C5  UNL d   1       1.948  -1.303   2.137  0.00  0.00    -0.074 A 
ATOM      7  C6  UNL d   1       2.404  -0.811   3.479  0.00  0.00     0.077 C 
ATOM      8  C7  UNL d   1       2.220  -2.622   1.748  0.00  0.00    -0.001 A 
ENDROOT
TORSDOF 0
ENDMDL
