MODEL 1
REMARK minimizedAffinity 5.74797058
REMARK minimizedRMSD -1
REMARK  0 active torsions:
REMARK  status: ('A' for Active; 'I' for Inactive)
ROOT
ATOM      1  C   UNL d   1       0.932   2.624  -3.892  0.00  0.00     0.077 C 
ATOM      2  C1  UNL d   1      -0.538   2.371  -4.054  0.00  0.00    -0.074 A 
ATOM      3  C2  UNL d   1      -1.142   2.430  -5.314  0.00  0.00    -0.005 A 
ATOM      4  C3  UNL d   1      -2.508   2.182  -5.451  0.00  0.00     0.006 A 
ATOM      5  C4  UNL d   1      -3.282   1.873  -4.332  0.00  0.00    -0.005 A 
ATOM      6  C5  UNL d   1      -2.694   1.808  -3.064  0.00  0.00    -0.074 A 
ATOM      7  C6  UNL d   1      -3.510   1.467  -1.852  0.00  0.00     0.077 C 
ATOM      8  C7  UNL d   1      -1.320   2.052  -2.936  0.00  0.00    -0.001 A 
ENDROOT
TORSDOF 0
ENDMDL
