MODEL 1
REMARK minimizedAffinity 9.92124462
REMARK minimizedRMSD -1
REMARK  0 active torsions:
REMARK  status: ('A' for Active; 'I' for Inactive)
ROOT
ATOM      1  C2' OXE d   1      -2.211   5.432   0.509  0.00  0.00     0.078 C 
ATOM      2  C1' OXE d   1      -0.379   3.306   0.591  0.00  0.00     0.078 C 
ATOM      3  C1  OXE d   1      -0.425   4.148  -0.660  0.00  0.00    -0.078 A 
ATOM      4  C2  OXE d   1      -1.356   5.157  -0.709  0.00  0.00    -0.078 A 
ATOM      5  C3  OXE d   1      -1.404   5.998  -1.817  0.00  0.00     0.003 A 
ATOM      6  C4  OXE d   1      -0.616   5.731  -2.944  0.00  0.00    -0.002 A 
ATOM      7  C5  OXE d   1       0.311   4.684  -2.930  0.00  0.00    -0.002 A 
ATOM      8  C6  OXE d   1       0.449   3.912  -1.782  0.00  0.00     0.003 A 
ENDROOT
TORSDOF 0
ENDMDL
