MODEL 1
REMARK minimizedAffinity 8.22473335
REMARK minimizedRMSD -1
REMARK  0 active torsions:
REMARK  status: ('A' for Active; 'I' for Inactive)
ROOT
ATOM      1  C2' OXE d   1       2.699  -6.000  -1.159  0.00  0.00     0.078 C 
ATOM      2  C1' OXE d   1       1.268  -3.990   0.179  0.00  0.00     0.078 C 
ATOM      3  C1  OXE d   1       0.708  -4.502  -1.124  0.00  0.00    -0.078 A 
ATOM      4  C2  OXE d   1       1.439  -5.453  -1.796  0.00  0.00    -0.078 A 
ATOM      5  C3  OXE d   1       0.941  -5.999  -2.975  0.00  0.00     0.003 A 
ATOM      6  C4  OXE d   1      -0.219  -5.480  -3.562  0.00  0.00    -0.002 A 
ATOM      7  C5  OXE d   1      -0.958  -4.484  -2.915  0.00  0.00    -0.002 A 
ATOM      8  C6  OXE d   1      -0.531  -4.015  -1.677  0.00  0.00     0.003 A 
ENDROOT
TORSDOF 0
ENDMDL
