MODEL 1
REMARK minimizedAffinity 3.0551393
REMARK minimizedRMSD -1
REMARK  0 active torsions:
REMARK  status: ('A' for Active; 'I' for Inactive)
ROOT
ATOM      1  C2' OXE d   1      -0.008   3.620   0.721  0.00  0.00     0.078 C 
ATOM      2  C1' OXE d   1      -1.500   5.998   0.742  0.00  0.00     0.078 C 
ATOM      3  C1  OXE d   1      -1.142   5.404  -0.597  0.00  0.00    -0.078 A 
ATOM      4  C2  OXE d   1      -0.372   4.266  -0.598  0.00  0.00    -0.078 A 
ATOM      5  C3  OXE d   1      -0.059   3.647  -1.805  0.00  0.00     0.003 A 
ATOM      6  C4  OXE d   1      -0.391   4.256  -3.021  0.00  0.00    -0.002 A 
ATOM      7  C5  OXE d   1      -1.141   5.437  -3.043  0.00  0.00    -0.002 A 
ATOM      8  C6  OXE d   1      -1.560   6.000  -1.842  0.00  0.00     0.003 A 
ENDROOT
TORSDOF 0
ENDMDL
