MODEL 1
REMARK minimizedAffinity 18.2957363
REMARK minimizedRMSD -1
REMARK  0 active torsions:
REMARK  status: ('A' for Active; 'I' for Inactive)
ROOT
ATOM      1  C2' OXE d   1       0.039   3.596   0.600  0.00  0.00     0.078 C 
ATOM      2  C1' OXE d   1      -1.415   5.995   0.502  0.00  0.00     0.078 C 
ATOM      3  C1  OXE d   1      -0.956   5.398  -0.804  0.00  0.00    -0.078 A 
ATOM      4  C2  OXE d   1      -0.206   4.248  -0.744  0.00  0.00    -0.078 A 
ATOM      5  C3  OXE d   1       0.197   3.625  -1.922  0.00  0.00     0.003 A 
ATOM      6  C4  OXE d   1      -0.025   4.240  -3.160  0.00  0.00    -0.002 A 
ATOM      7  C5  OXE d   1      -0.753   5.432  -3.241  0.00  0.00    -0.002 A 
ATOM      8  C6  OXE d   1      -1.261   6.000  -2.078  0.00  0.00     0.003 A 
ENDROOT
TORSDOF 0
ENDMDL
