MODEL 1
REMARK minimizedAffinity 10.3745785
REMARK minimizedRMSD -1
REMARK  0 active torsions:
REMARK  status: ('A' for Active; 'I' for Inactive)
ROOT
ATOM      1  C2' OXE d   1       0.351   3.372   0.124  0.00  0.00     0.078 C 
ATOM      2  C1' OXE d   1       2.376   2.866   2.002  0.00  0.00     0.078 C 
ATOM      3  C1  OXE d   1       1.006   2.295   2.273  0.00  0.00    -0.078 A 
ATOM      4  C2  OXE d   1       0.010   2.587   1.372  0.00  0.00    -0.078 A 
ATOM      5  C3  OXE d   1      -1.258   2.040   1.546  0.00  0.00     0.003 A 
ATOM      6  C4  OXE d   1      -1.568   1.324   2.708  0.00  0.00    -0.002 A 
ATOM      7  C5  OXE d   1      -0.579   1.049   3.658  0.00  0.00    -0.002 A 
ATOM      8  C6  OXE d   1       0.721   1.491   3.435  0.00  0.00     0.003 A 
ENDROOT
TORSDOF 0
ENDMDL
