MODEL 1
REMARK minimizedAffinity -4.50965691
REMARK minimizedRMSD -1
REMARK  0 active torsions:
REMARK  status: ('A' for Active; 'I' for Inactive)
ROOT
ATOM      1  C1  BNZ d   1       1.135  -1.865   0.292  0.00  0.00     0.000 A 
ATOM      2  C2  BNZ d   1       1.239  -0.650  -0.332  0.00  0.00     0.000 A 
ATOM      3  C3  BNZ d   1       0.258   0.292  -0.197  0.00  0.00     0.000 A 
ATOM      4  C4  BNZ d   1      -0.842   0.005   0.527  0.00  0.00     0.000 A 
ATOM      5  C5  BNZ d   1      -0.966  -1.219   1.155  0.00  0.00     0.000 A 
ATOM      6  C6  BNZ d   1       0.041  -2.150   1.049  0.00  0.00     0.000 A 
ENDROOT
TORSDOF 0
ENDMDL
