MODEL 1
REMARK minimizedAffinity -4.85270166
REMARK minimizedRMSD -1
REMARK  0 active torsions:
REMARK  status: ('A' for Active; 'I' for Inactive)
ROOT
ATOM      1  C1  BNZ d   1       1.262  -2.048   0.703  0.00  0.00     0.000 A 
ATOM      2  C2  BNZ d   1       1.454  -0.918  -0.046  0.00  0.00     0.000 A 
ATOM      3  C3  BNZ d   1       0.582   0.132   0.035  0.00  0.00     0.000 A 
ATOM      4  C4  BNZ d   1      -0.500   0.035   0.833  0.00  0.00     0.000 A 
ATOM      5  C5  BNZ d   1      -0.713  -1.102   1.587  0.00  0.00     0.000 A 
ATOM      6  C6  BNZ d   1       0.187  -2.141   1.533  0.00  0.00     0.000 A 
ENDROOT
TORSDOF 0
ENDMDL
