MODEL 1
REMARK minimizedAffinity -5.63970804
REMARK minimizedRMSD -1
REMARK  0 active torsions:
REMARK  status: ('A' for Active; 'I' for Inactive)
ROOT
ATOM      1  C1  BNZ d   1       1.415  -2.621   1.591  0.00  0.00     0.000 A 
ATOM      2  C2  BNZ d   1       0.738  -2.807   2.766  0.00  0.00     0.000 A 
ATOM      3  C3  BNZ d   1      -0.391  -2.088   3.045  0.00  0.00     0.000 A 
ATOM      4  C4  BNZ d   1      -0.818  -1.158   2.167  0.00  0.00     0.000 A 
ATOM      5  C5  BNZ d   1      -0.141  -0.952   0.981  0.00  0.00     0.000 A 
ATOM      6  C6  BNZ d   1       0.973  -1.705   0.687  0.00  0.00     0.000 A 
ENDROOT
TORSDOF 0
ENDMDL
