MODEL 1
REMARK minimizedAffinity -4.04626846
REMARK minimizedRMSD -1
REMARK  0 active torsions:
REMARK  status: ('A' for Active; 'I' for Inactive)
ROOT
ATOM      1  C1  BNZ d   1      -1.041   2.043  -3.095  0.00  0.00     0.000 A 
ATOM      2  C2  BNZ d   1      -0.285   2.105  -1.956  0.00  0.00     0.000 A 
ATOM      3  C3  BNZ d   1      -0.730   1.548  -0.789  0.00  0.00     0.000 A 
ATOM      4  C4  BNZ d   1      -1.947   0.968  -0.753  0.00  0.00     0.000 A 
ATOM      5  C5  BNZ d   1      -2.726   0.907  -1.891  0.00  0.00     0.000 A 
ATOM      6  C6  BNZ d   1      -2.258   1.433  -3.074  0.00  0.00     0.000 A 
ENDROOT
TORSDOF 0
ENDMDL
