MODEL 1
REMARK minimizedAffinity -4.84835196
REMARK minimizedRMSD -1
REMARK  0 active torsions:
REMARK  status: ('A' for Active; 'I' for Inactive)
ROOT
ATOM      1  C1  BNZ d   1       1.625  -2.868   1.972  0.00  0.00     0.000 A 
ATOM      2  C2  BNZ d   1       1.044  -3.553   3.006  0.00  0.00     0.000 A 
ATOM      3  C3  BNZ d   1      -0.225  -3.255   3.418  0.00  0.00     0.000 A 
ATOM      4  C4  BNZ d   1      -0.895  -2.247   2.824  0.00  0.00     0.000 A 
ATOM      5  C5  BNZ d   1      -0.320  -1.540   1.786  0.00  0.00     0.000 A 
ATOM      6  C6  BNZ d   1       0.942  -1.869   1.348  0.00  0.00     0.000 A 
ENDROOT
TORSDOF 0
ENDMDL
