MODEL 1
REMARK minimizedAffinity -4.97519112
REMARK minimizedRMSD -1
REMARK  0 active torsions:
REMARK  status: ('A' for Active; 'I' for Inactive)
ROOT
ATOM      1  C1  BNZ d   1       0.078  -0.551   0.406  0.00  0.00     0.000 A 
ATOM      2  C2  BNZ d   1      -0.612  -1.011   1.496  0.00  0.00     0.000 A 
ATOM      3  C3  BNZ d   1      -0.244  -2.171   2.120  0.00  0.00     0.000 A 
ATOM      4  C4  BNZ d   1       0.787  -2.888   1.629  0.00  0.00     0.000 A 
ATOM      5  C5  BNZ d   1       1.487  -2.443   0.525  0.00  0.00     0.000 A 
ATOM      6  C6  BNZ d   1       1.138  -1.255  -0.076  0.00  0.00     0.000 A 
ENDROOT
TORSDOF 0
ENDMDL
