MODEL 1
REMARK minimizedAffinity -2.64950228
REMARK minimizedRMSD -1
REMARK  0 active torsions:
REMARK  status: ('A' for Active; 'I' for Inactive)
ROOT
ATOM      1  C1  BNZ d   1      -0.806   3.222  -2.676  0.00  0.00     0.000 A 
ATOM      2  C2  BNZ d   1      -1.133   2.591  -1.505  0.00  0.00     0.000 A 
ATOM      3  C3  BNZ d   1      -2.209   1.751  -1.440  0.00  0.00     0.000 A 
ATOM      4  C4  BNZ d   1      -2.979   1.575  -2.533  0.00  0.00     0.000 A 
ATOM      5  C5  BNZ d   1      -2.668   2.211  -3.718  0.00  0.00     0.000 A 
ATOM      6  C6  BNZ d   1      -1.561   3.026  -3.790  0.00  0.00     0.000 A 
ENDROOT
TORSDOF 0
ENDMDL
