MODEL 1
REMARK minimizedAffinity -2.32551765
REMARK minimizedRMSD -1
REMARK  0 active torsions:
REMARK  status: ('A' for Active; 'I' for Inactive)
ROOT
ATOM      1  C1  BNZ d   1       0.094  -0.566  -2.643  0.00  0.00     0.000 A 
ATOM      2  C2  BNZ d   1       1.035  -0.817  -1.680  0.00  0.00     0.000 A 
ATOM      3  C3  BNZ d   1       0.766  -0.582  -0.361  0.00  0.00     0.000 A 
ATOM      4  C4  BNZ d   1      -0.427  -0.059  -0.010  0.00  0.00     0.000 A 
ATOM      5  C5  BNZ d   1      -1.383   0.208  -0.971  0.00  0.00     0.000 A 
ATOM      6  C6  BNZ d   1      -1.122  -0.066  -2.294  0.00  0.00     0.000 A 
ENDROOT
TORSDOF 0
ENDMDL
