MODEL 1
REMARK minimizedAffinity -2.86456704
REMARK minimizedRMSD -1
REMARK  0 active torsions:
REMARK  status: ('A' for Active; 'I' for Inactive)
ROOT
ATOM      1  C1  BNZ d   1       0.748  -1.663  -0.647  0.00  0.00     0.000 A 
ATOM      2  C2  BNZ d   1      -0.542  -1.231  -0.809  0.00  0.00     0.000 A 
ATOM      3  C3  BNZ d   1      -0.852   0.097  -0.713  0.00  0.00     0.000 A 
ATOM      4  C4  BNZ d   1       0.119   0.985  -0.416  0.00  0.00     0.000 A 
ATOM      5  C5  BNZ d   1       1.422   0.563  -0.241  0.00  0.00     0.000 A 
ATOM      6  C6  BNZ d   1       1.737  -0.770  -0.377  0.00  0.00     0.000 A 
ENDROOT
TORSDOF 0
ENDMDL
