MODEL 1
REMARK minimizedAffinity -2.01843119
REMARK minimizedRMSD -1
REMARK  0 active torsions:
REMARK  status: ('A' for Active; 'I' for Inactive)
ROOT
ATOM      1  C1  BNZ d   1      -0.253   0.039  -0.737  0.00  0.00     0.000 A 
ATOM      2  C2  BNZ d   1      -0.937  -0.451  -1.818  0.00  0.00     0.000 A 
ATOM      3  C3  BNZ d   1      -1.797   0.345  -2.522  0.00  0.00     0.000 A 
ATOM      4  C4  BNZ d   1      -2.003   1.616  -2.120  0.00  0.00     0.000 A 
ATOM      5  C5  BNZ d   1      -1.329   2.122  -1.027  0.00  0.00     0.000 A 
ATOM      6  C6  BNZ d   1      -0.434   1.329  -0.344  0.00  0.00     0.000 A 
ENDROOT
TORSDOF 0
ENDMDL
