MODEL 1
REMARK minimizedAffinity -3.37427258
REMARK minimizedRMSD -1
REMARK  0 active torsions:
REMARK  status: ('A' for Active; 'I' for Inactive)
ROOT
ATOM      1  C1  BNZ d   1      -0.338  -1.174   2.002  0.00  0.00     0.000 A 
ATOM      2  C2  BNZ d   1      -0.707  -0.177   1.138  0.00  0.00     0.000 A 
ATOM      3  C3  BNZ d   1       0.024   0.080   0.013  0.00  0.00     0.000 A 
ATOM      4  C4  BNZ d   1       1.144  -0.632  -0.228  0.00  0.00     0.000 A 
ATOM      5  C5  BNZ d   1       1.534  -1.635   0.638  0.00  0.00     0.000 A 
ATOM      6  C6  BNZ d   1       0.774  -1.917   1.750  0.00  0.00     0.000 A 
ENDROOT
TORSDOF 0
ENDMDL
