MODEL 1
REMARK minimizedAffinity -4.10722589
REMARK minimizedRMSD -1
REMARK  0 active torsions:
REMARK  status: ('A' for Active; 'I' for Inactive)
ROOT
ATOM      1  C1  BNZ d   1       0.462   0.090   0.020  0.00  0.00     0.000 A 
ATOM      2  C2  BNZ d   1       1.619  -0.628  -0.124  0.00  0.00     0.000 A 
ATOM      3  C3  BNZ d   1       1.989  -1.554   0.811  0.00  0.00     0.000 A 
ATOM      4  C4  BNZ d   1       1.224  -1.732   1.907  0.00  0.00     0.000 A 
ATOM      5  C5  BNZ d   1       0.059  -1.010   2.071  0.00  0.00     0.000 A 
ATOM      6  C6  BNZ d   1      -0.331  -0.107   1.109  0.00  0.00     0.000 A 
ENDROOT
TORSDOF 0
ENDMDL
