MODEL 1
REMARK minimizedAffinity -4.7646637
REMARK minimizedRMSD -1
REMARK  0 active torsions:
REMARK  status: ('A' for Active; 'I' for Inactive)
ROOT
ATOM      1  C1  BNZ d   1      -0.318  -2.251   2.397  0.00  0.00     0.000 A 
ATOM      2  C2  BNZ d   1      -0.782  -1.308   1.519  0.00  0.00     0.000 A 
ATOM      3  C3  BNZ d   1      -0.154  -1.095   0.324  0.00  0.00     0.000 A 
ATOM      4  C4  BNZ d   1       0.959  -1.796   0.026  0.00  0.00     0.000 A 
ATOM      5  C5  BNZ d   1       1.445  -2.743   0.905  0.00  0.00     0.000 A 
ATOM      6  C6  BNZ d   1       0.787  -2.982   2.090  0.00  0.00     0.000 A 
ENDROOT
TORSDOF 0
ENDMDL
