MODEL 1
REMARK minimizedAffinity -3.77944875
REMARK minimizedRMSD -1
REMARK  0 active torsions:
REMARK  status: ('A' for Active; 'I' for Inactive)
ROOT
ATOM      1  C1  BNZ d   1       0.859   0.926  -0.001  0.00  0.00     0.000 A 
ATOM      2  C2  BNZ d   1      -0.360   1.550   0.008  0.00  0.00     0.000 A 
ATOM      3  C3  BNZ d   1      -1.403   1.057  -0.725  0.00  0.00     0.000 A 
ATOM      4  C4  BNZ d   1      -1.216  -0.034  -1.495  0.00  0.00     0.000 A 
ATOM      5  C5  BNZ d   1       0.010  -0.669  -1.522  0.00  0.00     0.000 A 
ATOM      6  C6  BNZ d   1       1.047  -0.193  -0.753  0.00  0.00     0.000 A 
ENDROOT
TORSDOF 0
ENDMDL
