MODEL 1
REMARK minimizedAffinity -2.47884536
REMARK minimizedRMSD -1
REMARK  0 active torsions:
REMARK  status: ('A' for Active; 'I' for Inactive)
ROOT
ATOM      1  C1  BNZ d   1      -0.050  -1.200   0.594  0.00  0.00     0.000 A 
ATOM      2  C2  BNZ d   1      -0.592  -1.642   1.771  0.00  0.00     0.000 A 
ATOM      3  C3  BNZ d   1       0.185  -2.261   2.710  0.00  0.00     0.000 A 
ATOM      4  C4  BNZ d   1       1.492  -2.472   2.455  0.00  0.00     0.000 A 
ATOM      5  C5  BNZ d   1       2.051  -2.040   1.268  0.00  0.00     0.000 A 
ATOM      6  C6  BNZ d   1       1.275  -1.383   0.342  0.00  0.00     0.000 A 
ENDROOT
TORSDOF 0
ENDMDL
