MODEL 1
REMARK minimizedAffinity -3.64902163
REMARK minimizedRMSD -1
REMARK  0 active torsions:
REMARK  status: ('A' for Active; 'I' for Inactive)
ROOT
ATOM      1  C1  BNZ d   1       1.094  -0.743  -0.460  0.00  0.00     0.000 A 
ATOM      2  C2  BNZ d   1      -0.202  -0.400  -0.179  0.00  0.00     0.000 A 
ATOM      3  C3  BNZ d   1      -0.601   0.907  -0.201  0.00  0.00     0.000 A 
ATOM      4  C4  BNZ d   1       0.304   1.872  -0.464  0.00  0.00     0.000 A 
ATOM      5  C5  BNZ d   1       1.617   1.543  -0.739  0.00  0.00     0.000 A 
ATOM      6  C6  BNZ d   1       2.006   0.223  -0.755  0.00  0.00     0.000 A 
ENDROOT
TORSDOF 0
ENDMDL
