MODEL 1
REMARK minimizedAffinity -0.972476602
REMARK minimizedRMSD -1
REMARK  0 active torsions:
REMARK  status: ('A' for Active; 'I' for Inactive)
ROOT
ATOM      1  C1  BNZ d   1      -2.140   0.549  -1.503  0.00  0.00     0.000 A 
ATOM      2  C2  BNZ d   1      -2.777   0.158  -2.651  0.00  0.00     0.000 A 
ATOM      3  C3  BNZ d   1      -2.622   0.863  -3.812  0.00  0.00     0.000 A 
ATOM      4  C4  BNZ d   1      -1.865   1.979  -3.815  0.00  0.00     0.000 A 
ATOM      5  C5  BNZ d   1      -1.224   2.391  -2.664  0.00  0.00     0.000 A 
ATOM      6  C6  BNZ d   1      -1.350   1.658  -1.506  0.00  0.00     0.000 A 
ENDROOT
TORSDOF 0
ENDMDL
