MODEL 1
REMARK minimizedAffinity -3.40794921
REMARK minimizedRMSD -1
REMARK  0 active torsions:
REMARK  status: ('A' for Active; 'I' for Inactive)
ROOT
ATOM      1  C1  BNZ d   1       0.443   0.239   0.016  0.00  0.00     0.000 A 
ATOM      2  C2  BNZ d   1       1.626  -0.433  -0.136  0.00  0.00     0.000 A 
ATOM      3  C3  BNZ d   1       2.061  -1.310   0.818  0.00  0.00     0.000 A 
ATOM      4  C4  BNZ d   1       1.333  -1.483   1.941  0.00  0.00     0.000 A 
ATOM      5  C5  BNZ d   1       0.143  -0.805   2.113  0.00  0.00     0.000 A 
ATOM      6  C6  BNZ d   1      -0.311   0.047   1.133  0.00  0.00     0.000 A 
ENDROOT
TORSDOF 0
ENDMDL
