MODEL 1
REMARK minimizedAffinity -2.4077363
REMARK minimizedRMSD -1
REMARK  0 active torsions:
REMARK  status: ('A' for Active; 'I' for Inactive)
ROOT
ATOM      1  C4' PXY d   1      -1.839   2.547   1.900  0.00  0.00     0.077 C 
ATOM      2  C1' PXY d   1       0.993  -1.043  -1.636  0.00  0.00     0.077 C 
ATOM      3  C1  PXY d   1       0.257  -0.091  -0.714  0.00  0.00    -0.082 A 
ATOM      4  C2  PXY d   1      -0.233  -0.538   0.431  0.00  0.00     0.003 A 
ATOM      5  C3  PXY d   1      -0.930   0.302   1.262  0.00  0.00     0.003 A 
ATOM      6  C4  PXY d   1      -1.080   1.625   0.942  0.00  0.00    -0.082 A 
ATOM      7  C5  PXY d   1      -0.573   2.090  -0.219  0.00  0.00     0.003 A 
ATOM      8  C6  PXY d   1       0.095   1.213  -1.068  0.00  0.00     0.003 A 
ENDROOT
TORSDOF 0
ENDMDL
