MODEL 1
REMARK minimizedAffinity 6.3172965
REMARK minimizedRMSD -1
REMARK  0 active torsions:
REMARK  status: ('A' for Active; 'I' for Inactive)
ROOT
ATOM      1  C4' PXY d   1       0.811  -1.467   1.896  0.00  0.00     0.077 C 
ATOM      2  C1' PXY d   1      -1.137   2.268  -2.063  0.00  0.00     0.077 C 
ATOM      3  C1  PXY d   1      -0.636   1.280  -1.028  0.00  0.00    -0.082 A 
ATOM      4  C2  PXY d   1       0.095   1.711  -0.012  0.00  0.00     0.003 A 
ATOM      5  C3  PXY d   1       0.583   0.827   0.916  0.00  0.00     0.003 A 
ATOM      6  C4  PXY d   1       0.275  -0.505   0.832  0.00  0.00    -0.082 A 
ATOM      7  C5  PXY d   1      -0.478  -0.951  -0.195  0.00  0.00     0.003 A 
ATOM      8  C6  PXY d   1      -0.929  -0.043  -1.149  0.00  0.00     0.003 A 
ENDROOT
TORSDOF 0
ENDMDL
