MODEL 1
REMARK minimizedAffinity -5.31445408
REMARK minimizedRMSD -1
REMARK  0 active torsions:
REMARK  status: ('A' for Active; 'I' for Inactive)
ROOT
ATOM      1  C4' PXY d   1       0.795  -2.203  -0.730  0.00  0.00     0.077 C 
ATOM      2  C1' PXY d   1      -1.937   2.472   1.292  0.00  0.00     0.077 C 
ATOM      3  C1  PXY d   1      -1.218   1.242   0.774  0.00  0.00    -0.082 A 
ATOM      4  C2  PXY d   1      -0.732   1.239  -0.456  0.00  0.00     0.003 A 
ATOM      5  C3  PXY d   1      -0.107   0.123  -0.952  0.00  0.00     0.003 A 
ATOM      6  C4  PXY d   1       0.070  -0.981  -0.162  0.00  0.00    -0.082 A 
ATOM      7  C5  PXY d   1      -0.414  -0.981   1.099  0.00  0.00     0.003 A 
ATOM      8  C6  PXY d   1      -1.082   0.146   1.569  0.00  0.00     0.003 A 
ENDROOT
TORSDOF 0
ENDMDL
