MODEL 1
REMARK minimizedAffinity -5.06517267
REMARK minimizedRMSD -1
REMARK  0 active torsions:
REMARK  status: ('A' for Active; 'I' for Inactive)
ROOT
ATOM      1  C4' PXY d   1      -1.436   3.117   1.314  0.00  0.00     0.077 C 
ATOM      2  C1' PXY d   1       1.459  -1.654  -0.192  0.00  0.00     0.077 C 
ATOM      3  C1  PXY d   1       0.694  -0.410   0.212  0.00  0.00    -0.082 A 
ATOM      4  C2  PXY d   1       0.543   0.576  -0.657  0.00  0.00     0.003 A 
ATOM      5  C3  PXY d   1      -0.119   1.722  -0.298  0.00  0.00     0.003 A 
ATOM      6  C4  PXY d   1      -0.679   1.838   0.947  0.00  0.00    -0.082 A 
ATOM      7  C5  PXY d   1      -0.538   0.832   1.835  0.00  0.00     0.003 A 
ATOM      8  C6  PXY d   1       0.173  -0.306   1.465  0.00  0.00     0.003 A 
ENDROOT
TORSDOF 0
ENDMDL
