MODEL 1
REMARK minimizedAffinity -0.183386013
REMARK minimizedRMSD -1
REMARK  0 active torsions:
REMARK  status: ('A' for Active; 'I' for Inactive)
ROOT
ATOM      1  C4' PXY d   1       1.132  -3.227  -1.477  0.00  0.00     0.077 C 
ATOM      2  C1' PXY d   1       0.056   2.315  -0.233  0.00  0.00     0.077 C 
ATOM      3  C1  PXY d   1       0.326   0.859  -0.555  0.00  0.00    -0.082 A 
ATOM      4  C2  PXY d   1       1.574   0.425  -0.625  0.00  0.00     0.003 A 
ATOM      5  C3  PXY d   1       1.838  -0.882  -0.946  0.00  0.00     0.003 A 
ATOM      6  C4  PXY d   1       0.812  -1.766  -1.145  0.00  0.00    -0.082 A 
ATOM      7  C5  PXY d   1      -0.465  -1.334  -1.065  0.00  0.00     0.003 A 
ATOM      8  C6  PXY d   1      -0.710   0.006  -0.778  0.00  0.00     0.003 A 
ENDROOT
TORSDOF 0
ENDMDL
