MODEL 1
REMARK minimizedAffinity -1.18170762
REMARK minimizedRMSD -1
REMARK  0 active torsions:
REMARK  status: ('A' for Active; 'I' for Inactive)
ROOT
ATOM      1  C4' PXY d   1       1.158  -5.201  -0.309  0.00  0.00     0.077 C 
ATOM      2  C1' PXY d   1       1.273   0.399  -1.738  0.00  0.00     0.077 C 
ATOM      3  C1  PXY d   1       1.233  -1.072  -1.372  0.00  0.00    -0.082 A 
ATOM      4  C2  PXY d   1       1.684  -1.464  -0.192  0.00  0.00     0.003 A 
ATOM      5  C3  PXY d   1       1.685  -2.794   0.143  0.00  0.00     0.003 A 
ATOM      6  C4  PXY d   1       1.170  -3.726  -0.717  0.00  0.00    -0.082 A 
ATOM      7  C5  PXY d   1       0.698  -3.332  -1.919  0.00  0.00     0.003 A 
ATOM      8  C6  PXY d   1       0.744  -1.982  -2.257  0.00  0.00     0.003 A 
ENDROOT
TORSDOF 0
ENDMDL
