MODEL 1
REMARK minimizedAffinity -4.48915577
REMARK minimizedRMSD -1
REMARK  0 active torsions:
REMARK  status: ('A' for Active; 'I' for Inactive)
ROOT
ATOM      1  C4' PXY d   1      -2.472   2.466   1.138  0.00  0.00     0.077 C 
ATOM      2  C1' PXY d   1       1.480  -1.491  -0.326  0.00  0.00     0.077 C 
ATOM      3  C1  PXY d   1       0.438  -0.461   0.067  0.00  0.00    -0.082 A 
ATOM      4  C2  PXY d   1       0.091   0.480  -0.796  0.00  0.00     0.003 A 
ATOM      5  C3  PXY d   1      -0.826   1.437  -0.446  0.00  0.00     0.003 A 
ATOM      6  C4  PXY d   1      -1.432   1.400   0.781  0.00  0.00    -0.082 A 
ATOM      7  C5  PXY d   1      -1.091   0.437   1.663  0.00  0.00     0.003 A 
ATOM      8  C6  PXY d   1      -0.128  -0.501   1.303  0.00  0.00     0.003 A 
ENDROOT
TORSDOF 0
ENDMDL
