MODEL 1
REMARK minimizedAffinity 1.6048795
REMARK minimizedRMSD -1
REMARK  0 active torsions:
REMARK  status: ('A' for Active; 'I' for Inactive)
ROOT
ATOM      1  C4' PXY d   1       1.730  -1.873  -0.848  0.00  0.00     0.077 C 
ATOM      2  C1' PXY d   1      -1.178   2.135   2.135  0.00  0.00     0.077 C 
ATOM      3  C1  PXY d   1      -0.419   1.089   1.341  0.00  0.00    -0.082 A 
ATOM      4  C2  PXY d   1      -0.130  -0.074   1.901  0.00  0.00     0.003 A 
ATOM      5  C3  PXY d   1       0.584  -1.019   1.209  0.00  0.00     0.003 A 
ATOM      6  C4  PXY d   1       0.958  -0.791  -0.088  0.00  0.00    -0.082 A 
ATOM      7  C5  PXY d   1       0.657   0.389  -0.670  0.00  0.00     0.003 A 
ATOM      8  C6  PXY d   1      -0.032   1.351   0.063  0.00  0.00     0.003 A 
ENDROOT
TORSDOF 0
ENDMDL
