MODEL 1
REMARK minimizedAffinity -2.60177326
REMARK minimizedRMSD -1
REMARK  0 active torsions:
REMARK  status: ('A' for Active; 'I' for Inactive)
ROOT
ATOM      1  C4' PXY d   1      -1.708   2.508   1.740  0.00  0.00     0.077 C 
ATOM      2  C1' PXY d   1       0.943  -1.622  -1.315  0.00  0.00     0.077 C 
ATOM      3  C1  PXY d   1       0.242  -0.548  -0.506  0.00  0.00    -0.082 A 
ATOM      4  C2  PXY d   1       0.014   0.636  -1.051  0.00  0.00     0.003 A 
ATOM      5  C3  PXY d   1      -0.590   1.629  -0.323  0.00  0.00     0.003 A 
ATOM      6  C4  PXY d   1      -1.012   1.391   0.958  0.00  0.00    -0.082 A 
ATOM      7  C5  PXY d   1      -0.792   0.182   1.516  0.00  0.00     0.003 A 
ATOM      8  C6  PXY d   1      -0.141  -0.800   0.775  0.00  0.00     0.003 A 
ENDROOT
TORSDOF 0
ENDMDL
