MODEL 1
REMARK minimizedAffinity -5.90937281
REMARK minimizedRMSD -1
REMARK  0 active torsions:
REMARK  status: ('A' for Active; 'I' for Inactive)
ROOT
ATOM      1  C4' PXY d   1      -0.095   3.335  -1.157  0.00  0.00     0.077 C 
ATOM      2  C1' PXY d   1      -1.156  -0.988   2.532  0.00  0.00     0.077 C 
ATOM      3  C1  PXY d   1      -0.889   0.152   1.569  0.00  0.00    -0.082 A 
ATOM      4  C2  PXY d   1      -0.121  -0.053   0.510  0.00  0.00     0.003 A 
ATOM      5  C3  PXY d   1       0.157   0.975  -0.354  0.00  0.00     0.003 A 
ATOM      6  C4  PXY d   1      -0.400   2.211  -0.162  0.00  0.00    -0.082 A 
ATOM      7  C5  PXY d   1      -1.193   2.425   0.909  0.00  0.00     0.003 A 
ATOM      8  C6  PXY d   1      -1.429   1.380   1.797  0.00  0.00     0.003 A 
ENDROOT
TORSDOF 0
ENDMDL
