MODEL 1
REMARK minimizedAffinity -3.77043366
REMARK minimizedRMSD -1
REMARK  0 active torsions:
REMARK  status: ('A' for Active; 'I' for Inactive)
ROOT
ATOM      1  C4' PXY d   1       0.004   2.278  -0.965  0.00  0.00     0.077 C 
ATOM      2  C1' PXY d   1      -1.429  -1.027   3.556  0.00  0.00     0.077 C 
ATOM      3  C1  PXY d   1      -1.042  -0.168   2.368  0.00  0.00    -0.082 A 
ATOM      4  C2  PXY d   1      -1.472   1.082   2.298  0.00  0.00     0.003 A 
ATOM      5  C3  PXY d   1      -1.159   1.863   1.215  0.00  0.00     0.003 A 
ATOM      6  C4  PXY d   1      -0.353   1.377   0.220  0.00  0.00    -0.082 A 
ATOM      7  C5  PXY d   1       0.098   0.107   0.290  0.00  0.00     0.003 A 
ATOM      8  C6  PXY d   1      -0.265  -0.683   1.377  0.00  0.00     0.003 A 
ENDROOT
TORSDOF 0
ENDMDL
