MODEL 1
REMARK minimizedAffinity -0.711831391
REMARK minimizedRMSD -1
REMARK  0 active torsions:
REMARK  status: ('A' for Active; 'I' for Inactive)
ROOT
ATOM      1  C4' PXY d   1      -1.605   1.514  -0.018  0.00  0.00     0.077 C 
ATOM      2  C1' PXY d   1       1.550  -3.067  -1.591  0.00  0.00     0.077 C 
ATOM      3  C1  PXY d   1       0.728  -1.858  -1.188  0.00  0.00    -0.082 A 
ATOM      4  C2  PXY d   1       0.270  -1.762   0.050  0.00  0.00     0.003 A 
ATOM      5  C3  PXY d   1      -0.502  -0.692   0.422  0.00  0.00     0.003 A 
ATOM      6  C4  PXY d   1      -0.763   0.316  -0.466  0.00  0.00    -0.082 A 
ATOM      7  C5  PXY d   1      -0.290   0.231  -1.728  0.00  0.00     0.003 A 
ATOM      8  C6  PXY d   1       0.457  -0.884  -2.098  0.00  0.00     0.003 A 
ENDROOT
TORSDOF 0
ENDMDL
