MODEL 1
REMARK minimizedAffinity -1.50277221
REMARK minimizedRMSD -1
REMARK  0 active torsions:
REMARK  status: ('A' for Active; 'I' for Inactive)
ROOT
ATOM      1  C4' PXY d   1      -2.011   2.246   0.794  0.00  0.00     0.077 C 
ATOM      2  C1' PXY d   1       1.446  -2.020  -1.012  0.00  0.00     0.077 C 
ATOM      3  C1  PXY d   1       0.544  -0.893  -0.548  0.00  0.00    -0.082 A 
ATOM      4  C2  PXY d   1       0.092  -0.887   0.696  0.00  0.00     0.003 A 
ATOM      5  C3  PXY d   1      -0.750   0.107   1.123  0.00  0.00     0.003 A 
ATOM      6  C4  PXY d   1      -1.091   1.134   0.284  0.00  0.00    -0.082 A 
ATOM      7  C5  PXY d   1      -0.626   1.141  -0.983  0.00  0.00     0.003 A 
ATOM      8  C6  PXY d   1       0.195   0.100  -1.409  0.00  0.00     0.003 A 
ENDROOT
TORSDOF 0
ENDMDL
