MODEL 1
REMARK minimizedAffinity -4.57519913
REMARK minimizedRMSD -1
REMARK  0 active torsions:
REMARK  status: ('A' for Active; 'I' for Inactive)
ROOT
ATOM      1  C4' PXY d   1       1.443  -1.522  -0.986  0.00  0.00     0.077 C 
ATOM      2  C1' PXY d   1      -2.095   2.228   1.628  0.00  0.00     0.077 C 
ATOM      3  C1  PXY d   1      -1.162   1.241   0.954  0.00  0.00    -0.082 A 
ATOM      4  C2  PXY d   1      -0.836   1.412  -0.317  0.00  0.00     0.003 A 
ATOM      5  C3  PXY d   1      -0.020   0.511  -0.951  0.00  0.00     0.003 A 
ATOM      6  C4  PXY d   1       0.512  -0.546  -0.262  0.00  0.00    -0.082 A 
ATOM      7  C5  PXY d   1       0.194  -0.721   1.038  0.00  0.00     0.003 A 
ATOM      8  C6  PXY d   1      -0.670   0.182   1.652  0.00  0.00     0.003 A 
ENDROOT
TORSDOF 0
ENDMDL
