MODEL 1
REMARK minimizedAffinity -2.78731871
REMARK minimizedRMSD -1
REMARK  0 active torsions:
REMARK  status: ('A' for Active; 'I' for Inactive)
ROOT
ATOM      1  C4' PXY d   1       0.704  -1.372  -0.848  0.00  0.00     0.077 C 
ATOM      2  C1' PXY d   1      -2.382   2.902   1.524  0.00  0.00     0.077 C 
ATOM      3  C1  PXY d   1      -1.569   1.777   0.914  0.00  0.00    -0.082 A 
ATOM      4  C2  PXY d   1      -1.136   1.884  -0.332  0.00  0.00     0.003 A 
ATOM      5  C3  PXY d   1      -0.427   0.863  -0.910  0.00  0.00     0.003 A 
ATOM      6  C4  PXY d   1      -0.112  -0.257  -0.188  0.00  0.00    -0.082 A 
ATOM      7  C5  PXY d   1      -0.541  -0.369   1.088  0.00  0.00     0.003 A 
ATOM      8  C6  PXY d   1      -1.294   0.661   1.643  0.00  0.00     0.003 A 
ENDROOT
TORSDOF 0
ENDMDL
