MODEL 1
REMARK minimizedAffinity -4.37436914
REMARK minimizedRMSD -1
REMARK  0 active torsions:
REMARK  status: ('A' for Active; 'I' for Inactive)
ROOT
ATOM      1  C4' PXY d   1       1.533  -1.123  -0.662  0.00  0.00     0.077 C 
ATOM      2  C1' PXY d   1      -2.742   2.067   1.565  0.00  0.00     0.077 C 
ATOM      3  C1  PXY d   1      -1.617   1.227   0.993  0.00  0.00    -0.082 A 
ATOM      4  C2  PXY d   1      -1.154   1.492  -0.217  0.00  0.00     0.003 A 
ATOM      5  C3  PXY d   1      -0.158   0.722  -0.763  0.00  0.00     0.003 A 
ATOM      6  C4  PXY d   1       0.404  -0.296  -0.041  0.00  0.00    -0.082 A 
ATOM      7  C5  PXY d   1      -0.056  -0.566   1.199  0.00  0.00     0.003 A 
ATOM      8  C6  PXY d   1      -1.095   0.201   1.719  0.00  0.00     0.003 A 
ENDROOT
TORSDOF 0
ENDMDL
