MODEL 1
REMARK minimizedAffinity -2.74502754
REMARK minimizedRMSD -1
REMARK  0 active torsions:
REMARK  status: ('A' for Active; 'I' for Inactive)
ROOT
ATOM      1  C4' PXY d   1       1.420  -1.843  -1.458  0.00  0.00     0.077 C 
ATOM      2  C1' PXY d   1      -1.381   1.838   2.010  0.00  0.00     0.077 C 
ATOM      3  C1  PXY d   1      -0.652   0.878   1.090  0.00  0.00    -0.082 A 
ATOM      4  C2  PXY d   1      -0.193  -0.267   1.570  0.00  0.00     0.003 A 
ATOM      5  C3  PXY d   1       0.496  -1.132   0.760  0.00  0.00     0.003 A 
ATOM      6  C4  PXY d   1       0.670  -0.848  -0.568  0.00  0.00    -0.082 A 
ATOM      7  C5  PXY d   1       0.195   0.313  -1.068  0.00  0.00     0.003 A 
ATOM      8  C6  PXY d   1      -0.465   1.197  -0.219  0.00  0.00     0.003 A 
ENDROOT
TORSDOF 0
ENDMDL
