MODEL 1
REMARK minimizedAffinity -2.56230879
REMARK minimizedRMSD -1
REMARK  0 active torsions:
REMARK  status: ('A' for Active; 'I' for Inactive)
ROOT
ATOM      1  C4' PXY d   1      -1.495   2.156   0.921  0.00  0.00     0.077 C 
ATOM      2  C1' PXY d   1       1.150  -2.516  -1.222  0.00  0.00     0.077 C 
ATOM      3  C1  PXY d   1       0.463  -1.283  -0.668  0.00  0.00    -0.082 A 
ATOM      4  C2  PXY d   1      -0.011  -1.298   0.567  0.00  0.00     0.003 A 
ATOM      5  C3  PXY d   1      -0.664  -0.203   1.072  0.00  0.00     0.003 A 
ATOM      6  C4  PXY d   1      -0.786   0.937   0.324  0.00  0.00    -0.082 A 
ATOM      7  C5  PXY d   1      -0.296   0.964  -0.933  0.00  0.00     0.003 A 
ATOM      8  C6  PXY d   1       0.327  -0.173  -1.442  0.00  0.00     0.003 A 
ENDROOT
TORSDOF 0
ENDMDL
