MODEL 1
REMARK minimizedAffinity -3.31770992
REMARK minimizedRMSD -1
REMARK  0 active torsions:
REMARK  status: ('A' for Active; 'I' for Inactive)
ROOT
ATOM      1  C4' PXY d   1      -0.803   3.981  -0.889  0.00  0.00     0.077 C 
ATOM      2  C1' PXY d   1      -1.023  -0.982   2.065  0.00  0.00     0.077 C 
ATOM      3  C1  PXY d   1      -0.954   0.316   1.285  0.00  0.00    -0.082 A 
ATOM      4  C2  PXY d   1      -1.590   1.384   1.735  0.00  0.00     0.003 A 
ATOM      5  C3  PXY d   1      -1.565   2.558   1.026  0.00  0.00     0.003 A 
ATOM      6  C4  PXY d   1      -0.837   2.653  -0.130  0.00  0.00    -0.082 A 
ATOM      7  C5  PXY d   1      -0.176   1.569  -0.591  0.00  0.00     0.003 A 
ATOM      8  C6  PXY d   1      -0.248   0.377   0.123  0.00  0.00     0.003 A 
ENDROOT
TORSDOF 0
ENDMDL
