MODEL 1
REMARK minimizedAffinity -5.5437479
REMARK minimizedRMSD -1
REMARK  0 active torsions:
REMARK  status: ('A' for Active; 'I' for Inactive)
ROOT
ATOM      1  C4' PXY d   1       0.550  -1.572  -0.929  0.00  0.00     0.077 C 
ATOM      2  C1' PXY d   1      -1.515   3.352   1.284  0.00  0.00     0.077 C 
ATOM      3  C1  PXY d   1      -0.973   2.066   0.692  0.00  0.00    -0.082 A 
ATOM      4  C2  PXY d   1      -1.185   0.919   1.315  0.00  0.00     0.003 A 
ATOM      5  C3  PXY d   1      -0.675  -0.250   0.810  0.00  0.00     0.003 A 
ATOM      6  C4  PXY d   1       0.014  -0.250  -0.373  0.00  0.00    -0.082 A 
ATOM      7  C5  PXY d   1       0.225   0.915  -1.020  0.00  0.00     0.003 A 
ATOM      8  C6  PXY d   1      -0.265   2.096  -0.470  0.00  0.00     0.003 A 
ENDROOT
TORSDOF 0
ENDMDL
