MODEL 1
REMARK minimizedAffinity -3.84426403
REMARK minimizedRMSD -1
REMARK  0 active torsions:
REMARK  status: ('A' for Active; 'I' for Inactive)
ROOT
ATOM      1  C   UNL d   1      -0.474   2.838   0.849  0.00  0.00     0.023 A 
ATOM      2  C1  UNL d   1      -1.484   1.944   1.205  0.00  0.00     0.003 A 
ATOM      3  C2  UNL d   1      -1.369   0.591   0.877  0.00  0.00     0.048 A 
ATOM      4  C3  UNL d   1      -0.240   0.140   0.193  0.00  0.00     0.023 A 
ATOM      5  C4  UNL d   1       0.773   1.030  -0.164  0.00  0.00     0.048 A 
ATOM      6  C5  UNL d   1       0.653   2.382   0.165  0.00  0.00     0.003 A 
ATOM      7  I   UNL d   1      -0.066  -1.873  -0.296  0.00  0.00    -0.146 I 
ENDROOT
TORSDOF 0
ENDMDL
