MODEL 1
REMARK minimizedAffinity 0.784030437
REMARK minimizedRMSD -1
REMARK  0 active torsions:
REMARK  status: ('A' for Active; 'I' for Inactive)
ROOT
ATOM      1  C   UNL d   1      -1.479   2.601   1.264  0.00  0.00     0.023 A 
ATOM      2  C1  UNL d   1      -0.224   2.554   0.658  0.00  0.00     0.003 A 
ATOM      3  C2  UNL d   1       0.317   1.329   0.263  0.00  0.00     0.048 A 
ATOM      4  C3  UNL d   1      -0.404   0.154   0.477  0.00  0.00     0.023 A 
ATOM      5  C4  UNL d   1      -1.661   0.196   1.083  0.00  0.00     0.048 A 
ATOM      6  C5  UNL d   1      -2.197   1.424   1.477  0.00  0.00     0.003 A 
ATOM      7  I   UNL d   1       0.399  -1.671  -0.110  0.00  0.00    -0.146 I 
ENDROOT
TORSDOF 0
ENDMDL
