MODEL 1
REMARK minimizedAffinity -4.38011265
REMARK minimizedRMSD -1
REMARK  0 active torsions:
REMARK  status: ('A' for Active; 'I' for Inactive)
ROOT
ATOM      1  C   UNL d   1       0.153   3.282   0.819  0.00  0.00     0.023 A 
ATOM      2  C1  UNL d   1      -1.094   2.666   0.719  0.00  0.00     0.003 A 
ATOM      3  C2  UNL d   1      -1.190   1.349   0.266  0.00  0.00     0.048 A 
ATOM      4  C3  UNL d   1      -0.033   0.653  -0.085  0.00  0.00     0.023 A 
ATOM      5  C4  UNL d   1       1.217   1.265   0.015  0.00  0.00     0.048 A 
ATOM      6  C5  UNL d   1       1.308   2.582   0.468  0.00  0.00     0.003 A 
ATOM      7  I   UNL d   1      -0.173  -1.308  -0.760  0.00  0.00    -0.146 I 
ENDROOT
TORSDOF 0
ENDMDL
