MODEL 1
REMARK minimizedAffinity -3.89608765
REMARK minimizedRMSD -1
REMARK  0 active torsions:
REMARK  status: ('A' for Active; 'I' for Inactive)
ROOT
ATOM      1  C   UNL d   1      -0.776   2.523   0.577  0.00  0.00     0.023 A 
ATOM      2  C1  UNL d   1      -1.689   1.513   0.882  0.00  0.00     0.003 A 
ATOM      3  C2  UNL d   1      -1.414   0.191   0.527  0.00  0.00     0.048 A 
ATOM      4  C3  UNL d   1      -0.223  -0.115  -0.131  0.00  0.00     0.023 A 
ATOM      5  C4  UNL d   1       0.694   0.892  -0.437  0.00  0.00     0.048 A 
ATOM      6  C5  UNL d   1       0.414   2.213  -0.082  0.00  0.00     0.003 A 
ATOM      7  I   UNL d   1       0.189  -2.082  -0.659  0.00  0.00    -0.146 I 
ENDROOT
TORSDOF 0
ENDMDL
