MODEL 1
REMARK minimizedAffinity -4.64143562
REMARK minimizedRMSD -1
REMARK  0 active torsions:
REMARK  status: ('A' for Active; 'I' for Inactive)
ROOT
ATOM      1  C   UNL d   1      -0.196   2.593   0.628  0.00  0.00     0.023 A 
ATOM      2  C1  UNL d   1      -1.397   1.935   0.890  0.00  0.00     0.003 A 
ATOM      3  C2  UNL d   1      -1.527   0.575   0.601  0.00  0.00     0.048 A 
ATOM      4  C3  UNL d   1      -0.451  -0.121   0.052  0.00  0.00     0.023 A 
ATOM      5  C4  UNL d   1       0.754   0.533  -0.211  0.00  0.00     0.048 A 
ATOM      6  C5  UNL d   1       0.879   1.893   0.078  0.00  0.00     0.003 A 
ATOM      7  I   UNL d   1      -0.641  -2.146  -0.378  0.00  0.00    -0.146 I 
ENDROOT
TORSDOF 0
ENDMDL
