MODEL 1
REMARK minimizedAffinity -3.80735517
REMARK minimizedRMSD -1
REMARK  0 active torsions:
REMARK  status: ('A' for Active; 'I' for Inactive)
ROOT
ATOM      1  C   UNL d   1      -0.760   3.028   0.815  0.00  0.00     0.023 A 
ATOM      2  C1  UNL d   1       0.229   2.642  -0.091  0.00  0.00     0.003 A 
ATOM      3  C2  UNL d   1       0.400   1.293  -0.407  0.00  0.00     0.048 A 
ATOM      4  C3  UNL d   1      -0.421   0.334   0.186  0.00  0.00     0.023 A 
ATOM      5  C4  UNL d   1      -1.412   0.715   1.092  0.00  0.00     0.048 A 
ATOM      6  C5  UNL d   1      -1.579   2.066   1.406  0.00  0.00     0.003 A 
ATOM      7  I   UNL d   1      -0.168  -1.675  -0.283  0.00  0.00    -0.146 I 
ENDROOT
TORSDOF 0
ENDMDL
