MODEL 1
REMARK minimizedAffinity -1.44345331
REMARK minimizedRMSD -1
REMARK  0 active torsions:
REMARK  status: ('A' for Active; 'I' for Inactive)
ROOT
ATOM      1  C   UNL d   1      -0.863   2.124   0.923  0.00  0.00     0.023 A 
ATOM      2  C1  UNL d   1      -1.803   1.135   1.215  0.00  0.00     0.003 A 
ATOM      3  C2  UNL d   1      -1.669  -0.141   0.663  0.00  0.00     0.048 A 
ATOM      4  C3  UNL d   1      -0.593  -0.421  -0.179  0.00  0.00     0.023 A 
ATOM      5  C4  UNL d   1       0.350   0.566  -0.472  0.00  0.00     0.048 A 
ATOM      6  C5  UNL d   1       0.212   1.840   0.081  0.00  0.00     0.003 A 
ATOM      7  I   UNL d   1      -0.391  -2.319  -1.001  0.00  0.00    -0.146 I 
ENDROOT
TORSDOF 0
ENDMDL
