MODEL 1
REMARK minimizedAffinity -2.66091394
REMARK minimizedRMSD -1
REMARK  0 active torsions:
REMARK  status: ('A' for Active; 'I' for Inactive)
ROOT
ATOM      1  C   UNL d   1      -1.803   2.591   1.071  0.00  0.00     0.023 A 
ATOM      2  C1  UNL d   1      -0.516   2.472   0.544  0.00  0.00     0.003 A 
ATOM      3  C2  UNL d   1       0.005   1.211   0.248  0.00  0.00     0.048 A 
ATOM      4  C3  UNL d   1      -0.766   0.073   0.479  0.00  0.00     0.023 A 
ATOM      5  C4  UNL d   1      -2.054   0.186   1.005  0.00  0.00     0.048 A 
ATOM      6  C5  UNL d   1      -2.571   1.449   1.301  0.00  0.00     0.003 A 
ATOM      7  I   UNL d   1       0.008  -1.805   0.038  0.00  0.00    -0.146 I 
ENDROOT
TORSDOF 0
ENDMDL
