MODEL 1
REMARK minimizedAffinity -1.06273377
REMARK minimizedRMSD -1
REMARK  0 active torsions:
REMARK  status: ('A' for Active; 'I' for Inactive)
ROOT
ATOM      1  C   UNL d   1      -1.168   2.177   1.109  0.00  0.00     0.023 A 
ATOM      2  C1  UNL d   1       0.132   1.728   0.879  0.00  0.00     0.003 A 
ATOM      3  C2  UNL d   1       0.349   0.455   0.347  0.00  0.00     0.048 A 
ATOM      4  C3  UNL d   1      -0.739  -0.363   0.047  0.00  0.00     0.023 A 
ATOM      5  C4  UNL d   1      -2.042   0.082   0.274  0.00  0.00     0.048 A 
ATOM      6  C5  UNL d   1      -2.254   1.355   0.807  0.00  0.00     0.003 A 
ATOM      7  I   UNL d   1      -0.418  -2.258  -0.745  0.00  0.00    -0.146 I 
ENDROOT
TORSDOF 0
ENDMDL
