MODEL 1
REMARK minimizedAffinity -4.77755213
REMARK minimizedRMSD -1
REMARK  0 active torsions:
REMARK  status: ('A' for Active; 'I' for Inactive)
ROOT
ATOM      1  C   UNL d   1      -2.147   0.916   0.645  0.00  0.00     0.023 A 
ATOM      2  C1  UNL d   1      -1.725   2.243   0.564  0.00  0.00     0.003 A 
ATOM      3  C2  UNL d   1      -0.362   2.543   0.548  0.00  0.00     0.048 A 
ATOM      4  C3  UNL d   1       0.575   1.512   0.612  0.00  0.00     0.023 A 
ATOM      5  C4  UNL d   1       0.157   0.182   0.693  0.00  0.00     0.048 A 
ATOM      6  C5  UNL d   1      -1.208  -0.113   0.709  0.00  0.00     0.003 A 
ATOM      7  I   UNL d   1       2.605   1.956   0.588  0.00  0.00    -0.146 I 
ENDROOT
TORSDOF 0
ENDMDL
