MODEL 1
REMARK minimizedAffinity 3.74061656
REMARK minimizedRMSD -1
REMARK  0 active torsions:
REMARK  status: ('A' for Active; 'I' for Inactive)
ROOT
ATOM      1  C   UNL d   1      -1.288   2.369   2.009  0.00  0.00     0.023 A 
ATOM      2  C1  UNL d   1      -0.127   1.600   1.927  0.00  0.00     0.003 A 
ATOM      3  C2  UNL d   1      -0.149   0.367   1.271  0.00  0.00     0.048 A 
ATOM      4  C3  UNL d   1      -1.336  -0.089   0.698  0.00  0.00     0.023 A 
ATOM      5  C4  UNL d   1      -2.500   0.677   0.777  0.00  0.00     0.048 A 
ATOM      6  C5  UNL d   1      -2.472   1.909   1.435  0.00  0.00     0.003 A 
ATOM      7  I   UNL d   1      -1.372  -1.924  -0.279  0.00  0.00    -0.146 I 
ENDROOT
TORSDOF 0
ENDMDL
