MODEL 1
REMARK minimizedAffinity -4.8515954
REMARK minimizedRMSD -1
REMARK  0 active torsions:
REMARK  status: ('A' for Active; 'I' for Inactive)
ROOT
ATOM      1  C   UNL d   1       0.483   3.542   0.336  0.00  0.00     0.023 A 
ATOM      2  C1  UNL d   1       1.513   2.748  -0.168  0.00  0.00     0.003 A 
ATOM      3  C2  UNL d   1       1.335   1.369  -0.295  0.00  0.00     0.048 A 
ATOM      4  C3  UNL d   1       0.123   0.791   0.082  0.00  0.00     0.023 A 
ATOM      5  C4  UNL d   1      -0.911   1.581   0.585  0.00  0.00     0.048 A 
ATOM      6  C5  UNL d   1      -0.728   2.960   0.711  0.00  0.00     0.003 A 
ATOM      7  I   UNL d   1      -0.144  -1.262  -0.107  0.00  0.00    -0.146 I 
ENDROOT
TORSDOF 0
ENDMDL
