MODEL 1
REMARK minimizedAffinity -3.77810717
REMARK minimizedRMSD -1
REMARK  0 active torsions:
REMARK  status: ('A' for Active; 'I' for Inactive)
ROOT
ATOM      1  C   UNL d   1       0.629   3.523   0.678  0.00  0.00     0.023 A 
ATOM      2  C1  UNL d   1      -0.514   2.884   1.160  0.00  0.00     0.003 A 
ATOM      3  C2  UNL d   1      -0.738   1.537   0.867  0.00  0.00     0.048 A 
ATOM      4  C3  UNL d   1       0.185   0.835   0.092  0.00  0.00     0.023 A 
ATOM      5  C4  UNL d   1       1.330   1.470  -0.391  0.00  0.00     0.048 A 
ATOM      6  C5  UNL d   1       1.550   2.817  -0.097  0.00  0.00     0.003 A 
ATOM      7  I   UNL d   1      -0.146  -1.170  -0.345  0.00  0.00    -0.146 I 
ENDROOT
TORSDOF 0
ENDMDL
