MODEL 1
REMARK minimizedAffinity -2.29837608
REMARK minimizedRMSD -1
REMARK  0 active torsions:
REMARK  status: ('A' for Active; 'I' for Inactive)
ROOT
ATOM      1  C   UNL d   1      -1.193   1.696   0.798  0.00  0.00     0.023 A 
ATOM      2  C1  UNL d   1       0.098   1.228   0.555  0.00  0.00     0.003 A 
ATOM      3  C2  UNL d   1       0.291  -0.046   0.015  0.00  0.00     0.048 A 
ATOM      4  C3  UNL d   1      -0.813  -0.845  -0.282  0.00  0.00     0.023 A 
ATOM      5  C4  UNL d   1      -2.107  -0.380  -0.042  0.00  0.00     0.048 A 
ATOM      6  C5  UNL d   1      -2.294   0.893   0.500  0.00  0.00     0.003 A 
ATOM      7  I   UNL d   1      -0.530  -2.740  -1.087  0.00  0.00    -0.146 I 
ENDROOT
TORSDOF 0
ENDMDL
