MODEL 1
REMARK minimizedAffinity -1.19703579
REMARK minimizedRMSD -1
REMARK  0 active torsions:
REMARK  status: ('A' for Active; 'I' for Inactive)
ROOT
ATOM      1  C2' OXE d   1       0.425  -0.744   1.312  0.00  0.00     0.078 C 
ATOM      2  C1' OXE d   1       1.098  -0.022  -1.316  0.00  0.00     0.078 C 
ATOM      3  C1  OXE d   1       1.739   0.748  -0.189  0.00  0.00    -0.078 A 
ATOM      4  C2  OXE d   1       1.368   0.420   1.093  0.00  0.00    -0.078 A 
ATOM      5  C3  OXE d   1       1.969   1.063   2.171  0.00  0.00     0.003 A 
ATOM      6  C4  OXE d   1       2.833   2.144   1.959  0.00  0.00    -0.002 A 
ATOM      7  C5  OXE d   1       3.194   2.521   0.662  0.00  0.00    -0.002 A 
ATOM      8  C6  OXE d   1       2.690   1.808  -0.420  0.00  0.00     0.003 A 
ENDROOT
TORSDOF 0
ENDMDL
