MODEL 1
REMARK minimizedAffinity -2.46022582
REMARK minimizedRMSD -1
REMARK  0 active torsions:
REMARK  status: ('A' for Active; 'I' for Inactive)
ROOT
ATOM      1  C2' OXE d   1       0.754  -1.853   1.125  0.00  0.00     0.078 C 
ATOM      2  C1' OXE d   1       1.528   0.388  -0.378  0.00  0.00     0.078 C 
ATOM      3  C1  OXE d   1       0.071  -0.004  -0.399  0.00  0.00    -0.078 A 
ATOM      4  C2  OXE d   1      -0.290  -1.130   0.302  0.00  0.00    -0.078 A 
ATOM      5  C3  OXE d   1      -1.630  -1.504   0.361  0.00  0.00     0.003 A 
ATOM      6  C4  OXE d   1      -2.587  -0.835  -0.411  0.00  0.00    -0.002 A 
ATOM      7  C5  OXE d   1      -2.233   0.289  -1.163  0.00  0.00    -0.002 A 
ATOM      8  C6  OXE d   1      -0.919   0.743  -1.134  0.00  0.00     0.003 A 
ENDROOT
TORSDOF 0
ENDMDL
