MODEL 1
REMARK minimizedAffinity -3.537045
REMARK minimizedRMSD -1
REMARK  0 active torsions:
REMARK  status: ('A' for Active; 'I' for Inactive)
ROOT
ATOM      1  C2' OXE d   1       0.592   0.368   0.303  0.00  0.00     0.078 C 
ATOM      2  C1' OXE d   1      -0.070  -0.073  -2.389  0.00  0.00     0.078 C 
ATOM      3  C1  OXE d   1      -1.169  -0.204  -1.364  0.00  0.00    -0.078 A 
ATOM      4  C2  OXE d   1      -0.826  -0.032  -0.045  0.00  0.00    -0.078 A 
ATOM      5  C3  OXE d   1      -1.811  -0.088   0.937  0.00  0.00     0.003 A 
ATOM      6  C4  OXE d   1      -3.118  -0.469   0.608  0.00  0.00    -0.002 A 
ATOM      7  C5  OXE d   1      -3.480  -0.687  -0.725  0.00  0.00    -0.002 A 
ATOM      8  C6  OXE d   1      -2.529  -0.517  -1.726  0.00  0.00     0.003 A 
ENDROOT
TORSDOF 0
ENDMDL
