MODEL 1
REMARK minimizedAffinity -4.8876152
REMARK minimizedRMSD -1
REMARK  0 active torsions:
REMARK  status: ('A' for Active; 'I' for Inactive)
ROOT
ATOM      1  C2' OXE d   1      -0.314   0.016  -2.346  0.00  0.00     0.078 C 
ATOM      2  C1' OXE d   1       0.762   0.456   0.209  0.00  0.00     0.078 C 
ATOM      3  C1  OXE d   1      -0.531  -0.314   0.113  0.00  0.00    -0.078 A 
ATOM      4  C2  OXE d   1      -1.075  -0.485  -1.137  0.00  0.00    -0.078 A 
ATOM      5  C3  OXE d   1      -2.238  -1.234  -1.287  0.00  0.00     0.003 A 
ATOM      6  C4  OXE d   1      -2.941  -1.685  -0.163  0.00  0.00    -0.002 A 
ATOM      7  C5  OXE d   1      -2.425  -1.488   1.122  0.00  0.00    -0.002 A 
ATOM      8  C6  OXE d   1      -1.203  -0.843   1.275  0.00  0.00     0.003 A 
ENDROOT
TORSDOF 0
ENDMDL
