MODEL 1
REMARK minimizedAffinity -5.34994316
REMARK minimizedRMSD -1
REMARK  0 active torsions:
REMARK  status: ('A' for Active; 'I' for Inactive)
ROOT
ATOM      1  C2' OXE d   1       1.239  -0.363   0.198  0.00  0.00     0.078 C 
ATOM      2  C1' OXE d   1      -0.545  -2.168   1.398  0.00  0.00     0.078 C 
ATOM      3  C1  OXE d   1      -1.067  -1.302   0.279  0.00  0.00    -0.078 A 
ATOM      4  C2  OXE d   1      -0.199  -0.389  -0.271  0.00  0.00    -0.078 A 
ATOM      5  C3  OXE d   1      -0.614   0.397  -1.343  0.00  0.00     0.003 A 
ATOM      6  C4  OXE d   1      -1.949   0.375  -1.764  0.00  0.00    -0.002 A 
ATOM      7  C5  OXE d   1      -2.859  -0.520  -1.191  0.00  0.00    -0.002 A 
ATOM      8  C6  OXE d   1      -2.424  -1.393  -0.200  0.00  0.00     0.003 A 
ENDROOT
TORSDOF 0
ENDMDL
