MODEL 1
REMARK minimizedAffinity -5.36271238
REMARK minimizedRMSD -1
REMARK  0 active torsions:
REMARK  status: ('A' for Active; 'I' for Inactive)
ROOT
ATOM      1  C2' OXE d   1      -0.983   0.207  -2.084  0.00  0.00     0.078 C 
ATOM      2  C1' OXE d   1       0.671  -0.273   0.132  0.00  0.00     0.078 C 
ATOM      3  C1  OXE d   1      -0.682  -0.938   0.108  0.00  0.00    -0.078 A 
ATOM      4  C2  OXE d   1      -1.504  -0.661  -0.958  0.00  0.00    -0.078 A 
ATOM      5  C3  OXE d   1      -2.741  -1.291  -1.057  0.00  0.00     0.003 A 
ATOM      6  C4  OXE d   1      -3.218  -2.084  -0.007  0.00  0.00    -0.002 A 
ATOM      7  C5  OXE d   1      -2.414  -2.348   1.106  0.00  0.00    -0.002 A 
ATOM      8  C6  OXE d   1      -1.129  -1.818   1.159  0.00  0.00     0.003 A 
ENDROOT
TORSDOF 0
ENDMDL
