MODEL 1
REMARK minimizedAffinity -5.27852345
REMARK minimizedRMSD -1
REMARK  0 active torsions:
REMARK  status: ('A' for Active; 'I' for Inactive)
ROOT
ATOM      1  C2' OXE d   1      -1.387  -2.009   2.071  0.00  0.00     0.078 C 
ATOM      2  C1' OXE d   1      -3.228  -1.335   0.062  0.00  0.00     0.078 C 
ATOM      3  C1  OXE d   1      -1.840  -0.753  -0.032  0.00  0.00    -0.078 A 
ATOM      4  C2  OXE d   1      -0.960  -1.050   0.981  0.00  0.00    -0.078 A 
ATOM      5  C3  OXE d   1       0.350  -0.584   0.915  0.00  0.00     0.003 A 
ATOM      6  C4  OXE d   1       0.734   0.310  -0.092  0.00  0.00    -0.002 A 
ATOM      7  C5  OXE d   1      -0.159   0.658  -1.111  0.00  0.00    -0.002 A 
ATOM      8  C6  OXE d   1      -1.433   0.103  -1.119  0.00  0.00     0.003 A 
ENDROOT
TORSDOF 0
ENDMDL
