MODEL 1
REMARK minimizedAffinity -5.26572275
REMARK minimizedRMSD -1
REMARK  0 active torsions:
REMARK  status: ('A' for Active; 'I' for Inactive)
ROOT
ATOM      1  C2' OXE d   1       0.671  -0.042  -2.526  0.00  0.00     0.078 C 
ATOM      2  C1' OXE d   1       1.238   1.047  -0.001  0.00  0.00     0.078 C 
ATOM      3  C1  OXE d   1      -0.127   0.441  -0.216  0.00  0.00    -0.078 A 
ATOM      4  C2  OXE d   1      -0.412  -0.047  -1.469  0.00  0.00    -0.078 A 
ATOM      5  C3  OXE d   1      -1.637  -0.665  -1.705  0.00  0.00     0.003 A 
ATOM      6  C4  OXE d   1      -2.636  -0.657  -0.725  0.00  0.00    -0.002 A 
ATOM      7  C5  OXE d   1      -2.380  -0.129   0.545  0.00  0.00    -0.002 A 
ATOM      8  C6  OXE d   1      -1.119   0.384   0.829  0.00  0.00     0.003 A 
ENDROOT
TORSDOF 0
ENDMDL
