MODEL 1
REMARK minimizedAffinity -4.4854598
REMARK minimizedRMSD -1
REMARK  0 active torsions:
REMARK  status: ('A' for Active; 'I' for Inactive)
ROOT
ATOM      1  C2' OXE d   1      -0.384   0.867  -2.054  0.00  0.00     0.078 C 
ATOM      2  C1' OXE d   1       1.154   0.090   0.163  0.00  0.00     0.078 C 
ATOM      3  C1  OXE d   1      -0.297  -0.321   0.134  0.00  0.00    -0.078 A 
ATOM      4  C2  OXE d   1      -1.054   0.103  -0.932  0.00  0.00    -0.078 A 
ATOM      5  C3  OXE d   1      -2.383  -0.295  -1.035  0.00  0.00     0.003 A 
ATOM      6  C4  OXE d   1      -2.998  -0.993   0.011  0.00  0.00    -0.002 A 
ATOM      7  C5  OXE d   1      -2.255  -1.401   1.124  0.00  0.00    -0.002 A 
ATOM      8  C6  OXE d   1      -0.897  -1.111   1.181  0.00  0.00     0.003 A 
ENDROOT
TORSDOF 0
ENDMDL
