MODEL 1
REMARK minimizedAffinity -5.89721155
REMARK minimizedRMSD -1
REMARK  0 active torsions:
REMARK  status: ('A' for Active; 'I' for Inactive)
ROOT
ATOM      1  C2' OXE d   1       0.095   0.557  -2.679  0.00  0.00     0.078 C 
ATOM      2  C1' OXE d   1       1.356  -0.117  -0.263  0.00  0.00     0.078 C 
ATOM      3  C1  OXE d   1      -0.149  -0.196  -0.317  0.00  0.00    -0.078 A 
ATOM      4  C2  OXE d   1      -0.760   0.181  -1.489  0.00  0.00    -0.078 A 
ATOM      5  C3  OXE d   1      -2.143   0.075  -1.610  0.00  0.00     0.003 A 
ATOM      6  C4  OXE d   1      -2.928  -0.265  -0.501  0.00  0.00    -0.002 A 
ATOM      7  C5  OXE d   1      -2.327  -0.614   0.714  0.00  0.00    -0.002 A 
ATOM      8  C6  OXE d   1      -0.940  -0.625   0.810  0.00  0.00     0.003 A 
ENDROOT
TORSDOF 0
ENDMDL
