MODEL 1
REMARK minimizedAffinity 0.303931475
REMARK minimizedRMSD -1
REMARK  0 active torsions:
REMARK  status: ('A' for Active; 'I' for Inactive)
ROOT
ATOM      1  C2' OXE d   1       2.148  -0.373  -0.606  0.00  0.00     0.078 C 
ATOM      2  C1' OXE d   1       1.738   2.062   0.730  0.00  0.00     0.078 C 
ATOM      3  C1  OXE d   1       0.694   0.985   0.894  0.00  0.00    -0.078 A 
ATOM      4  C2  OXE d   1       0.880  -0.186   0.199  0.00  0.00    -0.078 A 
ATOM      5  C3  OXE d   1      -0.024  -1.233   0.358  0.00  0.00     0.003 A 
ATOM      6  C4  OXE d   1      -1.200  -1.048   1.096  0.00  0.00    -0.002 A 
ATOM      7  C5  OXE d   1      -1.428   0.151   1.779  0.00  0.00    -0.002 A 
ATOM      8  C6  OXE d   1      -0.473   1.160   1.723  0.00  0.00     0.003 A 
ENDROOT
TORSDOF 0
ENDMDL
