MODEL 1
REMARK minimizedAffinity -5.93811226
REMARK minimizedRMSD -1
REMARK  0 active torsions:
REMARK  status: ('A' for Active; 'I' for Inactive)
ROOT
ATOM      1  C2' OXE d   1       0.645  -0.072   0.446  0.00  0.00     0.078 C 
ATOM      2  C1' OXE d   1      -1.383   0.669  -1.348  0.00  0.00     0.078 C 
ATOM      3  C1  OXE d   1      -1.614  -0.550  -0.489  0.00  0.00    -0.078 A 
ATOM      4  C2  OXE d   1      -0.597  -0.932   0.352  0.00  0.00    -0.078 A 
ATOM      5  C3  OXE d   1      -0.779  -2.017   1.206  0.00  0.00     0.003 A 
ATOM      6  C4  OXE d   1      -1.926  -2.812   1.106  0.00  0.00    -0.002 A 
ATOM      7  C5  OXE d   1      -2.958  -2.464   0.227  0.00  0.00    -0.002 A 
ATOM      8  C6  OXE d   1      -2.836  -1.314  -0.545  0.00  0.00     0.003 A 
ENDROOT
TORSDOF 0
ENDMDL
