MODEL 1
REMARK minimizedAffinity -3.25102067
REMARK minimizedRMSD -1
REMARK  0 active torsions:
REMARK  status: ('A' for Active; 'I' for Inactive)
ROOT
ATOM      1  C2' OXE d   1      -3.110  -0.565  -0.304  0.00  0.00     0.078 C 
ATOM      2  C1' OXE d   1      -1.665   0.468  -2.478  0.00  0.00     0.078 C 
ATOM      3  C1  OXE d   1      -0.893   0.072  -1.245  0.00  0.00    -0.078 A 
ATOM      4  C2  OXE d   1      -1.612  -0.389  -0.169  0.00  0.00    -0.078 A 
ATOM      5  C3  OXE d   1      -0.945  -0.820   0.974  0.00  0.00     0.003 A 
ATOM      6  C4  OXE d   1       0.439  -0.645   1.095  0.00  0.00    -0.002 A 
ATOM      7  C5  OXE d   1       1.187  -0.140   0.025  0.00  0.00    -0.002 A 
ATOM      8  C6  OXE d   1       0.543   0.182  -1.164  0.00  0.00     0.003 A 
ENDROOT
TORSDOF 0
ENDMDL
