MODEL 1
REMARK minimizedAffinity -3.6361475
REMARK minimizedRMSD -1
REMARK  0 active torsions:
REMARK  status: ('A' for Active; 'I' for Inactive)
ROOT
ATOM      1  C2' OXE d   1      -2.948  -1.063  -0.207  0.00  0.00     0.078 C 
ATOM      2  C1' OXE d   1      -1.086  -1.629   1.816  0.00  0.00     0.078 C 
ATOM      3  C1  OXE d   1      -0.619  -0.808   0.641  0.00  0.00    -0.078 A 
ATOM      4  C2  OXE d   1      -1.524  -0.576  -0.367  0.00  0.00    -0.078 A 
ATOM      5  C3  OXE d   1      -1.161   0.222  -1.449  0.00  0.00     0.003 A 
ATOM      6  C4  OXE d   1       0.161   0.661  -1.594  0.00  0.00    -0.002 A 
ATOM      7  C5  OXE d   1       1.108   0.401  -0.598  0.00  0.00    -0.002 A 
ATOM      8  C6  OXE d   1       0.725  -0.294   0.543  0.00  0.00     0.003 A 
ENDROOT
TORSDOF 0
ENDMDL
