MODEL 1
REMARK minimizedAffinity -4.92196703
REMARK minimizedRMSD -1
REMARK  0 active torsions:
REMARK  status: ('A' for Active; 'I' for Inactive)
ROOT
ATOM      1  C2' OXE d   1      -0.760   1.013  -1.823  0.00  0.00     0.078 C 
ATOM      2  C1' OXE d   1       0.306   0.024   0.578  0.00  0.00     0.078 C 
ATOM      3  C1  OXE d   1      -0.994  -0.565   0.090  0.00  0.00    -0.078 A 
ATOM      4  C2  OXE d   1      -1.533  -0.042  -1.061  0.00  0.00    -0.078 A 
ATOM      5  C3  OXE d   1      -2.702  -0.586  -1.584  0.00  0.00     0.003 A 
ATOM      6  C4  OXE d   1      -3.415  -1.555  -0.868  0.00  0.00    -0.002 A 
ATOM      7  C5  OXE d   1      -2.905  -2.073   0.327  0.00  0.00    -0.002 A 
ATOM      8  C6  OXE d   1      -1.677  -1.620   0.797  0.00  0.00     0.003 A 
ENDROOT
TORSDOF 0
ENDMDL
