MODEL 1
REMARK minimizedAffinity -4.81929541
REMARK minimizedRMSD -1
REMARK  0 active torsions:
REMARK  status: ('A' for Active; 'I' for Inactive)
ROOT
ATOM      1  C2' OXE d   1      -3.237  -1.085   0.184  0.00  0.00     0.078 C 
ATOM      2  C1' OXE d   1      -1.413  -1.807   2.192  0.00  0.00     0.078 C 
ATOM      3  C1  OXE d   1      -0.897  -0.989   1.034  0.00  0.00    -0.078 A 
ATOM      4  C2  OXE d   1      -1.786  -0.680   0.033  0.00  0.00    -0.078 A 
ATOM      5  C3  OXE d   1      -1.377   0.119  -1.030  0.00  0.00     0.003 A 
ATOM      6  C4  OXE d   1      -0.031   0.482  -1.167  0.00  0.00    -0.002 A 
ATOM      7  C5  OXE d   1       0.899   0.144  -0.179  0.00  0.00    -0.002 A 
ATOM      8  C6  OXE d   1       0.475  -0.553   0.947  0.00  0.00     0.003 A 
ENDROOT
TORSDOF 0
ENDMDL
