MODEL 1
REMARK minimizedAffinity -2.8431437
REMARK minimizedRMSD -1
REMARK  0 active torsions:
REMARK  status: ('A' for Active; 'I' for Inactive)
ROOT
ATOM      1  C2' OXE d   1       1.738   0.250   0.161  0.00  0.00     0.078 C 
ATOM      2  C1' OXE d   1       1.288   1.904   2.385  0.00  0.00     0.078 C 
ATOM      3  C1  OXE d   1       2.017   2.495   1.204  0.00  0.00    -0.078 A 
ATOM      4  C2  OXE d   1       2.274   1.665   0.139  0.00  0.00    -0.078 A 
ATOM      5  C3  OXE d   1       2.894   2.175  -0.998  0.00  0.00     0.003 A 
ATOM      6  C4  OXE d   1       3.396   3.482  -1.006  0.00  0.00    -0.002 A 
ATOM      7  C5  OXE d   1       3.181   4.332   0.084  0.00  0.00    -0.002 A 
ATOM      8  C6  OXE d   1       2.457   3.868   1.177  0.00  0.00     0.003 A 
ENDROOT
TORSDOF 0
ENDMDL
