MODEL 1
REMARK minimizedAffinity -3.36162329
REMARK minimizedRMSD -1
REMARK  0 active torsions:
REMARK  status: ('A' for Active; 'I' for Inactive)
ROOT
ATOM      1  C2' OXE d   1      -0.423  -2.110   1.985  0.00  0.00     0.078 C 
ATOM      2  C1' OXE d   1       0.946  -0.306   0.325  0.00  0.00     0.078 C 
ATOM      3  C1  OXE d   1      -0.521  -0.534   0.058  0.00  0.00    -0.078 A 
ATOM      4  C2  OXE d   1      -1.172  -1.453   0.845  0.00  0.00    -0.078 A 
ATOM      5  C3  OXE d   1      -2.538  -1.661   0.676  0.00  0.00     0.003 A 
ATOM      6  C4  OXE d   1      -3.221  -1.057  -0.387  0.00  0.00    -0.002 A 
ATOM      7  C5  OXE d   1      -2.567  -0.148  -1.225  0.00  0.00    -0.002 A 
ATOM      8  C6  OXE d   1      -1.231   0.156  -0.991  0.00  0.00     0.003 A 
ENDROOT
TORSDOF 0
ENDMDL
