MODEL 1
REMARK minimizedAffinity -4.67698812
REMARK minimizedRMSD -1
REMARK  1 active torsions:
REMARK  status: ('A' for Active; 'I' for Inactive)
REMARK    1  A    between atoms: C1_2  and  C2_3 
ROOT
ATOM      1  C2  UNL d   1       0.064  -0.145  -0.505  0.00  0.00    -0.077 A 
ATOM      2  C3  UNL d   1       0.411  -0.115   0.853  0.00  0.00     0.002 A 
ATOM      3  C4  UNL d   1      -0.451   0.457   1.790  0.00  0.00     0.002 A 
ATOM      4  C5  UNL d   1      -1.667   1.000   1.380  0.00  0.00    -0.004 A 
ATOM      5  C6  UNL d   1      -2.021   0.977   0.032  0.00  0.00     0.002 A 
ATOM      6  C7  UNL d   1      -1.160   0.407  -0.907  0.00  0.00     0.002 A 
ENDROOT
BRANCH   1   7
ATOM      7  C1  UNL d   1       0.970  -0.805  -1.511  0.00  0.00     0.055 C 
ATOM      8  C   UNL d   1       0.612  -0.395  -2.932  0.00  0.00     0.019 C 
ENDBRANCH   1   7
TORSDOF 1
ENDMDL
