MODEL 1
REMARK minimizedAffinity -4.50860786
REMARK minimizedRMSD -1
REMARK  1 active torsions:
REMARK  status: ('A' for Active; 'I' for Inactive)
REMARK    1  A    between atoms: C1_2  and  C2_3 
ROOT
ATOM      1  C2  UNL d   1      -0.242   0.369  -0.964  0.00  0.00    -0.077 A 
ATOM      2  C3  UNL d   1       0.138  -0.946  -1.267  0.00  0.00     0.002 A 
ATOM      3  C4  UNL d   1       0.851  -1.224  -2.434  0.00  0.00     0.002 A 
ATOM      4  C5  UNL d   1       1.195  -0.192  -3.305  0.00  0.00    -0.004 A 
ATOM      5  C6  UNL d   1       0.820   1.119  -3.013  0.00  0.00     0.002 A 
ATOM      6  C7  UNL d   1       0.106   1.399  -1.848  0.00  0.00     0.002 A 
ENDROOT
BRANCH   1   7
ATOM      7  C1  UNL d   1      -0.969   0.677   0.319  0.00  0.00     0.055 C 
ATOM      8  C   UNL d   1      -2.448   0.337   0.213  0.00  0.00     0.019 C 
ENDBRANCH   1   7
TORSDOF 1
ENDMDL
