MODEL 1
REMARK minimizedAffinity -2.60215425
REMARK minimizedRMSD -1
REMARK  1 active torsions:
REMARK  status: ('A' for Active; 'I' for Inactive)
REMARK    1  A    between atoms: C1_2  and  C2_3 
ROOT
ATOM      1  C2  UNL d   1      -0.545   0.745  -0.332  0.00  0.00    -0.077 A 
ATOM      2  C3  UNL d   1      -1.785   1.253   0.081  0.00  0.00     0.002 A 
ATOM      3  C4  UNL d   1      -2.252   1.012   1.374  0.00  0.00     0.002 A 
ATOM      4  C5  UNL d   1      -1.484   0.266   2.266  0.00  0.00    -0.004 A 
ATOM      5  C6  UNL d   1      -0.250  -0.245   1.865  0.00  0.00     0.002 A 
ATOM      6  C7  UNL d   1       0.218  -0.006   0.572  0.00  0.00     0.002 A 
ENDROOT
BRANCH   1   7
ATOM      7  C1  UNL d   1      -0.017   1.045  -1.710  0.00  0.00     0.055 C 
ATOM      8  C   UNL d   1       0.492  -0.215  -2.395  0.00  0.00     0.019 C 
ENDBRANCH   1   7
TORSDOF 1
ENDMDL
