MODEL 1
REMARK minimizedAffinity -3.82235241
REMARK minimizedRMSD -1
REMARK  1 active torsions:
REMARK  status: ('A' for Active; 'I' for Inactive)
REMARK    1  A    between atoms: C1_2  and  C2_3 
ROOT
ATOM      1  C2  UNL d   1       0.159  -0.753   0.597  0.00  0.00    -0.077 A 
ATOM      2  C3  UNL d   1      -0.184  -0.401   1.910  0.00  0.00     0.002 A 
ATOM      3  C4  UNL d   1      -1.321   0.370   2.161  0.00  0.00     0.002 A 
ATOM      4  C5  UNL d   1      -2.125   0.792   1.105  0.00  0.00    -0.004 A 
ATOM      5  C6  UNL d   1      -1.792   0.449  -0.205  0.00  0.00     0.002 A 
ATOM      6  C7  UNL d   1      -0.655  -0.320  -0.458  0.00  0.00     0.002 A 
ENDROOT
BRANCH   1   7
ATOM      7  C1  UNL d   1       1.357  -1.625   0.328  0.00  0.00     0.055 C 
ATOM      8  C   UNL d   1       2.406  -1.477   1.420  0.00  0.00     0.019 C 
ENDBRANCH   1   7
TORSDOF 1
ENDMDL
