MODEL 1
REMARK minimizedAffinity -3.67561245
REMARK minimizedRMSD -1
REMARK  1 active torsions:
REMARK  status: ('A' for Active; 'I' for Inactive)
REMARK    1  A    between atoms: C1_2  and  C2_3 
ROOT
ATOM      1  C2  UNL d   1      -1.043   0.606   0.726  0.00  0.00    -0.077 A 
ATOM      2  C3  UNL d   1       0.259   0.149   0.478  0.00  0.00     0.002 A 
ATOM      3  C4  UNL d   1       1.286   0.415   1.386  0.00  0.00     0.002 A 
ATOM      4  C5  UNL d   1       1.021   1.134   2.549  0.00  0.00    -0.004 A 
ATOM      5  C6  UNL d   1      -0.270   1.594   2.805  0.00  0.00     0.002 A 
ATOM      6  C7  UNL d   1      -1.298   1.330   1.898  0.00  0.00     0.002 A 
ENDROOT
BRANCH   1   7
ATOM      7  C1  UNL d   1      -2.162   0.278  -0.227  0.00  0.00     0.055 C 
ATOM      8  C   UNL d   1      -2.055  -1.153  -0.735  0.00  0.00     0.019 C 
ENDBRANCH   1   7
TORSDOF 1
ENDMDL
