MODEL 1
REMARK minimizedAffinity -4.97361708
REMARK minimizedRMSD -1
REMARK  1 active torsions:
REMARK  status: ('A' for Active; 'I' for Inactive)
REMARK    1  A    between atoms: C1_2  and  C2_3 
ROOT
ATOM      1  C2  UNL d   1      -0.893   0.293   0.127  0.00  0.00    -0.077 A 
ATOM      2  C3  UNL d   1      -1.378  -1.014  -0.024  0.00  0.00     0.002 A 
ATOM      3  C4  UNL d   1      -0.876  -1.841  -1.031  0.00  0.00     0.002 A 
ATOM      4  C5  UNL d   1       0.114  -1.372  -1.891  0.00  0.00    -0.004 A 
ATOM      5  C6  UNL d   1       0.601  -0.074  -1.750  0.00  0.00     0.002 A 
ATOM      6  C7  UNL d   1       0.101   0.755  -0.745  0.00  0.00     0.002 A 
ENDROOT
BRANCH   1   7
ATOM      7  C1  UNL d   1      -1.397   1.170   1.244  0.00  0.00     0.055 C 
ATOM      8  C   UNL d   1      -1.039   0.593   2.606  0.00  0.00     0.019 C 
ENDBRANCH   1   7
TORSDOF 1
ENDMDL
