MODEL 1
REMARK minimizedAffinity -2.69687414
REMARK minimizedRMSD -1
REMARK  1 active torsions:
REMARK  status: ('A' for Active; 'I' for Inactive)
REMARK    1  A    between atoms: C1_2  and  C2_3 
ROOT
ATOM      1  C2  UNL d   1      -0.371  -1.625  -4.694  0.00  0.00    -0.077 A 
ATOM      2  C3  UNL d   1      -0.704  -2.248  -3.484  0.00  0.00     0.002 A 
ATOM      3  C4  UNL d   1      -0.253  -1.723  -2.271  0.00  0.00     0.002 A 
ATOM      4  C5  UNL d   1       0.529  -0.570  -2.257  0.00  0.00    -0.004 A 
ATOM      5  C6  UNL d   1       0.868   0.056  -3.456  0.00  0.00     0.002 A 
ATOM      6  C7  UNL d   1       0.419  -0.468  -4.669  0.00  0.00     0.002 A 
ENDROOT
BRANCH   1   7
ATOM      7  C1  UNL d   1      -0.897  -2.162  -6.000  0.00  0.00     0.055 C 
ATOM      8  C   UNL d   1      -1.777  -3.384  -5.781  0.00  0.00     0.019 C 
ENDBRANCH   1   7
TORSDOF 1
ENDMDL
