MODEL 1
REMARK minimizedAffinity -0.413621485
REMARK minimizedRMSD -1
REMARK  1 active torsions:
REMARK  status: ('A' for Active; 'I' for Inactive)
REMARK    1  A    between atoms: C1_2  and  C2_3 
ROOT
ATOM      1  C2  UNL d   1      -2.444   0.231   0.124  0.00  0.00    -0.077 A 
ATOM      2  C3  UNL d   1      -1.603  -0.756   0.655  0.00  0.00     0.002 A 
ATOM      3  C4  UNL d   1      -0.936  -0.540   1.863  0.00  0.00     0.002 A 
ATOM      4  C5  UNL d   1      -1.107   0.660   2.550  0.00  0.00    -0.004 A 
ATOM      5  C6  UNL d   1      -1.940   1.649   2.028  0.00  0.00     0.002 A 
ATOM      6  C7  UNL d   1      -2.606   1.435   0.821  0.00  0.00     0.002 A 
ENDROOT
BRANCH   1   7
ATOM      7  C1  UNL d   1      -3.203  -0.019  -1.154  0.00  0.00     0.055 C 
ATOM      8  C   UNL d   1      -4.681   0.301  -0.991  0.00  0.00     0.019 C 
ENDBRANCH   1   7
TORSDOF 1
ENDMDL
