MODEL 1
REMARK minimizedAffinity -2.75672245
REMARK minimizedRMSD -1
REMARK  1 active torsions:
REMARK  status: ('A' for Active; 'I' for Inactive)
REMARK    1  A    between atoms: C1_2  and  C2_3 
ROOT
ATOM      1  C2  UNL d   1      -0.628   0.382   0.108  0.00  0.00    -0.076 A 
ATOM      2  C3  UNL d   1      -0.098   1.598  -0.357  0.00  0.00     0.004 A 
ATOM      3  C4  UNL d   1       1.258   1.890  -0.218  0.00  0.00    -0.003 A 
ATOM      4  C5  UNL d   1       2.106   0.969   0.389  0.00  0.00     0.000 A 
ATOM      5  C6  UNL d   1       1.601  -0.249   0.840  0.00  0.00     0.000 A 
ATOM      6  C7  UNL d   1       0.239  -0.566   0.693  0.00  0.00    -0.073 A 
ATOM      7  C8  UNL d   1      -0.253  -1.892   1.203  0.00  0.00     0.078 C 
ENDROOT
BRANCH   1   8
ATOM      8  C1  UNL d   1      -2.111   0.133  -0.046  0.00  0.00     0.053 C 
ATOM      9  C   UNL d   1      -2.545   0.080  -1.502  0.00  0.00     0.018 C 
ENDBRANCH   1   8
TORSDOF 1
ENDMDL
