MODEL 1
REMARK minimizedAffinity -5.61003542
REMARK minimizedRMSD -1
REMARK  1 active torsions:
REMARK  status: ('A' for Active; 'I' for Inactive)
REMARK    1  A    between atoms: C1_2  and  C2_3 
ROOT
ATOM      1  C2  UNL d   1       1.035  -0.581   1.024  0.00  0.00    -0.076 A 
ATOM      2  C3  UNL d   1       1.493   0.276   0.009  0.00  0.00     0.004 A 
ATOM      3  C4  UNL d   1       2.838   0.630  -0.079  0.00  0.00    -0.003 A 
ATOM      4  C5  UNL d   1       3.748   0.132   0.848  0.00  0.00     0.000 A 
ATOM      5  C6  UNL d   1       3.314  -0.733   1.851  0.00  0.00     0.000 A 
ATOM      6  C7  UNL d   1       1.964  -1.113   1.944  0.00  0.00    -0.073 A 
ATOM      7  C8  UNL d   1       1.550  -2.045   3.050  0.00  0.00     0.078 C 
ENDROOT
BRANCH   1   8
ATOM      8  C1  UNL d   1      -0.440  -0.908   1.085  0.00  0.00     0.053 C 
ATOM      9  C   UNL d   1      -1.300   0.150   0.412  0.00  0.00     0.018 C 
ENDBRANCH   1   8
TORSDOF 1
ENDMDL
