MODEL 1
REMARK minimizedAffinity -2.63691521
REMARK minimizedRMSD -1
REMARK  1 active torsions:
REMARK  status: ('A' for Active; 'I' for Inactive)
REMARK    1  A    between atoms: C1_2  and  C2_3 
ROOT
ATOM      1  C2  UNL d   1       0.516  -0.094   0.714  0.00  0.00    -0.076 A 
ATOM      2  C3  UNL d   1       1.119   1.115   0.326  0.00  0.00     0.004 A 
ATOM      3  C4  UNL d   1       2.494   1.197   0.119  0.00  0.00    -0.003 A 
ATOM      4  C5  UNL d   1       3.290   0.070   0.296  0.00  0.00     0.000 A 
ATOM      5  C6  UNL d   1       2.707  -1.142   0.663  0.00  0.00     0.000 A 
ATOM      6  C7  UNL d   1       1.319  -1.246   0.860  0.00  0.00    -0.073 A 
ATOM      7  C8  UNL d   1       0.744  -2.576   1.261  0.00  0.00     0.078 C 
ENDROOT
BRANCH   1   8
ATOM      8  C1  UNL d   1      -0.978  -0.116   0.950  0.00  0.00     0.053 C 
ATOM      9  C   UNL d   1      -1.773  -0.126  -0.347  0.00  0.00     0.018 C 
ENDBRANCH   1   8
TORSDOF 1
ENDMDL
