MODEL 1
REMARK minimizedAffinity -4.35480261
REMARK minimizedRMSD -1
REMARK  1 active torsions:
REMARK  status: ('A' for Active; 'I' for Inactive)
REMARK    1  A    between atoms: C1_2  and  C2_3 
ROOT
ATOM      1  C2  UNL d   1      -0.009   0.188  -0.009  0.00  0.00    -0.076 A 
ATOM      2  C3  UNL d   1       0.427  -1.129   0.215  0.00  0.00     0.004 A 
ATOM      3  C4  UNL d   1       1.751  -1.398   0.557  0.00  0.00    -0.003 A 
ATOM      4  C5  UNL d   1       2.661  -0.354   0.680  0.00  0.00     0.000 A 
ATOM      5  C6  UNL d   1       2.241   0.961   0.478  0.00  0.00     0.000 A 
ATOM      6  C7  UNL d   1       0.906   1.250   0.149  0.00  0.00    -0.073 A 
ATOM      7  C8  UNL d   1       0.510   2.686  -0.063  0.00  0.00     0.078 C 
ENDROOT
BRANCH   1   8
ATOM      8  C1  UNL d   1      -1.451   0.416  -0.403  0.00  0.00     0.053 C 
ATOM      9  C   UNL d   1      -1.710   0.108  -1.870  0.00  0.00     0.018 C 
ENDBRANCH   1   8
TORSDOF 1
ENDMDL
