MODEL 1
REMARK minimizedAffinity -1.21583104
REMARK minimizedRMSD -1
REMARK  1 active torsions:
REMARK  status: ('A' for Active; 'I' for Inactive)
REMARK    1  A    between atoms: C1_2  and  C2_3 
ROOT
ATOM      1  C2  UNL d   1      -0.435   0.312  -0.141  0.00  0.00    -0.076 A 
ATOM      2  C3  UNL d   1       0.459   1.338  -0.495  0.00  0.00     0.004 A 
ATOM      3  C4  UNL d   1       1.716   1.432   0.101  0.00  0.00    -0.003 A 
ATOM      4  C5  UNL d   1       2.099   0.501   1.060  0.00  0.00     0.000 A 
ATOM      5  C6  UNL d   1       1.232  -0.533   1.411  0.00  0.00     0.000 A 
ATOM      6  C7  UNL d   1      -0.032  -0.652   0.808  0.00  0.00    -0.073 A 
ATOM      7  C8  UNL d   1      -0.929  -1.783   1.229  0.00  0.00     0.078 C 
ENDROOT
BRANCH   1   8
ATOM      8  C1  UNL d   1      -1.795   0.277  -0.801  0.00  0.00     0.053 C 
ATOM      9  C   UNL d   1      -1.719  -0.106  -2.271  0.00  0.00     0.018 C 
ENDBRANCH   1   8
TORSDOF 1
ENDMDL
