MODEL 1
REMARK minimizedAffinity -2.30474687
REMARK minimizedRMSD -1
REMARK  1 active torsions:
REMARK  status: ('A' for Active; 'I' for Inactive)
REMARK    1  A    between atoms: C1_2  and  C2_3 
ROOT
ATOM      1  C2  UNL d   1       0.907  -0.745   0.872  0.00  0.00    -0.076 A 
ATOM      2  C3  UNL d   1       2.237  -0.339   1.081  0.00  0.00     0.004 A 
ATOM      3  C4  UNL d   1       2.675   0.920   0.674  0.00  0.00    -0.003 A 
ATOM      4  C5  UNL d   1       1.790   1.794   0.052  0.00  0.00     0.000 A 
ATOM      5  C6  UNL d   1       0.463   1.415  -0.147  0.00  0.00     0.000 A 
ATOM      6  C7  UNL d   1       0.001   0.155   0.272  0.00  0.00    -0.073 A 
ATOM      7  C8  UNL d   1      -1.439  -0.204   0.026  0.00  0.00     0.078 C 
ENDROOT
BRANCH   1   8
ATOM      8  C1  UNL d   1       0.496  -2.133   1.310  0.00  0.00     0.053 C 
ATOM      9  C   UNL d   1       1.350  -2.661   2.452  0.00  0.00     0.018 C 
ENDBRANCH   1   8
TORSDOF 1
ENDMDL
