MODEL 1
REMARK minimizedAffinity -6.05051231
REMARK minimizedRMSD -1
REMARK  1 active torsions:
REMARK  status: ('A' for Active; 'I' for Inactive)
REMARK    1  A    between atoms: C1_2  and  C2_3 
ROOT
ATOM      1  C2  UNL d   1       1.690   1.373   1.409  0.00  0.00    -0.076 A 
ATOM      2  C3  UNL d   1       0.396   1.851   1.142  0.00  0.00     0.004 A 
ATOM      3  C4  UNL d   1      -0.472   1.146   0.310  0.00  0.00    -0.003 A 
ATOM      4  C5  UNL d   1      -0.060  -0.049  -0.269  0.00  0.00     0.000 A 
ATOM      5  C6  UNL d   1       1.215  -0.547  -0.002  0.00  0.00     0.000 A 
ATOM      6  C7  UNL d   1       2.096   0.143   0.848  0.00  0.00    -0.073 A 
ATOM      7  C8  UNL d   1       3.461  -0.438   1.097  0.00  0.00     0.078 C 
ENDROOT
BRANCH   1   8
ATOM      8  C1  UNL d   1       2.597   2.193   2.298  0.00  0.00     0.053 C 
ATOM      9  C   UNL d   1       1.848   2.851   3.446  0.00  0.00     0.018 C 
ENDBRANCH   1   8
TORSDOF 1
ENDMDL
