MODEL 1
REMARK minimizedAffinity -3.71525478
REMARK minimizedRMSD -1
REMARK  2 active torsions:
REMARK  status: ('A' for Active; 'I' for Inactive)
REMARK    1  A    between atoms: C1_2  and  C2_3 
REMARK    2  A    between atoms: C2_3  and  C3_4 
ROOT
ATOM      1  C3  UNL d   1       0.182   0.803  -0.351  0.00  0.00    -0.075 A 
ATOM      2  C4  UNL d   1      -0.520   0.350   0.775  0.00  0.00     0.002 A 
ATOM      3  C5  UNL d   1      -0.525  -1.004   1.110  0.00  0.00     0.002 A 
ATOM      4  C6  UNL d   1       0.162  -1.922   0.319  0.00  0.00    -0.004 A 
ATOM      5  C7  UNL d   1       0.850  -1.486  -0.811  0.00  0.00     0.002 A 
ATOM      6  C8  UNL d   1       0.860  -0.131  -1.146  0.00  0.00     0.002 A 
ENDROOT
BRANCH   1   7
ATOM      7  C2  UNL d   1       0.216   2.272  -0.702  0.00  0.00     0.056 C 
BRANCH   7   8
ATOM      8  C1  UNL d   1       0.898   3.149   0.353  0.00  0.00     0.007 C 
ATOM      9  C   UNL d   1       2.383   3.360   0.089  0.00  0.00     0.009 C 
ENDBRANCH   7   8
ENDBRANCH   1   7
TORSDOF 2
ENDMDL
