MODEL 1
REMARK minimizedAffinity -6.08387327
REMARK minimizedRMSD -1
REMARK  2 active torsions:
REMARK  status: ('A' for Active; 'I' for Inactive)
REMARK    1  A    between atoms: C1_2  and  C2_3 
REMARK    2  A    between atoms: C2_3  and  C3_4 
ROOT
ATOM      1  C3  UNL d   1      -0.243  -1.011   0.138  0.00  0.00    -0.075 A 
ATOM      2  C4  UNL d   1      -0.465  -2.112   0.977  0.00  0.00     0.002 A 
ATOM      3  C5  UNL d   1      -0.292  -3.412   0.501  0.00  0.00     0.002 A 
ATOM      4  C6  UNL d   1       0.094  -3.627  -0.820  0.00  0.00    -0.004 A 
ATOM      5  C7  UNL d   1       0.300  -2.541  -1.668  0.00  0.00     0.002 A 
ATOM      6  C8  UNL d   1       0.132  -1.239  -1.193  0.00  0.00     0.002 A 
ENDROOT
BRANCH   1   7
ATOM      7  C2  UNL d   1      -0.400   0.399   0.655  0.00  0.00     0.056 C 
BRANCH   7   8
ATOM      8  C1  UNL d   1       0.127   1.476  -0.299  0.00  0.00     0.007 C 
ATOM      9  C   UNL d   1       0.954   2.546   0.401  0.00  0.00     0.009 C 
ENDBRANCH   7   8
ENDBRANCH   1   7
TORSDOF 2
ENDMDL
