MODEL 1
REMARK minimizedAffinity -2.95736217
REMARK minimizedRMSD -1
REMARK  2 active torsions:
REMARK  status: ('A' for Active; 'I' for Inactive)
REMARK    1  A    between atoms: C1_2  and  C2_3 
REMARK    2  A    between atoms: C2_3  and  C3_4 
ROOT
ATOM      1  C3  UNL d   1      -0.213   1.436  -0.041  0.00  0.00    -0.075 A 
ATOM      2  C4  UNL d   1      -0.762   0.744   1.048  0.00  0.00     0.002 A 
ATOM      3  C5  UNL d   1      -0.789  -0.651   1.061  0.00  0.00     0.002 A 
ATOM      4  C6  UNL d   1      -0.277  -1.370  -0.017  0.00  0.00    -0.004 A 
ATOM      5  C7  UNL d   1       0.255  -0.693  -1.112  0.00  0.00     0.002 A 
ATOM      6  C8  UNL d   1       0.287   0.702  -1.125  0.00  0.00     0.002 A 
ENDROOT
BRANCH   1   7
ATOM      7  C2  UNL d   1      -0.155   2.945  -0.048  0.00  0.00     0.056 C 
BRANCH   7   8
ATOM      8  C1  UNL d   1       1.034   3.526   0.725  0.00  0.00     0.007 C 
ATOM      9  C   UNL d   1       2.294   3.656  -0.119  0.00  0.00     0.009 C 
ENDBRANCH   7   8
ENDBRANCH   1   7
TORSDOF 2
ENDMDL
