MODEL 1
REMARK minimizedAffinity -4.69212198
REMARK minimizedRMSD -1
REMARK  2 active torsions:
REMARK  status: ('A' for Active; 'I' for Inactive)
REMARK    1  A    between atoms: C1_2  and  C2_3 
REMARK    2  A    between atoms: C2_3  and  C3_4 
ROOT
ATOM      1  C3  UNL d   1      -0.259  -0.513   0.452  0.00  0.00    -0.075 A 
ATOM      2  C4  UNL d   1       0.770  -1.126  -0.278  0.00  0.00     0.002 A 
ATOM      3  C5  UNL d   1       0.803  -2.513  -0.427  0.00  0.00     0.002 A 
ATOM      4  C6  UNL d   1      -0.184  -3.304   0.158  0.00  0.00    -0.004 A 
ATOM      5  C7  UNL d   1      -1.201  -2.706   0.899  0.00  0.00     0.002 A 
ATOM      6  C8  UNL d   1      -1.239  -1.319   1.046  0.00  0.00     0.002 A 
ENDROOT
BRANCH   1   7
ATOM      7  C2  UNL d   1      -0.316   0.989   0.592  0.00  0.00     0.056 C 
BRANCH   7   8
ATOM      8  C1  UNL d   1       0.392   1.749  -0.534  0.00  0.00     0.007 C 
ATOM      9  C   UNL d   1       1.210   2.934  -0.037  0.00  0.00     0.009 C 
ENDBRANCH   7   8
ENDBRANCH   1   7
TORSDOF 2
ENDMDL
