MODEL 1
REMARK minimizedAffinity -3.57899809
REMARK minimizedRMSD -1
REMARK  2 active torsions:
REMARK  status: ('A' for Active; 'I' for Inactive)
REMARK    1  A    between atoms: C1_2  and  C2_3 
REMARK    2  A    between atoms: C2_3  and  C3_4 
ROOT
ATOM      1  C3  UNL d   1       0.237   1.239   0.121  0.00  0.00    -0.075 A 
ATOM      2  C4  UNL d   1      -0.512   0.629   1.137  0.00  0.00     0.002 A 
ATOM      3  C5  UNL d   1      -0.705  -0.753   1.142  0.00  0.00     0.002 A 
ATOM      4  C6  UNL d   1      -0.163  -1.539   0.128  0.00  0.00    -0.004 A 
ATOM      5  C7  UNL d   1       0.569  -0.941  -0.896  0.00  0.00     0.002 A 
ATOM      6  C8  UNL d   1       0.768   0.440  -0.901  0.00  0.00     0.002 A 
ENDROOT
BRANCH   1   7
ATOM      7  C2  UNL d   1       0.475   2.730   0.125  0.00  0.00     0.056 C 
BRANCH   7   8
ATOM      8  C1  UNL d   1       1.955   3.126   0.067  0.00  0.00     0.007 C 
ATOM      9  C   UNL d   1       2.532   3.496   1.427  0.00  0.00     0.009 C 
ENDBRANCH   7   8
ENDBRANCH   1   7
TORSDOF 2
ENDMDL
