MODEL 1
REMARK minimizedAffinity -3.1763463
REMARK minimizedRMSD -1
REMARK  2 active torsions:
REMARK  status: ('A' for Active; 'I' for Inactive)
REMARK    1  A    between atoms: C1_2  and  C2_3 
REMARK    2  A    between atoms: C2_3  and  C3_4 
ROOT
ATOM      1  C3  UNL d   1       0.129   0.849  -0.035  0.00  0.00    -0.075 A 
ATOM      2  C4  UNL d   1      -0.565   0.157   0.968  0.00  0.00     0.002 A 
ATOM      3  C5  UNL d   1      -0.519  -1.237   1.029  0.00  0.00     0.002 A 
ATOM      4  C6  UNL d   1       0.211  -1.954   0.084  0.00  0.00    -0.004 A 
ATOM      5  C7  UNL d   1       0.891  -1.278  -0.926  0.00  0.00     0.002 A 
ATOM      6  C8  UNL d   1       0.850   0.116  -0.987  0.00  0.00     0.002 A 
ENDROOT
BRANCH   1   7
ATOM      7  C2  UNL d   1       0.107   2.358  -0.089  0.00  0.00     0.056 C 
BRANCH   7   8
ATOM      8  C1  UNL d   1       1.103   3.030   0.862  0.00  0.00     0.007 C 
ATOM      9  C   UNL d   1       2.468   3.271   0.230  0.00  0.00     0.009 C 
ENDBRANCH   7   8
ENDBRANCH   1   7
TORSDOF 2
ENDMDL
