MODEL 1
REMARK minimizedAffinity -4.80979013
REMARK minimizedRMSD -1
REMARK  2 active torsions:
REMARK  status: ('A' for Active; 'I' for Inactive)
REMARK    1  A    between atoms: C1_2  and  C2_3 
REMARK    2  A    between atoms: C2_3  and  C3_4 
ROOT
ATOM      1  C3  UNL d   1       0.971  -1.254  -0.554  0.00  0.00    -0.075 A 
ATOM      2  C4  UNL d   1       1.172  -1.552  -1.910  0.00  0.00     0.002 A 
ATOM      3  C5  UNL d   1       1.004  -0.567  -2.884  0.00  0.00     0.002 A 
ATOM      4  C6  UNL d   1       0.623   0.722  -2.517  0.00  0.00    -0.004 A 
ATOM      5  C7  UNL d   1       0.404   1.024  -1.175  0.00  0.00     0.002 A 
ATOM      6  C8  UNL d   1       0.576   0.042  -0.198  0.00  0.00     0.002 A 
ENDROOT
BRANCH   1   7
ATOM      7  C2  UNL d   1       1.180  -2.308   0.507  0.00  0.00     0.056 C 
BRANCH   7   8
ATOM      8  C1  UNL d   1       0.215  -3.494   0.407  0.00  0.00     0.007 C 
ATOM      9  C   UNL d   1      -1.241  -3.103   0.622  0.00  0.00     0.009 C 
ENDBRANCH   7   8
ENDBRANCH   1   7
TORSDOF 2
ENDMDL
