MODEL 1
REMARK minimizedAffinity -5.78535843
REMARK minimizedRMSD -1
REMARK  2 active torsions:
REMARK  status: ('A' for Active; 'I' for Inactive)
REMARK    1  A    between atoms: C1_2  and  C2_3 
REMARK    2  A    between atoms: C2_3  and  C3_4 
ROOT
ATOM      1  C3  UNL d   1       0.239   0.235   0.054  0.00  0.00    -0.075 A 
ATOM      2  C4  UNL d   1      -0.319  -0.347   1.202  0.00  0.00     0.002 A 
ATOM      3  C5  UNL d   1      -0.556  -1.721   1.256  0.00  0.00     0.002 A 
ATOM      4  C6  UNL d   1      -0.249  -2.527   0.162  0.00  0.00    -0.004 A 
ATOM      5  C7  UNL d   1       0.290  -1.958  -0.989  0.00  0.00     0.002 A 
ATOM      6  C8  UNL d   1       0.533  -0.584  -1.045  0.00  0.00     0.002 A 
ENDROOT
BRANCH   1   7
ATOM      7  C2  UNL d   1       0.526   1.716   0.000  0.00  0.00     0.056 C 
BRANCH   7   8
ATOM      8  C1  UNL d   1       2.018   2.063   0.002  0.00  0.00     0.007 C 
ATOM      9  C   UNL d   1       2.330   3.369   0.721  0.00  0.00     0.009 C 
ENDBRANCH   7   8
ENDBRANCH   1   7
TORSDOF 2
ENDMDL
