MODEL 1
REMARK minimizedAffinity -3.36089134
REMARK minimizedRMSD -1
REMARK  2 active torsions:
REMARK  status: ('A' for Active; 'I' for Inactive)
REMARK    1  A    between atoms: C1_2  and  C2_3 
REMARK    2  A    between atoms: C2_3  and  C3_4 
ROOT
ATOM      1  C3  UNL d   1      -0.181  -0.003  -0.085  0.00  0.00    -0.075 A 
ATOM      2  C4  UNL d   1      -0.524  -0.600   1.138  0.00  0.00     0.002 A 
ATOM      3  C5  UNL d   1      -0.527  -1.989   1.272  0.00  0.00     0.002 A 
ATOM      4  C6  UNL d   1      -0.200  -2.797   0.186  0.00  0.00    -0.004 A 
ATOM      5  C7  UNL d   1       0.126  -2.216  -1.038  0.00  0.00     0.002 A 
ATOM      6  C8  UNL d   1       0.135  -0.827  -1.174  0.00  0.00     0.002 A 
ENDROOT
BRANCH   1   7
ATOM      7  C2  UNL d   1      -0.146   1.499  -0.228  0.00  0.00     0.056 C 
BRANCH   7   8
ATOM      8  C1  UNL d   1       1.259   2.103  -0.135  0.00  0.00     0.007 C 
ATOM      9  C   UNL d   1       1.293   3.433   0.605  0.00  0.00     0.009 C 
ENDBRANCH   7   8
ENDBRANCH   1   7
TORSDOF 2
ENDMDL
