MODEL 1
REMARK minimizedAffinity -5.96249151
REMARK minimizedRMSD -1
REMARK  2 active torsions:
REMARK  status: ('A' for Active; 'I' for Inactive)
REMARK    1  A    between atoms: C1_2  and  C2_3 
REMARK    2  A    between atoms: C2_3  and  C3_4 
ROOT
ATOM      1  C3  UNL d   1       0.015  -1.034  -1.007  0.00  0.00    -0.075 A 
ATOM      2  C4  UNL d   1      -0.019  -1.893  -2.115  0.00  0.00     0.002 A 
ATOM      3  C5  UNL d   1       0.002  -3.277  -1.940  0.00  0.00     0.002 A 
ATOM      4  C6  UNL d   1       0.066  -3.819  -0.658  0.00  0.00    -0.004 A 
ATOM      5  C7  UNL d   1       0.117  -2.975   0.449  0.00  0.00     0.002 A 
ATOM      6  C8  UNL d   1       0.092  -1.590   0.277  0.00  0.00     0.002 A 
ENDROOT
BRANCH   1   7
ATOM      7  C2  UNL d   1      -0.037   0.464  -1.189  0.00  0.00     0.056 C 
BRANCH   7   8
ATOM      8  C1  UNL d   1      -0.021   1.253   0.124  0.00  0.00     0.007 C 
ATOM      9  C   UNL d   1       0.960   2.417   0.114  0.00  0.00     0.009 C 
ENDBRANCH   7   8
ENDBRANCH   1   7
TORSDOF 2
ENDMDL
