MODEL 1
REMARK minimizedAffinity -3.42712855
REMARK minimizedRMSD -1
REMARK  2 active torsions:
REMARK  status: ('A' for Active; 'I' for Inactive)
REMARK    1  A    between atoms: C1_2  and  C2_3 
REMARK    2  A    between atoms: C2_3  and  C3_4 
ROOT
ATOM      1  C3  UNL d   1      -0.056   0.279  -0.429  0.00  0.00    -0.075 A 
ATOM      2  C4  UNL d   1      -0.959  -0.036   0.596  0.00  0.00     0.002 A 
ATOM      3  C5  UNL d   1      -1.123  -1.357   1.016  0.00  0.00     0.002 A 
ATOM      4  C6  UNL d   1      -0.395  -2.378   0.409  0.00  0.00    -0.004 A 
ATOM      5  C7  UNL d   1       0.493  -2.079  -0.622  0.00  0.00     0.002 A 
ATOM      6  C8  UNL d   1       0.662  -0.758  -1.040  0.00  0.00     0.002 A 
ENDROOT
BRANCH   1   7
ATOM      7  C2  UNL d   1       0.147   1.710  -0.867  0.00  0.00     0.056 C 
BRANCH   7   8
ATOM      8  C1  UNL d   1       0.663   2.634   0.240  0.00  0.00     0.007 C 
ATOM      9  C   UNL d   1       2.154   2.925   0.133  0.00  0.00     0.009 C 
ENDBRANCH   7   8
ENDBRANCH   1   7
TORSDOF 2
ENDMDL
