MODEL 1
REMARK minimizedAffinity -5.54006958
REMARK minimizedRMSD -1
REMARK  2 active torsions:
REMARK  status: ('A' for Active; 'I' for Inactive)
REMARK    1  A    between atoms: C1_2  and  C2_3 
REMARK    2  A    between atoms: C2_3  and  C3_4 
ROOT
ATOM      1  C3  UNL d   1      -0.344  -0.258  -0.004  0.00  0.00    -0.075 A 
ATOM      2  C4  UNL d   1      -0.823  -1.036   1.059  0.00  0.00     0.002 A 
ATOM      3  C5  UNL d   1      -0.625  -2.417   1.072  0.00  0.00     0.002 A 
ATOM      4  C6  UNL d   1       0.045  -3.038   0.019  0.00  0.00    -0.004 A 
ATOM      5  C7  UNL d   1       0.511  -2.277  -1.050  0.00  0.00     0.002 A 
ATOM      6  C8  UNL d   1       0.318  -0.894  -1.064  0.00  0.00     0.002 A 
ENDROOT
BRANCH   1   7
ATOM      7  C2  UNL d   1      -0.529   1.241  -0.010  0.00  0.00     0.056 C 
BRANCH   7   8
ATOM      8  C1  UNL d   1       0.750   2.026  -0.318  0.00  0.00     0.007 C 
ATOM      9  C   UNL d   1       0.889   3.296   0.511  0.00  0.00     0.009 C 
ENDBRANCH   7   8
ENDBRANCH   1   7
TORSDOF 2
ENDMDL
