MODEL 1
REMARK minimizedAffinity -3.6416316
REMARK minimizedRMSD -1
REMARK  2 active torsions:
REMARK  status: ('A' for Active; 'I' for Inactive)
REMARK    1  A    between atoms: C1_2  and  C2_3 
REMARK    2  A    between atoms: C2_3  and  C3_4 
ROOT
ATOM      1  C3  UNL d   1      -0.096  -0.858  -0.900  0.00  0.00    -0.075 A 
ATOM      2  C4  UNL d   1       0.016  -1.684  -2.027  0.00  0.00     0.002 A 
ATOM      3  C5  UNL d   1      -0.229  -3.054  -1.928  0.00  0.00     0.002 A 
ATOM      4  C6  UNL d   1      -0.578  -3.616  -0.702  0.00  0.00    -0.004 A 
ATOM      5  C7  UNL d   1      -0.676  -2.807   0.428  0.00  0.00     0.002 A 
ATOM      6  C8  UNL d   1      -0.436  -1.435   0.331  0.00  0.00     0.002 A 
ENDROOT
BRANCH   1   7
ATOM      7  C2  UNL d   1       0.139   0.630  -1.006  0.00  0.00     0.056 C 
BRANCH   7   8
ATOM      8  C1  UNL d   1       0.252   1.342   0.346  0.00  0.00     0.007 C 
ATOM      9  C   UNL d   1       1.113   2.597   0.293  0.00  0.00     0.009 C 
ENDBRANCH   7   8
ENDBRANCH   1   7
TORSDOF 2
ENDMDL
