MODEL 1
REMARK minimizedAffinity -5.01659727
REMARK minimizedRMSD -1
REMARK  2 active torsions:
REMARK  status: ('A' for Active; 'I' for Inactive)
REMARK    1  A    between atoms: C1_2  and  C2_3 
REMARK    2  A    between atoms: C2_3  and  C3_4 
ROOT
ATOM      1  C3  UNL d   1       0.073   0.005   0.096  0.00  0.00    -0.075 A 
ATOM      2  C4  UNL d   1      -0.618  -0.715   1.081  0.00  0.00     0.002 A 
ATOM      3  C5  UNL d   1      -0.524  -2.106   1.138  0.00  0.00     0.002 A 
ATOM      4  C6  UNL d   1       0.251  -2.794   0.207  0.00  0.00    -0.004 A 
ATOM      5  C7  UNL d   1       0.928  -2.090  -0.787  0.00  0.00     0.002 A 
ATOM      6  C8  UNL d   1       0.839  -0.698  -0.843  0.00  0.00     0.002 A 
ENDROOT
BRANCH   1   7
ATOM      7  C2  UNL d   1      -0.001   1.513   0.047  0.00  0.00     0.056 C 
BRANCH   7   8
ATOM      8  C1  UNL d   1       1.329   2.212   0.346  0.00  0.00     0.007 C 
ATOM      9  C   UNL d   1       1.159   3.659   0.789  0.00  0.00     0.009 C 
ENDBRANCH   7   8
ENDBRANCH   1   7
TORSDOF 2
ENDMDL
