MODEL 1
REMARK minimizedAffinity -5.30524015
REMARK minimizedRMSD -1
REMARK  2 active torsions:
REMARK  status: ('A' for Active; 'I' for Inactive)
REMARK    1  A    between atoms: C1_2  and  C2_3 
REMARK    2  A    between atoms: C2_3  and  C3_4 
ROOT
ATOM      1  C3  UNL d   1       0.107   0.005   0.357  0.00  0.00    -0.075 A 
ATOM      2  C4  UNL d   1       1.222  -0.833   0.507  0.00  0.00     0.002 A 
ATOM      3  C5  UNL d   1       1.064  -2.218   0.564  0.00  0.00     0.002 A 
ATOM      4  C6  UNL d   1      -0.207  -2.781   0.484  0.00  0.00    -0.004 A 
ATOM      5  C7  UNL d   1      -1.323  -1.958   0.351  0.00  0.00     0.002 A 
ATOM      6  C8  UNL d   1      -1.168  -0.572   0.288  0.00  0.00     0.002 A 
ENDROOT
BRANCH   1   7
ATOM      7  C2  UNL d   1       0.272   1.503   0.264  0.00  0.00     0.056 C 
BRANCH   7   8
ATOM      8  C1  UNL d   1       1.710   1.986   0.484  0.00  0.00     0.007 C 
ATOM      9  C   UNL d   1       1.800   3.470   0.817  0.00  0.00     0.009 C 
ENDBRANCH   7   8
ENDBRANCH   1   7
TORSDOF 2
ENDMDL
