MODEL 1
REMARK minimizedAffinity -5.17673588
REMARK minimizedRMSD -1
REMARK  2 active torsions:
REMARK  status: ('A' for Active; 'I' for Inactive)
REMARK    1  A    between atoms: C1_2  and  C2_3 
REMARK    2  A    between atoms: C2_3  and  C3_4 
ROOT
ATOM      1  C3  UNL d   1      -0.067   0.286   0.455  0.00  0.00    -0.075 A 
ATOM      2  C4  UNL d   1       0.739  -0.631  -0.235  0.00  0.00     0.002 A 
ATOM      3  C5  UNL d   1       0.465  -1.998  -0.180  0.00  0.00     0.002 A 
ATOM      4  C6  UNL d   1      -0.609  -2.466   0.573  0.00  0.00    -0.004 A 
ATOM      5  C7  UNL d   1      -1.407  -1.566   1.277  0.00  0.00     0.002 A 
ATOM      6  C8  UNL d   1      -1.138  -0.197   1.220  0.00  0.00     0.002 A 
ENDROOT
BRANCH   1   7
ATOM      7  C2  UNL d   1       0.206   1.769   0.375  0.00  0.00     0.056 C 
BRANCH   7   8
ATOM      8  C1  UNL d   1       1.695   2.128   0.343  0.00  0.00     0.007 C 
ATOM      9  C   UNL d   1       1.979   3.553   0.797  0.00  0.00     0.009 C 
ENDBRANCH   7   8
ENDBRANCH   1   7
TORSDOF 2
ENDMDL
