MODEL 1
REMARK minimizedAffinity -4.22322369
REMARK minimizedRMSD -1
REMARK  2 active torsions:
REMARK  status: ('A' for Active; 'I' for Inactive)
REMARK    1  A    between atoms: C1_2  and  C2_3 
REMARK    2  A    between atoms: C2_3  and  C3_4 
ROOT
ATOM      1  C3  UNL d   1       0.743   1.274  -0.010  0.00  0.00    -0.075 A 
ATOM      2  C4  UNL d   1       2.120   1.498  -0.157  0.00  0.00     0.002 A 
ATOM      3  C5  UNL d   1       2.688   2.709   0.239  0.00  0.00     0.002 A 
ATOM      4  C6  UNL d   1       1.886   3.714   0.776  0.00  0.00    -0.004 A 
ATOM      5  C7  UNL d   1       0.515   3.510   0.911  0.00  0.00     0.002 A 
ATOM      6  C8  UNL d   1      -0.055   2.297   0.520  0.00  0.00     0.002 A 
ENDROOT
BRANCH   1   7
ATOM      7  C2  UNL d   1       0.128  -0.045  -0.410  0.00  0.00     0.056 C 
BRANCH   7   8
ATOM      8  C1  UNL d   1      -0.529  -0.803   0.748  0.00  0.00     0.007 C 
ATOM      9  C   UNL d   1      -0.251  -2.300   0.720  0.00  0.00     0.009 C 
ENDBRANCH   7   8
ENDBRANCH   1   7
TORSDOF 2
ENDMDL
