MODEL 1
REMARK minimizedAffinity -4.69017267
REMARK minimizedRMSD -1
REMARK  2 active torsions:
REMARK  status: ('A' for Active; 'I' for Inactive)
REMARK    1  A    between atoms: C1_2  and  C2_3 
REMARK    2  A    between atoms: C2_3  and  C3_4 
ROOT
ATOM      1  C3  UNL d   1      -0.229   0.329   0.032  0.00  0.00    -0.075 A 
ATOM      2  C4  UNL d   1       0.174  -0.488  -1.035  0.00  0.00     0.002 A 
ATOM      3  C5  UNL d   1       0.011  -1.872  -0.967  0.00  0.00     0.002 A 
ATOM      4  C6  UNL d   1      -0.546  -2.456   0.168  0.00  0.00    -0.004 A 
ATOM      5  C7  UNL d   1      -0.935  -1.656   1.239  0.00  0.00     0.002 A 
ATOM      6  C8  UNL d   1      -0.777  -0.270   1.173  0.00  0.00     0.002 A 
ENDROOT
BRANCH   1   7
ATOM      7  C2  UNL d   1      -0.083   1.830  -0.047  0.00  0.00     0.056 C 
BRANCH   7   8
ATOM      8  C1  UNL d   1       1.370   2.314  -0.086  0.00  0.00     0.007 C 
ATOM      9  C   UNL d   1       1.638   3.486   0.848  0.00  0.00     0.009 C 
ENDBRANCH   7   8
ENDBRANCH   1   7
TORSDOF 2
ENDMDL
