MODEL 1
REMARK minimizedAffinity -4.67714691
REMARK minimizedRMSD -1
REMARK  1 active torsions:
REMARK  status: ('A' for Active; 'I' for Inactive)
REMARK    1  A    between atoms: C1_2  and  C2_3 
ROOT
ATOM      1  C2  UNL d   1      -1.947  -0.208  -0.843  0.00  0.00    -0.073 A 
ATOM      2  C3  UNL d   1      -3.111  -0.037  -0.084  0.00  0.00    -0.002 A 
ATOM      3  C4  UNL d   1      -3.199  -0.574   1.201  0.00  0.00     0.004 A 
ATOM      4  C5  UNL d   1      -2.126  -1.281   1.742  0.00  0.00    -0.004 A 
ATOM      5  C6  UNL d   1      -0.950  -1.452   1.004  0.00  0.00    -0.075 A 
ATOM      6  C7  UNL d   1       0.213  -2.212   1.571  0.00  0.00     0.076 C 
ATOM      7  C8  UNL d   1      -0.869  -0.912  -0.286  0.00  0.00     0.001 A 
ENDROOT
BRANCH   1   8
ATOM      8  C1  UNL d   1      -1.844   0.376  -2.228  0.00  0.00     0.053 C 
ATOM      9  C   UNL d   1      -0.424   0.317  -2.767  0.00  0.00     0.018 C 
ENDBRANCH   1   8
TORSDOF 1
ENDMDL
