MODEL 1
REMARK minimizedAffinity 1.86647022
REMARK minimizedRMSD -1
REMARK  1 active torsions:
REMARK  status: ('A' for Active; 'I' for Inactive)
REMARK    1  A    between atoms: C1_2  and  C2_3 
ROOT
ATOM      1  C2  UNL d   1      -0.284  -0.190   0.149  0.00  0.00    -0.073 A 
ATOM      2  C3  UNL d   1      -0.296  -1.541   0.514  0.00  0.00    -0.002 A 
ATOM      3  C4  UNL d   1       0.110  -1.929   1.792  0.00  0.00     0.004 A 
ATOM      4  C5  UNL d   1       0.524  -0.972   2.718  0.00  0.00    -0.004 A 
ATOM      5  C6  UNL d   1       0.531   0.384   2.375  0.00  0.00    -0.075 A 
ATOM      6  C7  UNL d   1       0.975   1.427   3.359  0.00  0.00     0.076 C 
ATOM      7  C8  UNL d   1       0.124   0.766   1.090  0.00  0.00     0.001 A 
ENDROOT
BRANCH   1   8
ATOM      8  C1  UNL d   1      -0.728   0.234  -1.228  0.00  0.00     0.053 C 
ATOM      9  C   UNL d   1      -2.158  -0.189  -1.522  0.00  0.00     0.018 C 
ENDBRANCH   1   8
TORSDOF 1
ENDMDL
