MODEL 1
REMARK minimizedAffinity 0.51638633
REMARK minimizedRMSD -1
REMARK  1 active torsions:
REMARK  status: ('A' for Active; 'I' for Inactive)
REMARK    1  A    between atoms: C1_2  and  C2_3 
ROOT
ATOM      1  C2  UNL d   1       1.753   1.097  -0.201  0.00  0.00    -0.073 A 
ATOM      2  C3  UNL d   1       0.776   1.330  -1.175  0.00  0.00    -0.002 A 
ATOM      3  C4  UNL d   1      -0.356   0.517  -1.247  0.00  0.00     0.004 A 
ATOM      4  C5  UNL d   1      -0.525  -0.532  -0.344  0.00  0.00    -0.004 A 
ATOM      5  C6  UNL d   1       0.434  -0.774   0.644  0.00  0.00    -0.075 A 
ATOM      6  C7  UNL d   1       0.268  -1.900   1.622  0.00  0.00     0.076 C 
ATOM      7  C8  UNL d   1       1.569   0.045   0.709  0.00  0.00     0.001 A 
ENDROOT
BRANCH   1   8
ATOM      8  C1  UNL d   1       2.973   1.976  -0.115  0.00  0.00     0.053 C 
ATOM      9  C   UNL d   1       2.618   3.412   0.240  0.00  0.00     0.018 C 
ENDBRANCH   1   8
TORSDOF 1
ENDMDL
