MODEL 1
REMARK minimizedAffinity -0.14910917
REMARK minimizedRMSD -1
REMARK  1 active torsions:
REMARK  status: ('A' for Active; 'I' for Inactive)
REMARK    1  A    between atoms: C1_2  and  C2_3 
ROOT
ATOM      1  C2  UNL d   1       1.022   1.089   1.102  0.00  0.00    -0.073 A 
ATOM      2  C3  UNL d   1       0.502  -0.087   1.654  0.00  0.00    -0.002 A 
ATOM      3  C4  UNL d   1      -0.169  -1.008   0.847  0.00  0.00     0.004 A 
ATOM      4  C5  UNL d   1      -0.321  -0.766  -0.518  0.00  0.00    -0.004 A 
ATOM      5  C6  UNL d   1       0.202   0.398  -1.090  0.00  0.00    -0.075 A 
ATOM      6  C7  UNL d   1       0.046   0.675  -2.557  0.00  0.00     0.076 C 
ATOM      7  C8  UNL d   1       0.872   1.319  -0.274  0.00  0.00     0.001 A 
ENDROOT
BRANCH   1   8
ATOM      8  C1  UNL d   1       1.752   2.083   1.967  0.00  0.00     0.053 C 
ATOM      9  C   UNL d   1       2.768   2.890   1.175  0.00  0.00     0.018 C 
ENDBRANCH   1   8
TORSDOF 1
ENDMDL
