MODEL 1
REMARK minimizedAffinity 2.82974577
REMARK minimizedRMSD -1
REMARK  1 active torsions:
REMARK  status: ('A' for Active; 'I' for Inactive)
REMARK    1  A    between atoms: C1_2  and  C2_3 
ROOT
ATOM      1  C2  UNL d   1       1.730   1.176   0.652  0.00  0.00    -0.073 A 
ATOM      2  C3  UNL d   1       1.639  -0.194   0.379  0.00  0.00    -0.002 A 
ATOM      3  C4  UNL d   1       0.769  -1.002   1.112  0.00  0.00     0.004 A 
ATOM      4  C5  UNL d   1      -0.023  -0.449   2.118  0.00  0.00    -0.004 A 
ATOM      5  C6  UNL d   1       0.045   0.920   2.398  0.00  0.00    -0.075 A 
ATOM      6  C7  UNL d   1      -0.799   1.529   3.478  0.00  0.00     0.076 C 
ATOM      7  C8  UNL d   1       0.923   1.724   1.659  0.00  0.00     0.001 A 
ENDROOT
BRANCH   1   8
ATOM      8  C1  UNL d   1       2.664   2.054  -0.141  0.00  0.00     0.053 C 
ATOM      9  C   UNL d   1       3.087   3.288   0.640  0.00  0.00     0.018 C 
ENDBRANCH   1   8
TORSDOF 1
ENDMDL
