MODEL 1
REMARK minimizedAffinity -1.3698864
REMARK minimizedRMSD -1
REMARK  1 active torsions:
REMARK  status: ('A' for Active; 'I' for Inactive)
REMARK    1  A    between atoms: C1_2  and  C2_3 
ROOT
ATOM      1  C2  UNL d   1       4.693   3.364  -2.275  0.00  0.00    -0.073 A 
ATOM      2  C3  UNL d   1       3.477   3.308  -2.965  0.00  0.00    -0.002 A 
ATOM      3  C4  UNL d   1       2.269   3.325  -2.267  0.00  0.00     0.004 A 
ATOM      4  C5  UNL d   1       2.264   3.404  -0.874  0.00  0.00    -0.004 A 
ATOM      5  C6  UNL d   1       3.469   3.472  -0.168  0.00  0.00    -0.075 A 
ATOM      6  C7  UNL d   1       3.480   3.556   1.331  0.00  0.00     0.076 C 
ATOM      7  C8  UNL d   1       4.678   3.452  -0.876  0.00  0.00     0.001 A 
ENDROOT
BRANCH   1   8
ATOM      8  C1  UNL d   1       6.000   3.353  -3.025  0.00  0.00     0.053 C 
ATOM      9  C   UNL d   1       5.999   4.334  -4.187  0.00  0.00     0.018 C 
ENDBRANCH   1   8
TORSDOF 1
ENDMDL
