MODEL 1
REMARK minimizedAffinity 2.75499177
REMARK minimizedRMSD -1
REMARK  1 active torsions:
REMARK  status: ('A' for Active; 'I' for Inactive)
REMARK    1  A    between atoms: C1_2  and  C2_3 
ROOT
ATOM      1  C2  UNL d   1      -0.472   1.501  -3.453  0.00  0.00    -0.073 A 
ATOM      2  C3  UNL d   1      -1.587   2.329  -3.619  0.00  0.00    -0.002 A 
ATOM      3  C4  UNL d   1      -2.801   2.007  -3.011  0.00  0.00     0.004 A 
ATOM      4  C5  UNL d   1      -2.911   0.859  -2.227  0.00  0.00    -0.004 A 
ATOM      5  C6  UNL d   1      -1.804   0.024  -2.040  0.00  0.00    -0.075 A 
ATOM      6  C7  UNL d   1      -1.906  -1.216  -1.201  0.00  0.00     0.076 C 
ATOM      7  C8  UNL d   1      -0.589   0.353  -2.656  0.00  0.00     0.001 A 
ENDROOT
BRANCH   1   8
ATOM      8  C1  UNL d   1       0.843   1.848  -4.102  0.00  0.00     0.053 C 
ATOM      9  C   UNL d   1       0.876   1.453  -5.570  0.00  0.00     0.018 C 
ENDBRANCH   1   8
TORSDOF 1
ENDMDL
