MODEL 1
REMARK minimizedAffinity -4.4600606
REMARK minimizedRMSD -1
REMARK  0 active torsions:
REMARK  status: ('A' for Active; 'I' for Inactive)
ROOT
ATOM      1  C   UNL d   1      -0.831  -0.115  -1.017  0.00  0.00     0.078 C 
ATOM      2  C1  UNL d   1      -0.220  -0.267   0.344  0.00  0.00    -0.077 A 
ATOM      3  C2  UNL d   1      -1.019  -0.290   1.494  0.00  0.00    -0.001 A 
ATOM      4  C3  UNL d   1      -0.437  -0.422   2.756  0.00  0.00     0.003 A 
ATOM      5  C4  UNL d   1       0.947  -0.532   2.879  0.00  0.00    -0.005 A 
ATOM      6  C5  UNL d   1       1.750  -0.509   1.741  0.00  0.00     0.003 A 
ATOM      7  C6  UNL d   1       1.169  -0.376   0.479  0.00  0.00    -0.001 A 
ENDROOT
TORSDOF 0
ENDMDL
