MODEL 1
REMARK minimizedAffinity -3.92782235
REMARK minimizedRMSD -1
REMARK  0 active torsions:
REMARK  status: ('A' for Active; 'I' for Inactive)
ROOT
ATOM      1  C   UNL d   1       3.061  -1.788  -0.076  0.00  0.00     0.078 C 
ATOM      2  C1  UNL d   1       1.824  -1.284   0.607  0.00  0.00    -0.077 A 
ATOM      3  C2  UNL d   1       1.616  -1.500   1.975  0.00  0.00    -0.001 A 
ATOM      4  C3  UNL d   1       0.456  -1.034   2.595  0.00  0.00     0.003 A 
ATOM      5  C4  UNL d   1      -0.506  -0.350   1.855  0.00  0.00    -0.005 A 
ATOM      6  C5  UNL d   1      -0.310  -0.132   0.493  0.00  0.00     0.003 A 
ATOM      7  C6  UNL d   1       0.850  -0.597  -0.129  0.00  0.00    -0.001 A 
ENDROOT
TORSDOF 0
ENDMDL
