MODEL 1
REMARK minimizedAffinity -4.74503469
REMARK minimizedRMSD -1
REMARK  0 active torsions:
REMARK  status: ('A' for Active; 'I' for Inactive)
ROOT
ATOM      1  C   UNL d   1       2.787  -2.008   0.750  0.00  0.00     0.078 C 
ATOM      2  C1  UNL d   1       1.473  -1.339   1.025  0.00  0.00    -0.077 A 
ATOM      3  C2  UNL d   1       0.936  -1.309   2.318  0.00  0.00    -0.001 A 
ATOM      4  C3  UNL d   1      -0.292  -0.691   2.558  0.00  0.00     0.003 A 
ATOM      5  C4  UNL d   1      -0.994  -0.100   1.510  0.00  0.00    -0.005 A 
ATOM      6  C5  UNL d   1      -0.469  -0.127   0.219  0.00  0.00     0.003 A 
ATOM      7  C6  UNL d   1       0.759  -0.745  -0.022  0.00  0.00    -0.001 A 
ENDROOT
TORSDOF 0
ENDMDL
