MODEL 1
REMARK minimizedAffinity -4.815835
REMARK minimizedRMSD -1
REMARK  0 active torsions:
REMARK  status: ('A' for Active; 'I' for Inactive)
ROOT
ATOM      1  C   UNL d   1      -0.271   0.500  -1.145  0.00  0.00     0.078 C 
ATOM      2  C1  UNL d   1       0.211  -0.022   0.175  0.00  0.00    -0.077 A 
ATOM      3  C2  UNL d   1      -0.691  -0.347   1.195  0.00  0.00    -0.001 A 
ATOM      4  C3  UNL d   1      -0.227  -0.823   2.423  0.00  0.00     0.003 A 
ATOM      5  C4  UNL d   1       1.140  -0.977   2.642  0.00  0.00    -0.005 A 
ATOM      6  C5  UNL d   1       2.046  -0.654   1.634  0.00  0.00     0.003 A 
ATOM      7  C6  UNL d   1       1.584  -0.178   0.406  0.00  0.00    -0.001 A 
ENDROOT
TORSDOF 0
ENDMDL
