MODEL 1
REMARK minimizedAffinity -5.96674442
REMARK minimizedRMSD -1
REMARK  0 active torsions:
REMARK  status: ('A' for Active; 'I' for Inactive)
ROOT
ATOM      1  C   UNL d   1      -0.099   0.240  -0.882  0.00  0.00     0.078 C 
ATOM      2  C1  UNL d   1       0.663  -0.418   0.229  0.00  0.00    -0.077 A 
ATOM      3  C2  UNL d   1       0.329  -0.186   1.569  0.00  0.00    -0.001 A 
ATOM      4  C3  UNL d   1       1.054  -0.797   2.593  0.00  0.00     0.003 A 
ATOM      5  C4  UNL d   1       2.118  -1.644   2.289  0.00  0.00    -0.005 A 
ATOM      6  C5  UNL d   1       2.459  -1.880   0.958  0.00  0.00     0.003 A 
ATOM      7  C6  UNL d   1       1.735  -1.269  -0.067  0.00  0.00    -0.001 A 
ENDROOT
TORSDOF 0
ENDMDL
