MODEL 1
REMARK minimizedAffinity -4.37393618
REMARK minimizedRMSD -1
REMARK  0 active torsions:
REMARK  status: ('A' for Active; 'I' for Inactive)
ROOT
ATOM      1  C   UNL d   1      -0.365   0.530  -1.534  0.00  0.00     0.078 C 
ATOM      2  C1  UNL d   1       0.038   0.165  -0.137  0.00  0.00    -0.077 A 
ATOM      3  C2  UNL d   1      -0.923  -0.036   0.862  0.00  0.00    -0.001 A 
ATOM      4  C3  UNL d   1      -0.532  -0.366   2.161  0.00  0.00     0.003 A 
ATOM      5  C4  UNL d   1       0.819  -0.498   2.473  0.00  0.00    -0.005 A 
ATOM      6  C5  UNL d   1       1.783  -0.298   1.486  0.00  0.00     0.003 A 
ATOM      7  C6  UNL d   1       1.394   0.032   0.187  0.00  0.00    -0.001 A 
ENDROOT
TORSDOF 0
ENDMDL
