MODEL 1
REMARK minimizedAffinity 9.40994072
REMARK minimizedRMSD -1
REMARK  0 active torsions:
REMARK  status: ('A' for Active; 'I' for Inactive)
ROOT
ATOM      1  O1  BZF d   1       0.588   1.877   2.567  0.00  0.00    -0.204 OA
ATOM      2  C2  BZF d   1       0.481   0.953   3.588  0.00  0.00     0.174 A 
ATOM      3  C3  BZF d   1       1.299  -0.097   3.370  0.00  0.00    -0.012 A 
ATOM      4  C3A BZF d   1       2.026   0.232   2.182  0.00  0.00    -0.107 A 
ATOM      5  C4  BZF d   1       2.999  -0.408   1.469  0.00  0.00     0.055 A 
ATOM      6  C5  BZF d   1       3.446   0.151   0.313  0.00  0.00    -0.016 A 
ATOM      7  C6  BZF d   1       2.940   1.344  -0.160  0.00  0.00     0.022 A 
ATOM      8  C7  BZF d   1       1.977   2.018   0.515  0.00  0.00     0.029 A 
ATOM      9  C7A BZF d   1       1.547   1.472   1.700  0.00  0.00     0.058 A 
ENDROOT
TORSDOF 0
ENDMDL
