MODEL 1
REMARK minimizedAffinity 14.3028774
REMARK minimizedRMSD -1
REMARK  0 active torsions:
REMARK  status: ('A' for Active; 'I' for Inactive)
ROOT
ATOM      1  O1  BZF d   1      -3.559  -2.387  -2.487  0.00  0.00    -0.204 OA
ATOM      2  C2  BZF d   1      -2.626  -2.604  -1.491  0.00  0.00     0.174 A 
ATOM      3  C3  BZF d   1      -2.812  -3.809  -0.915  0.00  0.00    -0.012 A 
ATOM      4  C3A BZF d   1      -3.874  -4.419  -1.654  0.00  0.00    -0.107 A 
ATOM      5  C4  BZF d   1      -4.502  -5.629  -1.570  0.00  0.00     0.055 A 
ATOM      6  C5  BZF d   1      -5.551  -5.888  -2.395  0.00  0.00    -0.016 A 
ATOM      7  C6  BZF d   1      -6.000  -4.959  -3.311  0.00  0.00     0.022 A 
ATOM      8  C7  BZF d   1      -5.405  -3.748  -3.435  0.00  0.00     0.029 A 
ATOM      9  C7A BZF d   1      -4.325  -3.496  -2.626  0.00  0.00     0.058 A 
ENDROOT
TORSDOF 0
ENDMDL
