MODEL 1
REMARK minimizedAffinity 21.4238834
REMARK minimizedRMSD -1
REMARK  0 active torsions:
REMARK  status: ('A' for Active; 'I' for Inactive)
ROOT
ATOM      1  O1  BZF d   1       4.549  -0.754   2.053  0.00  0.00    -0.204 OA
ATOM      2  C2  BZF d   1       5.875  -0.429   1.844  0.00  0.00     0.174 A 
ATOM      3  C3  BZF d   1       6.000   0.439   0.820  0.00  0.00    -0.012 A 
ATOM      4  C3A BZF d   1       4.660   0.742   0.418  0.00  0.00    -0.107 A 
ATOM      5  C4  BZF d   1       4.129   1.556  -0.541  0.00  0.00     0.055 A 
ATOM      6  C5  BZF d   1       2.783   1.570  -0.723  0.00  0.00    -0.016 A 
ATOM      7  C6  BZF d   1       1.939   0.780   0.030  0.00  0.00     0.022 A 
ATOM      8  C7  BZF d   1       2.419  -0.040   0.997  0.00  0.00     0.029 A 
ATOM      9  C7A BZF d   1       3.777  -0.032   1.206  0.00  0.00     0.058 A 
ENDROOT
TORSDOF 0
ENDMDL
