MODEL 1
REMARK minimizedAffinity 17.2324924
REMARK minimizedRMSD -1
REMARK  0 active torsions:
REMARK  status: ('A' for Active; 'I' for Inactive)
ROOT
ATOM      1  O1  BZF d   1       3.637  -0.747   0.983  0.00  0.00    -0.204 OA
ATOM      2  C2  BZF d   1       4.435  -0.626  -0.138  0.00  0.00     0.174 A 
ATOM      3  C3  BZF d   1       4.085   0.458  -0.860  0.00  0.00    -0.012 A 
ATOM      4  C3A BZF d   1       3.060   1.103  -0.097  0.00  0.00    -0.107 A 
ATOM      5  C4  BZF d   1       2.324   2.238  -0.284  0.00  0.00     0.055 A 
ATOM      6  C5  BZF d   1       1.352   2.550   0.613  0.00  0.00    -0.016 A 
ATOM      7  C6  BZF d   1       1.086   1.749   1.704  0.00  0.00     0.022 A 
ATOM      8  C7  BZF d   1       1.793   0.615   1.934  0.00  0.00     0.029 A 
ATOM      9  C7A BZF d   1       2.798   0.314   1.047  0.00  0.00     0.058 A 
ENDROOT
TORSDOF 0
ENDMDL
