MODEL 1
REMARK minimizedAffinity 4.38977003
REMARK minimizedRMSD -1
REMARK  0 active torsions:
REMARK  status: ('A' for Active; 'I' for Inactive)
ROOT
ATOM      1  O1  BZF d   1       4.121   1.315  -2.889  0.00  0.00    -0.204 OA
ATOM      2  C2  BZF d   1       3.007   1.922  -3.435  0.00  0.00     0.174 A 
ATOM      3  C3  BZF d   1       1.972   1.889  -2.571  0.00  0.00    -0.012 A 
ATOM      4  C3A BZF d   1       2.498   1.302  -1.377  0.00  0.00    -0.107 A 
ATOM      5  C4  BZF d   1       1.959   1.016  -0.155  0.00  0.00     0.055 A 
ATOM      6  C5  BZF d   1       2.722   0.376   0.770  0.00  0.00    -0.016 A 
ATOM      7  C6  BZF d   1       4.023   0.003   0.505  0.00  0.00     0.022 A 
ATOM      8  C7  BZF d   1       4.603   0.269  -0.691  0.00  0.00     0.029 A 
ATOM      9  C7A BZF d   1       3.845   0.946  -1.615  0.00  0.00     0.058 A 
ENDROOT
TORSDOF 0
ENDMDL
