MODEL 1
REMARK minimizedAffinity 9.1522789
REMARK minimizedRMSD -1
REMARK  0 active torsions:
REMARK  status: ('A' for Active; 'I' for Inactive)
ROOT
ATOM      1  O1  BZF d   1       1.398   2.040  -1.744  0.00  0.00    -0.204 OA
ATOM      2  C2  BZF d   1       2.160   1.715  -2.850  0.00  0.00     0.174 A 
ATOM      3  C3  BZF d   1       3.311   1.118  -2.479  0.00  0.00    -0.012 A 
ATOM      4  C3A BZF d   1       3.224   0.983  -1.057  0.00  0.00    -0.107 A 
ATOM      5  C4  BZF d   1       4.055   0.452  -0.112  0.00  0.00     0.055 A 
ATOM      6  C5  BZF d   1       3.708   0.543   1.198  0.00  0.00    -0.016 A 
ATOM      7  C6  BZF d   1       2.542   1.163   1.599  0.00  0.00     0.022 A 
ATOM      8  C7  BZF d   1       1.685   1.701   0.698  0.00  0.00     0.029 A 
ATOM      9  C7A BZF d   1       2.016   1.581  -0.629  0.00  0.00     0.058 A 
ENDROOT
TORSDOF 0
ENDMDL
