MODEL 1
REMARK minimizedAffinity 5.76229143
REMARK minimizedRMSD -1
REMARK  0 active torsions:
REMARK  status: ('A' for Active; 'I' for Inactive)
ROOT
ATOM      1  O1  BZF d   1      -1.227  -5.257   2.420  0.00  0.00    -0.204 OA
ATOM      2  C2  BZF d   1      -2.410  -5.960   2.296  0.00  0.00     0.174 A 
ATOM      3  C3  BZF d   1      -3.250  -5.337   1.444  0.00  0.00    -0.012 A 
ATOM      4  C3A BZF d   1      -2.513  -4.220   0.939  0.00  0.00    -0.107 A 
ATOM      5  C4  BZF d   1      -2.803  -3.231   0.042  0.00  0.00     0.055 A 
ATOM      6  C5  BZF d   1      -1.890  -2.249  -0.176  0.00  0.00    -0.016 A 
ATOM      7  C6  BZF d   1      -0.681  -2.221   0.486  0.00  0.00     0.022 A 
ATOM      8  C7  BZF d   1      -0.346  -3.183   1.381  0.00  0.00     0.029 A 
ATOM      9  C7A BZF d   1      -1.252  -4.195   1.579  0.00  0.00     0.058 A 
ENDROOT
TORSDOF 0
ENDMDL
