MODEL 1
REMARK minimizedAffinity 10.3861351
REMARK minimizedRMSD -1
REMARK  0 active torsions:
REMARK  status: ('A' for Active; 'I' for Inactive)
ROOT
ATOM      1  O1  BZF d   1      -0.411  -2.953   0.935  0.00  0.00    -0.204 OA
ATOM      2  C2  BZF d   1      -1.330  -3.278   1.914  0.00  0.00     0.174 A 
ATOM      3  C3  BZF d   1      -2.583  -3.271   1.415  0.00  0.00    -0.012 A 
ATOM      4  C3A BZF d   1      -2.429  -3.008   0.016  0.00  0.00    -0.107 A 
ATOM      5  C4  BZF d   1      -3.311  -2.894  -1.020  0.00  0.00     0.055 A 
ATOM      6  C5  BZF d   1      -2.844  -2.561  -2.251  0.00  0.00    -0.016 A 
ATOM      7  C6  BZF d   1      -1.504  -2.329  -2.481  0.00  0.00     0.022 A 
ATOM      8  C7  BZF d   1      -0.590  -2.435  -1.485  0.00  0.00     0.029 A 
ATOM      9  C7A BZF d   1      -1.055  -2.804  -0.247  0.00  0.00     0.058 A 
ENDROOT
TORSDOF 0
ENDMDL
