MODEL 1
REMARK minimizedAffinity 19.6162777
REMARK minimizedRMSD -1
REMARK  0 active torsions:
REMARK  status: ('A' for Active; 'I' for Inactive)
ROOT
ATOM      1  O1  BZF d   1      -1.507  -1.842  -5.089  0.00  0.00    -0.204 OA
ATOM      2  C2  BZF d   1      -1.359  -2.872  -5.999  0.00  0.00     0.174 A 
ATOM      3  C3  BZF d   1      -1.580  -4.065  -5.410  0.00  0.00    -0.012 A 
ATOM      4  C3A BZF d   1      -1.975  -3.756  -4.070  0.00  0.00    -0.107 A 
ATOM      5  C4  BZF d   1      -2.343  -4.521  -3.000  0.00  0.00     0.055 A 
ATOM      6  C5  BZF d   1      -2.599  -3.915  -1.812  0.00  0.00    -0.016 A 
ATOM      7  C6  BZF d   1      -2.492  -2.548  -1.656  0.00  0.00     0.022 A 
ATOM      8  C7  BZF d   1      -2.135  -1.747  -2.690  0.00  0.00     0.029 A 
ATOM      9  C7A BZF d   1      -1.908  -2.354  -3.901  0.00  0.00     0.058 A 
ENDROOT
TORSDOF 0
ENDMDL
