MODEL 1
REMARK minimizedAffinity 20.7545853
REMARK minimizedRMSD -1
REMARK  0 active torsions:
REMARK  status: ('A' for Active; 'I' for Inactive)
ROOT
ATOM      1  O1  BZF d   1      -3.029  -5.955  -3.678  0.00  0.00    -0.204 OA
ATOM      2  C2  BZF d   1      -1.654  -5.952  -3.536  0.00  0.00     0.174 A 
ATOM      3  C3  BZF d   1      -1.308  -5.913  -2.234  0.00  0.00    -0.012 A 
ATOM      4  C3A BZF d   1      -2.542  -5.983  -1.513  0.00  0.00    -0.107 A 
ATOM      5  C4  BZF d   1      -2.854  -6.000  -0.184  0.00  0.00     0.055 A 
ATOM      6  C5  BZF d   1      -4.161  -5.999   0.188  0.00  0.00    -0.016 A 
ATOM      7  C6  BZF d   1      -5.180  -5.976  -0.741  0.00  0.00     0.022 A 
ATOM      8  C7  BZF d   1      -4.920  -5.964  -2.071  0.00  0.00     0.029 A 
ATOM      9  C7A BZF d   1      -3.601  -5.998  -2.451  0.00  0.00     0.058 A 
ENDROOT
TORSDOF 0
ENDMDL
