MODEL 1
REMARK minimizedAffinity 2.99464512
REMARK minimizedRMSD -1
REMARK  0 active torsions:
REMARK  status: ('A' for Active; 'I' for Inactive)
ROOT
ATOM      1  O1  BZF d   1      -3.470  -4.080  -1.932  0.00  0.00    -0.204 OA
ATOM      2  C2  BZF d   1      -2.993  -2.886  -2.438  0.00  0.00     0.174 A 
ATOM      3  C3  BZF d   1      -2.250  -2.239  -1.518  0.00  0.00    -0.012 A 
ATOM      4  C3A BZF d   1      -2.186  -3.124  -0.395  0.00  0.00    -0.107 A 
ATOM      5  C4  BZF d   1      -1.578  -3.050   0.825  0.00  0.00     0.055 A 
ATOM      6  C5  BZF d   1      -1.773  -4.052   1.722  0.00  0.00    -0.016 A 
ATOM      7  C6  BZF d   1      -2.572  -5.139   1.433  0.00  0.00     0.022 A 
ATOM      8  C7  BZF d   1      -3.192  -5.259   0.234  0.00  0.00     0.029 A 
ATOM      9  C7A BZF d   1      -2.971  -4.264  -0.686  0.00  0.00     0.058 A 
ENDROOT
TORSDOF 0
ENDMDL
