MODEL 1
REMARK minimizedAffinity 12.9116802
REMARK minimizedRMSD -1
REMARK  0 active torsions:
REMARK  status: ('A' for Active; 'I' for Inactive)
ROOT
ATOM      1  O1  BZF d   1      -1.589  -1.972  -1.794  0.00  0.00    -0.204 OA
ATOM      2  C2  BZF d   1      -2.777  -2.182  -2.467  0.00  0.00     0.174 A 
ATOM      3  C3  BZF d   1      -3.638  -2.889  -1.707  0.00  0.00    -0.012 A 
ATOM      4  C3A BZF d   1      -2.979  -3.057  -0.448  0.00  0.00    -0.107 A 
ATOM      5  C4  BZF d   1      -3.333  -3.662   0.724  0.00  0.00     0.055 A 
ATOM      6  C5  BZF d   1      -2.432  -3.713   1.740  0.00  0.00    -0.016 A 
ATOM      7  C6  BZF d   1      -1.167  -3.175   1.616  0.00  0.00     0.022 A 
ATOM      8  C7  BZF d   1      -0.772  -2.561   0.474  0.00  0.00     0.029 A 
ATOM      9  C7A BZF d   1      -1.692  -2.479  -0.542  0.00  0.00     0.058 A 
ENDROOT
TORSDOF 0
ENDMDL
