MODEL 1
REMARK minimizedAffinity 8.71285248
REMARK minimizedRMSD -1
REMARK  0 active torsions:
REMARK  status: ('A' for Active; 'I' for Inactive)
ROOT
ATOM      1  O1  BZF d   1       3.328  -0.320   2.365  0.00  0.00    -0.204 OA
ATOM      2  C2  BZF d   1       2.144   0.194   2.856  0.00  0.00     0.174 A 
ATOM      3  C3  BZF d   1       1.556   0.995   1.945  0.00  0.00    -0.012 A 
ATOM      4  C3A BZF d   1       2.381   0.908   0.779  0.00  0.00    -0.107 A 
ATOM      5  C4  BZF d   1       2.310   1.467  -0.465  0.00  0.00     0.055 A 
ATOM      6  C5  BZF d   1       3.315   1.238  -1.350  0.00  0.00    -0.016 A 
ATOM      7  C6  BZF d   1       4.406   0.459  -1.024  0.00  0.00     0.022 A 
ATOM      8  C7  BZF d   1       4.518  -0.120   0.196  0.00  0.00     0.029 A 
ATOM      9  C7A BZF d   1       3.488   0.083   1.082  0.00  0.00     0.058 A 
ENDROOT
TORSDOF 0
ENDMDL
