MODEL 1
REMARK minimizedAffinity 3.07285786
REMARK minimizedRMSD -1
REMARK  0 active torsions:
REMARK  status: ('A' for Active; 'I' for Inactive)
ROOT
ATOM      1  O1  BZF d   1       4.824  -0.644   0.910  0.00  0.00    -0.204 OA
ATOM      2  C2  BZF d   1       4.768  -0.277  -0.421  0.00  0.00     0.174 A 
ATOM      3  C3  BZF d   1       3.645   0.425  -0.677  0.00  0.00    -0.012 A 
ATOM      4  C3A BZF d   1       3.001   0.580   0.592  0.00  0.00    -0.107 A 
ATOM      5  C4  BZF d   1       1.852   1.200   0.991  0.00  0.00     0.055 A 
ATOM      6  C5  BZF d   1       1.468   1.105   2.292  0.00  0.00    -0.016 A 
ATOM      7  C6  BZF d   1       2.205   0.394   3.216  0.00  0.00     0.022 A 
ATOM      8  C7  BZF d   1       3.355  -0.233   2.868  0.00  0.00     0.029 A 
ATOM      9  C7A BZF d   1       3.763  -0.111   1.562  0.00  0.00     0.058 A 
ENDROOT
TORSDOF 0
ENDMDL
