MODEL 1
REMARK minimizedAffinity 0.533366024
REMARK minimizedRMSD -1
REMARK  0 active torsions:
REMARK  status: ('A' for Active; 'I' for Inactive)
ROOT
ATOM      1  O1  BZF d   1      -5.380   5.955  -2.352  0.00  0.00    -0.204 OA
ATOM      2  C2  BZF d   1      -5.998   5.665  -1.151  0.00  0.00     0.174 A 
ATOM      3  C3  BZF d   1      -5.090   5.302  -0.222  0.00  0.00    -0.012 A 
ATOM      4  C3A BZF d   1      -3.818   5.458  -0.857  0.00  0.00    -0.107 A 
ATOM      5  C4  BZF d   1      -2.531   5.268  -0.441  0.00  0.00     0.055 A 
ATOM      6  C5  BZF d   1      -1.517   5.440  -1.330  0.00  0.00    -0.016 A 
ATOM      7  C6  BZF d   1      -1.754   5.795  -2.642  0.00  0.00     0.022 A 
ATOM      8  C7  BZF d   1      -3.013   6.000  -3.100  0.00  0.00     0.029 A 
ATOM      9  C7A BZF d   1      -4.038   5.859  -2.195  0.00  0.00     0.058 A 
ENDROOT
TORSDOF 0
ENDMDL
