MODEL 1
REMARK minimizedAffinity 11.478384
REMARK minimizedRMSD -1
REMARK  0 active torsions:
REMARK  status: ('A' for Active; 'I' for Inactive)
ROOT
ATOM      1  O1  BZF d   1      -3.061  -1.945  -2.654  0.00  0.00    -0.204 OA
ATOM      2  C2  BZF d   1      -3.163  -2.530  -1.406  0.00  0.00     0.174 A 
ATOM      3  C3  BZF d   1      -2.543  -3.727  -1.387  0.00  0.00    -0.012 A 
ATOM      4  C3A BZF d   1      -1.942  -3.861  -2.679  0.00  0.00    -0.107 A 
ATOM      5  C4  BZF d   1      -1.177  -4.829  -3.263  0.00  0.00     0.055 A 
ATOM      6  C5  BZF d   1      -0.812  -4.687  -4.564  0.00  0.00    -0.016 A 
ATOM      7  C6  BZF d   1      -1.198  -3.594  -5.312  0.00  0.00     0.022 A 
ATOM      8  C7  BZF d   1      -1.953  -2.605  -4.774  0.00  0.00     0.029 A 
ATOM      9  C7A BZF d   1      -2.296  -2.729  -3.450  0.00  0.00     0.058 A 
ENDROOT
TORSDOF 0
ENDMDL
