MODEL 1
REMARK minimizedAffinity 17.034029
REMARK minimizedRMSD -1
REMARK  0 active torsions:
REMARK  status: ('A' for Active; 'I' for Inactive)
ROOT
ATOM      1  O1  BZF d   1      -1.723  -4.795   3.849  0.00  0.00    -0.204 OA
ATOM      2  C2  BZF d   1      -1.855  -6.000   3.185  0.00  0.00     0.174 A 
ATOM      3  C3  BZF d   1      -1.883  -5.810   1.850  0.00  0.00    -0.012 A 
ATOM      4  C3A BZF d   1      -1.668  -4.407   1.665  0.00  0.00    -0.107 A 
ATOM      5  C4  BZF d   1      -1.574  -3.610   0.561  0.00  0.00     0.055 A 
ATOM      6  C5  BZF d   1      -1.434  -2.268   0.725  0.00  0.00    -0.016 A 
ATOM      7  C6  BZF d   1      -1.390  -1.691   1.977  0.00  0.00     0.022 A 
ATOM      8  C7  BZF d   1      -1.474  -2.441   3.102  0.00  0.00     0.029 A 
ATOM      9  C7A BZF d   1      -1.582  -3.801   2.940  0.00  0.00     0.058 A 
ENDROOT
TORSDOF 0
ENDMDL
