MODEL 1
REMARK minimizedAffinity 3.30671883
REMARK minimizedRMSD -1
REMARK  0 active torsions:
REMARK  status: ('A' for Active; 'I' for Inactive)
ROOT
ATOM      1  O1  BZF d   1      -4.943   1.046   4.795  0.00  0.00    -0.204 OA
ATOM      2  C2  BZF d   1      -5.218   2.291   5.325  0.00  0.00     0.174 A 
ATOM      3  C3  BZF d   1      -4.259   3.177   4.987  0.00  0.00    -0.012 A 
ATOM      4  C3A BZF d   1      -3.374   2.461   4.120  0.00  0.00    -0.107 A 
ATOM      5  C4  BZF d   1      -2.238   2.806   3.445  0.00  0.00     0.055 A 
ATOM      6  C5  BZF d   1      -1.572   1.853   2.742  0.00  0.00    -0.016 A 
ATOM      7  C6  BZF d   1      -2.011   0.545   2.696  0.00  0.00     0.022 A 
ATOM      8  C7  BZF d   1      -3.135   0.157   3.345  0.00  0.00     0.029 A 
ATOM      9  C7A BZF d   1      -3.828   1.125   4.029  0.00  0.00     0.058 A 
ENDROOT
TORSDOF 0
ENDMDL
