MODEL 1
REMARK minimizedAffinity 10.0730982
REMARK minimizedRMSD -1
REMARK  0 active torsions:
REMARK  status: ('A' for Active; 'I' for Inactive)
ROOT
ATOM      1  O1  BZF d   1       1.140   2.176   2.487  0.00  0.00    -0.204 OA
ATOM      2  C2  BZF d   1      -0.202   1.854   2.425  0.00  0.00     0.174 A 
ATOM      3  C3  BZF d   1      -0.454   1.056   1.367  0.00  0.00    -0.012 A 
ATOM      4  C3A BZF d   1       0.825   0.792   0.782  0.00  0.00    -0.107 A 
ATOM      5  C4  BZF d   1       1.232   0.048  -0.288  0.00  0.00     0.055 A 
ATOM      6  C5  BZF d   1       2.545   0.057  -0.638  0.00  0.00    -0.016 A 
ATOM      7  C6  BZF d   1       3.476   0.802   0.056  0.00  0.00     0.022 A 
ATOM      8  C7  BZF d   1       3.121   1.551   1.128  0.00  0.00     0.029 A 
ATOM      9  C7A BZF d   1       1.800   1.518   1.504  0.00  0.00     0.058 A 
ENDROOT
TORSDOF 0
ENDMDL
