MODEL 1
REMARK minimizedAffinity 4.41425467
REMARK minimizedRMSD -1
REMARK  0 active torsions:
REMARK  status: ('A' for Active; 'I' for Inactive)
ROOT
ATOM      1  C   UNL d   1      -1.290  -1.186  -0.072  0.00  0.00     0.124 A 
ATOM      2  C1  UNL d   1      -1.836  -2.458  -0.177  0.00  0.00     0.062 A 
ATOM      3  C2  UNL d   1      -2.248  -2.942  -1.415  0.00  0.00     0.162 A 
ATOM      4  C3  UNL d   1      -2.116  -2.154  -2.559  0.00  0.00    -0.034 A 
ATOM      5  C4  UNL d   1      -1.567  -0.875  -2.444  0.00  0.00     0.162 A 
ATOM      6  C5  UNL d   1      -1.157  -0.396  -1.205  0.00  0.00     0.062 A 
ATOM      7  F   UNL d   1      -0.630   0.833  -1.104  0.00  0.00    -0.097 F 
ATOM      8  F1  UNL d   1      -1.426  -0.091  -3.523  0.00  0.00    -0.096 F 
ATOM      9  I   UNL d   1      -2.731  -2.874  -4.412  0.00  0.00    -0.060 I 
ATOM     10  F2  UNL d   1      -2.772  -4.175  -1.488  0.00  0.00    -0.096 F 
ATOM     11  F3  UNL d   1      -1.967  -3.223   0.916  0.00  0.00    -0.097 F 
ATOM     12  F4  UNL d   1      -0.895  -0.723   1.121  0.00  0.00    -0.092 F 
ENDROOT
TORSDOF 0
ENDMDL
