MODEL 1
REMARK minimizedAffinity -3.01289535
REMARK minimizedRMSD -1
REMARK  0 active torsions:
REMARK  status: ('A' for Active; 'I' for Inactive)
ROOT
ATOM      1  C   UNL d   1       0.574   0.308  -4.160  0.00  0.00     0.124 A 
ATOM      2  C1  UNL d   1      -0.591   0.398  -3.411  0.00  0.00     0.062 A 
ATOM      3  C2  UNL d   1      -0.608  -0.037  -2.089  0.00  0.00     0.162 A 
ATOM      4  C3  UNL d   1       0.544  -0.567  -1.507  0.00  0.00    -0.034 A 
ATOM      5  C4  UNL d   1       1.711  -0.656  -2.267  0.00  0.00     0.162 A 
ATOM      6  C5  UNL d   1       1.724  -0.219  -3.588  0.00  0.00     0.062 A 
ATOM      7  F   UNL d   1       2.850  -0.307  -4.311  0.00  0.00    -0.097 F 
ATOM      8  F1  UNL d   1       2.836  -1.160  -1.739  0.00  0.00    -0.096 F 
ATOM      9  I   UNL d   1       0.522  -1.219   0.469  0.00  0.00    -0.060 I 
ATOM     10  F2  UNL d   1      -1.748   0.062  -1.388  0.00  0.00    -0.096 F 
ATOM     11  F3  UNL d   1      -1.703   0.906  -3.962  0.00  0.00    -0.097 F 
ATOM     12  F4  UNL d   1       0.588   0.726  -5.432  0.00  0.00    -0.092 F 
ENDROOT
TORSDOF 0
ENDMDL
