MODEL 1
REMARK minimizedAffinity 2.1301415
REMARK minimizedRMSD -1
REMARK  0 active torsions:
REMARK  status: ('A' for Active; 'I' for Inactive)
ROOT
ATOM      1  C   UNL d   1      -2.404  -3.898  -2.043  0.00  0.00     0.124 A 
ATOM      2  C1  UNL d   1      -2.726  -2.825  -2.863  0.00  0.00     0.062 A 
ATOM      3  C2  UNL d   1      -2.405  -1.527  -2.475  0.00  0.00     0.162 A 
ATOM      4  C3  UNL d   1      -1.758  -1.295  -1.262  0.00  0.00    -0.034 A 
ATOM      5  C4  UNL d   1      -1.439  -2.378  -0.442  0.00  0.00     0.162 A 
ATOM      6  C5  UNL d   1      -1.761  -3.674  -0.834  0.00  0.00     0.062 A 
ATOM      7  F   UNL d   1      -1.450  -4.709  -0.040  0.00  0.00    -0.097 F 
ATOM      8  F1  UNL d   1      -0.817  -2.191   0.731  0.00  0.00    -0.096 F 
ATOM      9  I   UNL d   1      -1.277   0.645  -0.679  0.00  0.00    -0.060 I 
ATOM     10  F2  UNL d   1      -2.728  -0.510  -3.287  0.00  0.00    -0.096 F 
ATOM     11  F3  UNL d   1      -3.348  -3.039  -4.031  0.00  0.00    -0.097 F 
ATOM     12  F4  UNL d   1      -2.715  -5.145  -2.418  0.00  0.00    -0.092 F 
ENDROOT
TORSDOF 0
ENDMDL
