MODEL 1
REMARK minimizedAffinity 3.78348923
REMARK minimizedRMSD -1
REMARK  0 active torsions:
REMARK  status: ('A' for Active; 'I' for Inactive)
ROOT
ATOM      1  C   UNL d   1      -4.575   2.408   2.542  0.00  0.00     0.124 A 
ATOM      2  C1  UNL d   1      -4.617   3.717   3.002  0.00  0.00     0.062 A 
ATOM      3  C2  UNL d   1      -5.021   4.744   2.154  0.00  0.00     0.162 A 
ATOM      4  C3  UNL d   1      -5.389   4.467   0.838  0.00  0.00    -0.034 A 
ATOM      5  C4  UNL d   1      -5.343   3.148   0.382  0.00  0.00     0.162 A 
ATOM      6  C5  UNL d   1      -4.938   2.125   1.233  0.00  0.00     0.062 A 
ATOM      7  F   UNL d   1      -4.899   0.861   0.788  0.00  0.00    -0.097 F 
ATOM      8  F1  UNL d   1      -5.690   2.846  -0.878  0.00  0.00    -0.096 F 
ATOM      9  I   UNL d   1      -5.995   6.000  -0.433  0.00  0.00    -0.060 I 
ATOM     10  F2  UNL d   1      -5.052   6.000   2.626  0.00  0.00    -0.096 F 
ATOM     11  F3  UNL d   1      -4.266   3.994   4.266  0.00  0.00    -0.097 F 
ATOM     12  F4  UNL d   1      -4.184   1.422   3.360  0.00  0.00    -0.092 F 
ENDROOT
TORSDOF 0
ENDMDL
