MODEL 1
REMARK minimizedAffinity 6.8857522
REMARK minimizedRMSD -1
REMARK  0 active torsions:
REMARK  status: ('A' for Active; 'I' for Inactive)
ROOT
ATOM      1  C   UNL d   1      -3.644  -2.535   5.176  0.00  0.00     0.124 A 
ATOM      2  C1  UNL d   1      -2.459  -1.816   5.112  0.00  0.00     0.062 A 
ATOM      3  C2  UNL d   1      -2.459  -0.444   5.346  0.00  0.00     0.162 A 
ATOM      4  C3  UNL d   1      -3.649   0.218   5.649  0.00  0.00    -0.034 A 
ATOM      5  C4  UNL d   1      -4.838  -0.512   5.711  0.00  0.00     0.162 A 
ATOM      6  C5  UNL d   1      -4.832  -1.883   5.476  0.00  0.00     0.062 A 
ATOM      7  F   UNL d   1      -5.978  -2.576   5.538  0.00  0.00    -0.097 F 
ATOM      8  F1  UNL d   1      -6.000   0.093   5.998  0.00  0.00    -0.096 F 
ATOM      9  I   UNL d   1      -3.654   2.270   6.000  0.00  0.00    -0.060 I 
ATOM     10  F2  UNL d   1      -1.299   0.226   5.278  0.00  0.00    -0.096 F 
ATOM     11  F3  UNL d   1      -1.310  -2.444   4.822  0.00  0.00    -0.097 F 
ATOM     12  F4  UNL d   1      -3.641  -3.855   4.950  0.00  0.00    -0.092 F 
ENDROOT
TORSDOF 0
ENDMDL
