MODEL 1
REMARK minimizedAffinity 8.79517365
REMARK minimizedRMSD -1
REMARK  0 active torsions:
REMARK  status: ('A' for Active; 'I' for Inactive)
ROOT
ATOM      1  C   UNL d   1       2.095   1.816   3.962  0.00  0.00     0.124 A 
ATOM      2  C1  UNL d   1       1.380   1.405   2.845  0.00  0.00     0.062 A 
ATOM      3  C2  UNL d   1       1.719   1.883   1.582  0.00  0.00     0.162 A 
ATOM      4  C3  UNL d   1       2.779   2.777   1.429  0.00  0.00    -0.034 A 
ATOM      5  C4  UNL d   1       3.493   3.186   2.558  0.00  0.00     0.162 A 
ATOM      6  C5  UNL d   1       3.150   2.705   3.817  0.00  0.00     0.062 A 
ATOM      7  F   UNL d   1       3.841   3.103   4.895  0.00  0.00    -0.097 F 
ATOM      8  F1  UNL d   1       4.518   4.044   2.446  0.00  0.00    -0.096 F 
ATOM      9  I   UNL d   1       3.289   3.494  -0.457  0.00  0.00    -0.060 I 
ATOM     10  F2  UNL d   1       1.011   1.470   0.521  0.00  0.00    -0.096 F 
ATOM     11  F3  UNL d   1       0.359   0.547   2.982  0.00  0.00    -0.097 F 
ATOM     12  F4  UNL d   1       1.766   1.355   5.175  0.00  0.00    -0.092 F 
ENDROOT
TORSDOF 0
ENDMDL
