MODEL 1
REMARK minimizedAffinity 9.94718456
REMARK minimizedRMSD -1
REMARK  0 active torsions:
REMARK  status: ('A' for Active; 'I' for Inactive)
ROOT
ATOM      1  C   UNL d   1      -1.606  -1.766  -1.811  0.00  0.00     0.124 A 
ATOM      2  C1  UNL d   1      -1.631  -2.249  -0.510  0.00  0.00     0.062 A 
ATOM      3  C2  UNL d   1      -2.566  -3.209  -0.137  0.00  0.00     0.162 A 
ATOM      4  C3  UNL d   1      -3.485  -3.695  -1.067  0.00  0.00    -0.034 A 
ATOM      5  C4  UNL d   1      -3.455  -3.205  -2.374  0.00  0.00     0.162 A 
ATOM      6  C5  UNL d   1      -2.518  -2.245  -2.741  0.00  0.00     0.062 A 
ATOM      7  F   UNL d   1      -2.495  -1.780  -3.999  0.00  0.00    -0.097 F 
ATOM      8  F1  UNL d   1      -4.323  -3.651  -3.294  0.00  0.00    -0.096 F 
ATOM      9  I   UNL d   1      -4.885  -5.132  -0.514  0.00  0.00    -0.060 I 
ATOM     10  F2  UNL d   1      -2.567  -3.657   1.127  0.00  0.00    -0.096 F 
ATOM     11  F3  UNL d   1      -0.752  -1.787   0.392  0.00  0.00    -0.097 F 
ATOM     12  F4  UNL d   1      -0.706  -0.841  -2.167  0.00  0.00    -0.092 F 
ENDROOT
TORSDOF 0
ENDMDL
