MODEL 1
REMARK minimizedAffinity 8.86675739
REMARK minimizedRMSD -1
REMARK  0 active torsions:
REMARK  status: ('A' for Active; 'I' for Inactive)
ROOT
ATOM      1  C   UNL d   1       4.141   4.502   0.628  0.00  0.00     0.124 A 
ATOM      2  C1  UNL d   1       4.343   4.344   1.992  0.00  0.00     0.062 A 
ATOM      3  C2  UNL d   1       3.561   3.449   2.716  0.00  0.00     0.162 A 
ATOM      4  C3  UNL d   1       2.570   2.703   2.078  0.00  0.00    -0.034 A 
ATOM      5  C4  UNL d   1       2.372   2.868   0.706  0.00  0.00     0.162 A 
ATOM      6  C5  UNL d   1       3.156   3.764  -0.014  0.00  0.00     0.062 A 
ATOM      7  F   UNL d   1       2.958   3.916  -1.332  0.00  0.00    -0.097 F 
ATOM      8  F1  UNL d   1       1.427   2.168   0.061  0.00  0.00    -0.096 F 
ATOM      9  I   UNL d   1       1.399   1.364   3.158  0.00  0.00    -0.060 I 
ATOM     10  F2  UNL d   1       3.779   3.316   4.033  0.00  0.00    -0.096 F 
ATOM     11  F3  UNL d   1       5.294   5.056   2.614  0.00  0.00    -0.097 F 
ATOM     12  F4  UNL d   1       4.894   5.364  -0.067  0.00  0.00    -0.092 F 
ENDROOT
TORSDOF 0
ENDMDL
