MODEL 1
REMARK minimizedAffinity 15.5667477
REMARK minimizedRMSD -1
REMARK  0 active torsions:
REMARK  status: ('A' for Active; 'I' for Inactive)
ROOT
ATOM      1  C   UNL d   1      -2.830  -3.168  -2.208  0.00  0.00     0.124 A 
ATOM      2  C1  UNL d   1      -2.459  -3.108  -0.872  0.00  0.00     0.062 A 
ATOM      3  C2  UNL d   1      -1.819  -1.977  -0.374  0.00  0.00     0.162 A 
ATOM      4  C3  UNL d   1      -1.546  -0.896  -1.212  0.00  0.00    -0.034 A 
ATOM      5  C4  UNL d   1      -1.921  -0.965  -2.555  0.00  0.00     0.162 A 
ATOM      6  C5  UNL d   1      -2.561  -2.097  -3.048  0.00  0.00     0.062 A 
ATOM      7  F   UNL d   1      -2.918  -2.154  -4.340  0.00  0.00    -0.097 F 
ATOM      8  F1  UNL d   1      -1.673   0.057  -3.389  0.00  0.00    -0.096 F 
ATOM      9  I   UNL d   1      -0.588   0.796  -0.471  0.00  0.00    -0.060 I 
ATOM     10  F2  UNL d   1      -1.472  -1.947   0.921  0.00  0.00    -0.096 F 
ATOM     11  F3  UNL d   1      -2.717  -4.142  -0.059  0.00  0.00    -0.097 F 
ATOM     12  F4  UNL d   1      -3.445  -4.258  -2.685  0.00  0.00    -0.092 F 
ENDROOT
TORSDOF 0
ENDMDL
