MODEL 1
REMARK minimizedAffinity -3.90832448
REMARK minimizedRMSD -1
REMARK  0 active torsions:
REMARK  status: ('A' for Active; 'I' for Inactive)
ROOT
ATOM      1  C   UNL d   1      -4.267   1.169   3.752  0.00  0.00     0.124 A 
ATOM      2  C1  UNL d   1      -3.984   1.824   2.561  0.00  0.00     0.062 A 
ATOM      3  C2  UNL d   1      -4.146   3.203   2.464  0.00  0.00     0.162 A 
ATOM      4  C3  UNL d   1      -4.592   3.938   3.562  0.00  0.00    -0.034 A 
ATOM      5  C4  UNL d   1      -4.875   3.273   4.757  0.00  0.00     0.162 A 
ATOM      6  C5  UNL d   1      -4.712   1.894   4.848  0.00  0.00     0.062 A 
ATOM      7  F   UNL d   1      -4.985   1.264   6.000  0.00  0.00    -0.097 F 
ATOM      8  F1  UNL d   1      -5.305   3.949   5.832  0.00  0.00    -0.096 F 
ATOM      9  I   UNL d   1      -4.834   6.000   3.422  0.00  0.00    -0.060 I 
ATOM     10  F2  UNL d   1      -3.865   3.808   1.301  0.00  0.00    -0.096 F 
ATOM     11  F3  UNL d   1      -3.555   1.125   1.499  0.00  0.00    -0.097 F 
ATOM     12  F4  UNL d   1      -4.112  -0.158   3.842  0.00  0.00    -0.092 F 
ENDROOT
TORSDOF 0
ENDMDL
