MODEL 1
REMARK minimizedAffinity 13.1747332
REMARK minimizedRMSD -1
REMARK  0 active torsions:
REMARK  status: ('A' for Active; 'I' for Inactive)
ROOT
ATOM      1  C   UNL d   1       1.570   1.645   4.468  0.00  0.00     0.124 A 
ATOM      2  C1  UNL d   1       2.739   2.394   4.457  0.00  0.00     0.062 A 
ATOM      3  C2  UNL d   1       3.241   2.889   3.257  0.00  0.00     0.162 A 
ATOM      4  C3  UNL d   1       2.575   2.638   2.058  0.00  0.00    -0.034 A 
ATOM      5  C4  UNL d   1       1.401   1.883   2.077  0.00  0.00     0.162 A 
ATOM      6  C5  UNL d   1       0.902   1.391   3.279  0.00  0.00     0.062 A 
ATOM      7  F   UNL d   1      -0.227   0.667   3.287  0.00  0.00    -0.097 F 
ATOM      8  F1  UNL d   1       0.735   1.622   0.942  0.00  0.00    -0.096 F 
ATOM      9  I   UNL d   1       3.323   3.376   0.261  0.00  0.00    -0.060 I 
ATOM     10  F2  UNL d   1       4.373   3.610   3.276  0.00  0.00    -0.096 F 
ATOM     11  F3  UNL d   1       3.386   2.641   5.605  0.00  0.00    -0.097 F 
ATOM     12  F4  UNL d   1       1.089   1.170   5.624  0.00  0.00    -0.092 F 
ENDROOT
TORSDOF 0
ENDMDL
