MODEL 1
REMARK minimizedAffinity 4.87097454
REMARK minimizedRMSD -1
REMARK  0 active torsions:
REMARK  status: ('A' for Active; 'I' for Inactive)
ROOT
ATOM      1  C   UNL d   1      -3.342  -0.110   3.498  0.00  0.00     0.124 A 
ATOM      2  C1  UNL d   1      -3.833   0.807   4.416  0.00  0.00     0.062 A 
ATOM      3  C2  UNL d   1      -4.112   2.112   4.021  0.00  0.00     0.162 A 
ATOM      4  C3  UNL d   1      -3.901   2.508   2.700  0.00  0.00    -0.034 A 
ATOM      5  C4  UNL d   1      -3.406   1.580   1.782  0.00  0.00     0.162 A 
ATOM      6  C5  UNL d   1      -3.129   0.276   2.182  0.00  0.00     0.062 A 
ATOM      7  F   UNL d   1      -2.655  -0.609   1.293  0.00  0.00    -0.097 F 
ATOM      8  F1  UNL d   1      -3.192   1.927   0.504  0.00  0.00    -0.096 F 
ATOM      9  I   UNL d   1      -4.317   4.459   2.105  0.00  0.00    -0.060 I 
ATOM     10  F2  UNL d   1      -4.586   2.978   4.929  0.00  0.00    -0.096 F 
ATOM     11  F3  UNL d   1      -4.039   0.436   5.688  0.00  0.00    -0.097 F 
ATOM     12  F4  UNL d   1      -3.074  -1.365   3.881  0.00  0.00    -0.092 F 
ENDROOT
TORSDOF 0
ENDMDL
