MODEL 1
REMARK minimizedAffinity 13.8784399
REMARK minimizedRMSD -1
REMARK  0 active torsions:
REMARK  status: ('A' for Active; 'I' for Inactive)
ROOT
ATOM      1  C   UNL d   1      -0.811   0.149  -0.714  0.00  0.00     0.124 A 
ATOM      2  C1  UNL d   1      -0.254   1.350  -1.132  0.00  0.00     0.062 A 
ATOM      3  C2  UNL d   1       0.781   1.931  -0.405  0.00  0.00     0.162 A 
ATOM      4  C3  UNL d   1       1.266   1.312   0.747  0.00  0.00    -0.034 A 
ATOM      5  C4  UNL d   1       0.699   0.105   1.162  0.00  0.00     0.162 A 
ATOM      6  C5  UNL d   1      -0.335  -0.472   0.432  0.00  0.00     0.062 A 
ATOM      7  F   UNL d   1      -0.872  -1.631   0.837  0.00  0.00    -0.097 F 
ATOM      8  F1  UNL d   1       1.141  -0.516   2.265  0.00  0.00    -0.096 F 
ATOM      9  I   UNL d   1       2.813   2.178   1.837  0.00  0.00    -0.060 I 
ATOM     10  F2  UNL d   1       1.301   3.091  -0.832  0.00  0.00    -0.096 F 
ATOM     11  F3  UNL d   1      -0.713   1.952  -2.238  0.00  0.00    -0.097 F 
ATOM     12  F4  UNL d   1      -1.808  -0.408  -1.415  0.00  0.00    -0.092 F 
ENDROOT
TORSDOF 0
ENDMDL
