MODEL 1
REMARK minimizedAffinity 9.18029118
REMARK minimizedRMSD -1
REMARK  0 active torsions:
REMARK  status: ('A' for Active; 'I' for Inactive)
ROOT
ATOM      1  C   UNL d   1      -2.607  -3.179  -1.976  0.00  0.00     0.124 A 
ATOM      2  C1  UNL d   1      -2.445  -2.146  -2.889  0.00  0.00     0.062 A 
ATOM      3  C2  UNL d   1      -1.802  -0.972  -2.510  0.00  0.00     0.162 A 
ATOM      4  C3  UNL d   1      -1.315  -0.823  -1.211  0.00  0.00    -0.034 A 
ATOM      5  C4  UNL d   1      -1.482  -1.866  -0.298  0.00  0.00     0.162 A 
ATOM      6  C5  UNL d   1      -2.125  -3.039  -0.682  0.00  0.00     0.062 A 
ATOM      7  F   UNL d   1      -2.281  -4.035   0.201  0.00  0.00    -0.097 F 
ATOM      8  F1  UNL d   1      -1.026  -1.757   0.958  0.00  0.00    -0.096 F 
ATOM      9  I   UNL d   1      -0.353   0.932  -0.641  0.00  0.00    -0.060 I 
ATOM     10  F2  UNL d   1      -1.660   0.010  -3.413  0.00  0.00    -0.096 F 
ATOM     11  F3  UNL d   1      -2.910  -2.280  -4.139  0.00  0.00    -0.097 F 
ATOM     12  F4  UNL d   1      -3.227  -4.308  -2.343  0.00  0.00    -0.092 F 
ENDROOT
TORSDOF 0
ENDMDL
