MODEL 1
REMARK minimizedAffinity -0.311070085
REMARK minimizedRMSD -1
REMARK  1 active torsions:
REMARK  status: ('A' for Active; 'I' for Inactive)
REMARK    1  A    between atoms: C1_2  and  C2_3 
ROOT
ATOM      1  C2  UNL d   1      -5.491   4.751   3.807  0.00  0.00    -0.076 A 
ATOM      2  C3  UNL d   1      -5.999   5.777   2.991  0.00  0.00     0.004 A 
ATOM      3  C4  UNL d   1      -5.561   5.932   1.677  0.00  0.00    -0.003 A 
ATOM      4  C5  UNL d   1      -4.607   5.063   1.157  0.00  0.00     0.000 A 
ATOM      5  C6  UNL d   1      -4.105   4.029   1.947  0.00  0.00     0.000 A 
ATOM      6  C7  UNL d   1      -4.549   3.849   3.268  0.00  0.00    -0.073 A 
ATOM      7  C8  UNL d   1      -3.969   2.721   4.077  0.00  0.00     0.078 C 
ENDROOT
BRANCH   1   8
ATOM      8  C1  UNL d   1      -5.984   4.649   5.233  0.00  0.00     0.053 C 
ATOM      9  C   UNL d   1      -5.997   5.993   5.943  0.00  0.00     0.018 C 
ENDBRANCH   1   8
TORSDOF 1
ENDMDL
