MODEL 1
REMARK minimizedAffinity 0.370184183
REMARK minimizedRMSD -1
REMARK  1 active torsions:
REMARK  status: ('A' for Active; 'I' for Inactive)
REMARK    1  A    between atoms: C1_2  and  C2_3 
ROOT
ATOM      1  C2  UNL d   1      -3.353   0.522   2.726  0.00  0.00    -0.076 A 
ATOM      2  C3  UNL d   1      -3.032   1.541   3.640  0.00  0.00     0.004 A 
ATOM      3  C4  UNL d   1      -3.648   2.789   3.567  0.00  0.00    -0.003 A 
ATOM      4  C5  UNL d   1      -4.596   3.038   2.580  0.00  0.00     0.000 A 
ATOM      5  C6  UNL d   1      -4.939   2.033   1.677  0.00  0.00     0.000 A 
ATOM      6  C7  UNL d   1      -4.339   0.764   1.746  0.00  0.00    -0.073 A 
ATOM      7  C8  UNL d   1      -4.743  -0.281   0.742  0.00  0.00     0.078 C 
ENDROOT
BRANCH   1   8
ATOM      8  C1  UNL d   1      -2.633  -0.803   2.837  0.00  0.00     0.053 C 
ATOM      9  C   UNL d   1      -3.418  -1.828   3.640  0.00  0.00     0.018 C 
ENDBRANCH   1   8
TORSDOF 1
ENDMDL
