MODEL 1
REMARK minimizedAffinity 13.005825
REMARK minimizedRMSD -1
REMARK  1 active torsions:
REMARK  status: ('A' for Active; 'I' for Inactive)
REMARK    1  A    between atoms: C1_2  and  C2_3 
ROOT
ATOM      1  C2  UNL d   1       1.465   1.582   4.328  0.00  0.00    -0.076 A 
ATOM      2  C3  UNL d   1       0.841   0.348   4.078  0.00  0.00     0.004 A 
ATOM      3  C4  UNL d   1       1.513  -0.673   3.408  0.00  0.00    -0.003 A 
ATOM      4  C5  UNL d   1       2.820  -0.476   2.978  0.00  0.00     0.000 A 
ATOM      5  C6  UNL d   1       3.461   0.736   3.233  0.00  0.00     0.000 A 
ATOM      6  C7  UNL d   1       2.803   1.769   3.922  0.00  0.00    -0.073 A 
ATOM      7  C8  UNL d   1       3.540   3.058   4.165  0.00  0.00     0.078 C 
ENDROOT
BRANCH   1   8
ATOM      8  C1  UNL d   1       0.677   2.662   5.035  0.00  0.00     0.053 C 
ATOM      9  C   UNL d   1      -0.815   2.575   4.752  0.00  0.00     0.018 C 
ENDBRANCH   1   8
TORSDOF 1
ENDMDL
