MODEL 1
REMARK minimizedAffinity -0.720640719
REMARK minimizedRMSD -1
REMARK  1 active torsions:
REMARK  status: ('A' for Active; 'I' for Inactive)
REMARK    1  A    between atoms: C1_2  and  C2_3 
ROOT
ATOM      1  C2  UNL d   1      -5.432   3.876   4.553  0.00  0.00    -0.076 A 
ATOM      2  C3  UNL d   1      -5.245   3.322   3.274  0.00  0.00     0.004 A 
ATOM      3  C4  UNL d   1      -5.438   4.088   2.126  0.00  0.00    -0.003 A 
ATOM      4  C5  UNL d   1      -5.821   5.420   2.237  0.00  0.00     0.000 A 
ATOM      5  C6  UNL d   1      -5.995   5.990   3.498  0.00  0.00     0.000 A 
ATOM      6  C7  UNL d   1      -5.788   5.237   4.666  0.00  0.00    -0.073 A 
ATOM      7  C8  UNL d   1      -5.995   5.901   6.000  0.00  0.00     0.078 C 
ENDROOT
BRANCH   1   8
ATOM      8  C1  UNL d   1      -5.235   2.989   5.762  0.00  0.00     0.053 C 
ATOM      9  C   UNL d   1      -3.775   2.627   5.986  0.00  0.00     0.018 C 
ENDBRANCH   1   8
TORSDOF 1
ENDMDL
