MODEL 1
REMARK minimizedAffinity -0.692094624
REMARK minimizedRMSD -1
REMARK  1 active torsions:
REMARK  status: ('A' for Active; 'I' for Inactive)
REMARK    1  A    between atoms: C1_2  and  C2_3 
ROOT
ATOM      1  C2  UNL d   1      -5.445   3.651   4.603  0.00  0.00    -0.076 A 
ATOM      2  C3  UNL d   1      -5.832   4.903   5.112  0.00  0.00     0.004 A 
ATOM      3  C4  UNL d   1      -6.000   6.000   4.269  0.00  0.00    -0.003 A 
ATOM      4  C5  UNL d   1      -5.785   5.862   2.902  0.00  0.00     0.000 A 
ATOM      5  C6  UNL d   1      -5.417   4.624   2.377  0.00  0.00     0.000 A 
ATOM      6  C7  UNL d   1      -5.259   3.504   3.212  0.00  0.00    -0.073 A 
ATOM      7  C8  UNL d   1      -4.856   2.193   2.593  0.00  0.00     0.078 C 
ENDROOT
BRANCH   1   8
ATOM      8  C1  UNL d   1      -5.252   2.505   5.569  0.00  0.00     0.053 C 
ATOM      9  C   UNL d   1      -3.801   2.341   5.996  0.00  0.00     0.018 C 
ENDBRANCH   1   8
TORSDOF 1
ENDMDL
