MODEL 1
REMARK minimizedAffinity 9.91547394
REMARK minimizedRMSD -1
REMARK  1 active torsions:
REMARK  status: ('A' for Active; 'I' for Inactive)
REMARK    1  A    between atoms: C1_2  and  C2_3 
ROOT
ATOM      1  C2  UNL d   1       2.582   1.270   3.437  0.00  0.00    -0.076 A 
ATOM      2  C3  UNL d   1       2.701   0.275   2.451  0.00  0.00     0.004 A 
ATOM      3  C4  UNL d   1       2.306  -1.037   2.705  0.00  0.00    -0.003 A 
ATOM      4  C5  UNL d   1       1.784  -1.376   3.948  0.00  0.00     0.000 A 
ATOM      5  C6  UNL d   1       1.642  -0.398   4.932  0.00  0.00     0.000 A 
ATOM      6  C7  UNL d   1       2.021   0.933   4.688  0.00  0.00    -0.073 A 
ATOM      7  C8  UNL d   1       1.851   1.945   5.787  0.00  0.00     0.078 C 
ENDROOT
BRANCH   1   8
ATOM      8  C1  UNL d   1       3.052   2.670   3.114  0.00  0.00     0.053 C 
ATOM      9  C   UNL d   1       2.768   3.062   1.672  0.00  0.00     0.018 C 
ENDBRANCH   1   8
TORSDOF 1
ENDMDL
