MODEL 1
REMARK minimizedAffinity -1.3494153
REMARK minimizedRMSD -1
REMARK  1 active torsions:
REMARK  status: ('A' for Active; 'I' for Inactive)
REMARK    1  A    between atoms: C1_2  and  C2_3 
ROOT
ATOM      1  C2  UNL d   1      -5.574   5.082   3.574  0.00  0.00    -0.076 A 
ATOM      2  C3  UNL d   1      -5.920   5.644   4.815  0.00  0.00     0.004 A 
ATOM      3  C4  UNL d   1      -5.770   4.920   5.997  0.00  0.00    -0.003 A 
ATOM      4  C5  UNL d   1      -5.272   3.623   5.957  0.00  0.00     0.000 A 
ATOM      5  C6  UNL d   1      -4.908   3.055   4.737  0.00  0.00     0.000 A 
ATOM      6  C7  UNL d   1      -5.037   3.777   3.538  0.00  0.00    -0.073 A 
ATOM      7  C8  UNL d   1      -4.634   3.114   2.249  0.00  0.00     0.078 C 
ENDROOT
BRANCH   1   8
ATOM      8  C1  UNL d   1      -5.783   5.904   2.323  0.00  0.00     0.053 C 
ATOM      9  C   UNL d   1      -4.527   5.998   1.470  0.00  0.00     0.018 C 
ENDBRANCH   1   8
TORSDOF 1
ENDMDL
