MODEL 1
REMARK minimizedAffinity -1.4173429
REMARK minimizedRMSD -1
REMARK  1 active torsions:
REMARK  status: ('A' for Active; 'I' for Inactive)
REMARK    1  A    between atoms: C1_2  and  C2_3 
ROOT
ATOM      1  C2  UNL d   1      -5.982   5.107   3.191  0.00  0.00    -0.076 A 
ATOM      2  C3  UNL d   1      -5.964   5.891   4.357  0.00  0.00     0.004 A 
ATOM      3  C4  UNL d   1      -5.973   5.300   5.619  0.00  0.00    -0.003 A 
ATOM      4  C5  UNL d   1      -5.999   3.915   5.736  0.00  0.00     0.000 A 
ATOM      5  C6  UNL d   1      -5.999   3.121   4.590  0.00  0.00     0.000 A 
ATOM      6  C7  UNL d   1      -5.974   3.700   3.310  0.00  0.00    -0.073 A 
ATOM      7  C8  UNL d   1      -5.982   2.796   2.108  0.00  0.00     0.078 C 
ENDROOT
BRANCH   1   8
ATOM      8  C1  UNL d   1      -5.999   5.804   1.849  0.00  0.00     0.053 C 
ATOM      9  C   UNL d   1      -4.604   5.986   1.270  0.00  0.00     0.018 C 
ENDBRANCH   1   8
TORSDOF 1
ENDMDL
