MODEL 1
REMARK minimizedAffinity 0.543520927
REMARK minimizedRMSD -1
REMARK  1 active torsions:
REMARK  status: ('A' for Active; 'I' for Inactive)
REMARK    1  A    between atoms: C1_2  and  C2_3 
ROOT
ATOM      1  C2  UNL d   1      -5.502   3.523   3.450  0.00  0.00    -0.076 A 
ATOM      2  C3  UNL d   1      -5.999   4.834   3.550  0.00  0.00     0.004 A 
ATOM      3  C4  UNL d   1      -5.996   5.688   2.448  0.00  0.00    -0.003 A 
ATOM      4  C5  UNL d   1      -5.497   5.245   1.229  0.00  0.00     0.000 A 
ATOM      5  C6  UNL d   1      -5.015   3.942   1.107  0.00  0.00     0.000 A 
ATOM      6  C7  UNL d   1      -5.026   3.063   2.204  0.00  0.00    -0.073 A 
ATOM      7  C8  UNL d   1      -4.489   1.670   2.017  0.00  0.00     0.078 C 
ENDROOT
BRANCH   1   8
ATOM      8  C1  UNL d   1      -5.505   2.651   4.685  0.00  0.00     0.053 C 
ATOM      9  C   UNL d   1      -5.991   3.393   5.921  0.00  0.00     0.018 C 
ENDBRANCH   1   8
TORSDOF 1
ENDMDL
