MODEL 1
REMARK minimizedAffinity -3.49117184
REMARK minimizedRMSD -1
REMARK  1 active torsions:
REMARK  status: ('A' for Active; 'I' for Inactive)
REMARK    1  A    between atoms: C1_2  and  C2_3 
ROOT
ATOM      1  C2  UNL d   1      -5.226   4.710   3.808  0.00  0.00    -0.076 A 
ATOM      2  C3  UNL d   1      -4.914   3.488   3.187  0.00  0.00     0.004 A 
ATOM      3  C4  UNL d   1      -4.973   2.288   3.894  0.00  0.00    -0.003 A 
ATOM      4  C5  UNL d   1      -5.346   2.291   5.234  0.00  0.00     0.000 A 
ATOM      5  C6  UNL d   1      -5.676   3.491   5.861  0.00  0.00     0.000 A 
ATOM      6  C7  UNL d   1      -5.638   4.708   5.158  0.00  0.00    -0.073 A 
ATOM      7  C8  UNL d   1      -5.999   5.974   5.886  0.00  0.00     0.078 C 
ENDROOT
BRANCH   1   8
ATOM      8  C1  UNL d   1      -5.118   5.982   2.998  0.00  0.00     0.053 C 
ATOM      9  C   UNL d   1      -4.893   5.713   1.518  0.00  0.00     0.018 C 
ENDBRANCH   1   8
TORSDOF 1
ENDMDL
