MODEL 1
REMARK minimizedAffinity -3.40303969
REMARK minimizedRMSD -1
REMARK  1 active torsions:
REMARK  status: ('A' for Active; 'I' for Inactive)
REMARK    1  A    between atoms: C1_2  and  C2_3 
ROOT
ATOM      1  C2  UNL d   1      -5.978   3.291   4.385  0.00  0.00    -0.076 A 
ATOM      2  C3  UNL d   1      -5.989   2.801   3.067  0.00  0.00     0.004 A 
ATOM      3  C4  UNL d   1      -5.998   3.672   1.978  0.00  0.00    -0.003 A 
ATOM      4  C5  UNL d   1      -5.995   5.046   2.190  0.00  0.00     0.000 A 
ATOM      5  C6  UNL d   1      -5.967   5.549   3.490  0.00  0.00     0.000 A 
ATOM      6  C7  UNL d   1      -5.941   4.685   4.598  0.00  0.00    -0.073 A 
ATOM      7  C8  UNL d   1      -5.916   5.282   5.979  0.00  0.00     0.078 C 
ENDROOT
BRANCH   1   8
ATOM      8  C1  UNL d   1      -5.995   2.299   5.526  0.00  0.00     0.053 C 
ATOM      9  C   UNL d   1      -4.598   1.893   5.967  0.00  0.00     0.018 C 
ENDBRANCH   1   8
TORSDOF 1
ENDMDL
