MODEL 1
REMARK minimizedAffinity -3.95045996
REMARK minimizedRMSD -1
REMARK  1 active torsions:
REMARK  status: ('A' for Active; 'I' for Inactive)
REMARK    1  A    between atoms: C1_2  and  C2_3 
ROOT
ATOM      1  C2  UNL d   1      -5.243   3.722   4.339  0.00  0.00    -0.076 A 
ATOM      2  C3  UNL d   1      -4.869   3.376   3.029  0.00  0.00     0.004 A 
ATOM      3  C4  UNL d   1      -4.878   4.323   2.006  0.00  0.00    -0.003 A 
ATOM      4  C5  UNL d   1      -5.261   5.632   2.278  0.00  0.00     0.000 A 
ATOM      5  C6  UNL d   1      -5.618   5.997   3.575  0.00  0.00     0.000 A 
ATOM      6  C7  UNL d   1      -5.599   5.058   4.621  0.00  0.00    -0.073 A 
ATOM      7  C8  UNL d   1      -6.000   5.505   6.000  0.00  0.00     0.078 C 
ENDROOT
BRANCH   1   8
ATOM      8  C1  UNL d   1      -5.240   2.645   5.401  0.00  0.00     0.053 C 
ATOM      9  C   UNL d   1      -3.837   2.299   5.875  0.00  0.00     0.018 C 
ENDBRANCH   1   8
TORSDOF 1
ENDMDL
