MODEL 1
REMARK minimizedAffinity -2.1079843
REMARK minimizedRMSD -1
REMARK  1 active torsions:
REMARK  status: ('A' for Active; 'I' for Inactive)
REMARK    1  A    between atoms: C1_2  and  C2_3 
ROOT
ATOM      1  C2  UNL d   1      -5.732   4.445   0.376  0.00  0.00    -0.076 A 
ATOM      2  C3  UNL d   1      -5.998   5.683   0.987  0.00  0.00     0.004 A 
ATOM      3  C4  UNL d   1      -5.878   5.844   2.366  0.00  0.00    -0.003 A 
ATOM      4  C5  UNL d   1      -5.490   4.768   3.158  0.00  0.00     0.000 A 
ATOM      5  C6  UNL d   1      -5.205   3.538   2.567  0.00  0.00     0.000 A 
ATOM      6  C7  UNL d   1      -5.305   3.364   1.176  0.00  0.00    -0.073 A 
ATOM      7  C8  UNL d   1      -4.991   2.013   0.593  0.00  0.00     0.078 C 
ENDROOT
BRANCH   1   8
ATOM      8  C1  UNL d   1      -5.905   4.324  -1.121  0.00  0.00     0.053 C 
ATOM      9  C   UNL d   1      -4.612   3.950  -1.829  0.00  0.00     0.018 C 
ENDBRANCH   1   8
TORSDOF 1
ENDMDL
