MODEL 1
REMARK minimizedAffinity 5.13437653
REMARK minimizedRMSD -1
REMARK  1 active torsions:
REMARK  status: ('A' for Active; 'I' for Inactive)
REMARK    1  A    between atoms: C1_2  and  C2_3 
ROOT
ATOM      1  C2  UNL d   1       1.853  -3.795   1.638  0.00  0.00    -0.081 A 
ATOM      2  C3  UNL d   1       1.999  -2.408   1.512  0.00  0.00     0.006 A 
ATOM      3  C4  UNL d   1       1.037  -1.544   2.042  0.00  0.00     0.002 A 
ATOM      4  C5  UNL d   1      -0.081  -2.051   2.712  0.00  0.00    -0.080 A 
ATOM      5  C6  UNL d   1      -1.105  -1.134   3.312  0.00  0.00     0.076 C 
ATOM      6  C7  UNL d   1      -0.235  -3.437   2.823  0.00  0.00     0.002 A 
ATOM      7  C8  UNL d   1       0.725  -4.301   2.293  0.00  0.00     0.006 A 
ENDROOT
BRANCH   1   8
ATOM      8  C1  UNL d   1       2.920  -4.727   1.125  0.00  0.00     0.054 C 
ATOM      9  C   UNL d   1       2.990  -5.999   1.958  0.00  0.00     0.018 C 
ENDBRANCH   1   8
TORSDOF 1
ENDMDL
