MODEL 1
REMARK minimizedAffinity 14.8687487
REMARK minimizedRMSD -1
REMARK  1 active torsions:
REMARK  status: ('A' for Active; 'I' for Inactive)
REMARK    1  A    between atoms: C1_2  and  C2_3 
ROOT
ATOM      1  C2  UNL d   1       0.824  -1.315   0.366  0.00  0.00    -0.081 A 
ATOM      2  C3  UNL d   1       1.976  -1.924  -0.146  0.00  0.00     0.006 A 
ATOM      3  C4  UNL d   1       2.641  -2.910   0.587  0.00  0.00     0.002 A 
ATOM      4  C5  UNL d   1       2.161  -3.308   1.840  0.00  0.00    -0.080 A 
ATOM      5  C6  UNL d   1       2.848  -4.386   2.624  0.00  0.00     0.076 C 
ATOM      6  C7  UNL d   1       1.021  -2.686   2.359  0.00  0.00     0.002 A 
ATOM      7  C8  UNL d   1       0.356  -1.700   1.627  0.00  0.00     0.006 A 
ENDROOT
BRANCH   1   8
ATOM      8  C1  UNL d   1       0.068  -0.298  -0.450  0.00  0.00     0.054 C 
ATOM      9  C   UNL d   1      -0.980  -0.963  -1.331  0.00  0.00     0.018 C 
ENDBRANCH   1   8
TORSDOF 1
ENDMDL
