MODEL 1
REMARK minimizedAffinity 13.0208826
REMARK minimizedRMSD -1
REMARK  1 active torsions:
REMARK  status: ('A' for Active; 'I' for Inactive)
REMARK    1  A    between atoms: C1_2  and  C2_3 
ROOT
ATOM      1  C2  UNL d   1      -2.685   3.191  -3.868  0.00  0.00    -0.081 A 
ATOM      2  C3  UNL d   1      -3.010   4.536  -3.653  0.00  0.00     0.006 A 
ATOM      3  C4  UNL d   1      -4.072   5.127  -4.341  0.00  0.00     0.002 A 
ATOM      4  C5  UNL d   1      -4.833   4.381  -5.248  0.00  0.00    -0.080 A 
ATOM      5  C6  UNL d   1      -5.996   4.994  -5.970  0.00  0.00     0.076 C 
ATOM      6  C7  UNL d   1      -4.498   3.042  -5.475  0.00  0.00     0.002 A 
ATOM      7  C8  UNL d   1      -3.435   2.451  -4.789  0.00  0.00     0.006 A 
ENDROOT
BRANCH   1   8
ATOM      8  C1  UNL d   1      -1.581   2.534  -3.080  0.00  0.00     0.054 C 
ATOM      9  C   UNL d   1      -2.138   1.563  -2.050  0.00  0.00     0.018 C 
ENDBRANCH   1   8
TORSDOF 1
ENDMDL
