MODEL 1
REMARK minimizedAffinity 1.28884053
REMARK minimizedRMSD -1
REMARK  1 active torsions:
REMARK  status: ('A' for Active; 'I' for Inactive)
REMARK    1  A    between atoms: C1_2  and  C2_3 
ROOT
ATOM      1  C2  UNL d   1       4.731   2.014   1.508  0.00  0.00    -0.081 A 
ATOM      2  C3  UNL d   1       4.673   2.278   2.882  0.00  0.00     0.006 A 
ATOM      3  C4  UNL d   1       3.481   2.704   3.471  0.00  0.00     0.002 A 
ATOM      4  C5  UNL d   1       2.325   2.865   2.699  0.00  0.00    -0.080 A 
ATOM      5  C6  UNL d   1       1.031   3.293   3.325  0.00  0.00     0.076 C 
ATOM      6  C7  UNL d   1       2.388   2.619   1.323  0.00  0.00     0.002 A 
ATOM      7  C8  UNL d   1       3.580   2.193   0.733  0.00  0.00     0.006 A 
ENDROOT
BRANCH   1   8
ATOM      8  C1  UNL d   1       5.999   1.492   0.880  0.00  0.00     0.054 C 
ATOM      9  C   UNL d   1       5.993  -0.028   0.803  0.00  0.00     0.018 C 
ENDBRANCH   1   8
TORSDOF 1
ENDMDL
