MODEL 1
REMARK minimizedAffinity 3.27909279
REMARK minimizedRMSD -1
REMARK  1 active torsions:
REMARK  status: ('A' for Active; 'I' for Inactive)
REMARK    1  A    between atoms: C1_2  and  C2_3 
ROOT
ATOM      1  C2  UNL d   1       1.870  -2.600   1.587  0.00  0.00    -0.081 A 
ATOM      2  C3  UNL d   1       1.295  -3.876   1.574  0.00  0.00     0.006 A 
ATOM      3  C4  UNL d   1       2.025  -4.977   1.120  0.00  0.00     0.002 A 
ATOM      4  C5  UNL d   1       3.344  -4.822   0.679  0.00  0.00    -0.080 A 
ATOM      5  C6  UNL d   1       4.149  -6.000   0.217  0.00  0.00     0.076 C 
ATOM      6  C7  UNL d   1       3.912  -3.543   0.675  0.00  0.00     0.002 A 
ATOM      7  C8  UNL d   1       3.183  -2.442   1.129  0.00  0.00     0.006 A 
ENDROOT
BRANCH   1   8
ATOM      8  C1  UNL d   1       1.108  -1.421   2.137  0.00  0.00     0.054 C 
ATOM      9  C   UNL d   1       0.011  -1.869   3.092  0.00  0.00     0.018 C 
ENDBRANCH   1   8
TORSDOF 1
ENDMDL
