MODEL 1
REMARK minimizedAffinity 4.1253047
REMARK minimizedRMSD -1
REMARK  3 active torsions:
REMARK  status: ('A' for Active; 'I' for Inactive)
REMARK    1  A    between atoms: C3'_2  and  C2'_3 
REMARK    2  A    between atoms: C2'_3  and  C1'_4 
REMARK    3  A    between atoms: C1'_4  and  C1_5 
ROOT
ATOM      1  C1  N4B d   1       2.409  -1.810   0.884  0.00  0.00    -0.075 A 
ATOM      2  C2  N4B d   1       1.621  -2.924   0.520  0.00  0.00     0.002 A 
ATOM      3  C3  N4B d   1       1.125  -3.026  -0.757  0.00  0.00     0.002 A 
ATOM      4  C4  N4B d   1       1.387  -2.022  -1.677  0.00  0.00    -0.004 A 
ATOM      5  C5  N4B d   1       2.170  -0.962  -1.325  0.00  0.00     0.002 A 
ATOM      6  C6  N4B d   1       2.679  -0.848  -0.046  0.00  0.00     0.002 A 
ENDROOT
BRANCH   1   7
ATOM      7  C1' N4B d   1       2.902  -1.612   2.291  0.00  0.00     0.057 C 
BRANCH   7   8
ATOM      8  C2' N4B d   1       2.364  -2.735   3.173  0.00  0.00     0.009 C 
BRANCH   8   9
ATOM      9  C3' N4B d   1       1.535  -2.202   4.329  0.00  0.00     0.004 C 
ATOM     10  C4' N4B d   1       0.189  -2.855   4.428  0.00  0.00     0.003 C 
ENDBRANCH   8   9
ENDBRANCH   7   8
ENDBRANCH   1   7
TORSDOF 3
ENDMDL
