MODEL 1
REMARK minimizedAffinity 3.98814678
REMARK minimizedRMSD -1
REMARK  3 active torsions:
REMARK  status: ('A' for Active; 'I' for Inactive)
REMARK    1  A    between atoms: C3'_2  and  C2'_3 
REMARK    2  A    between atoms: C2'_3  and  C1'_4 
REMARK    3  A    between atoms: C1'_4  and  C1_5 
ROOT
ATOM      1  C1  N4B d   1       0.521   1.109  -0.333  0.00  0.00    -0.075 A 
ATOM      2  C2  N4B d   1       1.767   0.629   0.126  0.00  0.00     0.002 A 
ATOM      3  C3  N4B d   1       2.250  -0.573  -0.331  0.00  0.00     0.002 A 
ATOM      4  C4  N4B d   1       1.498  -1.318  -1.227  0.00  0.00    -0.004 A 
ATOM      5  C5  N4B d   1       0.307  -0.836  -1.684  0.00  0.00     0.002 A 
ATOM      6  C6  N4B d   1      -0.188   0.373  -1.237  0.00  0.00     0.002 A 
ENDROOT
BRANCH   1   7
ATOM      7  C1' N4B d   1      -0.087   2.376   0.203  0.00  0.00     0.057 C 
BRANCH   7   8
ATOM      8  C2' N4B d   1      -1.012   2.034   1.368  0.00  0.00     0.009 C 
BRANCH   8   9
ATOM      9  C3' N4B d   1      -0.300   1.228   2.440  0.00  0.00     0.004 C 
ATOM     10  C4' N4B d   1      -1.174   0.171   3.048  0.00  0.00     0.003 C 
ENDBRANCH   8   9
ENDBRANCH   7   8
ENDBRANCH   1   7
TORSDOF 3
ENDMDL
