MODEL 1
REMARK minimizedAffinity 6.16042328
REMARK minimizedRMSD -1
REMARK  3 active torsions:
REMARK  status: ('A' for Active; 'I' for Inactive)
REMARK    1  A    between atoms: C3'_2  and  C2'_3 
REMARK    2  A    between atoms: C2'_3  and  C1'_4 
REMARK    3  A    between atoms: C1'_4  and  C1_5 
ROOT
ATOM      1  C1  N4B d   1       2.380   0.149   0.612  0.00  0.00    -0.075 A 
ATOM      2  C2  N4B d   1       3.037  -0.492   1.686  0.00  0.00     0.002 A 
ATOM      3  C3  N4B d   1       3.214  -1.853   1.667  0.00  0.00     0.002 A 
ATOM      4  C4  N4B d   1       2.729  -2.594   0.600  0.00  0.00    -0.004 A 
ATOM      5  C5  N4B d   1       2.118  -1.964  -0.445  0.00  0.00     0.002 A 
ATOM      6  C6  N4B d   1       1.936  -0.596  -0.442  0.00  0.00     0.002 A 
ENDROOT
BRANCH   1   7
ATOM      7  C1' N4B d   1       2.087   1.625   0.628  0.00  0.00     0.057 C 
BRANCH   7   8
ATOM      8  C2' N4B d   1       0.630   1.850   0.233  0.00  0.00     0.009 C 
BRANCH   8   9
ATOM      9  C3' N4B d   1      -0.021   2.944   1.063  0.00  0.00     0.004 C 
ATOM     10  C4' N4B d   1      -1.166   2.442   1.890  0.00  0.00     0.003 C 
ENDBRANCH   8   9
ENDBRANCH   7   8
ENDBRANCH   1   7
TORSDOF 3
ENDMDL
