MODEL 1
REMARK minimizedAffinity 5.1494174
REMARK minimizedRMSD -1
REMARK  3 active torsions:
REMARK  status: ('A' for Active; 'I' for Inactive)
REMARK    1  A    between atoms: C3'_2  and  C2'_3 
REMARK    2  A    between atoms: C2'_3  and  C1'_4 
REMARK    3  A    between atoms: C1'_4  and  C1_5 
ROOT
ATOM      1  C1  N4B d   1       3.178  -1.025   1.102  0.00  0.00    -0.075 A 
ATOM      2  C2  N4B d   1       4.016   0.106   0.978  0.00  0.00     0.002 A 
ATOM      3  C3  N4B d   1       4.503   0.468  -0.254  0.00  0.00     0.002 A 
ATOM      4  C4  N4B d   1       4.182  -0.293  -1.369  0.00  0.00    -0.004 A 
ATOM      5  C5  N4B d   1       3.352  -1.368  -1.245  0.00  0.00     0.002 A 
ATOM      6  C6  N4B d   1       2.852  -1.741  -0.013  0.00  0.00     0.002 A 
ENDROOT
BRANCH   1   7
ATOM      7  C1' N4B d   1       2.692  -1.509   2.440  0.00  0.00     0.057 C 
BRANCH   7   8
ATOM      8  C2' N4B d   1       1.782  -0.451   3.056  0.00  0.00     0.009 C 
BRANCH   8   9
ATOM      9  C3' N4B d   1       1.346  -0.824   4.462  0.00  0.00     0.004 C 
ATOM     10  C4' N4B d   1       1.715   0.215   5.479  0.00  0.00     0.003 C 
ENDBRANCH   8   9
ENDBRANCH   7   8
ENDBRANCH   1   7
TORSDOF 3
ENDMDL
