MODEL 1
REMARK minimizedAffinity 8.4532938
REMARK minimizedRMSD -1
REMARK  3 active torsions:
REMARK  status: ('A' for Active; 'I' for Inactive)
REMARK    1  A    between atoms: C3'_2  and  C2'_3 
REMARK    2  A    between atoms: C2'_3  and  C1'_4 
REMARK    3  A    between atoms: C1'_4  and  C1_5 
ROOT
ATOM      1  C1  N4B d   1       0.808   1.267   0.996  0.00  0.00    -0.075 A 
ATOM      2  C2  N4B d   1       0.511   0.723   2.265  0.00  0.00     0.002 A 
ATOM      3  C3  N4B d   1      -0.454   1.303   3.052  0.00  0.00     0.002 A 
ATOM      4  C4  N4B d   1      -1.119   2.434   2.601  0.00  0.00    -0.004 A 
ATOM      5  C5  N4B d   1      -0.844   2.938   1.363  0.00  0.00     0.002 A 
ATOM      6  C6  N4B d   1       0.121   2.363   0.560  0.00  0.00     0.002 A 
ENDROOT
BRANCH   1   7
ATOM      7  C1' N4B d   1       1.915   0.720   0.137  0.00  0.00     0.057 C 
BRANCH   7   8
ATOM      8  C2' N4B d   1       1.400  -0.497  -0.627  0.00  0.00     0.009 C 
BRANCH   8   9
ATOM      9  C3' N4B d   1       2.265  -1.723  -0.392  0.00  0.00     0.004 C 
ATOM     10  C4' N4B d   1       1.460  -2.957  -0.112  0.00  0.00     0.003 C 
ENDBRANCH   8   9
ENDBRANCH   7   8
ENDBRANCH   1   7
TORSDOF 3
ENDMDL
