MODEL 1
REMARK minimizedAffinity -1.51108491
REMARK minimizedRMSD -1
REMARK  3 active torsions:
REMARK  status: ('A' for Active; 'I' for Inactive)
REMARK    1  A    between atoms: C3'_2  and  C2'_3 
REMARK    2  A    between atoms: C2'_3  and  C1'_4 
REMARK    3  A    between atoms: C1'_4  and  C1_5 
ROOT
ATOM      1  C1  N4B d   1       1.101  -0.346  -1.415  0.00  0.00    -0.075 A 
ATOM      2  C2  N4B d   1       1.841  -1.485  -1.027  0.00  0.00     0.002 A 
ATOM      3  C3  N4B d   1       3.154  -1.354  -0.649  0.00  0.00     0.002 A 
ATOM      4  C4  N4B d   1       3.752  -0.103  -0.668  0.00  0.00    -0.004 A 
ATOM      5  C5  N4B d   1       3.024   0.996  -1.020  0.00  0.00     0.002 A 
ATOM      6  C6  N4B d   1       1.701   0.880  -1.398  0.00  0.00     0.002 A 
ENDROOT
BRANCH   1   7
ATOM      7  C1' N4B d   1      -0.313  -0.451  -1.918  0.00  0.00     0.057 C 
BRANCH   7   8
ATOM      8  C2' N4B d   1      -1.244  -0.731  -0.743  0.00  0.00     0.009 C 
BRANCH   8   9
ATOM      9  C3' N4B d   1      -2.631  -0.154  -0.966  0.00  0.00     0.004 C 
ATOM     10  C4' N4B d   1      -3.616  -0.590   0.078  0.00  0.00     0.003 C 
ENDBRANCH   8   9
ENDBRANCH   7   8
ENDBRANCH   1   7
TORSDOF 3
ENDMDL
