MODEL 1
REMARK minimizedAffinity 2.74780536
REMARK minimizedRMSD -1
REMARK  0 active torsions:
REMARK  status: ('A' for Active; 'I' for Inactive)
ROOT
ATOM      1  C   UNL d   1       1.750  -2.511   1.433  0.00  0.00     0.172 C 
ATOM      2  N   UNL d   1       0.838  -1.642   2.140  0.00  0.00    -0.070 N 
ATOM      3  C1  UNL d   1       1.173  -0.468   2.759  0.00  0.00    -0.004 A 
ATOM      4  C2  UNL d   1       0.027   0.059   3.314  0.00  0.00    -0.047 A 
ATOM      5  C3  UNL d   1      -1.034  -0.830   3.018  0.00  0.00    -0.047 A 
ATOM      6  C4  UNL d   1      -0.504  -1.874   2.290  0.00  0.00    -0.004 A 
ENDROOT
TORSDOF 0
ENDMDL
