MODEL 1
REMARK minimizedAffinity 1.62830698
REMARK minimizedRMSD -1
REMARK  0 active torsions:
REMARK  status: ('A' for Active; 'I' for Inactive)
ROOT
ATOM      1  C   UNL d   1       2.557  -4.485   1.604  0.00  0.00     0.172 C 
ATOM      2  N   UNL d   1       1.881  -3.211   1.526  0.00  0.00    -0.070 N 
ATOM      3  C1  UNL d   1       1.998  -2.307   0.505  0.00  0.00    -0.004 A 
ATOM      4  C2  UNL d   1       1.197  -1.226   0.805  0.00  0.00    -0.047 A 
ATOM      5  C3  UNL d   1       0.578  -1.489   2.050  0.00  0.00    -0.047 A 
ATOM      6  C4  UNL d   1       1.019  -2.725   2.474  0.00  0.00    -0.004 A 
ENDROOT
TORSDOF 0
ENDMDL
