MODEL 1
REMARK minimizedAffinity 4.22241926
REMARK minimizedRMSD -1
REMARK  0 active torsions:
REMARK  status: ('A' for Active; 'I' for Inactive)
ROOT
ATOM      1  C   UNL d   1       2.025  -5.261   1.052  0.00  0.00     0.172 C 
ATOM      2  N   UNL d   1       1.832  -3.836   1.181  0.00  0.00    -0.070 N 
ATOM      3  C1  UNL d   1       2.636  -2.869   0.639  0.00  0.00    -0.004 A 
ATOM      4  C2  UNL d   1       2.116  -1.642   0.989  0.00  0.00    -0.047 A 
ATOM      5  C3  UNL d   1       0.960  -1.880   1.770  0.00  0.00    -0.047 A 
ATOM      6  C4  UNL d   1       0.808  -3.246   1.874  0.00  0.00    -0.004 A 
ENDROOT
TORSDOF 0
ENDMDL
