MODEL 1
REMARK minimizedAffinity 0.710903645
REMARK minimizedRMSD -1
REMARK  0 active torsions:
REMARK  status: ('A' for Active; 'I' for Inactive)
ROOT
ATOM      1  C   UNL d   1      -1.883   0.030   2.225  0.00  0.00     0.172 C 
ATOM      2  N   UNL d   1      -0.856  -0.921   2.575  0.00  0.00    -0.070 N 
ATOM      3  C1  UNL d   1      -0.494  -1.274   3.848  0.00  0.00    -0.004 A 
ATOM      4  C2  UNL d   1       0.518  -2.205   3.757  0.00  0.00    -0.047 A 
ATOM      5  C3  UNL d   1       0.774  -2.419   2.382  0.00  0.00    -0.047 A 
ATOM      6  C4  UNL d   1      -0.090  -1.612   1.673  0.00  0.00    -0.004 A 
ENDROOT
TORSDOF 0
ENDMDL
