MODEL 1
REMARK minimizedAffinity 7.43026304
REMARK minimizedRMSD -1
REMARK  1 active torsions:
REMARK  status: ('A' for Active; 'I' for Inactive)
REMARK    1  A    between atoms: C1_2  and  C2_3 
ROOT
ATOM      1  C2  UNL d   1      -1.049   0.103   1.519  0.00  0.00    -0.076 A 
ATOM      2  C3  UNL d   1      -1.996  -0.202   2.512  0.00  0.00     0.004 A 
ATOM      3  C4  UNL d   1      -1.611  -0.789   3.716  0.00  0.00    -0.003 A 
ATOM      4  C5  UNL d   1      -0.271  -1.081   3.947  0.00  0.00     0.000 A 
ATOM      5  C6  UNL d   1       0.685  -0.769   2.981  0.00  0.00     0.000 A 
ATOM      6  C7  UNL d   1       0.315  -0.162   1.768  0.00  0.00    -0.073 A 
ATOM      7  C8  UNL d   1       1.387   0.147   0.759  0.00  0.00     0.078 C 
ENDROOT
BRANCH   1   8
ATOM      8  C1  UNL d   1      -1.529   0.714   0.223  0.00  0.00     0.053 C 
ATOM      9  C   UNL d   1      -2.532  -0.170  -0.502  0.00  0.00     0.018 C 
ENDBRANCH   1   8
TORSDOF 1
ENDMDL
