MODEL 1
REMARK minimizedAffinity 15.4432039
REMARK minimizedRMSD -1
REMARK  1 active torsions:
REMARK  status: ('A' for Active; 'I' for Inactive)
REMARK    1  A    between atoms: C1_2  and  C2_3 
ROOT
ATOM      1  C2  UNL d   1      -1.677   0.152   1.912  0.00  0.00    -0.076 A 
ATOM      2  C3  UNL d   1      -3.023   0.351   1.562  0.00  0.00     0.004 A 
ATOM      3  C4  UNL d   1      -3.407   0.473   0.227  0.00  0.00    -0.003 A 
ATOM      4  C5  UNL d   1      -2.450   0.396  -0.779  0.00  0.00     0.000 A 
ATOM      5  C6  UNL d   1      -1.112   0.180  -0.450  0.00  0.00     0.000 A 
ATOM      6  C7  UNL d   1      -0.711   0.039   0.890  0.00  0.00    -0.073 A 
ATOM      7  C8  UNL d   1       0.747  -0.186   1.187  0.00  0.00     0.078 C 
ENDROOT
BRANCH   1   8
ATOM      8  C1  UNL d   1      -1.317   0.054   3.378  0.00  0.00     0.053 C 
ATOM      9  C   UNL d   1      -1.117  -1.382   3.835  0.00  0.00     0.018 C 
ENDBRANCH   1   8
TORSDOF 1
ENDMDL
