MODEL 1
REMARK minimizedAffinity 8.41945362
REMARK minimizedRMSD -1
REMARK  1 active torsions:
REMARK  status: ('A' for Active; 'I' for Inactive)
REMARK    1  A    between atoms: C1_2  and  C2_3 
ROOT
ATOM      1  C2  UNL d   1      -0.234  -0.422   2.330  0.00  0.00    -0.076 A 
ATOM      2  C3  UNL d   1      -1.534  -0.305   2.852  0.00  0.00     0.004 A 
ATOM      3  C4  UNL d   1      -2.597   0.098   2.046  0.00  0.00    -0.003 A 
ATOM      4  C5  UNL d   1      -2.378   0.390   0.704  0.00  0.00     0.000 A 
ATOM      5  C6  UNL d   1      -1.098   0.262   0.165  0.00  0.00     0.000 A 
ATOM      6  C7  UNL d   1      -0.018  -0.158   0.960  0.00  0.00    -0.073 A 
ATOM      7  C8  UNL d   1       1.342  -0.273   0.329  0.00  0.00     0.078 C 
ENDROOT
BRANCH   1   8
ATOM      8  C1  UNL d   1       0.885  -0.837   3.259  0.00  0.00     0.053 C 
ATOM      9  C   UNL d   1       0.371  -1.448   4.553  0.00  0.00     0.018 C 
ENDBRANCH   1   8
TORSDOF 1
ENDMDL
