MODEL 1
REMARK minimizedAffinity 8.43195915
REMARK minimizedRMSD -1
REMARK  1 active torsions:
REMARK  status: ('A' for Active; 'I' for Inactive)
REMARK    1  A    between atoms: C1_2  and  C2_3 
ROOT
ATOM      1  C2  UNL d   1      -2.096  -0.402   2.577  0.00  0.00    -0.076 A 
ATOM      2  C3  UNL d   1      -1.106  -0.773   3.504  0.00  0.00     0.004 A 
ATOM      3  C4  UNL d   1       0.248  -0.678   3.184  0.00  0.00    -0.003 A 
ATOM      4  C5  UNL d   1       0.633  -0.210   1.932  0.00  0.00     0.000 A 
ATOM      5  C6  UNL d   1      -0.335   0.179   1.007  0.00  0.00     0.000 A 
ATOM      6  C7  UNL d   1      -1.704   0.105   1.320  0.00  0.00    -0.073 A 
ATOM      7  C8  UNL d   1      -2.705   0.532   0.282  0.00  0.00     0.078 C 
ENDROOT
BRANCH   1   8
ATOM      8  C1  UNL d   1      -3.548  -0.552   2.971  0.00  0.00     0.053 C 
ATOM      9  C   UNL d   1      -3.824  -1.862   3.692  0.00  0.00     0.018 C 
ENDBRANCH   1   8
TORSDOF 1
ENDMDL
