MODEL 1
REMARK minimizedAffinity 2.05754709
REMARK minimizedRMSD -1
REMARK  1 active torsions:
REMARK  status: ('A' for Active; 'I' for Inactive)
REMARK    1  A    between atoms: C1_2  and  C2_3 
ROOT
ATOM      1  C2  UNL d   1      -1.331   0.249   1.065  0.00  0.00    -0.076 A 
ATOM      2  C3  UNL d   1       0.034   0.320   1.395  0.00  0.00     0.004 A 
ATOM      3  C4  UNL d   1       1.013  -0.090   0.491  0.00  0.00    -0.003 A 
ATOM      4  C5  UNL d   1       0.643  -0.576  -0.758  0.00  0.00     0.000 A 
ATOM      5  C6  UNL d   1      -0.705  -0.637  -1.109  0.00  0.00     0.000 A 
ATOM      6  C7  UNL d   1      -1.704  -0.213  -0.216  0.00  0.00    -0.073 A 
ATOM      7  C8  UNL d   1      -3.142  -0.306  -0.645  0.00  0.00     0.078 C 
ENDROOT
BRANCH   1   8
ATOM      8  C1  UNL d   1      -2.349   0.682   2.095  0.00  0.00     0.053 C 
ATOM      9  C   UNL d   1      -2.851  -0.478   2.941  0.00  0.00     0.018 C 
ENDBRANCH   1   8
TORSDOF 1
ENDMDL
