MODEL 1
REMARK minimizedAffinity -0.654963136
REMARK minimizedRMSD -1
REMARK  1 active torsions:
REMARK  status: ('A' for Active; 'I' for Inactive)
REMARK    1  A    between atoms: C1_2  and  C2_3 
ROOT
ATOM      1  C2  UNL d   1      -1.597  -0.398   1.493  0.00  0.00    -0.076 A 
ATOM      2  C3  UNL d   1      -0.250  -0.141   1.806  0.00  0.00     0.004 A 
ATOM      3  C4  UNL d   1       0.741  -0.225   0.830  0.00  0.00    -0.003 A 
ATOM      4  C5  UNL d   1       0.403  -0.567  -0.475  0.00  0.00     0.000 A 
ATOM      5  C6  UNL d   1      -0.930  -0.808  -0.807  0.00  0.00     0.000 A 
ATOM      6  C7  UNL d   1      -1.944  -0.712   0.162  0.00  0.00    -0.073 A 
ATOM      7  C8  UNL d   1      -3.364  -0.988  -0.250  0.00  0.00     0.078 C 
ENDROOT
BRANCH   1   8
ATOM      8  C1  UNL d   1      -2.625  -0.318   2.599  0.00  0.00     0.053 C 
ATOM      9  C   UNL d   1      -2.077  -0.786   3.939  0.00  0.00     0.018 C 
ENDBRANCH   1   8
TORSDOF 1
ENDMDL
