MODEL 1
REMARK minimizedAffinity 4.3231883
REMARK minimizedRMSD -1
REMARK  1 active torsions:
REMARK  status: ('A' for Active; 'I' for Inactive)
REMARK    1  A    between atoms: C1_2  and  C2_3 
ROOT
ATOM      1  C2  UNL d   1      -0.700  -0.854   2.588  0.00  0.00    -0.076 A 
ATOM      2  C3  UNL d   1       0.184  -0.468   1.566  0.00  0.00     0.004 A 
ATOM      3  C4  UNL d   1      -0.251  -0.359   0.246  0.00  0.00    -0.003 A 
ATOM      4  C5  UNL d   1      -1.576  -0.634  -0.073  0.00  0.00     0.000 A 
ATOM      5  C6  UNL d   1      -2.471  -1.001   0.932  0.00  0.00     0.000 A 
ATOM      6  C7  UNL d   1      -2.053  -1.100   2.270  0.00  0.00    -0.073 A 
ATOM      7  C8  UNL d   1      -3.058  -1.507   3.313  0.00  0.00     0.078 C 
ENDROOT
BRANCH   1   8
ATOM      8  C1  UNL d   1      -0.165  -0.982   3.997  0.00  0.00     0.053 C 
ATOM      9  C   UNL d   1       0.323  -2.388   4.310  0.00  0.00     0.018 C 
ENDBRANCH   1   8
TORSDOF 1
ENDMDL
