MODEL 1
REMARK minimizedAffinity 0.00715055875
REMARK minimizedRMSD -1
REMARK  1 active torsions:
REMARK  status: ('A' for Active; 'I' for Inactive)
REMARK    1  A    between atoms: C1_2  and  C2_3 
ROOT
ATOM      1  C2  UNL d   1       4.625   4.782   3.614  0.00  0.00    -0.076 A 
ATOM      2  C3  UNL d   1       4.094   5.989   3.127  0.00  0.00     0.004 A 
ATOM      3  C4  UNL d   1       2.974   5.997   2.297  0.00  0.00    -0.003 A 
ATOM      4  C5  UNL d   1       2.367   4.798   1.941  0.00  0.00     0.000 A 
ATOM      5  C6  UNL d   1       2.870   3.592   2.428  0.00  0.00     0.000 A 
ATOM      6  C7  UNL d   1       3.988   3.568   3.279  0.00  0.00    -0.073 A 
ATOM      7  C8  UNL d   1       4.491   2.238   3.771  0.00  0.00     0.078 C 
ENDROOT
BRANCH   1   8
ATOM      8  C1  UNL d   1       5.857   4.833   4.488  0.00  0.00     0.053 C 
ATOM      9  C   UNL d   1       5.549   4.538   5.948  0.00  0.00     0.018 C 
ENDBRANCH   1   8
TORSDOF 1
ENDMDL
