MODEL 1
REMARK minimizedAffinity -2.713202
REMARK minimizedRMSD -1
REMARK  1 active torsions:
REMARK  status: ('A' for Active; 'I' for Inactive)
REMARK    1  A    between atoms: C1_2  and  C2_3 
ROOT
ATOM      1  C2  UNL d   1       2.937  -1.575  -0.351  0.00  0.00    -0.081 A 
ATOM      2  C3  UNL d   1       4.174  -2.225  -0.427  0.00  0.00     0.006 A 
ATOM      3  C4  UNL d   1       4.421  -3.370   0.334  0.00  0.00     0.002 A 
ATOM      4  C5  UNL d   1       3.433  -3.887   1.178  0.00  0.00    -0.080 A 
ATOM      5  C6  UNL d   1       3.675  -5.133   1.979  0.00  0.00     0.076 C 
ATOM      6  C7  UNL d   1       2.203  -3.228   1.268  0.00  0.00     0.002 A 
ATOM      7  C8  UNL d   1       1.955  -2.083   0.507  0.00  0.00     0.006 A 
ENDROOT
BRANCH   1   8
ATOM      8  C1  UNL d   1       2.644  -0.378  -1.220  0.00  0.00     0.054 C 
ATOM      9  C   UNL d   1       3.477   0.825  -0.802  0.00  0.00     0.018 C 
ENDBRANCH   1   8
TORSDOF 1
ENDMDL
