MODEL 1
REMARK minimizedAffinity 8.35480881
REMARK minimizedRMSD -1
REMARK  1 active torsions:
REMARK  status: ('A' for Active; 'I' for Inactive)
REMARK    1  A    between atoms: C1_2  and  C2_3 
ROOT
ATOM      1  C2  UNL d   1       3.117  -3.449   2.689  0.00  0.00    -0.081 A 
ATOM      2  C3  UNL d   1       3.055  -2.472   3.690  0.00  0.00     0.006 A 
ATOM      3  C4  UNL d   1       3.943  -2.505   4.768  0.00  0.00     0.002 A 
ATOM      4  C5  UNL d   1       4.911  -3.510   4.860  0.00  0.00    -0.080 A 
ATOM      5  C6  UNL d   1       5.890  -3.540   5.996  0.00  0.00     0.076 C 
ATOM      6  C7  UNL d   1       4.962  -4.497   3.869  0.00  0.00     0.002 A 
ATOM      7  C8  UNL d   1       4.075  -4.465   2.791  0.00  0.00     0.006 A 
ENDROOT
BRANCH   1   8
ATOM      8  C1  UNL d   1       2.204  -3.379   1.492  0.00  0.00     0.054 C 
ATOM      9  C   UNL d   1       1.144  -2.301   1.667  0.00  0.00     0.018 C 
ENDBRANCH   1   8
TORSDOF 1
ENDMDL
