MODEL 1
REMARK minimizedAffinity 4.74766397
REMARK minimizedRMSD -1
REMARK  1 active torsions:
REMARK  status: ('A' for Active; 'I' for Inactive)
REMARK    1  A    between atoms: C1_2  and  C2_3 
ROOT
ATOM      1  C2  UNL d   1       4.027  -4.066   1.291  0.00  0.00    -0.081 A 
ATOM      2  C3  UNL d   1       4.749  -3.464   0.254  0.00  0.00     0.006 A 
ATOM      3  C4  UNL d   1       4.183  -2.432  -0.498  0.00  0.00     0.002 A 
ATOM      4  C5  UNL d   1       2.888  -1.980  -0.220  0.00  0.00    -0.080 A 
ATOM      5  C6  UNL d   1       2.280  -0.852  -0.999  0.00  0.00     0.076 C 
ATOM      6  C7  UNL d   1       2.160  -2.593   0.805  0.00  0.00     0.002 A 
ATOM      7  C8  UNL d   1       2.726  -3.625   1.557  0.00  0.00     0.006 A 
ENDROOT
BRANCH   1   8
ATOM      8  C1  UNL d   1       4.659  -5.135   2.146  0.00  0.00     0.054 C 
ATOM      9  C   UNL d   1       4.853  -4.657   3.577  0.00  0.00     0.018 C 
ENDBRANCH   1   8
TORSDOF 1
ENDMDL
