MODEL 1
REMARK minimizedAffinity 0.619956791
REMARK minimizedRMSD -1
REMARK  1 active torsions:
REMARK  status: ('A' for Active; 'I' for Inactive)
REMARK    1  A    between atoms: C1_2  and  C2_3 
ROOT
ATOM      1  C2  UNL d   1       3.920  -0.603  -0.476  0.00  0.00    -0.081 A 
ATOM      2  C3  UNL d   1       5.277  -0.840  -0.228  0.00  0.00     0.006 A 
ATOM      3  C4  UNL d   1       5.703  -2.080   0.256  0.00  0.00     0.002 A 
ATOM      4  C5  UNL d   1       4.781  -3.104   0.491  0.00  0.00    -0.080 A 
ATOM      5  C6  UNL d   1       5.228  -4.450   0.981  0.00  0.00     0.076 C 
ATOM      6  C7  UNL d   1       3.422  -2.862   0.260  0.00  0.00     0.002 A 
ATOM      7  C8  UNL d   1       2.996  -1.623  -0.223  0.00  0.00     0.006 A 
ENDROOT
BRANCH   1   8
ATOM      8  C1  UNL d   1       3.465   0.711  -1.058  0.00  0.00     0.054 C 
ATOM      9  C   UNL d   1       2.253   0.527  -1.960  0.00  0.00     0.018 C 
ENDBRANCH   1   8
TORSDOF 1
ENDMDL
