MODEL 1
REMARK minimizedAffinity 2.65511274
REMARK minimizedRMSD -1
REMARK  1 active torsions:
REMARK  status: ('A' for Active; 'I' for Inactive)
REMARK    1  A    between atoms: C1_2  and  C2_3 
ROOT
ATOM      1  C2  UNL d   1       4.480  -0.718  -0.206  0.00  0.00    -0.081 A 
ATOM      2  C3  UNL d   1       3.404  -1.595  -0.394  0.00  0.00     0.006 A 
ATOM      3  C4  UNL d   1       2.227  -1.151  -1.002  0.00  0.00     0.002 A 
ATOM      4  C5  UNL d   1       2.109   0.172  -1.439  0.00  0.00    -0.080 A 
ATOM      5  C6  UNL d   1       0.862   0.653  -2.120  0.00  0.00     0.076 C 
ATOM      6  C7  UNL d   1       3.177   1.053  -1.235  0.00  0.00     0.002 A 
ATOM      7  C8  UNL d   1       4.354   0.610  -0.627  0.00  0.00     0.006 A 
ENDROOT
BRANCH   1   8
ATOM      8  C1  UNL d   1       5.774  -1.210   0.390  0.00  0.00     0.054 C 
ATOM      9  C   UNL d   1       5.874  -2.727   0.322  0.00  0.00     0.018 C 
ENDBRANCH   1   8
TORSDOF 1
ENDMDL
