MODEL 1
REMARK minimizedAffinity 1.07548118
REMARK minimizedRMSD -1
REMARK  1 active torsions:
REMARK  status: ('A' for Active; 'I' for Inactive)
REMARK    1  A    between atoms: C1_2  and  C2_3 
ROOT
ATOM      1  C2  UNL d   1       2.680  -2.995   2.484  0.00  0.00    -0.081 A 
ATOM      2  C3  UNL d   1       2.496  -1.995   3.447  0.00  0.00     0.006 A 
ATOM      3  C4  UNL d   1       3.305  -1.950   4.585  0.00  0.00     0.002 A 
ATOM      4  C5  UNL d   1       4.316  -2.899   4.775  0.00  0.00    -0.080 A 
ATOM      5  C6  UNL d   1       5.211  -2.844   5.977  0.00  0.00     0.076 C 
ATOM      6  C7  UNL d   1       4.489  -3.908   3.822  0.00  0.00     0.002 A 
ATOM      7  C8  UNL d   1       3.680  -3.954   2.684  0.00  0.00     0.006 A 
ENDROOT
BRANCH   1   8
ATOM      8  C1  UNL d   1       1.853  -3.008   1.224  0.00  0.00     0.054 C 
ATOM      9  C   UNL d   1       1.564  -1.595   0.737  0.00  0.00     0.018 C 
ENDBRANCH   1   8
TORSDOF 1
ENDMDL
