MODEL 1
REMARK minimizedAffinity -0.22181575
REMARK minimizedRMSD -1
REMARK  1 active torsions:
REMARK  status: ('A' for Active; 'I' for Inactive)
REMARK    1  A    between atoms: C1_2  and  C2_3 
ROOT
ATOM      1  C2  UNL d   1       0.337  -1.575   1.767  0.00  0.00    -0.081 A 
ATOM      2  C3  UNL d   1       1.236  -2.313   0.988  0.00  0.00     0.006 A 
ATOM      3  C4  UNL d   1       1.559  -3.628   1.333  0.00  0.00     0.002 A 
ATOM      4  C5  UNL d   1       0.983  -4.228   2.458  0.00  0.00    -0.080 A 
ATOM      5  C6  UNL d   1       1.297  -5.649   2.822  0.00  0.00     0.076 C 
ATOM      6  C7  UNL d   1       0.098  -3.485   3.246  0.00  0.00     0.002 A 
ATOM      7  C8  UNL d   1      -0.225  -2.170   2.902  0.00  0.00     0.006 A 
ENDROOT
BRANCH   1   8
ATOM      8  C1  UNL d   1      -0.063  -0.180   1.361  0.00  0.00     0.054 C 
ATOM      9  C   UNL d   1      -1.534  -0.115   0.976  0.00  0.00     0.018 C 
ENDBRANCH   1   8
TORSDOF 1
ENDMDL
