MODEL 1
REMARK minimizedAffinity 1.96691394
REMARK minimizedRMSD -1
REMARK  1 active torsions:
REMARK  status: ('A' for Active; 'I' for Inactive)
REMARK    1  A    between atoms: C1_2  and  C2_3 
ROOT
ATOM      1  C2  UNL d   1       1.221  -1.541   1.395  0.00  0.00    -0.081 A 
ATOM      2  C3  UNL d   1       1.562  -2.847   1.766  0.00  0.00     0.006 A 
ATOM      3  C4  UNL d   1       0.760  -3.562   2.659  0.00  0.00     0.002 A 
ATOM      4  C5  UNL d   1      -0.399  -2.986   3.190  0.00  0.00    -0.080 A 
ATOM      5  C6  UNL d   1      -1.285  -3.753   4.126  0.00  0.00     0.076 C 
ATOM      6  C7  UNL d   1      -0.730  -1.674   2.833  0.00  0.00     0.002 A 
ATOM      7  C8  UNL d   1       0.072  -0.959   1.941  0.00  0.00     0.006 A 
ENDROOT
BRANCH   1   8
ATOM      8  C1  UNL d   1       2.049  -0.791   0.383  0.00  0.00     0.054 C 
ATOM      9  C   UNL d   1       1.168  -0.103  -0.651  0.00  0.00     0.018 C 
ENDBRANCH   1   8
TORSDOF 1
ENDMDL
