MODEL 1
REMARK minimizedAffinity -3.16751218
REMARK minimizedRMSD -1
REMARK  2 active torsions:
REMARK  status: ('A' for Active; 'I' for Inactive)
REMARK    1  A    between atoms: C2'_3  and  C1'_4 
REMARK    2  A    between atoms: C1'_4  and  C1_5 
ROOT
ATOM      1  C1  I4B d   1      -1.076   0.310  -0.320  0.00  0.00    -0.075 A 
ATOM      2  C2  I4B d   1      -0.893  -0.942   0.212  0.00  0.00     0.003 A 
ATOM      3  C3  I4B d   1       0.332  -1.279   0.836  0.00  0.00     0.002 A 
ATOM      4  C4  I4B d   1       1.359  -0.357   0.861  0.00  0.00    -0.004 A 
ATOM      5  C5  I4B d   1       1.164   0.919   0.341  0.00  0.00     0.002 A 
ATOM      6  C6  I4B d   1      -0.065   1.260  -0.243  0.00  0.00     0.003 A 
ENDROOT
BRANCH   1   7
ATOM      7  C1' I4B d   1      -2.371   0.622  -1.001  0.00  0.00     0.060 C 
BRANCH   7   8
ATOM      8  C2' I4B d   1      -2.200   0.340  -2.480  0.00  0.00    -0.013 C 
ATOM      9  C4' I4B d   1      -2.892  -0.938  -2.876  0.00  0.00     0.013 C 
ATOM     10  C3' I4B d   1      -2.748   1.511  -3.241  0.00  0.00     0.013 C 
ENDBRANCH   7   8
ENDBRANCH   1   7
TORSDOF 2
ENDMDL
