MODEL 1
REMARK minimizedAffinity 10.6569633
REMARK minimizedRMSD -1
REMARK  2 active torsions:
REMARK  status: ('A' for Active; 'I' for Inactive)
REMARK    1  A    between atoms: C2'_3  and  C1'_4 
REMARK    2  A    between atoms: C1'_4  and  C1_5 
ROOT
ATOM      1  C1  I4B d   1       0.853   1.389   1.006  0.00  0.00    -0.075 A 
ATOM      2  C2  I4B d   1       1.281   0.091   1.136  0.00  0.00     0.003 A 
ATOM      3  C3  I4B d   1       1.646  -0.415   2.407  0.00  0.00     0.002 A 
ATOM      4  C4  I4B d   1       1.617   0.419   3.505  0.00  0.00    -0.004 A 
ATOM      5  C5  I4B d   1       1.161   1.728   3.375  0.00  0.00     0.002 A 
ATOM      6  C6  I4B d   1       0.765   2.213   2.120  0.00  0.00     0.003 A 
ENDROOT
BRANCH   1   7
ATOM      7  C1' I4B d   1       0.507   1.901  -0.356  0.00  0.00     0.060 C 
BRANCH   7   8
ATOM      8  C2' I4B d   1       1.800   2.231  -1.074  0.00  0.00    -0.013 C 
ATOM      9  C4' I4B d   1       1.796   1.693  -2.480  0.00  0.00     0.013 C 
ATOM     10  C3' I4B d   1       1.967   3.721  -1.065  0.00  0.00     0.013 C 
ENDBRANCH   7   8
ENDBRANCH   1   7
TORSDOF 2
ENDMDL
