MODEL 1
REMARK minimizedAffinity 0.156317279
REMARK minimizedRMSD -1
REMARK  2 active torsions:
REMARK  status: ('A' for Active; 'I' for Inactive)
REMARK    1  A    between atoms: C2'_3  and  C1'_4 
REMARK    2  A    between atoms: C1'_4  and  C1_5 
ROOT
ATOM      1  C1  I4B d   1      -1.133   0.125  -0.329  0.00  0.00    -0.075 A 
ATOM      2  C2  I4B d   1      -0.082   1.003  -0.423  0.00  0.00     0.003 A 
ATOM      3  C3  I4B d   1       1.039   0.867   0.430  0.00  0.00     0.002 A 
ATOM      4  C4  I4B d   1       1.046  -0.123   1.391  0.00  0.00    -0.004 A 
ATOM      5  C5  I4B d   1      -0.010  -1.027   1.470  0.00  0.00     0.002 A 
ATOM      6  C6  I4B d   1      -1.101  -0.910   0.597  0.00  0.00     0.003 A 
ENDROOT
BRANCH   1   7
ATOM      7  C1' I4B d   1      -2.316   0.318  -1.224  0.00  0.00     0.060 C 
BRANCH   7   8
ATOM      8  C2' I4B d   1      -1.941  -0.178  -2.606  0.00  0.00    -0.013 C 
ATOM      9  C4' I4B d   1      -2.792  -1.351  -3.014  0.00  0.00     0.013 C 
ATOM     10  C3' I4B d   1      -2.099   0.964  -3.565  0.00  0.00     0.013 C 
ENDBRANCH   7   8
ENDBRANCH   1   7
TORSDOF 2
ENDMDL
