MODEL 1
REMARK minimizedAffinity -3.91793776
REMARK minimizedRMSD -1
REMARK  2 active torsions:
REMARK  status: ('A' for Active; 'I' for Inactive)
REMARK    1  A    between atoms: C2'_3  and  C1'_4 
REMARK    2  A    between atoms: C1'_4  and  C1_5 
ROOT
ATOM      1  C1  I4B d   1       1.321  -0.779   0.474  0.00  0.00    -0.075 A 
ATOM      2  C2  I4B d   1       0.920  -1.823   1.269  0.00  0.00     0.003 A 
ATOM      3  C3  I4B d   1       1.725  -2.242   2.355  0.00  0.00     0.002 A 
ATOM      4  C4  I4B d   1       2.939  -1.626   2.579  0.00  0.00    -0.004 A 
ATOM      5  C5  I4B d   1       3.334  -0.553   1.786  0.00  0.00     0.002 A 
ATOM      6  C6  I4B d   1       2.515  -0.118   0.734  0.00  0.00     0.003 A 
ENDROOT
BRANCH   1   7
ATOM      7  C1' I4B d   1       0.463  -0.383  -0.685  0.00  0.00     0.060 C 
BRANCH   7   8
ATOM      8  C2' I4B d   1      -0.423   0.763  -0.241  0.00  0.00    -0.013 C 
ATOM      9  C4' I4B d   1       0.200   2.094  -0.575  0.00  0.00     0.013 C 
ATOM     10  C3' I4B d   1      -1.755   0.606  -0.910  0.00  0.00     0.013 C 
ENDBRANCH   7   8
ENDBRANCH   1   7
TORSDOF 2
ENDMDL
