MODEL 1
REMARK minimizedAffinity 11.1433525
REMARK minimizedRMSD -1
REMARK  1 active torsions:
REMARK  status: ('A' for Active; 'I' for Inactive)
REMARK    1  A    between atoms: C1_2  and  C2_3 
ROOT
ATOM      1  C2  UNL d   1      -4.118   0.765   2.740  0.00  0.00    -0.081 A 
ATOM      2  C3  UNL d   1      -3.768   1.770   1.829  0.00  0.00     0.006 A 
ATOM      3  C4  UNL d   1      -4.384   3.022   1.886  0.00  0.00     0.002 A 
ATOM      4  C5  UNL d   1      -5.353   3.293   2.858  0.00  0.00    -0.080 A 
ATOM      5  C6  UNL d   1      -6.000   4.643   2.948  0.00  0.00     0.076 C 
ATOM      6  C7  UNL d   1      -5.715   2.284   3.756  0.00  0.00     0.002 A 
ATOM      7  C8  UNL d   1      -5.100   1.031   3.700  0.00  0.00     0.006 A 
ENDROOT
BRANCH   1   8
ATOM      8  C1  UNL d   1      -3.409  -0.566   2.722  0.00  0.00     0.054 C 
ATOM      9  C   UNL d   1      -4.127  -1.563   1.825  0.00  0.00     0.018 C 
ENDBRANCH   1   8
TORSDOF 1
ENDMDL
