MODEL 1
REMARK minimizedAffinity 14.0225277
REMARK minimizedRMSD -1
REMARK  1 active torsions:
REMARK  status: ('A' for Active; 'I' for Inactive)
REMARK    1  A    between atoms: C1_2  and  C2_3 
ROOT
ATOM      1  C2  UNL d   1      -4.723   2.181   2.187  0.00  0.00    -0.081 A 
ATOM      2  C3  UNL d   1      -4.740   0.864   1.711  0.00  0.00     0.006 A 
ATOM      3  C4  UNL d   1      -3.567   0.107   1.681  0.00  0.00     0.002 A 
ATOM      4  C5  UNL d   1      -2.360   0.650   2.134  0.00  0.00    -0.080 A 
ATOM      5  C6  UNL d   1      -1.099  -0.163   2.135  0.00  0.00     0.076 C 
ATOM      6  C7  UNL d   1      -2.339   1.971   2.593  0.00  0.00     0.002 A 
ATOM      7  C8  UNL d   1      -3.512   2.729   2.622  0.00  0.00     0.006 A 
ENDROOT
BRANCH   1   8
ATOM      8  C1  UNL d   1      -5.999   2.979   2.281  0.00  0.00     0.054 C 
ATOM      9  C   UNL d   1      -5.997   3.883   3.505  0.00  0.00     0.018 C 
ENDBRANCH   1   8
TORSDOF 1
ENDMDL
