MODEL 1
REMARK minimizedAffinity 12.0594969
REMARK minimizedRMSD -1
REMARK  1 active torsions:
REMARK  status: ('A' for Active; 'I' for Inactive)
REMARK    1  A    between atoms: C1_2  and  C2_3 
ROOT
ATOM      1  C2  UNL d   1      -1.759   0.617   2.215  0.00  0.00    -0.081 A 
ATOM      2  C3  UNL d   1      -0.727   1.520   1.931  0.00  0.00     0.006 A 
ATOM      3  C4  UNL d   1       0.595   1.209   2.256  0.00  0.00     0.002 A 
ATOM      4  C5  UNL d   1       0.909  -0.013   2.862  0.00  0.00    -0.080 A 
ATOM      5  C6  UNL d   1       2.328  -0.372   3.188  0.00  0.00     0.076 C 
ATOM      6  C7  UNL d   1      -0.124  -0.908   3.161  0.00  0.00     0.002 A 
ATOM      7  C8  UNL d   1      -1.446  -0.597   2.837  0.00  0.00     0.006 A 
ENDROOT
BRANCH   1   8
ATOM      8  C1  UNL d   1      -3.178   0.921   1.807  0.00  0.00     0.054 C 
ATOM      9  C   UNL d   1      -3.419   2.422   1.722  0.00  0.00     0.018 C 
ENDBRANCH   1   8
TORSDOF 1
ENDMDL
