MODEL 1
REMARK minimizedAffinity 4.99538565
REMARK minimizedRMSD -1
REMARK  1 active torsions:
REMARK  status: ('A' for Active; 'I' for Inactive)
REMARK    1  A    between atoms: C1_2  and  C2_3 
ROOT
ATOM      1  C2  UNL d   1      -2.403  -2.550  -5.529  0.00  0.00    -0.081 A 
ATOM      2  C3  UNL d   1      -1.112  -3.061  -5.711  0.00  0.00     0.006 A 
ATOM      3  C4  UNL d   1      -0.002  -2.370  -5.220  0.00  0.00     0.002 A 
ATOM      4  C5  UNL d   1      -0.164  -1.162  -4.533  0.00  0.00    -0.080 A 
ATOM      5  C6  UNL d   1       1.018  -0.426  -3.975  0.00  0.00     0.076 C 
ATOM      6  C7  UNL d   1      -1.452  -0.643  -4.366  0.00  0.00     0.002 A 
ATOM      7  C8  UNL d   1      -2.563  -1.333  -4.857  0.00  0.00     0.006 A 
ENDROOT
BRANCH   1   8
ATOM      8  C1  UNL d   1      -3.608  -3.324  -6.000  0.00  0.00     0.054 C 
ATOM      9  C   UNL d   1      -4.856  -2.934  -5.222  0.00  0.00     0.018 C 
ENDBRANCH   1   8
TORSDOF 1
ENDMDL
