MODEL 1
REMARK minimizedAffinity 10.7332067
REMARK minimizedRMSD -1
REMARK  1 active torsions:
REMARK  status: ('A' for Active; 'I' for Inactive)
REMARK    1  A    between atoms: C1_2  and  C2_3 
ROOT
ATOM      1  C2  UNL d   1      -2.535  -2.604  -5.938  0.00  0.00    -0.081 A 
ATOM      2  C3  UNL d   1      -3.389  -1.495  -5.979  0.00  0.00     0.006 A 
ATOM      3  C4  UNL d   1      -2.867  -0.199  -5.983  0.00  0.00     0.002 A 
ATOM      4  C5  UNL d   1      -1.484   0.009  -5.955  0.00  0.00    -0.080 A 
ATOM      5  C6  UNL d   1      -0.910   1.394  -5.990  0.00  0.00     0.076 C 
ATOM      6  C7  UNL d   1      -0.631  -1.098  -5.896  0.00  0.00     0.002 A 
ATOM      7  C8  UNL d   1      -1.152  -2.394  -5.891  0.00  0.00     0.006 A 
ENDROOT
BRANCH   1   8
ATOM      8  C1  UNL d   1      -3.093  -4.003  -5.998  0.00  0.00     0.054 C 
ATOM      9  C   UNL d   1      -4.611  -3.998  -5.894  0.00  0.00     0.018 C 
ENDBRANCH   1   8
TORSDOF 1
ENDMDL
