MODEL 1
REMARK minimizedAffinity 6.90451241
REMARK minimizedRMSD -1
REMARK  1 active torsions:
REMARK  status: ('A' for Active; 'I' for Inactive)
REMARK    1  A    between atoms: C1_2  and  C2_3 
ROOT
ATOM      1  C2  UNL d   1      -2.305   0.525   1.979  0.00  0.00    -0.081 A 
ATOM      2  C3  UNL d   1      -3.506  -0.186   1.868  0.00  0.00     0.006 A 
ATOM      3  C4  UNL d   1      -4.706   0.486   1.618  0.00  0.00     0.002 A 
ATOM      4  C5  UNL d   1      -4.722   1.877   1.468  0.00  0.00    -0.080 A 
ATOM      5  C6  UNL d   1      -5.998   2.607   1.169  0.00  0.00     0.076 C 
ATOM      6  C7  UNL d   1      -3.525   2.588   1.596  0.00  0.00     0.002 A 
ATOM      7  C8  UNL d   1      -2.325   1.917   1.846  0.00  0.00     0.006 A 
ENDROOT
BRANCH   1   8
ATOM      8  C1  UNL d   1      -1.001  -0.203   2.184  0.00  0.00     0.054 C 
ATOM      9  C   UNL d   1       0.163   0.771   2.307  0.00  0.00     0.018 C 
ENDBRANCH   1   8
TORSDOF 1
ENDMDL
