MODEL 1
REMARK minimizedAffinity 17.260458
REMARK minimizedRMSD -1
REMARK  1 active torsions:
REMARK  status: ('A' for Active; 'I' for Inactive)
REMARK    1  A    between atoms: C1_2  and  C2_3 
ROOT
ATOM      1  C2  UNL d   1      -5.436  -2.828   3.218  0.00  0.00    -0.081 A 
ATOM      2  C3  UNL d   1      -5.205  -1.498   2.843  0.00  0.00     0.006 A 
ATOM      3  C4  UNL d   1      -4.627  -0.599   3.742  0.00  0.00     0.002 A 
ATOM      4  C5  UNL d   1      -4.262  -1.015   5.027  0.00  0.00    -0.080 A 
ATOM      5  C6  UNL d   1      -3.613  -0.068   5.991  0.00  0.00     0.076 C 
ATOM      6  C7  UNL d   1      -4.508  -2.339   5.408  0.00  0.00     0.002 A 
ATOM      7  C8  UNL d   1      -5.087  -3.238   4.510  0.00  0.00     0.006 A 
ENDROOT
BRANCH   1   8
ATOM      8  C1  UNL d   1      -6.000  -3.816   2.230  0.00  0.00     0.054 C 
ATOM      9  C   UNL d   1      -4.965  -4.864   1.844  0.00  0.00     0.018 C 
ENDBRANCH   1   8
TORSDOF 1
ENDMDL
