MODEL 1
REMARK minimizedAffinity 11.2585745
REMARK minimizedRMSD -1
REMARK  1 active torsions:
REMARK  status: ('A' for Active; 'I' for Inactive)
REMARK    1  A    between atoms: C1_2  and  C2_3 
ROOT
ATOM      1  C2  UNL d   1      -1.401   1.235   2.060  0.00  0.00    -0.081 A 
ATOM      2  C3  UNL d   1      -1.370  -0.159   2.185  0.00  0.00     0.006 A 
ATOM      3  C4  UNL d   1      -2.514  -0.919   1.932  0.00  0.00     0.002 A 
ATOM      4  C5  UNL d   1      -3.706  -0.299   1.543  0.00  0.00    -0.080 A 
ATOM      5  C6  UNL d   1      -4.934  -1.105   1.240  0.00  0.00     0.076 C 
ATOM      6  C7  UNL d   1      -3.743   1.095   1.436  0.00  0.00     0.002 A 
ATOM      7  C8  UNL d   1      -2.599   1.856   1.689  0.00  0.00     0.006 A 
ENDROOT
BRANCH   1   8
ATOM      8  C1  UNL d   1      -0.152   2.052   2.269  0.00  0.00     0.054 C 
ATOM      9  C   UNL d   1       0.954   1.219   2.902  0.00  0.00     0.018 C 
ENDBRANCH   1   8
TORSDOF 1
ENDMDL
