MODEL 1
REMARK minimizedAffinity 17.4737282
REMARK minimizedRMSD -1
REMARK  1 active torsions:
REMARK  status: ('A' for Active; 'I' for Inactive)
REMARK    1  A    between atoms: C1_2  and  C2_3 
ROOT
ATOM      1  C2  UNL d   1       4.115   5.229  -4.810  0.00  0.00    -0.081 A 
ATOM      2  C3  UNL d   1       3.455   5.446  -3.594  0.00  0.00     0.006 A 
ATOM      3  C4  UNL d   1       2.083   5.708  -3.570  0.00  0.00     0.002 A 
ATOM      4  C5  UNL d   1       1.347   5.750  -4.759  0.00  0.00    -0.080 A 
ATOM      5  C6  UNL d   1      -0.131   6.000  -4.745  0.00  0.00     0.076 C 
ATOM      6  C7  UNL d   1       2.010   5.551  -5.975  0.00  0.00     0.002 A 
ATOM      7  C8  UNL d   1       3.382   5.289  -6.000  0.00  0.00     0.006 A 
ENDROOT
BRANCH   1   8
ATOM      8  C1  UNL d   1       5.582   4.883  -4.834  0.00  0.00     0.054 C 
ATOM      9  C   UNL d   1       5.837   3.613  -5.634  0.00  0.00     0.018 C 
ENDBRANCH   1   8
TORSDOF 1
ENDMDL
