MODEL 1
REMARK minimizedAffinity 16.7988148
REMARK minimizedRMSD -1
REMARK  1 active torsions:
REMARK  status: ('A' for Active; 'I' for Inactive)
REMARK    1  A    between atoms: C1_2  and  C2_3 
ROOT
ATOM      1  C2  UNL d   1      -3.561  -2.115   0.652  0.00  0.00    -0.081 A 
ATOM      2  C3  UNL d   1      -3.814  -1.007   1.470  0.00  0.00     0.006 A 
ATOM      3  C4  UNL d   1      -2.758  -0.270   2.011  0.00  0.00     0.002 A 
ATOM      4  C5  UNL d   1      -1.432  -0.624   1.737  0.00  0.00    -0.080 A 
ATOM      5  C6  UNL d   1      -0.289   0.176   2.287  0.00  0.00     0.076 C 
ATOM      6  C7  UNL d   1      -1.180  -1.742   0.934  0.00  0.00     0.002 A 
ATOM      7  C8  UNL d   1      -2.235  -2.479   0.394  0.00  0.00     0.006 A 
ENDROOT
BRANCH   1   8
ATOM      8  C1  UNL d   1      -4.698  -2.873   0.015  0.00  0.00     0.054 C 
ATOM      9  C   UNL d   1      -5.060  -2.288  -1.343  0.00  0.00     0.018 C 
ENDBRANCH   1   8
TORSDOF 1
ENDMDL
