MODEL 1
REMARK minimizedAffinity 5.3223958
REMARK minimizedRMSD -1
REMARK  0 active torsions:
REMARK  status: ('A' for Active; 'I' for Inactive)
ROOT
ATOM      1  C   UNL d   1       4.848  -5.870  -5.256  0.00  0.00     0.172 C 
ATOM      2  N   UNL d   1       3.483  -5.401  -5.310  0.00  0.00    -0.070 N 
ATOM      3  C1  UNL d   1       2.461  -5.998  -5.997  0.00  0.00    -0.004 A 
ATOM      4  C2  UNL d   1       1.322  -5.247  -5.797  0.00  0.00    -0.047 A 
ATOM      5  C3  UNL d   1       1.674  -4.160  -4.961  0.00  0.00    -0.047 A 
ATOM      6  C4  UNL d   1       3.017  -4.280  -4.675  0.00  0.00    -0.004 A 
ENDROOT
TORSDOF 0
ENDMDL
