MODEL 1
REMARK minimizedAffinity 1.36009896
REMARK minimizedRMSD -1
REMARK  0 active torsions:
REMARK  status: ('A' for Active; 'I' for Inactive)
ROOT
ATOM      1  C   UNL d   1      -3.730   2.657   0.355  0.00  0.00     0.172 C 
ATOM      2  N   UNL d   1      -2.348   2.991   0.608  0.00  0.00    -0.070 N 
ATOM      3  C1  UNL d   1      -1.530   2.370   1.514  0.00  0.00    -0.004 A 
ATOM      4  C2  UNL d   1      -0.295   2.979   1.453  0.00  0.00    -0.047 A 
ATOM      5  C3  UNL d   1      -0.374   4.001   0.478  0.00  0.00    -0.047 A 
ATOM      6  C4  UNL d   1      -1.656   3.986  -0.029  0.00  0.00    -0.004 A 
ENDROOT
TORSDOF 0
ENDMDL
