MODEL 1
REMARK minimizedAffinity -2.49605751
REMARK minimizedRMSD -1
REMARK  0 active torsions:
REMARK  status: ('A' for Active; 'I' for Inactive)
ROOT
ATOM      1  C   UNL d   1       5.993   0.524  -5.491  0.00  0.00     0.172 C 
ATOM      2  N   UNL d   1       5.393   1.837  -5.529  0.00  0.00    -0.070 N 
ATOM      3  C1  UNL d   1       4.141   2.129  -6.000  0.00  0.00    -0.004 A 
ATOM      4  C2  UNL d   1       3.945   3.486  -5.863  0.00  0.00    -0.047 A 
ATOM      5  C3  UNL d   1       5.120   4.029  -5.291  0.00  0.00    -0.047 A 
ATOM      6  C4  UNL d   1       6.000   2.986  -5.095  0.00  0.00    -0.004 A 
ENDROOT
TORSDOF 0
ENDMDL
