MODEL 1
REMARK minimizedAffinity -2.89123058
REMARK minimizedRMSD -1
REMARK  0 active torsions:
REMARK  status: ('A' for Active; 'I' for Inactive)
ROOT
ATOM      1  C   UNL d   1       5.949   0.011  -4.897  0.00  0.00     0.172 C 
ATOM      2  N   UNL d   1       5.487   1.374  -4.782  0.00  0.00    -0.070 N 
ATOM      3  C1  UNL d   1       5.878   2.272  -3.825  0.00  0.00    -0.004 A 
ATOM      4  C2  UNL d   1       5.213   3.456  -4.061  0.00  0.00    -0.047 A 
ATOM      5  C3  UNL d   1       4.393   3.262  -5.198  0.00  0.00    -0.047 A 
ATOM      6  C4  UNL d   1       4.582   1.965  -5.624  0.00  0.00    -0.004 A 
ENDROOT
TORSDOF 0
ENDMDL
