MODEL 1
REMARK minimizedAffinity 4.18417692
REMARK minimizedRMSD -1
REMARK  0 active torsions:
REMARK  status: ('A' for Active; 'I' for Inactive)
ROOT
ATOM      1  C   UNL d   1      -1.517  -2.256   1.428  0.00  0.00     0.172 C 
ATOM      2  N   UNL d   1      -1.191  -2.620   0.069  0.00  0.00    -0.070 N 
ATOM      3  C1  UNL d   1      -1.374  -3.855  -0.492  0.00  0.00    -0.004 A 
ATOM      4  C2  UNL d   1      -0.941  -3.794  -1.799  0.00  0.00    -0.047 A 
ATOM      5  C3  UNL d   1      -0.481  -2.476  -2.031  0.00  0.00    -0.047 A 
ATOM      6  C4  UNL d   1      -0.647  -1.770  -0.858  0.00  0.00    -0.004 A 
ENDROOT
TORSDOF 0
ENDMDL
