MODEL 1
REMARK minimizedAffinity 1.15064573
REMARK minimizedRMSD -1
REMARK  0 active torsions:
REMARK  status: ('A' for Active; 'I' for Inactive)
ROOT
ATOM      1  C   UNL d   1      -1.499   3.745  -3.316  0.00  0.00     0.172 C 
ATOM      2  N   UNL d   1      -2.260   4.353  -4.382  0.00  0.00    -0.070 N 
ATOM      3  C1  UNL d   1      -2.081   5.621  -4.868  0.00  0.00    -0.004 A 
ATOM      4  C2  UNL d   1      -3.000   5.820  -5.876  0.00  0.00    -0.047 A 
ATOM      5  C3  UNL d   1      -3.758   4.631  -6.000  0.00  0.00    -0.047 A 
ATOM      6  C4  UNL d   1      -3.279   3.740  -5.063  0.00  0.00    -0.004 A 
ENDROOT
TORSDOF 0
ENDMDL
