MODEL 1
REMARK minimizedAffinity 2.01702261
REMARK minimizedRMSD -1
REMARK  0 active torsions:
REMARK  status: ('A' for Active; 'I' for Inactive)
ROOT
ATOM      1  C   UNL d   1       1.842  -4.260  -4.106  0.00  0.00     0.172 C 
ATOM      2  N   UNL d   1       0.979  -4.003  -2.977  0.00  0.00    -0.070 N 
ATOM      3  C1  UNL d   1       1.289  -4.242  -1.665  0.00  0.00    -0.004 A 
ATOM      4  C2  UNL d   1       0.207  -3.864  -0.900  0.00  0.00    -0.047 A 
ATOM      5  C3  UNL d   1      -0.789  -3.382  -1.783  0.00  0.00    -0.047 A 
ATOM      6  C4  UNL d   1      -0.284  -3.479  -3.063  0.00  0.00    -0.004 A 
ENDROOT
TORSDOF 0
ENDMDL
