MODEL 1
REMARK minimizedAffinity 4.32108021
REMARK minimizedRMSD -1
REMARK  0 active torsions:
REMARK  status: ('A' for Active; 'I' for Inactive)
ROOT
ATOM      1  C   UNL d   1       1.041  -4.432  -3.345  0.00  0.00     0.172 C 
ATOM      2  N   UNL d   1       1.961  -4.818  -4.389  0.00  0.00    -0.070 N 
ATOM      3  C1  UNL d   1       3.027  -4.079  -4.827  0.00  0.00    -0.004 A 
ATOM      4  C2  UNL d   1       3.651  -4.792  -5.828  0.00  0.00    -0.047 A 
ATOM      5  C3  UNL d   1       2.934  -6.000  -5.999  0.00  0.00    -0.047 A 
ATOM      6  C4  UNL d   1       1.892  -5.990  -5.095  0.00  0.00    -0.004 A 
ENDROOT
TORSDOF 0
ENDMDL
