MODEL 1
REMARK minimizedAffinity 5.30617332
REMARK minimizedRMSD -1
REMARK  0 active torsions:
REMARK  status: ('A' for Active; 'I' for Inactive)
ROOT
ATOM      1  C   UNL d   1      -1.940  -2.557   2.938  0.00  0.00     0.172 C 
ATOM      2  N   UNL d   1      -2.321  -3.913   3.254  0.00  0.00    -0.070 N 
ATOM      3  C1  UNL d   1      -1.861  -4.645   4.316  0.00  0.00    -0.004 A 
ATOM      4  C2  UNL d   1      -2.462  -5.884   4.267  0.00  0.00    -0.047 A 
ATOM      5  C3  UNL d   1      -3.313  -5.898   3.137  0.00  0.00    -0.047 A 
ATOM      6  C4  UNL d   1      -3.206  -4.665   2.528  0.00  0.00    -0.004 A 
ENDROOT
TORSDOF 0
ENDMDL
