MODEL 1
REMARK minimizedAffinity 4.1146698
REMARK minimizedRMSD -1
REMARK  0 active torsions:
REMARK  status: ('A' for Active; 'I' for Inactive)
ROOT
ATOM      1  C   UNL d   1       1.766   2.576   1.289  0.00  0.00     0.172 C 
ATOM      2  N   UNL d   1       0.334   2.609   1.469  0.00  0.00    -0.070 N 
ATOM      3  C1  UNL d   1      -0.556   3.276   0.671  0.00  0.00    -0.004 A 
ATOM      4  C2  UNL d   1      -1.821   3.059   1.175  0.00  0.00    -0.047 A 
ATOM      5  C3  UNL d   1      -1.685   2.233   2.316  0.00  0.00    -0.047 A 
ATOM      6  C4  UNL d   1      -0.341   1.970   2.476  0.00  0.00    -0.004 A 
ENDROOT
TORSDOF 0
ENDMDL
