MODEL 1
REMARK minimizedAffinity 0.292833656
REMARK minimizedRMSD -1
REMARK  0 active torsions:
REMARK  status: ('A' for Active; 'I' for Inactive)
ROOT
ATOM      1  C   UNL d   1       4.218  -5.969  -6.000  0.00  0.00     0.172 C 
ATOM      2  N   UNL d   1       2.966  -5.762  -5.311  0.00  0.00    -0.070 N 
ATOM      3  C1  UNL d   1       2.827  -5.301  -4.029  0.00  0.00    -0.004 A 
ATOM      4  C2  UNL d   1       1.480  -5.243  -3.745  0.00  0.00    -0.047 A 
ATOM      5  C3  UNL d   1       0.785  -5.684  -4.896  0.00  0.00    -0.047 A 
ATOM      6  C4  UNL d   1       1.729  -5.999  -5.850  0.00  0.00    -0.004 A 
ENDROOT
TORSDOF 0
ENDMDL
