MODEL 1
REMARK minimizedAffinity 6.39055443
REMARK minimizedRMSD -1
REMARK  0 active torsions:
REMARK  status: ('A' for Active; 'I' for Inactive)
ROOT
ATOM      1  C   UNL d   1       4.906   0.538  -5.942  0.00  0.00     0.172 C 
ATOM      2  N   UNL d   1       4.545   1.936  -5.955  0.00  0.00    -0.070 N 
ATOM      3  C1  UNL d   1       5.422   2.987  -5.994  0.00  0.00    -0.004 A 
ATOM      4  C2  UNL d   1       4.685   4.152  -5.995  0.00  0.00    -0.047 A 
ATOM      5  C3  UNL d   1       3.318   3.788  -5.955  0.00  0.00    -0.047 A 
ATOM      6  C4  UNL d   1       3.260   2.411  -5.931  0.00  0.00    -0.004 A 
ENDROOT
TORSDOF 0
ENDMDL
