MODEL 1
REMARK minimizedAffinity 1.70902956
REMARK minimizedRMSD -1
REMARK  0 active torsions:
REMARK  status: ('A' for Active; 'I' for Inactive)
ROOT
ATOM      1  C   UNL d   1      -1.800   1.687   3.740  0.00  0.00     0.172 C 
ATOM      2  N   UNL d   1      -1.229   2.163   2.502  0.00  0.00    -0.070 N 
ATOM      3  C1  UNL d   1      -0.055   1.730   1.945  0.00  0.00    -0.004 A 
ATOM      4  C2  UNL d   1       0.137   2.426   0.771  0.00  0.00    -0.047 A 
ATOM      5  C3  UNL d   1      -0.959   3.308   0.618  0.00  0.00    -0.047 A 
ATOM      6  C4  UNL d   1      -1.789   3.124   1.703  0.00  0.00    -0.004 A 
ENDROOT
TORSDOF 0
ENDMDL
