MODEL 1
REMARK minimizedAffinity -0.0666372404
REMARK minimizedRMSD -1
REMARK  0 active torsions:
REMARK  status: ('A' for Active; 'I' for Inactive)
ROOT
ATOM      1  C   UNL d   1      -2.764   3.383  -4.163  0.00  0.00     0.172 C 
ATOM      2  N   UNL d   1      -3.907   4.033  -4.760  0.00  0.00    -0.070 N 
ATOM      3  C1  UNL d   1      -5.219   3.719  -4.521  0.00  0.00    -0.004 A 
ATOM      4  C2  UNL d   1      -6.000   4.564  -5.279  0.00  0.00    -0.047 A 
ATOM      5  C3  UNL d   1      -5.128   5.414  -6.000  0.00  0.00    -0.047 A 
ATOM      6  C4  UNL d   1      -3.838   5.063  -5.660  0.00  0.00    -0.004 A 
ENDROOT
TORSDOF 0
ENDMDL
