MODEL 1
REMARK minimizedAffinity -2.26752996
REMARK minimizedRMSD -1
REMARK  0 active torsions:
REMARK  status: ('A' for Active; 'I' for Inactive)
ROOT
ATOM      1  C   UNL d   1       5.228   5.277  -5.919  0.00  0.00     0.172 C 
ATOM      2  N   UNL d   1       5.016   3.851  -5.844  0.00  0.00    -0.070 N 
ATOM      3  C1  UNL d   1       3.814   3.213  -5.995  0.00  0.00    -0.004 A 
ATOM      4  C2  UNL d   1       4.033   1.860  -5.855  0.00  0.00    -0.047 A 
ATOM      5  C3  UNL d   1       5.415   1.678  -5.610  0.00  0.00    -0.047 A 
ATOM      6  C4  UNL d   1       6.000   2.926  -5.609  0.00  0.00    -0.004 A 
ENDROOT
TORSDOF 0
ENDMDL
