MODEL 1
REMARK minimizedAffinity 5.93440008
REMARK minimizedRMSD -1
REMARK  0 active torsions:
REMARK  status: ('A' for Active; 'I' for Inactive)
ROOT
ATOM      1  C   UNL d   1      -0.131  -0.966   0.374  0.00  0.00     0.172 C 
ATOM      2  N   UNL d   1      -0.457  -1.855  -0.715  0.00  0.00    -0.070 N 
ATOM      3  C1  UNL d   1      -0.948  -3.127  -0.588  0.00  0.00    -0.004 A 
ATOM      4  C2  UNL d   1      -1.127  -3.639  -1.855  0.00  0.00    -0.047 A 
ATOM      5  C3  UNL d   1      -0.728  -2.641  -2.776  0.00  0.00    -0.047 A 
ATOM      6  C4  UNL d   1      -0.318  -1.547  -2.043  0.00  0.00    -0.004 A 
ENDROOT
TORSDOF 0
ENDMDL
