MODEL 1
REMARK minimizedAffinity -0.131680176
REMARK minimizedRMSD -1
REMARK  0 active torsions:
REMARK  status: ('A' for Active; 'I' for Inactive)
ROOT
ATOM      1  C   UNL d   1       5.995   5.051  -5.810  0.00  0.00     0.172 C 
ATOM      2  N   UNL d   1       5.352   3.760  -5.867  0.00  0.00    -0.070 N 
ATOM      3  C1  UNL d   1       5.992   2.554  -5.978  0.00  0.00    -0.004 A 
ATOM      4  C2  UNL d   1       5.030   1.567  -5.999  0.00  0.00    -0.047 A 
ATOM      5  C3  UNL d   1       3.769   2.201  -5.898  0.00  0.00    -0.047 A 
ATOM      6  C4  UNL d   1       3.998   3.558  -5.818  0.00  0.00    -0.004 A 
ENDROOT
TORSDOF 0
ENDMDL
