MODEL 1
REMARK minimizedAffinity -2.60139608
REMARK minimizedRMSD -1
REMARK  0 active torsions:
REMARK  status: ('A' for Active; 'I' for Inactive)
ROOT
ATOM      1  C   UNL d   1       5.951   0.986  -5.612  0.00  0.00     0.172 C 
ATOM      2  N   UNL d   1       5.342   2.290  -5.727  0.00  0.00    -0.070 N 
ATOM      3  C1  UNL d   1       5.997   3.489  -5.628  0.00  0.00    -0.004 A 
ATOM      4  C2  UNL d   1       5.068   4.493  -5.795  0.00  0.00    -0.047 A 
ATOM      5  C3  UNL d   1       3.811   3.876  -6.000  0.00  0.00    -0.047 A 
ATOM      6  C4  UNL d   1       4.009   2.513  -5.953  0.00  0.00    -0.004 A 
ENDROOT
TORSDOF 0
ENDMDL
