MODEL 1
REMARK minimizedAffinity -4.87589169
REMARK minimizedRMSD -1
REMARK  2 active torsions:
REMARK  status: ('A' for Active; 'I' for Inactive)
REMARK    1  A    between atoms: C1_2  and  C2_3 
REMARK    2  A    between atoms: C2_3  and  C3_4 
ROOT
ATOM      1  C3  UNL d   1      -0.459   0.132  -0.257  0.00  0.00    -0.075 A 
ATOM      2  C4  UNL d   1      -0.214  -1.236  -0.068  0.00  0.00     0.002 A 
ATOM      3  C5  UNL d   1       1.011  -1.793  -0.435  0.00  0.00     0.002 A 
ATOM      4  C6  UNL d   1       2.001  -0.994  -1.004  0.00  0.00    -0.004 A 
ATOM      5  C7  UNL d   1       1.762   0.362  -1.211  0.00  0.00     0.002 A 
ATOM      6  C8  UNL d   1       0.538   0.923  -0.841  0.00  0.00     0.002 A 
ENDROOT
BRANCH   1   7
ATOM      7  C2  UNL d   1      -1.773   0.746   0.165  0.00  0.00     0.056 C 
BRANCH   7   8
ATOM      8  C1  UNL d   1      -2.190   0.403   1.598  0.00  0.00     0.007 C 
ATOM      9  C   UNL d   1      -2.137   1.598   2.541  0.00  0.00     0.009 C 
ENDBRANCH   7   8
ENDBRANCH   1   7
TORSDOF 2
ENDMDL
