MODEL 1
REMARK minimizedAffinity 0.27444002
REMARK minimizedRMSD -1
REMARK  2 active torsions:
REMARK  status: ('A' for Active; 'I' for Inactive)
REMARK    1  A    between atoms: C1_2  and  C2_3 
REMARK    2  A    between atoms: C2_3  and  C3_4 
ROOT
ATOM      1  C3  UNL d   1       0.867  -0.020   0.561  0.00  0.00    -0.075 A 
ATOM      2  C4  UNL d   1       0.077  -1.065   0.060  0.00  0.00     0.002 A 
ATOM      3  C5  UNL d   1       0.549  -1.880  -0.969  0.00  0.00     0.002 A 
ATOM      4  C6  UNL d   1       1.810  -1.655  -1.517  0.00  0.00    -0.004 A 
ATOM      5  C7  UNL d   1       2.597  -0.609  -1.039  0.00  0.00     0.002 A 
ATOM      6  C8  UNL d   1       2.128   0.205  -0.006  0.00  0.00     0.002 A 
ENDROOT
BRANCH   1   7
ATOM      7  C2  UNL d   1       0.373   0.847   1.694  0.00  0.00     0.056 C 
BRANCH   7   8
ATOM      8  C1  UNL d   1      -0.457   0.094   2.739  0.00  0.00     0.007 C 
ATOM      9  C   UNL d   1      -1.545   0.951   3.372  0.00  0.00     0.009 C 
ENDBRANCH   7   8
ENDBRANCH   1   7
TORSDOF 2
ENDMDL
