MODEL 1
REMARK minimizedAffinity -3.81932449
REMARK minimizedRMSD -1
REMARK  2 active torsions:
REMARK  status: ('A' for Active; 'I' for Inactive)
REMARK    1  A    between atoms: C1_2  and  C2_3 
REMARK    2  A    between atoms: C2_3  and  C3_4 
ROOT
ATOM      1  C3  UNL d   1       0.638  -0.649  -0.382  0.00  0.00    -0.075 A 
ATOM      2  C4  UNL d   1       1.213   0.597  -0.669  0.00  0.00     0.002 A 
ATOM      3  C5  UNL d   1       2.367   0.683  -1.447  0.00  0.00     0.002 A 
ATOM      4  C6  UNL d   1       2.966  -0.474  -1.941  0.00  0.00    -0.004 A 
ATOM      5  C7  UNL d   1       2.413  -1.719  -1.649  0.00  0.00     0.002 A 
ATOM      6  C8  UNL d   1       1.256  -1.807  -0.873  0.00  0.00     0.002 A 
ENDROOT
BRANCH   1   7
ATOM      7  C2  UNL d   1      -0.628  -0.747   0.435  0.00  0.00     0.056 C 
BRANCH   7   8
ATOM      8  C1  UNL d   1      -1.341   0.593   0.643  0.00  0.00     0.007 C 
ATOM      9  C   UNL d   1      -2.081   0.680   1.971  0.00  0.00     0.009 C 
ENDBRANCH   7   8
ENDBRANCH   1   7
TORSDOF 2
ENDMDL
