MODEL 1
REMARK minimizedAffinity -3.82289171
REMARK minimizedRMSD -1
REMARK  2 active torsions:
REMARK  status: ('A' for Active; 'I' for Inactive)
REMARK    1  A    between atoms: C1_2  and  C2_3 
REMARK    2  A    between atoms: C2_3  and  C3_4 
ROOT
ATOM      1  C3  UNL d   1       0.754   0.337  -0.478  0.00  0.00    -0.075 A 
ATOM      2  C4  UNL d   1       1.946   1.061  -0.616  0.00  0.00     0.002 A 
ATOM      3  C5  UNL d   1       3.143   0.407  -0.911  0.00  0.00     0.002 A 
ATOM      4  C6  UNL d   1       3.164  -0.978  -1.061  0.00  0.00    -0.004 A 
ATOM      5  C7  UNL d   1       1.989  -1.710  -0.910  0.00  0.00     0.002 A 
ATOM      6  C8  UNL d   1       0.789  -1.057  -0.619  0.00  0.00     0.002 A 
ENDROOT
BRANCH   1   7
ATOM      7  C2  UNL d   1      -0.550   1.042  -0.188  0.00  0.00     0.056 C 
BRANCH   7   8
ATOM      8  C1  UNL d   1      -1.512   0.237   0.692  0.00  0.00     0.007 C 
ATOM      9  C   UNL d   1      -1.608   0.768   2.116  0.00  0.00     0.009 C 
ENDBRANCH   7   8
ENDBRANCH   1   7
TORSDOF 2
ENDMDL
