MODEL 1
REMARK minimizedAffinity -4.33353233
REMARK minimizedRMSD -1
REMARK  2 active torsions:
REMARK  status: ('A' for Active; 'I' for Inactive)
REMARK    1  A    between atoms: C1_2  and  C2_3 
REMARK    2  A    between atoms: C2_3  and  C3_4 
ROOT
ATOM      1  C3  UNL d   1      -0.520   0.297   0.280  0.00  0.00    -0.075 A 
ATOM      2  C4  UNL d   1       0.681  -0.344   0.615  0.00  0.00     0.002 A 
ATOM      3  C5  UNL d   1       1.838  -0.119  -0.133  0.00  0.00     0.002 A 
ATOM      4  C6  UNL d   1       1.805   0.740  -1.229  0.00  0.00    -0.004 A 
ATOM      5  C7  UNL d   1       0.613   1.369  -1.582  0.00  0.00     0.002 A 
ATOM      6  C8  UNL d   1      -0.544   1.149  -0.832  0.00  0.00     0.002 A 
ENDROOT
BRANCH   1   7
ATOM      7  C2  UNL d   1      -1.767   0.080   1.102  0.00  0.00     0.056 C 
BRANCH   7   8
ATOM      8  C1  UNL d   1      -1.670   0.615   2.535  0.00  0.00     0.007 C 
ATOM      9  C   UNL d   1      -2.792   0.120   3.438  0.00  0.00     0.009 C 
ENDBRANCH   7   8
ENDBRANCH   1   7
TORSDOF 2
ENDMDL
