MODEL 1
REMARK minimizedAffinity -1.8253336
REMARK minimizedRMSD -1
REMARK  2 active torsions:
REMARK  status: ('A' for Active; 'I' for Inactive)
REMARK    1  A    between atoms: C1_2  and  C2_3 
REMARK    2  A    between atoms: C2_3  and  C3_4 
ROOT
ATOM      1  C3  UNL d   1      -0.714  -0.006   0.012  0.00  0.00    -0.075 A 
ATOM      2  C4  UNL d   1      -0.540  -1.395   0.102  0.00  0.00     0.002 A 
ATOM      3  C5  UNL d   1       0.569  -2.008  -0.480  0.00  0.00     0.002 A 
ATOM      4  C6  UNL d   1       1.512  -1.245  -1.166  0.00  0.00    -0.004 A 
ATOM      5  C7  UNL d   1       1.340   0.133  -1.275  0.00  0.00     0.002 A 
ATOM      6  C8  UNL d   1       0.233   0.750  -0.690  0.00  0.00     0.002 A 
ENDROOT
BRANCH   1   7
ATOM      7  C2  UNL d   1      -1.898   0.668   0.665  0.00  0.00     0.056 C 
BRANCH   7   8
ATOM      8  C1  UNL d   1      -2.406  -0.044   1.923  0.00  0.00     0.007 C 
ATOM      9  C   UNL d   1      -2.604   0.894   3.106  0.00  0.00     0.009 C 
ENDBRANCH   7   8
ENDBRANCH   1   7
TORSDOF 2
ENDMDL
