MODEL 1
REMARK minimizedAffinity -4.64560318
REMARK minimizedRMSD -1
REMARK  2 active torsions:
REMARK  status: ('A' for Active; 'I' for Inactive)
REMARK    1  A    between atoms: C1_2  and  C2_3 
REMARK    2  A    between atoms: C2_3  and  C3_4 
ROOT
ATOM      1  C3  UNL d   1       0.019   0.187   0.235  0.00  0.00    -0.075 A 
ATOM      2  C4  UNL d   1       1.099   0.943  -0.242  0.00  0.00     0.002 A 
ATOM      3  C5  UNL d   1       2.103   0.342  -1.001  0.00  0.00     0.002 A 
ATOM      4  C6  UNL d   1       2.047  -1.021  -1.284  0.00  0.00    -0.004 A 
ATOM      5  C7  UNL d   1       0.987  -1.785  -0.800  0.00  0.00     0.002 A 
ATOM      6  C8  UNL d   1      -0.022  -1.186  -0.044  0.00  0.00     0.002 A 
ENDROOT
BRANCH   1   7
ATOM      7  C2  UNL d   1      -1.087   0.837   1.032  0.00  0.00     0.056 C 
BRANCH   7   8
ATOM      8  C1  UNL d   1      -1.815  -0.119   1.984  0.00  0.00     0.007 C 
ATOM      9  C   UNL d   1      -2.907   0.561   2.799  0.00  0.00     0.009 C 
ENDBRANCH   7   8
ENDBRANCH   1   7
TORSDOF 2
ENDMDL
