MODEL 1
REMARK minimizedAffinity -3.77243447
REMARK minimizedRMSD -1
REMARK  2 active torsions:
REMARK  status: ('A' for Active; 'I' for Inactive)
REMARK    1  A    between atoms: C1_2  and  C2_3 
REMARK    2  A    between atoms: C2_3  and  C3_4 
ROOT
ATOM      1  C3  UNL d   1       0.876  -0.031  -0.097  0.00  0.00    -0.075 A 
ATOM      2  C4  UNL d   1       1.231  -1.375  -0.284  0.00  0.00     0.002 A 
ATOM      3  C5  UNL d   1       2.080  -1.744  -1.328  0.00  0.00     0.002 A 
ATOM      4  C6  UNL d   1       2.576  -0.779  -2.202  0.00  0.00    -0.004 A 
ATOM      5  C7  UNL d   1       2.216   0.557  -2.035  0.00  0.00     0.002 A 
ATOM      6  C8  UNL d   1       1.370   0.930  -0.989  0.00  0.00     0.002 A 
ENDROOT
BRANCH   1   7
ATOM      7  C2  UNL d   1      -0.019   0.379   1.048  0.00  0.00     0.056 C 
BRANCH   7   8
ATOM      8  C1  UNL d   1      -1.509   0.422   0.691  0.00  0.00     0.007 C 
ATOM      9  C   UNL d   1      -2.419   0.402   1.912  0.00  0.00     0.009 C 
ENDBRANCH   7   8
ENDBRANCH   1   7
TORSDOF 2
ENDMDL
