MODEL 1
REMARK minimizedAffinity -3.89515853
REMARK minimizedRMSD -1
REMARK  2 active torsions:
REMARK  status: ('A' for Active; 'I' for Inactive)
REMARK    1  A    between atoms: C1_2  and  C2_3 
REMARK    2  A    between atoms: C2_3  and  C3_4 
ROOT
ATOM      1  C3  UNL d   1       1.283   0.146  -0.529  0.00  0.00    -0.075 A 
ATOM      2  C4  UNL d   1       0.052  -0.211   0.040  0.00  0.00     0.002 A 
ATOM      3  C5  UNL d   1      -0.406  -1.527  -0.030  0.00  0.00     0.002 A 
ATOM      4  C6  UNL d   1       0.355  -2.499  -0.677  0.00  0.00    -0.004 A 
ATOM      5  C7  UNL d   1       1.571  -2.152  -1.261  0.00  0.00     0.002 A 
ATOM      6  C8  UNL d   1       2.034  -0.836  -1.189  0.00  0.00     0.002 A 
ENDROOT
BRANCH   1   7
ATOM      7  C2  UNL d   1       1.798   1.562  -0.431  0.00  0.00     0.056 C 
BRANCH   7   8
ATOM      8  C1  UNL d   1       1.353   2.469  -1.584  0.00  0.00     0.007 C 
ATOM      9  C   UNL d   1      -0.147   2.731  -1.598  0.00  0.00     0.009 C 
ENDBRANCH   7   8
ENDBRANCH   1   7
TORSDOF 2
ENDMDL
