MODEL 1
REMARK minimizedAffinity -2.23600912
REMARK minimizedRMSD -1
REMARK  2 active torsions:
REMARK  status: ('A' for Active; 'I' for Inactive)
REMARK    1  A    between atoms: C1_2  and  C2_3 
REMARK    2  A    between atoms: C2_3  and  C3_4 
ROOT
ATOM      1  C3  UNL d   1       5.372   0.701   4.279  0.00  0.00    -0.075 A 
ATOM      2  C4  UNL d   1       5.715   1.006   5.605  0.00  0.00     0.002 A 
ATOM      3  C5  UNL d   1       5.999   2.319   5.978  0.00  0.00     0.002 A 
ATOM      4  C6  UNL d   1       5.955   3.341   5.033  0.00  0.00    -0.004 A 
ATOM      5  C7  UNL d   1       5.632   3.047   3.710  0.00  0.00     0.002 A 
ATOM      6  C8  UNL d   1       5.342   1.734   3.334  0.00  0.00     0.002 A 
ENDROOT
BRANCH   1   7
ATOM      7  C2  UNL d   1       5.034  -0.714   3.875  0.00  0.00     0.056 C 
BRANCH   7   8
ATOM      8  C1  UNL d   1       5.911  -1.780   4.540  0.00  0.00     0.007 C 
ATOM      9  C   UNL d   1       5.439  -2.159   5.938  0.00  0.00     0.009 C 
ENDBRANCH   7   8
ENDBRANCH   1   7
TORSDOF 2
ENDMDL
