MODEL 1
REMARK minimizedAffinity -4.76896381
REMARK minimizedRMSD -1
REMARK  1 active torsions:
REMARK  status: ('A' for Active; 'I' for Inactive)
REMARK    1  A    between atoms: C1_2  and  C2_3 
ROOT
ATOM      1  C2  UNL d   1      -0.340  -1.060  -0.055  0.00  0.00    -0.077 A 
ATOM      2  C3  UNL d   1       0.032  -0.786  -1.379  0.00  0.00     0.002 A 
ATOM      3  C4  UNL d   1      -0.009  -1.792  -2.347  0.00  0.00     0.002 A 
ATOM      4  C5  UNL d   1      -0.425  -3.076  -2.002  0.00  0.00    -0.004 A 
ATOM      5  C6  UNL d   1      -0.794  -3.359  -0.688  0.00  0.00     0.002 A 
ATOM      6  C7  UNL d   1      -0.753  -2.356   0.281  0.00  0.00     0.002 A 
ENDROOT
BRANCH   1   7
ATOM      7  C1  UNL d   1      -0.343   0.035   0.979  0.00  0.00     0.055 C 
ATOM      8  C   UNL d   1       1.073   0.441   1.360  0.00  0.00     0.019 C 
ENDBRANCH   1   7
TORSDOF 1
ENDMDL
