MODEL 1
REMARK minimizedAffinity -1.8792522
REMARK minimizedRMSD -1
REMARK  1 active torsions:
REMARK  status: ('A' for Active; 'I' for Inactive)
REMARK    1  A    between atoms: C1_2  and  C2_3 
ROOT
ATOM      1  C2  UNL d   1      -0.813  -1.046   0.051  0.00  0.00    -0.077 A 
ATOM      2  C3  UNL d   1      -0.470  -1.585  -1.197  0.00  0.00     0.002 A 
ATOM      3  C4  UNL d   1       0.006  -0.758  -2.216  0.00  0.00     0.002 A 
ATOM      4  C5  UNL d   1       0.146   0.611  -1.997  0.00  0.00    -0.004 A 
ATOM      5  C6  UNL d   1      -0.194   1.156  -0.760  0.00  0.00     0.002 A 
ATOM      6  C7  UNL d   1      -0.671   0.331   0.260  0.00  0.00     0.002 A 
ENDROOT
BRANCH   1   7
ATOM      7  C1  UNL d   1      -1.280  -1.943   1.168  0.00  0.00     0.055 C 
ATOM      8  C   UNL d   1      -1.608  -1.144   2.420  0.00  0.00     0.019 C 
ENDBRANCH   1   7
TORSDOF 1
ENDMDL
