MODEL 1
REMARK minimizedAffinity -4.27265263
REMARK minimizedRMSD -1
REMARK  1 active torsions:
REMARK  status: ('A' for Active; 'I' for Inactive)
REMARK    1  A    between atoms: C1_2  and  C2_3 
ROOT
ATOM      1  C2  UNL d   1      -0.839  -1.232   0.541  0.00  0.00    -0.077 A 
ATOM      2  C3  UNL d   1      -0.916  -2.434  -0.175  0.00  0.00     0.002 A 
ATOM      3  C4  UNL d   1      -0.520  -2.486  -1.513  0.00  0.00     0.002 A 
ATOM      4  C5  UNL d   1      -0.039  -1.341  -2.144  0.00  0.00    -0.004 A 
ATOM      5  C6  UNL d   1       0.039  -0.140  -1.441  0.00  0.00     0.002 A 
ATOM      6  C7  UNL d   1      -0.358  -0.085  -0.104  0.00  0.00     0.002 A 
ENDROOT
BRANCH   1   7
ATOM      7  C1  UNL d   1      -1.220  -1.185   1.998  0.00  0.00     0.055 C 
ATOM      8  C   UNL d   1      -2.063   0.043   2.310  0.00  0.00     0.019 C 
ENDBRANCH   1   7
TORSDOF 1
ENDMDL
