MODEL 1
REMARK minimizedAffinity -4.10417891
REMARK minimizedRMSD -1
REMARK  1 active torsions:
REMARK  status: ('A' for Active; 'I' for Inactive)
REMARK    1  A    between atoms: C1_2  and  C2_3 
ROOT
ATOM      1  C2  UNL d   1      -0.192  -0.402   0.856  0.00  0.00    -0.077 A 
ATOM      2  C3  UNL d   1      -0.769   0.551   0.005  0.00  0.00     0.002 A 
ATOM      3  C4  UNL d   1      -0.055   1.691  -0.367  0.00  0.00     0.002 A 
ATOM      4  C5  UNL d   1       1.242   1.888   0.104  0.00  0.00    -0.004 A 
ATOM      5  C6  UNL d   1       1.824   0.948   0.953  0.00  0.00     0.002 A 
ATOM      6  C7  UNL d   1       1.111  -0.192   1.327  0.00  0.00     0.002 A 
ENDROOT
BRANCH   1   7
ATOM      7  C1  UNL d   1      -0.942  -1.656   1.219  0.00  0.00     0.055 C 
ATOM      8  C   UNL d   1      -0.330  -2.880   0.554  0.00  0.00     0.019 C 
ENDBRANCH   1   7
TORSDOF 1
ENDMDL
