MODEL 1
REMARK minimizedAffinity -1.49213302
REMARK minimizedRMSD -1
REMARK  1 active torsions:
REMARK  status: ('A' for Active; 'I' for Inactive)
REMARK    1  A    between atoms: C1_2  and  C2_3 
ROOT
ATOM      1  C2  UNL d   1       0.419   1.782   0.414  0.00  0.00    -0.077 A 
ATOM      2  C3  UNL d   1       0.018   0.943   1.463  0.00  0.00     0.002 A 
ATOM      3  C4  UNL d   1      -0.522  -0.317   1.194  0.00  0.00     0.002 A 
ATOM      4  C5  UNL d   1      -0.661  -0.749  -0.123  0.00  0.00    -0.004 A 
ATOM      5  C6  UNL d   1      -0.267   0.078  -1.174  0.00  0.00     0.002 A 
ATOM      6  C7  UNL d   1       0.271   1.338  -0.906  0.00  0.00     0.002 A 
ENDROOT
BRANCH   1   7
ATOM      7  C1  UNL d   1       1.046   3.120   0.704  0.00  0.00     0.055 C 
ATOM      8  C   UNL d   1       2.526   3.127   0.347  0.00  0.00     0.019 C 
ENDBRANCH   1   7
TORSDOF 1
ENDMDL
