MODEL 1
REMARK minimizedAffinity -4.21279001
REMARK minimizedRMSD -1
REMARK  1 active torsions:
REMARK  status: ('A' for Active; 'I' for Inactive)
REMARK    1  A    between atoms: C1_2  and  C2_3 
ROOT
ATOM      1  C2  UNL d   1       0.918   1.493   0.475  0.00  0.00    -0.077 A 
ATOM      2  C3  UNL d   1       2.176   1.025   0.881  0.00  0.00     0.002 A 
ATOM      3  C4  UNL d   1       3.164   1.921   1.292  0.00  0.00     0.002 A 
ATOM      4  C5  UNL d   1       2.905   3.290   1.304  0.00  0.00    -0.004 A 
ATOM      5  C6  UNL d   1       1.658   3.766   0.900  0.00  0.00     0.002 A 
ATOM      6  C7  UNL d   1       0.669   2.871   0.488  0.00  0.00     0.002 A 
ENDROOT
BRANCH   1   7
ATOM      7  C1  UNL d   1      -0.166   0.525   0.079  0.00  0.00     0.055 C 
ATOM      8  C   UNL d   1      -0.801  -0.125   1.299  0.00  0.00     0.019 C 
ENDBRANCH   1   7
TORSDOF 1
ENDMDL
