MODEL 1
REMARK minimizedAffinity -2.67813683
REMARK minimizedRMSD -1
REMARK  1 active torsions:
REMARK  status: ('A' for Active; 'I' for Inactive)
REMARK    1  A    between atoms: C1_2  and  C2_3 
ROOT
ATOM      1  C2  UNL d   1      -0.309   0.367   0.197  0.00  0.00    -0.077 A 
ATOM      2  C3  UNL d   1       0.937   0.482   0.828  0.00  0.00     0.002 A 
ATOM      3  C4  UNL d   1       1.597   1.712   0.870  0.00  0.00     0.002 A 
ATOM      4  C5  UNL d   1       1.016   2.836   0.287  0.00  0.00    -0.004 A 
ATOM      5  C6  UNL d   1      -0.222   2.732  -0.345  0.00  0.00     0.002 A 
ATOM      6  C7  UNL d   1      -0.883   1.503  -0.389  0.00  0.00     0.002 A 
ENDROOT
BRANCH   1   7
ATOM      7  C1  UNL d   1      -1.045  -0.947   0.194  0.00  0.00     0.055 C 
ATOM      8  C   UNL d   1      -1.143  -1.531   1.596  0.00  0.00     0.019 C 
ENDBRANCH   1   7
TORSDOF 1
ENDMDL
