MODEL 1
REMARK minimizedAffinity -1.79625797
REMARK minimizedRMSD -1
REMARK  1 active torsions:
REMARK  status: ('A' for Active; 'I' for Inactive)
REMARK    1  A    between atoms: C1_2  and  C2_3 
ROOT
ATOM      1  C2  UNL d   1       0.916   1.345  -0.006  0.00  0.00    -0.077 A 
ATOM      2  C3  UNL d   1       0.524   0.636   1.138  0.00  0.00     0.002 A 
ATOM      3  C4  UNL d   1      -0.380  -0.423   1.037  0.00  0.00     0.002 A 
ATOM      4  C5  UNL d   1      -0.896  -0.785  -0.205  0.00  0.00    -0.004 A 
ATOM      5  C6  UNL d   1      -0.514  -0.085  -1.349  0.00  0.00     0.002 A 
ATOM      6  C7  UNL d   1       0.389   0.975  -1.250  0.00  0.00     0.002 A 
ENDROOT
BRANCH   1   7
ATOM      7  C1  UNL d   1       1.929   2.455   0.094  0.00  0.00     0.055 C 
ATOM      8  C   UNL d   1       1.320   3.707   0.707  0.00  0.00     0.019 C 
ENDBRANCH   1   7
TORSDOF 1
ENDMDL
