MODEL 1
REMARK minimizedAffinity -3.03766131
REMARK minimizedRMSD -1
REMARK  1 active torsions:
REMARK  status: ('A' for Active; 'I' for Inactive)
REMARK    1  A    between atoms: C1_2  and  C2_3 
ROOT
ATOM      1  C2  UNL d   1       0.099  -0.015  -0.214  0.00  0.00    -0.077 A 
ATOM      2  C3  UNL d   1       0.050  -1.187  -0.982  0.00  0.00     0.002 A 
ATOM      3  C4  UNL d   1      -0.505  -2.355  -0.455  0.00  0.00     0.002 A 
ATOM      4  C5  UNL d   1      -1.019  -2.361   0.839  0.00  0.00    -0.004 A 
ATOM      5  C6  UNL d   1      -0.974  -1.201   1.612  0.00  0.00     0.002 A 
ATOM      6  C7  UNL d   1      -0.418  -0.034   1.088  0.00  0.00     0.002 A 
ENDROOT
BRANCH   1   7
ATOM      7  C1  UNL d   1       0.653   1.258  -0.798  0.00  0.00     0.055 C 
ATOM      8  C   UNL d   1       0.176   2.477  -0.021  0.00  0.00     0.019 C 
ENDBRANCH   1   7
TORSDOF 1
ENDMDL
