MODEL 1
REMARK minimizedAffinity -3.72625589
REMARK minimizedRMSD -1
REMARK  1 active torsions:
REMARK  status: ('A' for Active; 'I' for Inactive)
REMARK    1  A    between atoms: C1_2  and  C2_3 
ROOT
ATOM      1  C2  UNL d   1      -0.156  -1.525  -0.914  0.00  0.00    -0.077 A 
ATOM      2  C3  UNL d   1      -0.499  -2.517   0.016  0.00  0.00     0.002 A 
ATOM      3  C4  UNL d   1      -0.674  -2.193   1.363  0.00  0.00     0.002 A 
ATOM      4  C5  UNL d   1      -0.512  -0.877   1.791  0.00  0.00    -0.004 A 
ATOM      5  C6  UNL d   1      -0.168   0.116   0.875  0.00  0.00     0.002 A 
ATOM      6  C7  UNL d   1       0.008  -0.206  -0.471  0.00  0.00     0.002 A 
ENDROOT
BRANCH   1   7
ATOM      7  C1  UNL d   1      -0.016  -1.864  -2.375  0.00  0.00     0.055 C 
ATOM      8  C   UNL d   1      -0.502  -3.276  -2.665  0.00  0.00     0.019 C 
ENDBRANCH   1   7
TORSDOF 1
ENDMDL
