MODEL 1
REMARK minimizedAffinity -1.33146238
REMARK minimizedRMSD -1
REMARK  1 active torsions:
REMARK  status: ('A' for Active; 'I' for Inactive)
REMARK    1  A    between atoms: C1_2  and  C2_3 
ROOT
ATOM      1  C2  UNL d   1      -0.270  -0.860   3.207  0.00  0.00    -0.076 A 
ATOM      2  C3  UNL d   1      -0.228  -1.246   4.558  0.00  0.00     0.004 A 
ATOM      3  C4  UNL d   1       0.956  -1.699   5.138  0.00  0.00    -0.003 A 
ATOM      4  C5  UNL d   1       2.117  -1.772   4.377  0.00  0.00     0.000 A 
ATOM      5  C6  UNL d   1       2.097  -1.377   3.040  0.00  0.00     0.000 A 
ATOM      6  C7  UNL d   1       0.916  -0.903   2.444  0.00  0.00    -0.073 A 
ATOM      7  C8  UNL d   1       0.951  -0.495   0.997  0.00  0.00     0.078 C 
ENDROOT
BRANCH   1   8
ATOM      8  C1  UNL d   1      -1.589  -0.403   2.625  0.00  0.00     0.053 C 
ATOM      9  C   UNL d   1      -2.768  -1.205   3.155  0.00  0.00     0.018 C 
ENDBRANCH   1   8
TORSDOF 1
ENDMDL
