MODEL 1
REMARK minimizedAffinity 1.62757337
REMARK minimizedRMSD -1
REMARK  1 active torsions:
REMARK  status: ('A' for Active; 'I' for Inactive)
REMARK    1  A    between atoms: C1_2  and  C2_3 
ROOT
ATOM      1  C2  UNL d   1      -0.142  -0.302   0.584  0.00  0.00    -0.076 A 
ATOM      2  C3  UNL d   1      -0.136  -0.441  -0.815  0.00  0.00     0.004 A 
ATOM      3  C4  UNL d   1      -1.325  -0.433  -1.542  0.00  0.00    -0.003 A 
ATOM      4  C5  UNL d   1      -2.540  -0.284  -0.882  0.00  0.00     0.000 A 
ATOM      5  C6  UNL d   1      -2.563  -0.126   0.503  0.00  0.00     0.000 A 
ATOM      6  C7  UNL d   1      -1.372  -0.116   1.250  0.00  0.00    -0.073 A 
ATOM      7  C8  UNL d   1      -1.457   0.051   2.742  0.00  0.00     0.078 C 
ENDROOT
BRANCH   1   8
ATOM      8  C1  UNL d   1       1.177  -0.346   1.322  0.00  0.00     0.053 C 
ATOM      9  C   UNL d   1       2.132   0.750   0.875  0.00  0.00     0.018 C 
ENDBRANCH   1   8
TORSDOF 1
ENDMDL
