MODEL 1
REMARK minimizedAffinity 2.76731277
REMARK minimizedRMSD -1
REMARK  1 active torsions:
REMARK  status: ('A' for Active; 'I' for Inactive)
REMARK    1  A    between atoms: C1_2  and  C2_3 
ROOT
ATOM      1  C2  UNL d   1       0.461  -0.793   2.489  0.00  0.00    -0.076 A 
ATOM      2  C3  UNL d   1       0.173  -1.449   3.698  0.00  0.00     0.004 A 
ATOM      3  C4  UNL d   1       1.194  -1.835   4.566  0.00  0.00    -0.003 A 
ATOM      4  C5  UNL d   1       2.519  -1.569   4.238  0.00  0.00     0.000 A 
ATOM      5  C6  UNL d   1       2.821  -0.902   3.051  0.00  0.00     0.000 A 
ATOM      6  C7  UNL d   1       1.803  -0.492   2.174  0.00  0.00    -0.073 A 
ATOM      7  C8  UNL d   1       2.187   0.218   0.904  0.00  0.00     0.078 C 
ENDROOT
BRANCH   1   8
ATOM      8  C1  UNL d   1      -0.686  -0.423   1.576  0.00  0.00     0.053 C 
ATOM      9  C   UNL d   1      -1.908   0.060   2.341  0.00  0.00     0.018 C 
ENDBRANCH   1   8
TORSDOF 1
ENDMDL
