MODEL 1
REMARK minimizedAffinity 10.2014589
REMARK minimizedRMSD -1
REMARK  1 active torsions:
REMARK  status: ('A' for Active; 'I' for Inactive)
REMARK    1  A    between atoms: C1_2  and  C2_3 
ROOT
ATOM      1  C2  UNL d   1       1.056  -0.627   2.127  0.00  0.00    -0.076 A 
ATOM      2  C3  UNL d   1       0.757  -1.230   3.361  0.00  0.00     0.004 A 
ATOM      3  C4  UNL d   1       1.744  -1.410   4.329  0.00  0.00    -0.003 A 
ATOM      4  C5  UNL d   1       3.045  -0.989   4.079  0.00  0.00     0.000 A 
ATOM      5  C6  UNL d   1       3.356  -0.373   2.867  0.00  0.00     0.000 A 
ATOM      6  C7  UNL d   1       2.370  -0.170   1.887  0.00  0.00    -0.073 A 
ATOM      7  C8  UNL d   1       2.762   0.494   0.596  0.00  0.00     0.078 C 
ENDROOT
BRANCH   1   8
ATOM      8  C1  UNL d   1      -0.048  -0.483   1.105  0.00  0.00     0.053 C 
ATOM      9  C   UNL d   1      -1.399  -0.196   1.743  0.00  0.00     0.018 C 
ENDBRANCH   1   8
TORSDOF 1
ENDMDL
