MODEL 1
REMARK minimizedAffinity -3.50556636
REMARK minimizedRMSD -1
REMARK  0 active torsions:
REMARK  status: ('A' for Active; 'I' for Inactive)
ROOT
ATOM      1  C1  DEN d   1       5.667  -2.149  -4.146  0.00  0.00     0.130 A 
ATOM      2  C2  DEN d   1       4.848  -1.341  -5.045  0.00  0.00    -0.031 A 
ATOM      3  C3  DEN d   1       4.104  -2.257  -5.933  0.00  0.00     0.027 A 
ATOM      4  C4  DEN d   1       4.138  -4.835  -6.000  0.00  0.00     0.027 A 
ATOM      5  C5  DEN d   1       4.689  -5.965  -5.438  0.00  0.00    -0.003 A 
ATOM      6  C6  DEN d   1       5.623  -5.902  -4.437  0.00  0.00     0.001 A 
ATOM      7  C7  DEN d   1       6.000  -4.684  -3.936  0.00  0.00     0.017 A 
ATOM      8  C8  DEN d   1       5.454  -3.540  -4.503  0.00  0.00    -0.094 A 
ATOM      9  C9  DEN d   1       4.503  -3.625  -5.505  0.00  0.00    -0.072 A 
ENDROOT
TORSDOF 0
ENDMDL
