MODEL 1
REMARK minimizedAffinity -3.55666256
REMARK minimizedRMSD -1
REMARK  0 active torsions:
REMARK  status: ('A' for Active; 'I' for Inactive)
ROOT
ATOM      1  C1  DEN d   1       4.395  -1.640  -6.000  0.00  0.00     0.130 A 
ATOM      2  C2  DEN d   1       5.221  -0.750  -5.189  0.00  0.00    -0.031 A 
ATOM      3  C3  DEN d   1       5.991  -1.580  -4.241  0.00  0.00     0.027 A 
ATOM      4  C4  DEN d   1       5.987  -4.143  -3.954  0.00  0.00     0.027 A 
ATOM      5  C5  DEN d   1       5.438  -5.323  -4.407  0.00  0.00    -0.003 A 
ATOM      6  C6  DEN d   1       4.486  -5.354  -5.391  0.00  0.00     0.001 A 
ATOM      7  C7  DEN d   1       4.086  -4.187  -5.987  0.00  0.00     0.017 A 
ATOM      8  C8  DEN d   1       4.630  -2.994  -5.530  0.00  0.00    -0.094 A 
ATOM      9  C9  DEN d   1       5.600  -2.983  -4.542  0.00  0.00    -0.072 A 
ENDROOT
TORSDOF 0
ENDMDL
