MODEL 1
REMARK minimizedAffinity -0.775730729
REMARK minimizedRMSD -1
REMARK  0 active torsions:
REMARK  status: ('A' for Active; 'I' for Inactive)
ROOT
ATOM      1  C1  DEN d   1       5.383  -2.557  -5.760  0.00  0.00     0.130 A 
ATOM      2  C2  DEN d   1       6.000  -1.904  -4.609  0.00  0.00    -0.031 A 
ATOM      3  C3  DEN d   1       5.795  -2.770  -3.430  0.00  0.00     0.027 A 
ATOM      4  C4  DEN d   1       4.592  -5.046  -3.278  0.00  0.00     0.027 A 
ATOM      5  C5  DEN d   1       3.898  -5.999  -3.990  0.00  0.00    -0.003 A 
ATOM      6  C6  DEN d   1       3.623  -5.856  -5.324  0.00  0.00     0.001 A 
ATOM      7  C7  DEN d   1       4.084  -4.756  -5.999  0.00  0.00     0.017 A 
ATOM      8  C8  DEN d   1       4.778  -3.788  -5.285  0.00  0.00    -0.094 A 
ATOM      9  C9  DEN d   1       5.056  -3.956  -3.940  0.00  0.00    -0.072 A 
ENDROOT
TORSDOF 0
ENDMDL
