MODEL 1
REMARK minimizedAffinity -3.24166226
REMARK minimizedRMSD -1
REMARK  0 active torsions:
REMARK  status: ('A' for Active; 'I' for Inactive)
ROOT
ATOM      1  C1  DEN d   1       4.229  -2.122  -4.404  0.00  0.00     0.130 A 
ATOM      2  C2  DEN d   1       5.146  -1.344  -5.234  0.00  0.00    -0.031 A 
ATOM      3  C3  DEN d   1       5.999  -2.290  -5.981  0.00  0.00     0.027 A 
ATOM      4  C4  DEN d   1       5.988  -4.868  -5.937  0.00  0.00     0.027 A 
ATOM      5  C5  DEN d   1       5.396  -5.979  -5.377  0.00  0.00    -0.003 A 
ATOM      6  C6  DEN d   1       4.405  -5.882  -4.437  0.00  0.00     0.001 A 
ATOM      7  C7  DEN d   1       3.944  -4.648  -4.060  0.00  0.00     0.017 A 
ATOM      8  C8  DEN d   1       4.542  -3.524  -4.615  0.00  0.00    -0.094 A 
ATOM      9  C9  DEN d   1       5.533  -3.643  -5.573  0.00  0.00    -0.072 A 
ENDROOT
TORSDOF 0
ENDMDL
