MODEL 1
REMARK minimizedAffinity -1.78894162
REMARK minimizedRMSD -1
REMARK  0 active torsions:
REMARK  status: ('A' for Active; 'I' for Inactive)
ROOT
ATOM      1  C1  DEN d   1       3.759  -2.154  -5.314  0.00  0.00     0.130 A 
ATOM      2  C2  DEN d   1       4.913  -1.367  -4.886  0.00  0.00    -0.031 A 
ATOM      3  C3  DEN d   1       5.996  -2.304  -4.525  0.00  0.00     0.027 A 
ATOM      4  C4  DEN d   1       6.000  -4.883  -4.591  0.00  0.00     0.027 A 
ATOM      5  C5  DEN d   1       5.245  -5.999  -4.875  0.00  0.00    -0.003 A 
ATOM      6  C6  DEN d   1       3.941  -5.914  -5.288  0.00  0.00     0.001 A 
ATOM      7  C7  DEN d   1       3.367  -4.684  -5.473  0.00  0.00     0.017 A 
ATOM      8  C8  DEN d   1       4.120  -3.554  -5.183  0.00  0.00    -0.094 A 
ATOM      9  C9  DEN d   1       5.439  -3.661  -4.778  0.00  0.00    -0.072 A 
ENDROOT
TORSDOF 0
ENDMDL
