MODEL 1
REMARK minimizedAffinity -1.26727951
REMARK minimizedRMSD -1
REMARK  0 active torsions:
REMARK  status: ('A' for Active; 'I' for Inactive)
ROOT
ATOM      1  C1  DEN d   1       3.856  -2.207  -4.630  0.00  0.00     0.130 A 
ATOM      2  C2  DEN d   1       4.962  -1.384  -5.112  0.00  0.00    -0.031 A 
ATOM      3  C3  DEN d   1       5.999  -2.284  -5.654  0.00  0.00     0.027 A 
ATOM      4  C4  DEN d   1       5.999  -4.859  -5.798  0.00  0.00     0.027 A 
ATOM      5  C5  DEN d   1       5.284  -6.000  -5.506  0.00  0.00    -0.003 A 
ATOM      6  C6  DEN d   1       4.068  -5.958  -4.877  0.00  0.00     0.001 A 
ATOM      7  C7  DEN d   1       3.510  -4.749  -4.559  0.00  0.00     0.017 A 
ATOM      8  C8  DEN d   1       4.228  -3.595  -4.842  0.00  0.00    -0.094 A 
ATOM      9  C9  DEN d   1       5.450  -3.657  -5.490  0.00  0.00    -0.072 A 
ENDROOT
TORSDOF 0
ENDMDL
