MODEL 1
REMARK minimizedAffinity -1.74530029
REMARK minimizedRMSD -1
REMARK  0 active torsions:
REMARK  status: ('A' for Active; 'I' for Inactive)
ROOT
ATOM      1  C1  DEN d   1       4.034  -2.339  -5.994  0.00  0.00     0.130 A 
ATOM      2  C2  DEN d   1       4.892  -1.354  -5.342  0.00  0.00    -0.031 A 
ATOM      3  C3  DEN d   1       5.814  -2.075  -4.442  0.00  0.00     0.027 A 
ATOM      4  C4  DEN d   1       5.998  -4.610  -4.001  0.00  0.00     0.027 A 
ATOM      5  C5  DEN d   1       5.474  -5.845  -4.313  0.00  0.00    -0.003 A 
ATOM      6  C6  DEN d   1       4.419  -5.994  -5.175  0.00  0.00     0.001 A 
ATOM      7  C7  DEN d   1       3.884  -4.892  -5.789  0.00  0.00     0.017 A 
ATOM      8  C8  DEN d   1       4.402  -3.643  -5.473  0.00  0.00    -0.094 A 
ATOM      9  C9  DEN d   1       5.477  -3.515  -4.609  0.00  0.00    -0.072 A 
ENDROOT
TORSDOF 0
ENDMDL
