MODEL 1
REMARK minimizedAffinity -1.90227509
REMARK minimizedRMSD -1
REMARK  0 active torsions:
REMARK  status: ('A' for Active; 'I' for Inactive)
ROOT
ATOM      1  C1  DEN d   1       4.176  -4.973  -5.990  0.00  0.00     0.130 A 
ATOM      2  C2  DEN d   1       4.818  -6.000  -5.174  0.00  0.00    -0.031 A 
ATOM      3  C3  DEN d   1       5.650  -5.323  -4.159  0.00  0.00     0.027 A 
ATOM      4  C4  DEN d   1       6.000  -2.797  -3.770  0.00  0.00     0.027 A 
ATOM      5  C5  DEN d   1       5.673  -1.537  -4.218  0.00  0.00    -0.003 A 
ATOM      6  C6  DEN d   1       4.858  -1.335  -5.300  0.00  0.00     0.001 A 
ATOM      7  C7  DEN d   1       4.305  -2.411  -5.944  0.00  0.00     0.017 A 
ATOM      8  C8  DEN d   1       4.636  -3.685  -5.502  0.00  0.00    -0.094 A 
ATOM      9  C9  DEN d   1       5.452  -3.868  -4.399  0.00  0.00    -0.072 A 
ENDROOT
TORSDOF 0
ENDMDL
