MODEL 1
REMARK minimizedAffinity -4.19322348
REMARK minimizedRMSD -1
REMARK  0 active torsions:
REMARK  status: ('A' for Active; 'I' for Inactive)
ROOT
ATOM      1  C1  DEN d   1       6.000  -4.988  -3.412  0.00  0.00     0.130 A 
ATOM      2  C2  DEN d   1       4.975  -5.994  -3.144  0.00  0.00    -0.031 A 
ATOM      3  C3  DEN d   1       3.764  -5.626  -3.905  0.00  0.00     0.027 A 
ATOM      4  C4  DEN d   1       3.380  -3.610  -5.467  0.00  0.00     0.027 A 
ATOM      5  C5  DEN d   1       3.954  -2.476  -5.998  0.00  0.00    -0.003 A 
ATOM      6  C6  DEN d   1       5.228  -2.085  -5.681  0.00  0.00     0.001 A 
ATOM      7  C7  DEN d   1       5.986  -2.859  -4.842  0.00  0.00     0.017 A 
ATOM      8  C8  DEN d   1       5.412  -3.999  -4.297  0.00  0.00    -0.094 A 
ATOM      9  C9  DEN d   1       4.127  -4.384  -4.640  0.00  0.00    -0.072 A 
ENDROOT
TORSDOF 0
ENDMDL
