MODEL 1
REMARK minimizedAffinity -3.05311131
REMARK minimizedRMSD -1
REMARK  0 active torsions:
REMARK  status: ('A' for Active; 'I' for Inactive)
ROOT
ATOM      1  C1  DEN d   1       5.999  -4.783  -4.909  0.00  0.00     0.130 A 
ATOM      2  C2  DEN d   1       5.010  -5.560  -4.168  0.00  0.00    -0.031 A 
ATOM      3  C3  DEN d   1       3.831  -4.700  -3.941  0.00  0.00     0.027 A 
ATOM      4  C4  DEN d   1       3.441  -2.256  -4.668  0.00  0.00     0.027 A 
ATOM      5  C5  DEN d   1       3.999  -1.174  -5.311  0.00  0.00    -0.003 A 
ATOM      6  C6  DEN d   1       5.266  -1.207  -5.831  0.00  0.00     0.001 A 
ATOM      7  C7  DEN d   1       6.000  -2.361  -5.757  0.00  0.00     0.017 A 
ATOM      8  C8  DEN d   1       5.447  -3.454  -5.103  0.00  0.00    -0.094 A 
ATOM      9  C9  DEN d   1       4.160  -3.405  -4.595  0.00  0.00    -0.072 A 
ENDROOT
TORSDOF 0
ENDMDL
