MODEL 1
REMARK minimizedAffinity -4.24281549
REMARK minimizedRMSD -1
REMARK  0 active torsions:
REMARK  status: ('A' for Active; 'I' for Inactive)
ROOT
ATOM      1  C1  DEN d   1       3.833  -5.314  -4.952  0.00  0.00     0.130 A 
ATOM      2  C2  DEN d   1       4.951  -5.999  -4.308  0.00  0.00    -0.031 A 
ATOM      3  C3  DEN d   1       5.999  -4.998  -4.027  0.00  0.00     0.027 A 
ATOM      4  C4  DEN d   1       5.999  -2.466  -4.520  0.00  0.00     0.027 A 
ATOM      5  C5  DEN d   1       5.276  -1.429  -5.066  0.00  0.00    -0.003 A 
ATOM      6  C6  DEN d   1       4.046  -1.618  -5.638  0.00  0.00     0.001 A 
ATOM      7  C7  DEN d   1       3.482  -2.866  -5.637  0.00  0.00     0.017 A 
ATOM      8  C8  DEN d   1       4.208  -3.918  -5.095  0.00  0.00    -0.094 A 
ATOM      9  C9  DEN d   1       5.445  -3.705  -4.510  0.00  0.00    -0.072 A 
ENDROOT
TORSDOF 0
ENDMDL
