MODEL 1
REMARK minimizedAffinity 8.25944996
REMARK minimizedRMSD -1
REMARK  0 active torsions:
REMARK  status: ('A' for Active; 'I' for Inactive)
ROOT
ATOM      1  C   UNL d   1       0.012  -5.183  -4.650  0.00  0.00     0.124 A 
ATOM      2  C1  UNL d   1      -1.305  -5.597  -4.800  0.00  0.00     0.062 A 
ATOM      3  C2  UNL d   1      -2.168  -5.595  -3.708  0.00  0.00     0.162 A 
ATOM      4  C3  UNL d   1      -1.717  -5.177  -2.456  0.00  0.00    -0.034 A 
ATOM      5  C4  UNL d   1      -0.391  -4.764  -2.312  0.00  0.00     0.162 A 
ATOM      6  C5  UNL d   1       0.467  -4.767  -3.407  0.00  0.00     0.062 A 
ATOM      7  F   UNL d   1       1.739  -4.367  -3.260  0.00  0.00    -0.097 F 
ATOM      8  F1  UNL d   1       0.074  -4.356  -1.122  0.00  0.00    -0.096 F 
ATOM      9  I   UNL d   1      -3.004  -5.174  -0.820  0.00  0.00    -0.060 I 
ATOM     10  F2  UNL d   1      -3.434  -6.000  -3.882  0.00  0.00    -0.096 F 
ATOM     11  F3  UNL d   1      -1.747  -6.000  -6.000  0.00  0.00    -0.097 F 
ATOM     12  F4  UNL d   1       0.840  -5.186  -5.702  0.00  0.00    -0.092 F 
ENDROOT
TORSDOF 0
ENDMDL
