MODEL 1
REMARK minimizedAffinity 5.22224617
REMARK minimizedRMSD -1
REMARK  0 active torsions:
REMARK  status: ('A' for Active; 'I' for Inactive)
ROOT
ATOM      1  C   UNL d   1      -0.911  -5.281  -2.448  0.00  0.00     0.124 A 
ATOM      2  C1  UNL d   1       0.442  -5.227  -2.147  0.00  0.00     0.062 A 
ATOM      3  C2  UNL d   1       1.390  -5.432  -3.146  0.00  0.00     0.162 A 
ATOM      4  C3  UNL d   1       0.988  -5.691  -4.456  0.00  0.00    -0.034 A 
ATOM      5  C4  UNL d   1      -0.376  -5.745  -4.751  0.00  0.00     0.162 A 
ATOM      6  C5  UNL d   1      -1.319  -5.540  -3.749  0.00  0.00     0.062 A 
ATOM      7  F   UNL d   1      -2.627  -5.592  -4.042  0.00  0.00    -0.097 F 
ATOM      8  F1  UNL d   1      -0.798  -5.993  -6.000  0.00  0.00    -0.096 F 
ATOM      9  I   UNL d   1       2.402  -5.998  -5.952  0.00  0.00    -0.060 I 
ATOM     10  F2  UNL d   1       2.692  -5.374  -2.826  0.00  0.00    -0.096 F 
ATOM     11  F3  UNL d   1       0.839  -4.978  -0.891  0.00  0.00    -0.097 F 
ATOM     12  F4  UNL d   1      -1.821  -5.084  -1.486  0.00  0.00    -0.092 F 
ENDROOT
TORSDOF 0
ENDMDL
