MODEL 1
REMARK minimizedAffinity 11.7750816
REMARK minimizedRMSD -1
REMARK  0 active torsions:
REMARK  status: ('A' for Active; 'I' for Inactive)
ROOT
ATOM      1  C   UNL d   1       1.559  -5.981  -3.607  0.00  0.00     0.124 A 
ATOM      2  C1  UNL d   1       0.748  -5.983  -4.733  0.00  0.00     0.062 A 
ATOM      3  C2  UNL d   1      -0.638  -5.988  -4.598  0.00  0.00     0.162 A 
ATOM      4  C3  UNL d   1      -1.221  -5.990  -3.331  0.00  0.00    -0.034 A 
ATOM      5  C4  UNL d   1      -0.398  -5.988  -2.203  0.00  0.00     0.162 A 
ATOM      6  C5  UNL d   1       0.986  -5.983  -2.344  0.00  0.00     0.062 A 
ATOM      7  F   UNL d   1       1.768  -5.981  -1.255  0.00  0.00    -0.097 F 
ATOM      8  F1  UNL d   1      -0.925  -5.990  -0.970  0.00  0.00    -0.096 F 
ATOM      9  I   UNL d   1      -3.292  -5.997  -3.124  0.00  0.00    -0.060 I 
ATOM     10  F2  UNL d   1      -1.397  -5.991  -5.703  0.00  0.00    -0.096 F 
ATOM     11  F3  UNL d   1       1.299  -5.982  -5.956  0.00  0.00    -0.097 F 
ATOM     12  F4  UNL d   1       2.892  -5.977  -3.741  0.00  0.00    -0.092 F 
ENDROOT
TORSDOF 0
ENDMDL
