MODEL 1
REMARK minimizedAffinity 14.5649977
REMARK minimizedRMSD -1
REMARK  0 active torsions:
REMARK  status: ('A' for Active; 'I' for Inactive)
ROOT
ATOM      1  C   UNL d   1       0.937  -1.527   0.309  0.00  0.00     0.124 A 
ATOM      2  C1  UNL d   1      -0.051  -2.389   0.766  0.00  0.00     0.062 A 
ATOM      3  C2  UNL d   1      -0.323  -2.483   2.127  0.00  0.00     0.162 A 
ATOM      4  C3  UNL d   1       0.393  -1.711   3.043  0.00  0.00    -0.034 A 
ATOM      5  C4  UNL d   1       1.385  -0.847   2.576  0.00  0.00     0.162 A 
ATOM      6  C5  UNL d   1       1.653  -0.757   1.214  0.00  0.00     0.062 A 
ATOM      7  F   UNL d   1       2.607   0.076   0.775  0.00  0.00    -0.097 F 
ATOM      8  F1  UNL d   1       2.092  -0.091   3.429  0.00  0.00    -0.096 F 
ATOM      9  I   UNL d   1      -0.011  -1.849   5.080  0.00  0.00    -0.060 I 
ATOM     10  F2  UNL d   1      -1.282  -3.324   2.540  0.00  0.00    -0.096 F 
ATOM     11  F3  UNL d   1      -0.744  -3.135  -0.107  0.00  0.00    -0.097 F 
ATOM     12  F4  UNL d   1       1.197  -1.440  -1.002  0.00  0.00    -0.092 F 
ENDROOT
TORSDOF 0
ENDMDL
