MODEL 1
REMARK minimizedAffinity 14.1732378
REMARK minimizedRMSD -1
REMARK  0 active torsions:
REMARK  status: ('A' for Active; 'I' for Inactive)
ROOT
ATOM      1  C   UNL d   1       1.181  -2.028   0.970  0.00  0.00     0.124 A 
ATOM      2  C1  UNL d   1       1.205  -0.648   0.818  0.00  0.00     0.062 A 
ATOM      3  C2  UNL d   1       0.019   0.059   0.649  0.00  0.00     0.162 A 
ATOM      4  C3  UNL d   1      -1.204  -0.612   0.632  0.00  0.00    -0.034 A 
ATOM      5  C4  UNL d   1      -1.221  -2.000   0.784  0.00  0.00     0.162 A 
ATOM      6  C5  UNL d   1      -0.032  -2.702   0.953  0.00  0.00     0.062 A 
ATOM      7  F   UNL d   1      -0.058  -4.035   1.100  0.00  0.00    -0.097 F 
ATOM      8  F1  UNL d   1      -2.379  -2.676   0.773  0.00  0.00    -0.096 F 
ATOM      9  I   UNL d   1      -2.981   0.442   0.379  0.00  0.00    -0.060 I 
ATOM     10  F2  UNL d   1       0.073   1.391   0.504  0.00  0.00    -0.096 F 
ATOM     11  F3  UNL d   1       2.376   0.005   0.832  0.00  0.00    -0.097 F 
ATOM     12  F4  UNL d   1       2.324  -2.706   1.131  0.00  0.00    -0.092 F 
ENDROOT
TORSDOF 0
ENDMDL
