MODEL 1
REMARK minimizedAffinity 8.05136585
REMARK minimizedRMSD -1
REMARK  0 active torsions:
REMARK  status: ('A' for Active; 'I' for Inactive)
ROOT
ATOM      1  C   UNL d   1      -0.343  -5.971  -4.072  0.00  0.00     0.124 A 
ATOM      2  C1  UNL d   1      -0.224  -5.972  -2.689  0.00  0.00     0.062 A 
ATOM      3  C2  UNL d   1      -1.363  -5.976  -1.889  0.00  0.00     0.162 A 
ATOM      4  C3  UNL d   1      -2.632  -5.979  -2.470  0.00  0.00    -0.034 A 
ATOM      5  C4  UNL d   1      -2.742  -5.977  -3.862  0.00  0.00     0.162 A 
ATOM      6  C5  UNL d   1      -1.601  -5.974  -4.657  0.00  0.00     0.062 A 
ATOM      7  F   UNL d   1      -1.717  -5.973  -5.993  0.00  0.00    -0.097 F 
ATOM      8  F1  UNL d   1      -3.946  -5.981  -4.454  0.00  0.00    -0.096 F 
ATOM      9  I   UNL d   1      -4.337  -5.984  -1.278  0.00  0.00    -0.060 I 
ATOM     10  F2  UNL d   1      -1.219  -5.977  -0.556  0.00  0.00    -0.096 F 
ATOM     11  F3  UNL d   1       0.990  -5.969  -2.121  0.00  0.00    -0.097 F 
ATOM     12  F4  UNL d   1       0.755  -5.967  -4.839  0.00  0.00    -0.092 F 
ENDROOT
TORSDOF 0
ENDMDL
