MODEL 1
REMARK minimizedAffinity 9.40451241
REMARK minimizedRMSD -1
REMARK  0 active torsions:
REMARK  status: ('A' for Active; 'I' for Inactive)
ROOT
ATOM      1  C   UNL d   1       3.500   4.866   0.666  0.00  0.00     0.124 A 
ATOM      2  C1  UNL d   1       2.170   4.686   1.020  0.00  0.00     0.062 A 
ATOM      3  C2  UNL d   1       1.508   3.510   0.681  0.00  0.00     0.162 A 
ATOM      4  C3  UNL d   1       2.175   2.502  -0.016  0.00  0.00    -0.034 A 
ATOM      5  C4  UNL d   1       3.513   2.691  -0.370  0.00  0.00     0.162 A 
ATOM      6  C5  UNL d   1       4.170   3.869  -0.028  0.00  0.00     0.062 A 
ATOM      7  F   UNL d   1       5.455   4.041  -0.372  0.00  0.00    -0.097 F 
ATOM      8  F1  UNL d   1       4.185   1.743  -1.040  0.00  0.00    -0.096 F 
ATOM      9  I   UNL d   1       1.190   0.742  -0.525  0.00  0.00    -0.060 I 
ATOM     10  F2  UNL d   1       0.223   3.363   1.036  0.00  0.00    -0.096 F 
ATOM     11  F3  UNL d   1       1.520   5.649   1.690  0.00  0.00    -0.097 F 
ATOM     12  F4  UNL d   1       4.134   6.000   0.992  0.00  0.00    -0.092 F 
ENDROOT
TORSDOF 0
ENDMDL
