MODEL 1
REMARK minimizedAffinity 9.70169353
REMARK minimizedRMSD -1
REMARK  0 active torsions:
REMARK  status: ('A' for Active; 'I' for Inactive)
ROOT
ATOM      1  C   UNL d   1       0.414  -5.974  -3.624  0.00  0.00     0.124 A 
ATOM      2  C1  UNL d   1      -0.272  -5.971  -2.417  0.00  0.00     0.062 A 
ATOM      3  C2  UNL d   1      -1.664  -5.978  -2.403  0.00  0.00     0.162 A 
ATOM      4  C3  UNL d   1      -2.380  -5.988  -3.600  0.00  0.00    -0.034 A 
ATOM      5  C4  UNL d   1      -1.683  -5.989  -4.810  0.00  0.00     0.162 A 
ATOM      6  C5  UNL d   1      -0.292  -5.982  -4.819  0.00  0.00     0.062 A 
ATOM      7  F   UNL d   1       0.369  -5.984  -5.985  0.00  0.00    -0.097 F 
ATOM      8  F1  UNL d   1      -2.340  -5.998  -5.979  0.00  0.00    -0.096 F 
ATOM      9  I   UNL d   1      -4.461  -5.998  -3.583  0.00  0.00    -0.060 I 
ATOM     10  F2  UNL d   1      -2.301  -5.976  -1.222  0.00  0.00    -0.096 F 
ATOM     11  F3  UNL d   1       0.407  -5.962  -1.261  0.00  0.00    -0.097 F 
ATOM     12  F4  UNL d   1       1.753  -5.966  -3.634  0.00  0.00    -0.092 F 
ENDROOT
TORSDOF 0
ENDMDL
