MODEL 1
REMARK minimizedAffinity 3.99170995
REMARK minimizedRMSD -1
REMARK  0 active torsions:
REMARK  status: ('A' for Active; 'I' for Inactive)
ROOT
ATOM      1  C   UNL d   1      -2.756  -5.947  -2.376  0.00  0.00     0.124 A 
ATOM      2  C1  UNL d   1      -3.183  -5.919  -3.697  0.00  0.00     0.062 A 
ATOM      3  C2  UNL d   1      -2.254  -5.918  -4.733  0.00  0.00     0.162 A 
ATOM      4  C3  UNL d   1      -0.887  -5.945  -4.453  0.00  0.00    -0.034 A 
ATOM      5  C4  UNL d   1      -0.466  -5.972  -3.122  0.00  0.00     0.162 A 
ATOM      6  C5  UNL d   1      -1.399  -5.973  -2.090  0.00  0.00     0.062 A 
ATOM      7  F   UNL d   1      -0.985  -5.999  -0.815  0.00  0.00    -0.097 F 
ATOM      8  F1  UNL d   1       0.840  -5.998  -2.817  0.00  0.00    -0.096 F 
ATOM      9  I   UNL d   1       0.506  -5.943  -5.999  0.00  0.00    -0.060 I 
ATOM     10  F2  UNL d   1      -2.694  -5.891  -5.999  0.00  0.00    -0.096 F 
ATOM     11  F3  UNL d   1      -4.494  -5.893  -3.976  0.00  0.00    -0.097 F 
ATOM     12  F4  UNL d   1      -3.653  -5.947  -1.381  0.00  0.00    -0.092 F 
ENDROOT
TORSDOF 0
ENDMDL
