MODEL 1
REMARK minimizedAffinity 1.36823201
REMARK minimizedRMSD -1
REMARK  0 active torsions:
REMARK  status: ('A' for Active; 'I' for Inactive)
ROOT
ATOM      1  C   UNL d   1       0.900  -5.969  -3.706  0.00  0.00     0.124 A 
ATOM      2  C1  UNL d   1       0.512  -5.973  -2.374  0.00  0.00     0.062 A 
ATOM      3  C2  UNL d   1      -0.838  -5.981  -2.037  0.00  0.00     0.162 A 
ATOM      4  C3  UNL d   1      -1.812  -5.987  -3.036  0.00  0.00    -0.034 A 
ATOM      5  C4  UNL d   1      -1.415  -5.983  -4.374  0.00  0.00     0.162 A 
ATOM      6  C5  UNL d   1      -0.064  -5.974  -4.705  0.00  0.00     0.062 A 
ATOM      7  F   UNL d   1       0.308  -5.971  -5.993  0.00  0.00    -0.097 F 
ATOM      8  F1  UNL d   1      -2.325  -5.988  -5.359  0.00  0.00    -0.096 F 
ATOM      9  I   UNL d   1      -3.833  -5.999  -2.537  0.00  0.00    -0.060 I 
ATOM     10  F2  UNL d   1      -1.184  -5.984  -0.741  0.00  0.00    -0.096 F 
ATOM     11  F3  UNL d   1       1.441  -5.967  -1.407  0.00  0.00    -0.097 F 
ATOM     12  F4  UNL d   1       2.200  -5.960  -4.027  0.00  0.00    -0.092 F 
ENDROOT
TORSDOF 0
ENDMDL
