MODEL 1
REMARK minimizedAffinity 13.811677
REMARK minimizedRMSD -1
REMARK  0 active torsions:
REMARK  status: ('A' for Active; 'I' for Inactive)
ROOT
ATOM      1  C   UNL d   1      -1.255  -2.297   0.814  0.00  0.00     0.124 A 
ATOM      2  C1  UNL d   1      -1.196  -0.928   0.589  0.00  0.00     0.062 A 
ATOM      3  C2  UNL d   1       0.036  -0.287   0.497  0.00  0.00     0.162 A 
ATOM      4  C3  UNL d   1       1.219  -1.014   0.628  0.00  0.00    -0.034 A 
ATOM      5  C4  UNL d   1       1.152  -2.390   0.855  0.00  0.00     0.162 A 
ATOM      6  C5  UNL d   1      -0.082  -3.026   0.946  0.00  0.00     0.062 A 
ATOM      7  F   UNL d   1      -0.137  -4.348   1.163  0.00  0.00    -0.097 F 
ATOM      8  F1  UNL d   1       2.270  -3.119   0.985  0.00  0.00    -0.096 F 
ATOM      9  I   UNL d   1       3.063  -0.059   0.490  0.00  0.00    -0.060 I 
ATOM     10  F2  UNL d   1       0.063   1.036   0.279  0.00  0.00    -0.096 F 
ATOM     11  F3  UNL d   1      -2.328  -0.222   0.462  0.00  0.00    -0.097 F 
ATOM     12  F4  UNL d   1      -2.442  -2.911   0.903  0.00  0.00    -0.092 F 
ENDROOT
TORSDOF 0
ENDMDL
