MODEL 1
REMARK minimizedAffinity 15.0190582
REMARK minimizedRMSD -1
REMARK  0 active torsions:
REMARK  status: ('A' for Active; 'I' for Inactive)
ROOT
ATOM      1  C   UNL d   1       2.487   2.940   0.053  0.00  0.00     0.124 A 
ATOM      2  C1  UNL d   1       1.141   2.807   0.365  0.00  0.00     0.062 A 
ATOM      3  C2  UNL d   1       0.587   1.544   0.550  0.00  0.00     0.162 A 
ATOM      4  C3  UNL d   1       1.378   0.403   0.424  0.00  0.00    -0.034 A 
ATOM      5  C4  UNL d   1       2.731   0.544   0.108  0.00  0.00     0.162 A 
ATOM      6  C5  UNL d   1       3.280   1.808  -0.075  0.00  0.00     0.062 A 
ATOM      7  F   UNL d   1       4.581   1.935  -0.377  0.00  0.00    -0.097 F 
ATOM      8  F1  UNL d   1       3.521  -0.533  -0.021  0.00  0.00    -0.096 F 
ATOM      9  I   UNL d   1       0.553  -1.488   0.699  0.00  0.00    -0.060 I 
ATOM     10  F2  UNL d   1      -0.717   1.446   0.851  0.00  0.00    -0.096 F 
ATOM     11  F3  UNL d   1       0.373   3.899   0.489  0.00  0.00    -0.097 F 
ATOM     12  F4  UNL d   1       3.018   4.156  -0.125  0.00  0.00    -0.092 F 
ENDROOT
TORSDOF 0
ENDMDL
