MODEL 1
REMARK minimizedAffinity 11.7001791
REMARK minimizedRMSD -1
REMARK  0 active torsions:
REMARK  status: ('A' for Active; 'I' for Inactive)
ROOT
ATOM      1  C   UNL d   1       1.169  -5.979  -3.677  0.00  0.00     0.124 A 
ATOM      2  C1  UNL d   1       0.704  -5.980  -2.369  0.00  0.00     0.062 A 
ATOM      3  C2  UNL d   1      -0.664  -5.982  -2.111  0.00  0.00     0.162 A 
ATOM      4  C3  UNL d   1      -1.578  -5.985  -3.165  0.00  0.00    -0.034 A 
ATOM      5  C4  UNL d   1      -1.103  -5.983  -4.478  0.00  0.00     0.162 A 
ATOM      6  C5  UNL d   1       0.265  -5.980  -4.730  0.00  0.00     0.062 A 
ATOM      7  F   UNL d   1       0.712  -5.979  -5.994  0.00  0.00    -0.097 F 
ATOM      8  F1  UNL d   1      -1.955  -5.985  -5.514  0.00  0.00    -0.096 F 
ATOM      9  I   UNL d   1      -3.624  -5.989  -2.785  0.00  0.00    -0.060 I 
ATOM     10  F2  UNL d   1      -1.084  -5.984  -0.838  0.00  0.00    -0.096 F 
ATOM     11  F3  UNL d   1       1.575  -5.977  -1.349  0.00  0.00    -0.097 F 
ATOM     12  F4  UNL d   1       2.485  -5.975  -3.921  0.00  0.00    -0.092 F 
ENDROOT
TORSDOF 0
ENDMDL
