MODEL 1
REMARK minimizedAffinity 10.1241837
REMARK minimizedRMSD -1
REMARK  0 active torsions:
REMARK  status: ('A' for Active; 'I' for Inactive)
ROOT
ATOM      1  C   UNL d   1      -2.157  -5.897  -2.373  0.00  0.00     0.124 A 
ATOM      2  C1  UNL d   1      -0.799  -5.867  -2.086  0.00  0.00     0.062 A 
ATOM      3  C2  UNL d   1       0.134  -5.881  -3.119  0.00  0.00     0.162 A 
ATOM      4  C3  UNL d   1      -0.287  -5.925  -4.448  0.00  0.00    -0.034 A 
ATOM      5  C4  UNL d   1      -1.654  -5.956  -4.728  0.00  0.00     0.162 A 
ATOM      6  C5  UNL d   1      -2.583  -5.941  -3.692  0.00  0.00     0.062 A 
ATOM      7  F   UNL d   1      -3.895  -5.971  -3.971  0.00  0.00    -0.097 F 
ATOM      8  F1  UNL d   1      -2.094  -5.998  -5.994  0.00  0.00    -0.096 F 
ATOM      9  I   UNL d   1       1.106  -5.947  -5.994  0.00  0.00    -0.060 I 
ATOM     10  F2  UNL d   1       1.440  -5.851  -2.813  0.00  0.00    -0.096 F 
ATOM     11  F3  UNL d   1      -0.385  -5.824  -0.812  0.00  0.00    -0.097 F 
ATOM     12  F4  UNL d   1      -3.053  -5.884  -1.377  0.00  0.00    -0.092 F 
ENDROOT
TORSDOF 0
ENDMDL
