MODEL 1
REMARK minimizedAffinity 13.655798
REMARK minimizedRMSD -1
REMARK  0 active torsions:
REMARK  status: ('A' for Active; 'I' for Inactive)
ROOT
ATOM      1  C   UNL d   1       1.726  -0.030   0.382  0.00  0.00     0.124 A 
ATOM      2  C1  UNL d   1       1.849  -1.268   0.997  0.00  0.00     0.062 A 
ATOM      3  C2  UNL d   1       0.754  -2.124   1.072  0.00  0.00     0.162 A 
ATOM      4  C3  UNL d   1      -0.474  -1.745   0.530  0.00  0.00    -0.034 A 
ATOM      5  C4  UNL d   1      -0.590  -0.497  -0.085  0.00  0.00     0.162 A 
ATOM      6  C5  UNL d   1       0.507   0.355  -0.158  0.00  0.00     0.062 A 
ATOM      7  F   UNL d   1       0.387   1.551  -0.752  0.00  0.00    -0.097 F 
ATOM      8  F1  UNL d   1      -1.756  -0.101  -0.616  0.00  0.00    -0.096 F 
ATOM      9  I   UNL d   1      -2.114  -3.021   0.641  0.00  0.00    -0.060 I 
ATOM     10  F2  UNL d   1       0.901  -3.315   1.672  0.00  0.00    -0.096 F 
ATOM     11  F3  UNL d   1       3.026  -1.642   1.521  0.00  0.00    -0.097 F 
ATOM     12  F4  UNL d   1       2.782   0.792   0.312  0.00  0.00    -0.092 F 
ENDROOT
TORSDOF 0
ENDMDL
