MODEL 1
REMARK minimizedAffinity -4.84065771
REMARK minimizedRMSD -1
REMARK  0 active torsions:
REMARK  status: ('A' for Active; 'I' for Inactive)
ROOT
ATOM      1  C2' OXE d   1      -0.367   0.489   0.152  0.00  0.00     0.078 C 
ATOM      2  C1' OXE d   1       1.810  -1.277   0.011  0.00  0.00     0.078 C 
ATOM      3  C1  OXE d   1       0.800  -1.492   1.110  0.00  0.00    -0.078 A 
ATOM      4  C2  OXE d   1      -0.237  -0.595   1.200  0.00  0.00    -0.078 A 
ATOM      5  C3  OXE d   1      -1.227  -0.779   2.162  0.00  0.00     0.003 A 
ATOM      6  C4  OXE d   1      -1.093  -1.778   3.134  0.00  0.00    -0.002 A 
ATOM      7  C5  OXE d   1      -0.024  -2.678   3.085  0.00  0.00    -0.002 A 
ATOM      8  C6  OXE d   1       0.907  -2.575   2.056  0.00  0.00     0.003 A 
ENDROOT
TORSDOF 0
ENDMDL
