MODEL 1
REMARK minimizedAffinity -4.2793293
REMARK minimizedRMSD -1
REMARK  0 active torsions:
REMARK  status: ('A' for Active; 'I' for Inactive)
ROOT
ATOM      1  C2' OXE d   1      -0.379   1.081   0.027  0.00  0.00     0.078 C 
ATOM      2  C1' OXE d   1      -0.987  -0.762   2.055  0.00  0.00     0.078 C 
ATOM      3  C1  OXE d   1       0.090  -1.133   1.067  0.00  0.00    -0.078 A 
ATOM      4  C2  OXE d   1       0.348  -0.246   0.050  0.00  0.00    -0.078 A 
ATOM      5  C3  OXE d   1       1.370  -0.515  -0.857  0.00  0.00     0.003 A 
ATOM      6  C4  OXE d   1       2.030  -1.749  -0.834  0.00  0.00    -0.002 A 
ATOM      7  C5  OXE d   1       1.755  -2.684   0.169  0.00  0.00    -0.002 A 
ATOM      8  C6  OXE d   1       0.819  -2.375   1.150  0.00  0.00     0.003 A 
ENDROOT
TORSDOF 0
ENDMDL
