MODEL 1
REMARK minimizedAffinity -5.16450119
REMARK minimizedRMSD -1
REMARK  0 active torsions:
REMARK  status: ('A' for Active; 'I' for Inactive)
ROOT
ATOM      1  C2' OXE d   1      -1.135  -1.046   1.600  0.00  0.00     0.078 C 
ATOM      2  C1' OXE d   1      -0.482   1.288   0.184  0.00  0.00     0.078 C 
ATOM      3  C1  OXE d   1       0.601   0.255   0.375  0.00  0.00    -0.078 A 
ATOM      4  C2  OXE d   1       0.285  -0.862   1.109  0.00  0.00    -0.078 A 
ATOM      5  C3  OXE d   1       1.231  -1.872   1.269  0.00  0.00     0.003 A 
ATOM      6  C4  OXE d   1       2.544  -1.690   0.820  0.00  0.00    -0.002 A 
ATOM      7  C5  OXE d   1       2.898  -0.541   0.104  0.00  0.00    -0.002 A 
ATOM      8  C6  OXE d   1       1.929   0.420  -0.163  0.00  0.00     0.003 A 
ENDROOT
TORSDOF 0
ENDMDL
