MODEL 1
REMARK minimizedAffinity -3.31900764
REMARK minimizedRMSD -1
REMARK  0 active torsions:
REMARK  status: ('A' for Active; 'I' for Inactive)
ROOT
ATOM      1  C2' OXE d   1       0.101  -0.464   0.095  0.00  0.00     0.078 C 
ATOM      2  C1' OXE d   1       1.585   1.888   0.480  0.00  0.00     0.078 C 
ATOM      3  C1  OXE d   1       0.615   1.849  -0.675  0.00  0.00    -0.078 A 
ATOM      4  C2  OXE d   1      -0.072   0.677  -0.884  0.00  0.00    -0.078 A 
ATOM      5  C3  OXE d   1      -1.019   0.606  -1.901  0.00  0.00     0.003 A 
ATOM      6  C4  OXE d   1      -1.167   1.662  -2.808  0.00  0.00    -0.002 A 
ATOM      7  C5  OXE d   1      -0.448   2.850  -2.637  0.00  0.00    -0.002 A 
ATOM      8  C6  OXE d   1       0.414   2.975  -1.553  0.00  0.00     0.003 A 
ENDROOT
TORSDOF 0
ENDMDL
