MODEL 1
REMARK minimizedAffinity -5.33228445
REMARK minimizedRMSD -1
REMARK  0 active torsions:
REMARK  status: ('A' for Active; 'I' for Inactive)
ROOT
ATOM      1  C2' OXE d   1       2.639   1.103  -0.275  0.00  0.00     0.078 C 
ATOM      2  C1' OXE d   1      -0.148   0.878  -0.528  0.00  0.00     0.078 C 
ATOM      3  C1  OXE d   1       0.604  -0.299   0.043  0.00  0.00    -0.078 A 
ATOM      4  C2  OXE d   1       1.972  -0.197   0.120  0.00  0.00    -0.078 A 
ATOM      5  C3  OXE d   1       2.709  -1.232   0.689  0.00  0.00     0.003 A 
ATOM      6  C4  OXE d   1       2.086  -2.435   1.042  0.00  0.00    -0.002 A 
ATOM      7  C5  OXE d   1       0.698  -2.574   0.935  0.00  0.00    -0.002 A 
ATOM      8  C6  OXE d   1      -0.061  -1.502   0.478  0.00  0.00     0.003 A 
ENDROOT
TORSDOF 0
ENDMDL
