MODEL 1
REMARK minimizedAffinity -3.32448196
REMARK minimizedRMSD -1
REMARK  0 active torsions:
REMARK  status: ('A' for Active; 'I' for Inactive)
ROOT
ATOM      1  C2' OXE d   1       1.264  -3.450   1.170  0.00  0.00     0.078 C 
ATOM      2  C1' OXE d   1       3.150  -1.386   0.920  0.00  0.00     0.078 C 
ATOM      3  C1  OXE d   1       1.724  -1.088   0.527  0.00  0.00    -0.078 A 
ATOM      4  C2  OXE d   1       0.818  -2.117   0.608  0.00  0.00    -0.078 A 
ATOM      5  C3  OXE d   1      -0.521  -1.881   0.310  0.00  0.00     0.003 A 
ATOM      6  C4  OXE d   1      -0.924  -0.649  -0.218  0.00  0.00    -0.002 A 
ATOM      7  C5  OXE d   1      -0.008   0.401  -0.347  0.00  0.00    -0.002 A 
ATOM      8  C6  OXE d   1       1.308   0.212   0.061  0.00  0.00     0.003 A 
ENDROOT
TORSDOF 0
ENDMDL
