MODEL 1
REMARK minimizedAffinity -4.51675558
REMARK minimizedRMSD -1
REMARK  0 active torsions:
REMARK  status: ('A' for Active; 'I' for Inactive)
ROOT
ATOM      1  C2' OXE d   1       1.335  -2.753   1.129  0.00  0.00     0.078 C 
ATOM      2  C1' OXE d   1      -1.218  -1.731   1.691  0.00  0.00     0.078 C 
ATOM      3  C1  OXE d   1      -0.305  -0.903   0.823  0.00  0.00    -0.078 A 
ATOM      4  C2  OXE d   1       0.960  -1.389   0.591  0.00  0.00    -0.078 A 
ATOM      5  C3  OXE d   1       1.824  -0.691  -0.248  0.00  0.00     0.003 A 
ATOM      6  C4  OXE d   1       1.473   0.574  -0.733  0.00  0.00    -0.002 A 
ATOM      7  C5  OXE d   1       0.204   1.106  -0.476  0.00  0.00    -0.002 A 
ATOM      8  C6  OXE d   1      -0.709   0.363   0.263  0.00  0.00     0.003 A 
ENDROOT
TORSDOF 0
ENDMDL
