MODEL 1
REMARK minimizedAffinity -3.27196956
REMARK minimizedRMSD -1
REMARK  0 active torsions:
REMARK  status: ('A' for Active; 'I' for Inactive)
ROOT
ATOM      1  C2' OXE d   1      -1.477  -0.821   1.747  0.00  0.00     0.078 C 
ATOM      2  C1' OXE d   1      -0.172   0.949   0.003  0.00  0.00     0.078 C 
ATOM      3  C1  OXE d   1       0.521  -0.348   0.336  0.00  0.00    -0.078 A 
ATOM      4  C2  OXE d   1      -0.104  -1.188   1.227  0.00  0.00    -0.078 A 
ATOM      5  C3  OXE d   1       0.466  -2.422   1.527  0.00  0.00     0.003 A 
ATOM      6  C4  OXE d   1       1.741  -2.748   1.050  0.00  0.00    -0.002 A 
ATOM      7  C5  OXE d   1       2.413  -1.890   0.173  0.00  0.00    -0.002 A 
ATOM      8  C6  OXE d   1       1.799  -0.708  -0.226  0.00  0.00     0.003 A 
ENDROOT
TORSDOF 0
ENDMDL
