MODEL 1
REMARK minimizedAffinity -2.16236353
REMARK minimizedRMSD -1
REMARK  0 active torsions:
REMARK  status: ('A' for Active; 'I' for Inactive)
ROOT
ATOM      1  C2' OXE d   1      -0.700  -1.026   2.311  0.00  0.00     0.078 C 
ATOM      2  C1' OXE d   1       1.953  -1.466   1.507  0.00  0.00     0.078 C 
ATOM      3  C1  OXE d   1       1.073  -0.639   0.604  0.00  0.00    -0.078 A 
ATOM      4  C2  OXE d   1      -0.237  -0.468   0.983  0.00  0.00    -0.078 A 
ATOM      5  C3  OXE d   1      -1.078   0.332   0.214  0.00  0.00     0.003 A 
ATOM      6  C4  OXE d   1      -0.645   0.836  -1.019  0.00  0.00    -0.002 A 
ATOM      7  C5  OXE d   1       0.674   0.640  -1.442  0.00  0.00    -0.002 A 
ATOM      8  C6  OXE d   1       1.556  -0.058  -0.624  0.00  0.00     0.003 A 
ENDROOT
TORSDOF 0
ENDMDL
