MODEL 1
REMARK minimizedAffinity -3.93109822
REMARK minimizedRMSD -1
REMARK  0 active torsions:
REMARK  status: ('A' for Active; 'I' for Inactive)
ROOT
ATOM      1  C2' OXE d   1       2.991  -0.884   1.123  0.00  0.00     0.078 C 
ATOM      2  C1' OXE d   1       1.101  -2.956   0.990  0.00  0.00     0.078 C 
ATOM      3  C1  OXE d   1       0.719  -1.617   0.410  0.00  0.00    -0.078 A 
ATOM      4  C2  OXE d   1       1.632  -0.596   0.521  0.00  0.00    -0.078 A 
ATOM      5  C3  OXE d   1       1.352   0.644  -0.046  0.00  0.00     0.003 A 
ATOM      6  C4  OXE d   1       0.090   0.904  -0.592  0.00  0.00    -0.002 A 
ATOM      7  C5  OXE d   1      -0.869  -0.110  -0.680  0.00  0.00    -0.002 A 
ATOM      8  C6  OXE d   1      -0.556  -1.385  -0.223  0.00  0.00     0.003 A 
ENDROOT
TORSDOF 0
ENDMDL
