MODEL 1
REMARK minimizedAffinity -2.81553078
REMARK minimizedRMSD -1
REMARK  0 active torsions:
REMARK  status: ('A' for Active; 'I' for Inactive)
ROOT
ATOM      1  C2' OXE d   1       2.423   1.216   0.071  0.00  0.00     0.078 C 
ATOM      2  C1' OXE d   1       2.367  -1.262   1.390  0.00  0.00     0.078 C 
ATOM      3  C1  OXE d   1       1.055  -0.687   0.917  0.00  0.00    -0.078 A 
ATOM      4  C2  OXE d   1       1.087   0.548   0.314  0.00  0.00    -0.078 A 
ATOM      5  C3  OXE d   1      -0.088   1.100  -0.190  0.00  0.00     0.003 A 
ATOM      6  C4  OXE d   1      -1.321   0.480   0.048  0.00  0.00    -0.002 A 
ATOM      7  C5  OXE d   1      -1.380  -0.759   0.695  0.00  0.00    -0.002 A 
ATOM      8  C6  OXE d   1      -0.199  -1.375   1.097  0.00  0.00     0.003 A 
ENDROOT
TORSDOF 0
ENDMDL
