MODEL 1
REMARK minimizedAffinity -4.94080734
REMARK minimizedRMSD -1
REMARK  0 active torsions:
REMARK  status: ('A' for Active; 'I' for Inactive)
ROOT
ATOM      1  C2' OXE d   1      -1.163  -1.844   2.062  0.00  0.00     0.078 C 
ATOM      2  C1' OXE d   1       1.281  -2.730   1.003  0.00  0.00     0.078 C 
ATOM      3  C1  OXE d   1       0.772  -1.379   0.564  0.00  0.00    -0.078 A 
ATOM      4  C2  OXE d   1      -0.447  -0.974   1.051  0.00  0.00    -0.078 A 
ATOM      5  C3  OXE d   1      -0.937   0.286   0.721  0.00  0.00     0.003 A 
ATOM      6  C4  OXE d   1      -0.274   1.080  -0.223  0.00  0.00    -0.002 A 
ATOM      7  C5  OXE d   1       0.950   0.669  -0.762  0.00  0.00    -0.002 A 
ATOM      8  C6  OXE d   1       1.507  -0.536  -0.348  0.00  0.00     0.003 A 
ENDROOT
TORSDOF 0
ENDMDL
