MODEL 1
REMARK minimizedAffinity -3.49975562
REMARK minimizedRMSD -1
REMARK  0 active torsions:
REMARK  status: ('A' for Active; 'I' for Inactive)
ROOT
ATOM      1  C2' OXE d   1      -1.397  -1.801   2.164  0.00  0.00     0.078 C 
ATOM      2  C1' OXE d   1       1.025  -2.750   1.109  0.00  0.00     0.078 C 
ATOM      3  C1  OXE d   1       0.580  -1.364   0.713  0.00  0.00    -0.078 A 
ATOM      4  C2  OXE d   1      -0.629  -0.926   1.197  0.00  0.00    -0.078 A 
ATOM      5  C3  OXE d   1      -1.060   0.366   0.908  0.00  0.00     0.003 A 
ATOM      6  C4  OXE d   1      -0.349   1.165   0.005  0.00  0.00    -0.002 A 
ATOM      7  C5  OXE d   1       0.865   0.723  -0.531  0.00  0.00    -0.002 A 
ATOM      8  C6  OXE d   1       1.364  -0.520  -0.154  0.00  0.00     0.003 A 
ENDROOT
TORSDOF 0
ENDMDL
