MODEL 1
REMARK minimizedAffinity -5.73389101
REMARK minimizedRMSD -1
REMARK  0 active torsions:
REMARK  status: ('A' for Active; 'I' for Inactive)
ROOT
ATOM      1  C2' OXE d   1      -0.260   0.778   0.462  0.00  0.00     0.078 C 
ATOM      2  C1' OXE d   1      -1.121  -1.535   1.799  0.00  0.00     0.078 C 
ATOM      3  C1  OXE d   1       0.205  -1.589   1.083  0.00  0.00    -0.078 A 
ATOM      4  C2  OXE d   1       0.597  -0.468   0.392  0.00  0.00    -0.078 A 
ATOM      5  C3  OXE d   1       1.836  -0.446  -0.241  0.00  0.00     0.003 A 
ATOM      6  C4  OXE d   1       2.618  -1.606  -0.309  0.00  0.00    -0.002 A 
ATOM      7  C5  OXE d   1       2.218  -2.771   0.354  0.00  0.00    -0.002 A 
ATOM      8  C6  OXE d   1       1.037  -2.767   1.088  0.00  0.00     0.003 A 
ENDROOT
TORSDOF 0
ENDMDL
