MODEL 1
REMARK minimizedAffinity -4.79843616
REMARK minimizedRMSD -1
REMARK  0 active torsions:
REMARK  status: ('A' for Active; 'I' for Inactive)
ROOT
ATOM      1  C2' OXE d   1      -0.682  -0.020   0.023  0.00  0.00     0.078 C 
ATOM      2  C1' OXE d   1      -1.794  -0.879   2.453  0.00  0.00     0.078 C 
ATOM      3  C1  OXE d   1      -0.477  -1.481   2.030  0.00  0.00    -0.078 A 
ATOM      4  C2  OXE d   1       0.036  -1.089   0.817  0.00  0.00    -0.078 A 
ATOM      5  C3  OXE d   1       1.274  -1.573   0.404  0.00  0.00     0.003 A 
ATOM      6  C4  OXE d   1       1.927  -2.569   1.139  0.00  0.00    -0.002 A 
ATOM      7  C5  OXE d   1       1.402  -3.012   2.358  0.00  0.00    -0.002 A 
ATOM      8  C6  OXE d   1       0.225  -2.448   2.837  0.00  0.00     0.003 A 
ENDROOT
TORSDOF 0
ENDMDL
