MODEL 1
REMARK minimizedAffinity -5.65808582
REMARK minimizedRMSD -1
REMARK  0 active torsions:
REMARK  status: ('A' for Active; 'I' for Inactive)
ROOT
ATOM      1  C2' OXE d   1      -0.370   1.248  -0.766  0.00  0.00     0.078 C 
ATOM      2  C1' OXE d   1       2.430   1.351  -0.942  0.00  0.00     0.078 C 
ATOM      3  C1  OXE d   1       1.810   0.134  -0.303  0.00  0.00    -0.078 A 
ATOM      4  C2  OXE d   1       0.441   0.114  -0.179  0.00  0.00    -0.078 A 
ATOM      5  C3  OXE d   1      -0.186  -1.009   0.354  0.00  0.00     0.003 A 
ATOM      6  C4  OXE d   1       0.572  -2.050   0.905  0.00  0.00    -0.002 A 
ATOM      7  C5  OXE d   1       1.968  -2.031   0.825  0.00  0.00    -0.002 A 
ATOM      8  C6  OXE d   1       2.600  -0.968   0.187  0.00  0.00     0.003 A 
ENDROOT
TORSDOF 0
ENDMDL
