MODEL 1
REMARK minimizedAffinity -6.15924311
REMARK minimizedRMSD -1
REMARK  0 active torsions:
REMARK  status: ('A' for Active; 'I' for Inactive)
ROOT
ATOM      1  C2' OXE d   1      -0.809   0.512   0.290  0.00  0.00     0.078 C 
ATOM      2  C1' OXE d   1       1.624  -0.400  -0.772  0.00  0.00     0.078 C 
ATOM      3  C1  OXE d   1       0.994  -1.206   0.336  0.00  0.00    -0.078 A 
ATOM      4  C2  OXE d   1      -0.172  -0.727   0.882  0.00  0.00    -0.078 A 
ATOM      5  C3  OXE d   1      -0.823  -1.460   1.870  0.00  0.00     0.003 A 
ATOM      6  C4  OXE d   1      -0.223  -2.600   2.419  0.00  0.00    -0.002 A 
ATOM      7  C5  OXE d   1       0.985  -3.083   1.904  0.00  0.00    -0.002 A 
ATOM      8  C6  OXE d   1       1.584  -2.423   0.837  0.00  0.00     0.003 A 
ENDROOT
TORSDOF 0
ENDMDL
