MODEL 1
REMARK minimizedAffinity -3.45848203
REMARK minimizedRMSD -1
REMARK  0 active torsions:
REMARK  status: ('A' for Active; 'I' for Inactive)
ROOT
ATOM      1  C2' OXE d   1      -1.538  -0.402   1.737  0.00  0.00     0.078 C 
ATOM      2  C1' OXE d   1      -0.854   1.153  -0.497  0.00  0.00     0.078 C 
ATOM      3  C1  OXE d   1       0.122   0.092  -0.054  0.00  0.00    -0.078 A 
ATOM      4  C2  OXE d   1      -0.200  -0.633   1.068  0.00  0.00    -0.078 A 
ATOM      5  C3  OXE d   1       0.639  -1.661   1.489  0.00  0.00     0.003 A 
ATOM      6  C4  OXE d   1       1.880  -1.861   0.871  0.00  0.00    -0.002 A 
ATOM      7  C5  OXE d   1       2.244  -1.107  -0.250  0.00  0.00    -0.002 A 
ATOM      8  C6  OXE d   1       1.360  -0.158  -0.750  0.00  0.00     0.003 A 
ENDROOT
TORSDOF 0
ENDMDL
