MODEL 1
REMARK minimizedAffinity -5.5756321
REMARK minimizedRMSD -1
REMARK  0 active torsions:
REMARK  status: ('A' for Active; 'I' for Inactive)
ROOT
ATOM      1  C2' OXE d   1       0.110   0.820  -0.011  0.00  0.00     0.078 C 
ATOM      2  C1' OXE d   1      -0.919  -0.915   1.941  0.00  0.00     0.078 C 
ATOM      3  C1  OXE d   1       0.291  -1.370   1.163  0.00  0.00    -0.078 A 
ATOM      4  C2  OXE d   1       0.760  -0.534   0.178  0.00  0.00    -0.078 A 
ATOM      5  C3  OXE d   1       1.905  -0.880  -0.532  0.00  0.00     0.003 A 
ATOM      6  C4  OXE d   1       2.494  -2.139  -0.359  0.00  0.00    -0.002 A 
ATOM      7  C5  OXE d   1       2.008  -3.022   0.612  0.00  0.00    -0.002 A 
ATOM      8  C6  OXE d   1       0.936  -2.636   1.409  0.00  0.00     0.003 A 
ENDROOT
TORSDOF 0
ENDMDL
