MODEL 1
REMARK minimizedAffinity 21.681406
REMARK minimizedRMSD -1
REMARK  1 active torsions:
REMARK  status: ('A' for Active; 'I' for Inactive)
REMARK    1  A    between atoms: C1_2  and  C2_3 
ROOT
ATOM      1  C2  UNL d   1       2.667  -1.882   0.836  0.00  0.00    -0.076 A 
ATOM      2  C3  UNL d   1       1.563  -1.116   1.246  0.00  0.00     0.004 A 
ATOM      3  C4  UNL d   1       1.604  -0.372   2.424  0.00  0.00    -0.003 A 
ATOM      4  C5  UNL d   1       2.750  -0.382   3.211  0.00  0.00     0.000 A 
ATOM      5  C6  UNL d   1       3.861  -1.123   2.810  0.00  0.00     0.000 A 
ATOM      6  C7  UNL d   1       3.843  -1.865   1.617  0.00  0.00    -0.073 A 
ATOM      7  C8  UNL d   1       5.067  -2.651   1.236  0.00  0.00     0.078 C 
ENDROOT
BRANCH   1   8
ATOM      8  C1  UNL d   1       2.555  -2.691  -0.437  0.00  0.00     0.053 C 
ATOM      9  C   UNL d   1       1.194  -3.351  -0.590  0.00  0.00     0.018 C 
ENDBRANCH   1   8
TORSDOF 1
ENDMDL
