MODEL 1
REMARK minimizedAffinity 18.5467052
REMARK minimizedRMSD -1
REMARK  1 active torsions:
REMARK  status: ('A' for Active; 'I' for Inactive)
REMARK    1  A    between atoms: C1_2  and  C2_3 
ROOT
ATOM      1  C2  UNL d   1       4.104  -4.649  -2.680  0.00  0.00    -0.076 A 
ATOM      2  C3  UNL d   1       3.109  -5.039  -1.767  0.00  0.00     0.004 A 
ATOM      3  C4  UNL d   1       1.769  -4.728  -1.991  0.00  0.00    -0.003 A 
ATOM      4  C5  UNL d   1       1.402  -4.024  -3.133  0.00  0.00     0.000 A 
ATOM      5  C6  UNL d   1       2.374  -3.645  -4.058  0.00  0.00     0.000 A 
ATOM      6  C7  UNL d   1       3.728  -3.964  -3.855  0.00  0.00    -0.073 A 
ATOM      7  C8  UNL d   1       4.735  -3.526  -4.882  0.00  0.00     0.078 C 
ENDROOT
BRANCH   1   8
ATOM      8  C1  UNL d   1       5.545  -4.990  -2.370  0.00  0.00     0.053 C 
ATOM      9  C   UNL d   1       5.746  -5.406  -0.921  0.00  0.00     0.018 C 
ENDBRANCH   1   8
TORSDOF 1
ENDMDL
