MODEL 1
REMARK minimizedAffinity 16.3785362
REMARK minimizedRMSD -1
REMARK  1 active torsions:
REMARK  status: ('A' for Active; 'I' for Inactive)
REMARK    1  A    between atoms: C1_2  and  C2_3 
ROOT
ATOM      1  C2  UNL d   1       3.593  -3.979  -0.078  0.00  0.00    -0.076 A 
ATOM      2  C3  UNL d   1       3.653  -4.991  -1.052  0.00  0.00     0.004 A 
ATOM      3  C4  UNL d   1       2.635  -5.145  -1.990  0.00  0.00    -0.003 A 
ATOM      4  C5  UNL d   1       1.538  -4.290  -1.971  0.00  0.00     0.000 A 
ATOM      5  C6  UNL d   1       1.470  -3.270  -1.023  0.00  0.00     0.000 A 
ATOM      6  C7  UNL d   1       2.497  -3.090  -0.080  0.00  0.00    -0.073 A 
ATOM      7  C8  UNL d   1       2.368  -1.976   0.923  0.00  0.00     0.078 C 
ENDROOT
BRANCH   1   8
ATOM      8  C1  UNL d   1       4.714  -3.876   0.931  0.00  0.00     0.053 C 
ATOM      9  C   UNL d   1       5.451  -5.193   1.119  0.00  0.00     0.018 C 
ENDBRANCH   1   8
TORSDOF 1
ENDMDL
