MODEL 1
REMARK minimizedAffinity 7.81890965
REMARK minimizedRMSD -1
REMARK  1 active torsions:
REMARK  status: ('A' for Active; 'I' for Inactive)
REMARK    1  A    between atoms: C1_2  and  C2_3 
ROOT
ATOM      1  C2  UNL d   1       3.305  -3.762   0.267  0.00  0.00    -0.076 A 
ATOM      2  C3  UNL d   1       4.283  -4.769   0.181  0.00  0.00     0.004 A 
ATOM      3  C4  UNL d   1       5.619  -4.497   0.469  0.00  0.00    -0.003 A 
ATOM      4  C5  UNL d   1       6.000  -3.214   0.848  0.00  0.00     0.000 A 
ATOM      5  C6  UNL d   1       5.040  -2.208   0.956  0.00  0.00     0.000 A 
ATOM      6  C7  UNL d   1       3.686  -2.469   0.685  0.00  0.00    -0.073 A 
ATOM      7  C8  UNL d   1       2.695  -1.345   0.811  0.00  0.00     0.078 C 
ENDROOT
BRANCH   1   8
ATOM      8  C1  UNL d   1       1.876  -4.110  -0.083  0.00  0.00     0.053 C 
ATOM      9  C   UNL d   1       1.717  -4.524  -1.538  0.00  0.00     0.018 C 
ENDBRANCH   1   8
TORSDOF 1
ENDMDL
