MODEL 1
REMARK minimizedAffinity 12.7101297
REMARK minimizedRMSD -1
REMARK  1 active torsions:
REMARK  status: ('A' for Active; 'I' for Inactive)
REMARK    1  A    between atoms: C1_2  and  C2_3 
ROOT
ATOM      1  C2  UNL d   1       2.937  -3.218   0.308  0.00  0.00    -0.076 A 
ATOM      2  C3  UNL d   1       3.888  -4.208   0.614  0.00  0.00     0.004 A 
ATOM      3  C4  UNL d   1       5.137  -3.867   1.132  0.00  0.00    -0.003 A 
ATOM      4  C5  UNL d   1       5.455  -2.531   1.352  0.00  0.00     0.000 A 
ATOM      5  C6  UNL d   1       4.517  -1.538   1.071  0.00  0.00     0.000 A 
ATOM      6  C7  UNL d   1       3.248  -1.866   0.564  0.00  0.00    -0.073 A 
ATOM      7  C8  UNL d   1       2.278  -0.754   0.272  0.00  0.00     0.078 C 
ENDROOT
BRANCH   1   8
ATOM      8  C1  UNL d   1       1.610  -3.646  -0.276  0.00  0.00     0.053 C 
ATOM      9  C   UNL d   1       1.764  -4.370  -1.605  0.00  0.00     0.018 C 
ENDBRANCH   1   8
TORSDOF 1
ENDMDL
