MODEL 1
REMARK minimizedAffinity 12.0548639
REMARK minimizedRMSD -1
REMARK  1 active torsions:
REMARK  status: ('A' for Active; 'I' for Inactive)
REMARK    1  A    between atoms: C1_2  and  C2_3 
ROOT
ATOM      1  C2  UNL d   1      -0.195   0.101   2.035  0.00  0.00    -0.076 A 
ATOM      2  C3  UNL d   1      -0.999  -0.677   2.887  0.00  0.00     0.004 A 
ATOM      3  C4  UNL d   1      -2.260  -0.236   3.284  0.00  0.00    -0.003 A 
ATOM      4  C5  UNL d   1      -2.739   0.990   2.834  0.00  0.00     0.000 A 
ATOM      5  C6  UNL d   1      -1.963   1.766   1.974  0.00  0.00     0.000 A 
ATOM      6  C7  UNL d   1      -0.696   1.328   1.551  0.00  0.00    -0.073 A 
ATOM      7  C8  UNL d   1       0.101   2.209   0.628  0.00  0.00     0.078 C 
ENDROOT
BRANCH   1   8
ATOM      8  C1  UNL d   1       1.175  -0.417   1.661  0.00  0.00     0.053 C 
ATOM      9  C   UNL d   1       1.148  -1.871   1.217  0.00  0.00     0.018 C 
ENDBRANCH   1   8
TORSDOF 1
ENDMDL
