MODEL 1
REMARK minimizedAffinity 19.9424953
REMARK minimizedRMSD -1
REMARK  1 active torsions:
REMARK  status: ('A' for Active; 'I' for Inactive)
REMARK    1  A    between atoms: C1_2  and  C2_3 
ROOT
ATOM      1  C2  UNL d   1      -4.851  -3.028   3.193  0.00  0.00    -0.076 A 
ATOM      2  C3  UNL d   1      -4.811  -1.860   2.412  0.00  0.00     0.004 A 
ATOM      3  C4  UNL d   1      -5.346  -1.838   1.126  0.00  0.00    -0.003 A 
ATOM      4  C5  UNL d   1      -5.931  -2.984   0.598  0.00  0.00     0.000 A 
ATOM      5  C6  UNL d   1      -5.995  -4.147   1.365  0.00  0.00     0.000 A 
ATOM      6  C7  UNL d   1      -5.474  -4.181   2.670  0.00  0.00    -0.073 A 
ATOM      7  C8  UNL d   1      -5.565  -5.465   3.450  0.00  0.00     0.078 C 
ENDROOT
BRANCH   1   8
ATOM      8  C1  UNL d   1      -4.230  -3.001   4.571  0.00  0.00     0.053 C 
ATOM      9  C   UNL d   1      -3.470  -1.711   4.842  0.00  0.00     0.018 C 
ENDBRANCH   1   8
TORSDOF 1
ENDMDL
