MODEL 1
REMARK minimizedAffinity 7.93307638
REMARK minimizedRMSD -1
REMARK  1 active torsions:
REMARK  status: ('A' for Active; 'I' for Inactive)
REMARK    1  A    between atoms: C1_2  and  C2_3 
ROOT
ATOM      1  C2  UNL d   1       3.912  -3.775   0.412  0.00  0.00    -0.076 A 
ATOM      2  C3  UNL d   1       4.863  -4.258   1.327  0.00  0.00     0.004 A 
ATOM      3  C4  UNL d   1       5.659  -5.360   1.020  0.00  0.00    -0.003 A 
ATOM      4  C5  UNL d   1       5.517  -5.997  -0.208  0.00  0.00     0.000 A 
ATOM      5  C6  UNL d   1       4.590  -5.521  -1.135  0.00  0.00     0.000 A 
ATOM      6  C7  UNL d   1       3.792  -4.401  -0.848  0.00  0.00    -0.073 A 
ATOM      7  C8  UNL d   1       2.805  -3.933  -1.882  0.00  0.00     0.078 C 
ENDROOT
BRANCH   1   8
ATOM      8  C1  UNL d   1       3.058  -2.592   0.811  0.00  0.00     0.053 C 
ATOM      9  C   UNL d   1       3.870  -1.477   1.450  0.00  0.00     0.018 C 
ENDBRANCH   1   8
TORSDOF 1
ENDMDL
