MODEL 1
REMARK minimizedAffinity 16.9065132
REMARK minimizedRMSD -1
REMARK  1 active torsions:
REMARK  status: ('A' for Active; 'I' for Inactive)
REMARK    1  A    between atoms: C1_2  and  C2_3 
ROOT
ATOM      1  C2  UNL d   1      -0.146   2.232  -0.695  0.00  0.00    -0.076 A 
ATOM      2  C3  UNL d   1      -1.090   1.544  -1.478  0.00  0.00     0.004 A 
ATOM      3  C4  UNL d   1      -1.614   2.117  -2.636  0.00  0.00    -0.003 A 
ATOM      4  C5  UNL d   1      -1.203   3.385  -3.030  0.00  0.00     0.000 A 
ATOM      5  C6  UNL d   1      -0.254   4.074  -2.274  0.00  0.00     0.000 A 
ATOM      6  C7  UNL d   1       0.297   3.504  -1.113  0.00  0.00    -0.073 A 
ATOM      7  C8  UNL d   1       1.312   4.294  -0.334  0.00  0.00     0.078 C 
ENDROOT
BRANCH   1   8
ATOM      8  C1  UNL d   1       0.367   1.572   0.566  0.00  0.00     0.053 C 
ATOM      9  C   UNL d   1      -0.646   1.615   1.699  0.00  0.00     0.018 C 
ENDBRANCH   1   8
TORSDOF 1
ENDMDL
