MODEL 1
REMARK minimizedAffinity 5.71045828
REMARK minimizedRMSD -1
REMARK  1 active torsions:
REMARK  status: ('A' for Active; 'I' for Inactive)
REMARK    1  A    between atoms: C1_2  and  C2_3 
ROOT
ATOM      1  C2  UNL d   1      -1.360  -4.282   4.899  0.00  0.00    -0.076 A 
ATOM      2  C3  UNL d   1      -2.674  -4.519   4.458  0.00  0.00     0.004 A 
ATOM      3  C4  UNL d   1      -3.677  -3.570   4.649  0.00  0.00    -0.003 A 
ATOM      4  C5  UNL d   1      -3.382  -2.368   5.282  0.00  0.00     0.000 A 
ATOM      5  C6  UNL d   1      -2.080  -2.108   5.710  0.00  0.00     0.000 A 
ATOM      6  C7  UNL d   1      -1.054  -3.048   5.511  0.00  0.00    -0.073 A 
ATOM      7  C8  UNL d   1       0.331  -2.718   5.998  0.00  0.00     0.078 C 
ENDROOT
BRANCH   1   8
ATOM      8  C1  UNL d   1      -0.320  -5.359   4.689  0.00  0.00     0.053 C 
ATOM      9  C   UNL d   1       0.134  -5.993   5.995  0.00  0.00     0.018 C 
ENDBRANCH   1   8
TORSDOF 1
ENDMDL
