MODEL 1
REMARK minimizedAffinity 20.6123066
REMARK minimizedRMSD -1
REMARK  1 active torsions:
REMARK  status: ('A' for Active; 'I' for Inactive)
REMARK    1  A    between atoms: C1_2  and  C2_3 
ROOT
ATOM      1  C2  UNL d   1       3.563  -4.713  -1.107  0.00  0.00    -0.076 A 
ATOM      2  C3  UNL d   1       4.448  -5.798  -1.232  0.00  0.00     0.004 A 
ATOM      3  C4  UNL d   1       5.572  -5.904  -0.415  0.00  0.00    -0.003 A 
ATOM      4  C5  UNL d   1       5.829  -4.927   0.541  0.00  0.00     0.000 A 
ATOM      5  C6  UNL d   1       4.953  -3.853   0.690  0.00  0.00     0.000 A 
ATOM      6  C7  UNL d   1       3.806  -3.739  -0.115  0.00  0.00    -0.073 A 
ATOM      7  C8  UNL d   1       2.898  -2.557   0.085  0.00  0.00     0.078 C 
ENDROOT
BRANCH   1   8
ATOM      8  C1  UNL d   1       2.375  -4.637  -2.040  0.00  0.00     0.053 C 
ATOM      9  C   UNL d   1       1.748  -5.998  -2.296  0.00  0.00     0.018 C 
ENDBRANCH   1   8
TORSDOF 1
ENDMDL
