MODEL 1
REMARK minimizedAffinity 25.5612354
REMARK minimizedRMSD -1
REMARK  1 active torsions:
REMARK  status: ('A' for Active; 'I' for Inactive)
REMARK    1  A    between atoms: C1_2  and  C2_3 
ROOT
ATOM      1  C2  UNL d   1       0.107   1.928   2.177  0.00  0.00    -0.076 A 
ATOM      2  C3  UNL d   1       0.644   2.872   1.284  0.00  0.00     0.004 A 
ATOM      3  C4  UNL d   1      -0.122   3.388   0.240  0.00  0.00    -0.003 A 
ATOM      4  C5  UNL d   1      -1.438   2.969   0.073  0.00  0.00     0.000 A 
ATOM      5  C6  UNL d   1      -1.992   2.047   0.960  0.00  0.00     0.000 A 
ATOM      6  C7  UNL d   1      -1.238   1.529   2.028  0.00  0.00    -0.073 A 
ATOM      7  C8  UNL d   1      -1.884   0.533   2.951  0.00  0.00     0.078 C 
ENDROOT
BRANCH   1   8
ATOM      8  C1  UNL d   1       0.994   1.383   3.274  0.00  0.00     0.053 C 
ATOM      9  C   UNL d   1       0.795   2.105   4.598  0.00  0.00     0.018 C 
ENDBRANCH   1   8
TORSDOF 1
ENDMDL
