MODEL 1
REMARK minimizedAffinity 11.7240076
REMARK minimizedRMSD -1
REMARK  1 active torsions:
REMARK  status: ('A' for Active; 'I' for Inactive)
REMARK    1  A    between atoms: C1_2  and  C2_3 
ROOT
ATOM      1  C2  UNL d   1      -1.167   2.219  -1.222  0.00  0.00    -0.076 A 
ATOM      2  C3  UNL d   1      -1.170   3.225  -2.204  0.00  0.00     0.004 A 
ATOM      3  C4  UNL d   1      -0.478   4.419  -2.010  0.00  0.00    -0.003 A 
ATOM      4  C5  UNL d   1       0.228   4.627  -0.830  0.00  0.00     0.000 A 
ATOM      5  C6  UNL d   1       0.256   3.633   0.147  0.00  0.00     0.000 A 
ATOM      6  C7  UNL d   1      -0.423   2.417  -0.040  0.00  0.00    -0.073 A 
ATOM      7  C8  UNL d   1      -0.364   1.382   1.051  0.00  0.00     0.078 C 
ENDROOT
BRANCH   1   8
ATOM      8  C1  UNL d   1      -1.958   0.956  -1.477  0.00  0.00     0.053 C 
ATOM      9  C   UNL d   1      -3.135   1.184  -2.412  0.00  0.00     0.018 C 
ENDBRANCH   1   8
TORSDOF 1
ENDMDL
