MODEL 1
REMARK minimizedAffinity 1.88376677
REMARK minimizedRMSD -1
REMARK  0 active torsions:
REMARK  status: ('A' for Active; 'I' for Inactive)
ROOT
ATOM      1  C   UNL d   1       5.568   3.795  -5.691  0.00  0.00     0.023 A 
ATOM      2  C1  UNL d   1       5.874   3.047  -4.554  0.00  0.00     0.003 A 
ATOM      3  C2  UNL d   1       5.999   3.677  -3.315  0.00  0.00     0.048 A 
ATOM      4  C3  UNL d   1       5.814   5.056  -3.218  0.00  0.00     0.023 A 
ATOM      5  C4  UNL d   1       5.507   5.808  -4.353  0.00  0.00     0.048 A 
ATOM      6  C5  UNL d   1       5.384   5.174  -5.590  0.00  0.00     0.003 A 
ATOM      7  I   UNL d   1       5.999   5.996  -1.374  0.00  0.00    -0.146 I 
ENDROOT
TORSDOF 0
ENDMDL
