MODEL 1
REMARK minimizedAffinity 7.93483591
REMARK minimizedRMSD -1
REMARK  0 active torsions:
REMARK  status: ('A' for Active; 'I' for Inactive)
ROOT
ATOM      1  C   UNL d   1       2.705   5.811  -4.280  0.00  0.00     0.023 A 
ATOM      2  C1  UNL d   1       2.290   5.245  -3.075  0.00  0.00     0.003 A 
ATOM      3  C2  UNL d   1       3.234   4.863  -2.120  0.00  0.00     0.048 A 
ATOM      4  C3  UNL d   1       4.592   5.053  -2.375  0.00  0.00     0.023 A 
ATOM      5  C4  UNL d   1       5.012   5.620  -3.579  0.00  0.00     0.048 A 
ATOM      6  C5  UNL d   1       4.064   5.999  -4.532  0.00  0.00     0.003 A 
ATOM      7  I   UNL d   1       5.999   4.486  -0.954  0.00  0.00    -0.146 I 
ENDROOT
TORSDOF 0
ENDMDL
