MODEL 1
REMARK minimizedAffinity 5.49771547
REMARK minimizedRMSD -1
REMARK  0 active torsions:
REMARK  status: ('A' for Active; 'I' for Inactive)
ROOT
ATOM      1  C   UNL d   1       4.124   4.160  -4.468  0.00  0.00     0.023 A 
ATOM      2  C1  UNL d   1       3.341   4.969  -3.644  0.00  0.00     0.003 A 
ATOM      3  C2  UNL d   1       3.878   5.498  -2.468  0.00  0.00     0.048 A 
ATOM      4  C3  UNL d   1       5.199   5.214  -2.122  0.00  0.00     0.023 A 
ATOM      5  C4  UNL d   1       5.986   4.405  -2.944  0.00  0.00     0.048 A 
ATOM      6  C5  UNL d   1       5.445   3.879  -4.118  0.00  0.00     0.003 A 
ATOM      7  I   UNL d   1       6.000   5.999  -0.373  0.00  0.00    -0.146 I 
ENDROOT
TORSDOF 0
ENDMDL
