MODEL 1
REMARK minimizedAffinity 2.0386343
REMARK minimizedRMSD -1
REMARK  0 active torsions:
REMARK  status: ('A' for Active; 'I' for Inactive)
ROOT
ATOM      1  C   UNL d   1       4.401   5.980  -3.189  0.00  0.00     0.023 A 
ATOM      2  C1  UNL d   1       3.721   5.438  -4.280  0.00  0.00     0.003 A 
ATOM      3  C2  UNL d   1       4.179   4.261  -4.876  0.00  0.00     0.048 A 
ATOM      4  C3  UNL d   1       5.317   3.630  -4.375  0.00  0.00     0.023 A 
ATOM      5  C4  UNL d   1       6.000   4.168  -3.283  0.00  0.00     0.048 A 
ATOM      6  C5  UNL d   1       5.539   5.345  -2.691  0.00  0.00     0.003 A 
ATOM      7  I   UNL d   1       6.000   1.878  -5.259  0.00  0.00    -0.146 I 
ENDROOT
TORSDOF 0
ENDMDL
