MODEL 1
REMARK minimizedAffinity -3.97566128
REMARK minimizedRMSD -1
REMARK  0 active torsions:
REMARK  status: ('A' for Active; 'I' for Inactive)
ROOT
ATOM      1  C   UNL d   1       4.479   5.620  -1.901  0.00  0.00     0.023 A 
ATOM      2  C1  UNL d   1       5.776   5.246  -2.251  0.00  0.00     0.003 A 
ATOM      3  C2  UNL d   1       6.000   4.495  -3.407  0.00  0.00     0.048 A 
ATOM      4  C3  UNL d   1       4.922   4.122  -4.209  0.00  0.00     0.023 A 
ATOM      5  C4  UNL d   1       3.622   4.495  -3.863  0.00  0.00     0.048 A 
ATOM      6  C5  UNL d   1       3.403   5.245  -2.706  0.00  0.00     0.003 A 
ATOM      7  I   UNL d   1       5.252   3.004  -5.929  0.00  0.00    -0.146 I 
ENDROOT
TORSDOF 0
ENDMDL
