MODEL 1
REMARK minimizedAffinity -0.645183861
REMARK minimizedRMSD -1
REMARK  0 active torsions:
REMARK  status: ('A' for Active; 'I' for Inactive)
ROOT
ATOM      1  C   UNL d   1       4.171   5.135  -6.000  0.00  0.00     0.023 A 
ATOM      2  C1  UNL d   1       5.522   4.948  -5.707  0.00  0.00     0.003 A 
ATOM      3  C2  UNL d   1       6.000   5.196  -4.419  0.00  0.00     0.048 A 
ATOM      4  C3  UNL d   1       5.120   5.629  -3.427  0.00  0.00     0.023 A 
ATOM      5  C4  UNL d   1       3.767   5.816  -3.715  0.00  0.00     0.048 A 
ATOM      6  C5  UNL d   1       3.295   5.568  -5.005  0.00  0.00     0.003 A 
ATOM      7  I   UNL d   1       5.829   5.999  -1.508  0.00  0.00    -0.146 I 
ENDROOT
TORSDOF 0
ENDMDL
