MODEL 1
REMARK minimizedAffinity 3.29972696
REMARK minimizedRMSD -1
REMARK  0 active torsions:
REMARK  status: ('A' for Active; 'I' for Inactive)
ROOT
ATOM      1  C   UNL d   1       4.062   5.717  -1.725  0.00  0.00     0.023 A 
ATOM      2  C1  UNL d   1       5.393   5.315  -1.613  0.00  0.00     0.003 A 
ATOM      3  C2  UNL d   1       5.950   4.467  -2.572  0.00  0.00     0.048 A 
ATOM      4  C3  UNL d   1       5.172   4.025  -3.641  0.00  0.00     0.023 A 
ATOM      5  C4  UNL d   1       3.840   4.425  -3.758  0.00  0.00     0.048 A 
ATOM      6  C5  UNL d   1       3.286   5.273  -2.796  0.00  0.00     0.003 A 
ATOM      7  I   UNL d   1       6.000   2.763  -5.069  0.00  0.00    -0.146 I 
ENDROOT
TORSDOF 0
ENDMDL
