MODEL 1
REMARK minimizedAffinity 7.05646372
REMARK minimizedRMSD -1
REMARK  0 active torsions:
REMARK  status: ('A' for Active; 'I' for Inactive)
ROOT
ATOM      1  C   UNL d   1       3.030   5.081  -5.029  0.00  0.00     0.023 A 
ATOM      2  C1  UNL d   1       2.835   4.141  -4.016  0.00  0.00     0.003 A 
ATOM      3  C2  UNL d   1       3.687   4.118  -2.910  0.00  0.00     0.048 A 
ATOM      4  C3  UNL d   1       4.731   5.038  -2.822  0.00  0.00     0.023 A 
ATOM      5  C4  UNL d   1       4.929   5.981  -3.832  0.00  0.00     0.048 A 
ATOM      6  C5  UNL d   1       4.075   5.999  -4.937  0.00  0.00     0.003 A 
ATOM      7  I   UNL d   1       6.000   5.005  -1.177  0.00  0.00    -0.146 I 
ENDROOT
TORSDOF 0
ENDMDL
