MODEL 1
REMARK minimizedAffinity 5.84493637
REMARK minimizedRMSD -1
REMARK  0 active torsions:
REMARK  status: ('A' for Active; 'I' for Inactive)
ROOT
ATOM      1  C   UNL d   1       4.335   3.963  -5.113  0.00  0.00     0.023 A 
ATOM      2  C1  UNL d   1       5.519   3.503  -4.537  0.00  0.00     0.003 A 
ATOM      3  C2  UNL d   1       5.999   4.085  -3.362  0.00  0.00     0.048 A 
ATOM      4  C3  UNL d   1       5.288   5.127  -2.768  0.00  0.00     0.023 A 
ATOM      5  C4  UNL d   1       4.102   5.591  -3.339  0.00  0.00     0.048 A 
ATOM      6  C5  UNL d   1       3.627   5.006  -4.515  0.00  0.00     0.003 A 
ATOM      7  I   UNL d   1       5.999   5.996  -1.018  0.00  0.00    -0.146 I 
ENDROOT
TORSDOF 0
ENDMDL
