MODEL 1
REMARK minimizedAffinity -0.614299119
REMARK minimizedRMSD -1
REMARK  0 active torsions:
REMARK  status: ('A' for Active; 'I' for Inactive)
ROOT
ATOM      1  C   UNL d   1       5.021   5.972  -5.766  0.00  0.00     0.023 A 
ATOM      2  C1  UNL d   1       3.669   5.996  -5.427  0.00  0.00     0.003 A 
ATOM      3  C2  UNL d   1       3.282   5.936  -4.086  0.00  0.00     0.048 A 
ATOM      4  C3  UNL d   1       4.254   5.853  -3.090  0.00  0.00     0.023 A 
ATOM      5  C4  UNL d   1       5.609   5.829  -3.424  0.00  0.00     0.048 A 
ATOM      6  C5  UNL d   1       5.991   5.889  -4.766  0.00  0.00     0.003 A 
ATOM      7  I   UNL d   1       3.682   5.763  -1.094  0.00  0.00    -0.146 I 
ENDROOT
TORSDOF 0
ENDMDL
