MODEL 1
REMARK minimizedAffinity -2.60355806
REMARK minimizedRMSD -1
REMARK  0 active torsions:
REMARK  status: ('A' for Active; 'I' for Inactive)
ROOT
ATOM      1  C   UNL d   1       4.083   5.952  -2.703  0.00  0.00     0.023 A 
ATOM      2  C1  UNL d   1       3.266   5.036  -3.366  0.00  0.00     0.003 A 
ATOM      3  C2  UNL d   1       3.813   4.167  -4.312  0.00  0.00     0.048 A 
ATOM      4  C3  UNL d   1       5.178   4.218  -4.590  0.00  0.00     0.023 A 
ATOM      5  C4  UNL d   1       6.000   5.132  -3.930  0.00  0.00     0.048 A 
ATOM      6  C5  UNL d   1       5.449   6.000  -2.985  0.00  0.00     0.003 A 
ATOM      7  I   UNL d   1       5.994   2.925  -5.998  0.00  0.00    -0.146 I 
ENDROOT
TORSDOF 0
ENDMDL
