MODEL 1
REMARK minimizedAffinity -1.34403467
REMARK minimizedRMSD -1
REMARK  0 active torsions:
REMARK  status: ('A' for Active; 'I' for Inactive)
ROOT
ATOM      1  C   UNL d   1       4.973   4.143  -5.985  0.00  0.00     0.023 A 
ATOM      2  C1  UNL d   1       4.548   5.430  -5.656  0.00  0.00     0.003 A 
ATOM      3  C2  UNL d   1       4.842   5.964  -4.400  0.00  0.00     0.048 A 
ATOM      4  C3  UNL d   1       5.561   5.206  -3.477  0.00  0.00     0.023 A 
ATOM      5  C4  UNL d   1       5.989   3.917  -3.802  0.00  0.00     0.048 A 
ATOM      6  C5  UNL d   1       5.692   3.387  -5.059  0.00  0.00     0.003 A 
ATOM      7  I   UNL d   1       5.999   5.998  -1.607  0.00  0.00    -0.146 I 
ENDROOT
TORSDOF 0
ENDMDL
