MODEL 1
REMARK minimizedAffinity -2.62413263
REMARK minimizedRMSD -1
REMARK  0 active torsions:
REMARK  status: ('A' for Active; 'I' for Inactive)
ROOT
ATOM      1  C   UNL d   1       4.641   5.116  -5.946  0.00  0.00     0.023 A 
ATOM      2  C1  UNL d   1       4.060   5.970  -5.009  0.00  0.00     0.003 A 
ATOM      3  C2  UNL d   1       4.446   5.906  -3.669  0.00  0.00     0.048 A 
ATOM      4  C3  UNL d   1       5.415   4.985  -3.272  0.00  0.00     0.023 A 
ATOM      5  C4  UNL d   1       6.000   4.128  -4.206  0.00  0.00     0.048 A 
ATOM      6  C5  UNL d   1       5.610   4.195  -5.545  0.00  0.00     0.003 A 
ATOM      7  I   UNL d   1       5.992   4.887  -1.278  0.00  0.00    -0.146 I 
ENDROOT
TORSDOF 0
ENDMDL
