MODEL 1
REMARK minimizedAffinity 0.815897286
REMARK minimizedRMSD -1
REMARK  0 active torsions:
REMARK  status: ('A' for Active; 'I' for Inactive)
ROOT
ATOM      1  C   UNL d   1       5.965   5.768  -2.264  0.00  0.00     0.023 A 
ATOM      2  C1  UNL d   1       5.987   4.461  -1.776  0.00  0.00     0.003 A 
ATOM      3  C2  UNL d   1       5.996   3.383  -2.663  0.00  0.00     0.048 A 
ATOM      4  C3  UNL d   1       5.985   3.618  -4.037  0.00  0.00     0.023 A 
ATOM      5  C4  UNL d   1       5.965   4.924  -4.530  0.00  0.00     0.048 A 
ATOM      6  C5  UNL d   1       5.954   5.999  -3.640  0.00  0.00     0.003 A 
ATOM      7  I   UNL d   1       5.999   2.014  -5.359  0.00  0.00    -0.146 I 
ENDROOT
TORSDOF 0
ENDMDL
