MODEL 1
REMARK minimizedAffinity -0.526152253
REMARK minimizedRMSD -1
REMARK  0 active torsions:
REMARK  status: ('A' for Active; 'I' for Inactive)
ROOT
ATOM      1  C   UNL d   1       4.235   4.841  -5.981  0.00  0.00     0.023 A 
ATOM      2  C1  UNL d   1       3.485   5.564  -5.052  0.00  0.00     0.003 A 
ATOM      3  C2  UNL d   1       3.989   5.790  -3.770  0.00  0.00     0.048 A 
ATOM      4  C3  UNL d   1       5.244   5.292  -3.423  0.00  0.00     0.023 A 
ATOM      5  C4  UNL d   1       5.998   4.569  -4.348  0.00  0.00     0.048 A 
ATOM      6  C5  UNL d   1       5.490   4.344  -5.629  0.00  0.00     0.003 A 
ATOM      7  I   UNL d   1       5.997   5.628  -1.515  0.00  0.00    -0.146 I 
ENDROOT
TORSDOF 0
ENDMDL
