MODEL 1
REMARK minimizedAffinity -2.32233214
REMARK minimizedRMSD -1
REMARK  0 active torsions:
REMARK  status: ('A' for Active; 'I' for Inactive)
ROOT
ATOM      1  C   UNL d   1       4.910   4.495  -5.999  0.00  0.00     0.023 A 
ATOM      2  C1  UNL d   1       4.440   5.665  -5.403  0.00  0.00     0.003 A 
ATOM      3  C2  UNL d   1       4.748   5.942  -4.069  0.00  0.00     0.048 A 
ATOM      4  C3  UNL d   1       5.527   5.046  -3.338  0.00  0.00     0.023 A 
ATOM      5  C4  UNL d   1       5.999   3.874  -3.931  0.00  0.00     0.048 A 
ATOM      6  C5  UNL d   1       5.688   3.600  -5.265  0.00  0.00     0.003 A 
ATOM      7  I   UNL d   1       5.986   5.456  -1.353  0.00  0.00    -0.146 I 
ENDROOT
TORSDOF 0
ENDMDL
