MODEL 1
REMARK minimizedAffinity 3.07215047
REMARK minimizedRMSD -1
REMARK  1 active torsions:
REMARK  status: ('A' for Active; 'I' for Inactive)
REMARK    1  A    between atoms: C1_2  and  C2_3 
ROOT
ATOM      1  C2  UNL d   1      -3.502   4.999  -5.492  0.00  0.00    -0.073 A 
ATOM      2  C3  UNL d   1      -2.533   5.408  -4.570  0.00  0.00    -0.002 A 
ATOM      3  C4  UNL d   1      -1.575   4.505  -4.107  0.00  0.00     0.004 A 
ATOM      4  C5  UNL d   1      -1.571   3.188  -4.566  0.00  0.00    -0.004 A 
ATOM      5  C6  UNL d   1      -2.525   2.763  -5.496  0.00  0.00    -0.075 A 
ATOM      6  C7  UNL d   1      -2.537   1.349  -5.998  0.00  0.00     0.076 C 
ATOM      7  C8  UNL d   1      -3.486   3.675  -5.954  0.00  0.00     0.001 A 
ENDROOT
BRANCH   1   8
ATOM      8  C1  UNL d   1      -4.535   5.972  -6.000  0.00  0.00     0.053 C 
ATOM      9  C   UNL d   1      -5.932   5.372  -5.999  0.00  0.00     0.018 C 
ENDBRANCH   1   8
TORSDOF 1
ENDMDL
