MODEL 1
REMARK minimizedAffinity 1.67987633
REMARK minimizedRMSD -1
REMARK  1 active torsions:
REMARK  status: ('A' for Active; 'I' for Inactive)
REMARK    1  A    between atoms: C1_2  and  C2_3 
ROOT
ATOM      1  C2  UNL d   1       1.800   2.205   1.590  0.00  0.00    -0.073 A 
ATOM      2  C3  UNL d   1       2.125   1.020   0.920  0.00  0.00    -0.002 A 
ATOM      3  C4  UNL d   1       1.127   0.261   0.307  0.00  0.00     0.004 A 
ATOM      4  C5  UNL d   1      -0.202   0.681   0.352  0.00  0.00    -0.004 A 
ATOM      5  C6  UNL d   1      -0.545   1.869   1.007  0.00  0.00    -0.075 A 
ATOM      6  C7  UNL d   1      -1.970   2.334   1.066  0.00  0.00     0.076 C 
ATOM      7  C8  UNL d   1       0.463   2.624   1.622  0.00  0.00     0.001 A 
ENDROOT
BRANCH   1   8
ATOM      8  C1  UNL d   1       2.875   3.031   2.248  0.00  0.00     0.053 C 
ATOM      9  C   UNL d   1       4.250   2.396   2.105  0.00  0.00     0.018 C 
ENDBRANCH   1   8
TORSDOF 1
ENDMDL
