MODEL 1
REMARK minimizedAffinity 4.09798431
REMARK minimizedRMSD -1
REMARK  1 active torsions:
REMARK  status: ('A' for Active; 'I' for Inactive)
REMARK    1  A    between atoms: C1_2  and  C2_3 
ROOT
ATOM      1  C2  UNL d   1       0.713   1.518   1.077  0.00  0.00    -0.073 A 
ATOM      2  C3  UNL d   1      -0.176   2.590   1.219  0.00  0.00    -0.002 A 
ATOM      3  C4  UNL d   1      -1.554   2.377   1.146  0.00  0.00     0.004 A 
ATOM      4  C5  UNL d   1      -2.056   1.093   0.937  0.00  0.00    -0.004 A 
ATOM      5  C6  UNL d   1      -1.184   0.007   0.805  0.00  0.00    -0.075 A 
ATOM      6  C7  UNL d   1      -1.708  -1.380   0.578  0.00  0.00     0.076 C 
ATOM      7  C8  UNL d   1       0.198   0.229   0.877  0.00  0.00     0.001 A 
ENDROOT
BRANCH   1   8
ATOM      8  C1  UNL d   1       2.201   1.742   1.162  0.00  0.00     0.053 C 
ATOM      9  C   UNL d   1       2.585   2.562   2.383  0.00  0.00     0.018 C 
ENDBRANCH   1   8
TORSDOF 1
ENDMDL
