MODEL 1
REMARK minimizedAffinity 4.83324957
REMARK minimizedRMSD -1
REMARK  1 active torsions:
REMARK  status: ('A' for Active; 'I' for Inactive)
REMARK    1  A    between atoms: C1_2  and  C2_3 
ROOT
ATOM      1  C2  UNL d   1       0.334   1.033   0.292  0.00  0.00    -0.073 A 
ATOM      2  C3  UNL d   1       0.122   2.399   0.073  0.00  0.00    -0.002 A 
ATOM      3  C4  UNL d   1      -1.117   2.975   0.355  0.00  0.00     0.004 A 
ATOM      4  C5  UNL d   1      -2.154   2.194   0.866  0.00  0.00    -0.004 A 
ATOM      5  C6  UNL d   1      -1.958   0.829   1.103  0.00  0.00    -0.075 A 
ATOM      6  C7  UNL d   1      -3.064  -0.025   1.649  0.00  0.00     0.076 C 
ATOM      7  C8  UNL d   1      -0.712   0.258   0.814  0.00  0.00     0.001 A 
ENDROOT
BRANCH   1   8
ATOM      8  C1  UNL d   1       1.672   0.408  -0.006  0.00  0.00     0.053 C 
ATOM      9  C   UNL d   1       1.878   0.184  -1.496  0.00  0.00     0.018 C 
ENDBRANCH   1   8
TORSDOF 1
ENDMDL
