MODEL 1
REMARK minimizedAffinity 2.89840841
REMARK minimizedRMSD -1
REMARK  1 active torsions:
REMARK  status: ('A' for Active; 'I' for Inactive)
REMARK    1  A    between atoms: C1_2  and  C2_3 
ROOT
ATOM      1  C2  UNL d   1      -1.237   1.043   1.032  0.00  0.00    -0.073 A 
ATOM      2  C3  UNL d   1      -1.116   2.359   1.492  0.00  0.00    -0.002 A 
ATOM      3  C4  UNL d   1       0.141   2.956   1.600  0.00  0.00     0.004 A 
ATOM      4  C5  UNL d   1       1.288   2.246   1.242  0.00  0.00    -0.004 A 
ATOM      5  C6  UNL d   1       1.187   0.934   0.768  0.00  0.00    -0.075 A 
ATOM      6  C7  UNL d   1       2.410   0.157   0.382  0.00  0.00     0.076 C 
ATOM      7  C8  UNL d   1      -0.079   0.341   0.666  0.00  0.00     0.001 A 
ENDROOT
BRANCH   1   8
ATOM      8  C1  UNL d   1      -2.592   0.397   0.908  0.00  0.00     0.053 C 
ATOM      9  C   UNL d   1      -3.704   1.426   0.781  0.00  0.00     0.018 C 
ENDBRANCH   1   8
TORSDOF 1
ENDMDL
