MODEL 1
REMARK minimizedAffinity 1.7082665
REMARK minimizedRMSD -1
REMARK  1 active torsions:
REMARK  status: ('A' for Active; 'I' for Inactive)
REMARK    1  A    between atoms: C1_2  and  C2_3 
ROOT
ATOM      1  C2  UNL d   1      -0.622   2.490   1.730  0.00  0.00    -0.073 A 
ATOM      2  C3  UNL d   1      -0.762   1.435   0.821  0.00  0.00    -0.002 A 
ATOM      3  C4  UNL d   1       0.362   0.744   0.365  0.00  0.00     0.004 A 
ATOM      4  C5  UNL d   1       1.633   1.096   0.817  0.00  0.00    -0.004 A 
ATOM      5  C6  UNL d   1       1.792   2.139   1.734  0.00  0.00    -0.075 A 
ATOM      6  C7  UNL d   1       3.154   2.532   2.229  0.00  0.00     0.076 C 
ATOM      7  C8  UNL d   1       0.659   2.830   2.185  0.00  0.00     0.001 A 
ENDROOT
BRANCH   1   8
ATOM      8  C1  UNL d   1      -1.833   3.234   2.230  0.00  0.00     0.053 C 
ATOM      9  C   UNL d   1      -1.771   3.482   3.729  0.00  0.00     0.018 C 
ENDBRANCH   1   8
TORSDOF 1
ENDMDL
