MODEL 1
REMARK minimizedAffinity 5.34356213
REMARK minimizedRMSD -1
REMARK  1 active torsions:
REMARK  status: ('A' for Active; 'I' for Inactive)
REMARK    1  A    between atoms: C1_2  and  C2_3 
ROOT
ATOM      1  C2  UNL d   1      -0.837  -1.841  -0.636  0.00  0.00    -0.073 A 
ATOM      2  C3  UNL d   1      -1.261  -1.052   0.440  0.00  0.00    -0.002 A 
ATOM      3  C4  UNL d   1      -0.482   0.020   0.878  0.00  0.00     0.004 A 
ATOM      4  C5  UNL d   1       0.723   0.318   0.241  0.00  0.00    -0.004 A 
ATOM      5  C6  UNL d   1       1.157  -0.451  -0.844  0.00  0.00    -0.075 A 
ATOM      6  C7  UNL d   1       2.451  -0.144  -1.538  0.00  0.00     0.076 C 
ATOM      7  C8  UNL d   1       0.370  -1.528  -1.275  0.00  0.00     0.001 A 
ENDROOT
BRANCH   1   8
ATOM      8  C1  UNL d   1      -1.678  -2.996  -1.116  0.00  0.00     0.053 C 
ATOM      9  C   UNL d   1      -0.856  -4.021  -1.880  0.00  0.00     0.018 C 
ENDBRANCH   1   8
TORSDOF 1
ENDMDL
