MODEL 1
REMARK minimizedAffinity 10.6293688
REMARK minimizedRMSD -1
REMARK  1 active torsions:
REMARK  status: ('A' for Active; 'I' for Inactive)
REMARK    1  A    between atoms: C1_2  and  C2_3 
ROOT
ATOM      1  C2  UNL d   1      -0.250   0.939   0.661  0.00  0.00    -0.073 A 
ATOM      2  C3  UNL d   1      -0.083   2.276   1.037  0.00  0.00    -0.002 A 
ATOM      3  C4  UNL d   1      -1.195   3.093   1.250  0.00  0.00     0.004 A 
ATOM      4  C5  UNL d   1      -2.482   2.579   1.097  0.00  0.00    -0.004 A 
ATOM      5  C6  UNL d   1      -2.670   1.242   0.733  0.00  0.00    -0.075 A 
ATOM      6  C7  UNL d   1      -4.048   0.674   0.562  0.00  0.00     0.076 C 
ATOM      7  C8  UNL d   1      -1.549   0.429   0.519  0.00  0.00     0.001 A 
ENDROOT
BRANCH   1   8
ATOM      8  C1  UNL d   1       0.947   0.052   0.437  0.00  0.00     0.053 C 
ATOM      9  C   UNL d   1       1.795   0.525  -0.733  0.00  0.00     0.018 C 
ENDBRANCH   1   8
TORSDOF 1
ENDMDL
