MODEL 1
REMARK minimizedAffinity 11.3930044
REMARK minimizedRMSD -1
REMARK  1 active torsions:
REMARK  status: ('A' for Active; 'I' for Inactive)
REMARK    1  A    between atoms: C1_2  and  C2_3 
ROOT
ATOM      1  C2  UNL d   1       1.793   0.789  -3.246  0.00  0.00    -0.073 A 
ATOM      2  C3  UNL d   1       0.922   0.219  -2.310  0.00  0.00    -0.002 A 
ATOM      3  C4  UNL d   1       1.369  -0.790  -1.456  0.00  0.00     0.004 A 
ATOM      4  C5  UNL d   1       2.690  -1.233  -1.523  0.00  0.00    -0.004 A 
ATOM      5  C6  UNL d   1       3.578  -0.667  -2.443  0.00  0.00    -0.075 A 
ATOM      6  C7  UNL d   1       5.001  -1.134  -2.530  0.00  0.00     0.076 C 
ATOM      7  C8  UNL d   1       3.121   0.344  -3.300  0.00  0.00     0.001 A 
ENDROOT
BRANCH   1   8
ATOM      8  C1  UNL d   1       1.317   1.884  -4.166  0.00  0.00     0.053 C 
ATOM      9  C   UNL d   1      -0.038   2.433  -3.746  0.00  0.00     0.018 C 
ENDBRANCH   1   8
TORSDOF 1
ENDMDL
