MODEL 1
REMARK minimizedAffinity -5.73944473
REMARK minimizedRMSD -1
REMARK  1 active torsions:
REMARK  status: ('A' for Active; 'I' for Inactive)
REMARK    1  A    between atoms: C1_2  and  C2_3 
ROOT
ATOM      1  C2  UNL d   1       0.705  -0.238   1.082  0.00  0.00    -0.073 A 
ATOM      2  C3  UNL d   1       0.807   0.762   2.055  0.00  0.00    -0.002 A 
ATOM      3  C4  UNL d   1      -0.297   1.556   2.369  0.00  0.00     0.004 A 
ATOM      4  C5  UNL d   1      -1.514   1.354   1.719  0.00  0.00    -0.004 A 
ATOM      5  C6  UNL d   1      -1.640   0.352   0.751  0.00  0.00    -0.075 A 
ATOM      6  C7  UNL d   1      -2.941   0.124   0.041  0.00  0.00     0.076 C 
ATOM      7  C8  UNL d   1      -0.526  -0.439   0.440  0.00  0.00     0.001 A 
ENDROOT
BRANCH   1   8
ATOM      8  C1  UNL d   1       1.892  -1.102   0.744  0.00  0.00     0.053 C 
ATOM      9  C   UNL d   1       1.721  -1.809  -0.591  0.00  0.00     0.018 C 
ENDBRANCH   1   8
TORSDOF 1
ENDMDL
