MODEL 1
REMARK minimizedAffinity 2.11062717
REMARK minimizedRMSD -1
REMARK  0 active torsions:
REMARK  status: ('A' for Active; 'I' for Inactive)
ROOT
ATOM      1  C   UNL d   1      -1.139  -2.066  -5.144  0.00  0.00     0.078 C 
ATOM      2  C1  UNL d   1      -1.116  -1.522  -3.747  0.00  0.00    -0.077 A 
ATOM      3  C2  UNL d   1      -2.293  -1.408  -2.998  0.00  0.00    -0.001 A 
ATOM      4  C3  UNL d   1      -2.258  -0.890  -1.702  0.00  0.00     0.003 A 
ATOM      5  C4  UNL d   1      -1.048  -0.483  -1.144  0.00  0.00    -0.005 A 
ATOM      6  C5  UNL d   1       0.128  -0.591  -1.882  0.00  0.00     0.003 A 
ATOM      7  C6  UNL d   1       0.095  -1.108  -3.178  0.00  0.00    -0.001 A 
ENDROOT
TORSDOF 0
ENDMDL
