MODEL 1
REMARK minimizedAffinity 8.09517002
REMARK minimizedRMSD -1
REMARK  0 active torsions:
REMARK  status: ('A' for Active; 'I' for Inactive)
ROOT
ATOM      1  C   UNL d   1      -1.566  -0.060  -1.397  0.00  0.00     0.078 C 
ATOM      2  C1  UNL d   1      -1.248   1.022  -0.409  0.00  0.00    -0.077 A 
ATOM      3  C2  UNL d   1      -0.858   2.297  -0.836  0.00  0.00    -0.001 A 
ATOM      4  C3  UNL d   1      -0.556   3.292   0.095  0.00  0.00     0.003 A 
ATOM      5  C4  UNL d   1      -0.640   3.022   1.460  0.00  0.00    -0.005 A 
ATOM      6  C5  UNL d   1      -1.025   1.755   1.895  0.00  0.00     0.003 A 
ATOM      7  C6  UNL d   1      -1.328   0.759   0.965  0.00  0.00    -0.001 A 
ENDROOT
TORSDOF 0
ENDMDL
