MODEL 1
REMARK minimizedAffinity 6.3606391
REMARK minimizedRMSD -1
REMARK  0 active torsions:
REMARK  status: ('A' for Active; 'I' for Inactive)
ROOT
ATOM      1  C   UNL d   1      -4.230   0.075  -0.948  0.00  0.00     0.078 C 
ATOM      2  C1  UNL d   1      -2.765  -0.124  -1.201  0.00  0.00    -0.077 A 
ATOM      3  C2  UNL d   1      -1.844   0.900  -0.950  0.00  0.00    -0.001 A 
ATOM      4  C3  UNL d   1      -0.485   0.704  -1.199  0.00  0.00     0.003 A 
ATOM      5  C4  UNL d   1      -0.034  -0.515  -1.703  0.00  0.00    -0.005 A 
ATOM      6  C5  UNL d   1      -0.944  -1.539  -1.958  0.00  0.00     0.003 A 
ATOM      7  C6  UNL d   1      -2.303  -1.344  -1.709  0.00  0.00    -0.001 A 
ENDROOT
TORSDOF 0
ENDMDL
