MODEL 1
REMARK minimizedAffinity -0.987425685
REMARK minimizedRMSD -1
REMARK  0 active torsions:
REMARK  status: ('A' for Active; 'I' for Inactive)
ROOT
ATOM      1  C   UNL d   1      -0.079   4.918  -1.137  0.00  0.00     0.078 C 
ATOM      2  C1  UNL d   1       0.384   4.408   0.195  0.00  0.00    -0.077 A 
ATOM      3  C2  UNL d   1      -0.479   3.690   1.032  0.00  0.00    -0.001 A 
ATOM      4  C3  UNL d   1      -0.038   3.230   2.273  0.00  0.00     0.003 A 
ATOM      5  C4  UNL d   1       1.268   3.484   2.690  0.00  0.00    -0.005 A 
ATOM      6  C5  UNL d   1       2.133   4.199   1.865  0.00  0.00     0.003 A 
ATOM      7  C6  UNL d   1       1.693   4.661   0.623  0.00  0.00    -0.001 A 
ENDROOT
TORSDOF 0
ENDMDL
