MODEL 1
REMARK minimizedAffinity 1.45922899
REMARK minimizedRMSD -1
REMARK  0 active torsions:
REMARK  status: ('A' for Active; 'I' for Inactive)
ROOT
ATOM      1  C   UNL d   1      -0.141   1.889   3.115  0.00  0.00     0.078 C 
ATOM      2  C1  UNL d   1      -0.076   2.381   1.700  0.00  0.00    -0.077 A 
ATOM      3  C2  UNL d   1      -0.467   1.562   0.633  0.00  0.00    -0.001 A 
ATOM      4  C3  UNL d   1      -0.393   2.030  -0.680  0.00  0.00     0.003 A 
ATOM      5  C4  UNL d   1       0.073   3.317  -0.939  0.00  0.00    -0.005 A 
ATOM      6  C5  UNL d   1       0.466   4.139   0.116  0.00  0.00     0.003 A 
ATOM      7  C6  UNL d   1       0.392   3.673   1.430  0.00  0.00    -0.001 A 
ENDROOT
TORSDOF 0
ENDMDL
