MODEL 1
REMARK minimizedAffinity 2.62997007
REMARK minimizedRMSD -1
REMARK  0 active torsions:
REMARK  status: ('A' for Active; 'I' for Inactive)
ROOT
ATOM      1  C   UNL d   1       2.489  -4.257  -1.192  0.00  0.00     0.078 C 
ATOM      2  C1  UNL d   1       3.599  -3.254  -1.084  0.00  0.00    -0.077 A 
ATOM      3  C2  UNL d   1       4.837  -3.479  -1.699  0.00  0.00    -0.001 A 
ATOM      4  C3  UNL d   1       5.864  -2.542  -1.582  0.00  0.00     0.003 A 
ATOM      5  C4  UNL d   1       5.664  -1.373  -0.850  0.00  0.00    -0.005 A 
ATOM      6  C5  UNL d   1       4.437  -1.141  -0.233  0.00  0.00     0.003 A 
ATOM      7  C6  UNL d   1       3.408  -2.077  -0.349  0.00  0.00    -0.001 A 
ENDROOT
TORSDOF 0
ENDMDL
