MODEL 1
REMARK minimizedAffinity 0.725018561
REMARK minimizedRMSD -1
REMARK  0 active torsions:
REMARK  status: ('A' for Active; 'I' for Inactive)
ROOT
ATOM      1  C   UNL d   1      -0.222   1.864   3.169  0.00  0.00     0.078 C 
ATOM      2  C1  UNL d   1       0.021   2.515   1.840  0.00  0.00    -0.077 A 
ATOM      3  C2  UNL d   1       0.898   3.599   1.717  0.00  0.00    -0.001 A 
ATOM      4  C3  UNL d   1       1.108   4.202   0.476  0.00  0.00     0.003 A 
ATOM      5  C4  UNL d   1       0.442   3.727  -0.653  0.00  0.00    -0.005 A 
ATOM      6  C5  UNL d   1      -0.434   2.650  -0.541  0.00  0.00     0.003 A 
ATOM      7  C6  UNL d   1      -0.645   2.046   0.700  0.00  0.00    -0.001 A 
ENDROOT
TORSDOF 0
ENDMDL
