MODEL 1
REMARK minimizedAffinity -0.362427235
REMARK minimizedRMSD -1
REMARK  0 active torsions:
REMARK  status: ('A' for Active; 'I' for Inactive)
ROOT
ATOM      1  C   UNL d   1      -0.766   2.537  -0.572  0.00  0.00     0.078 C 
ATOM      2  C1  UNL d   1      -1.354   1.173  -0.780  0.00  0.00    -0.077 A 
ATOM      3  C2  UNL d   1      -0.550   0.093  -1.165  0.00  0.00    -0.001 A 
ATOM      4  C3  UNL d   1      -1.113  -1.169  -1.364  0.00  0.00     0.003 A 
ATOM      5  C4  UNL d   1      -2.480  -1.363  -1.181  0.00  0.00    -0.005 A 
ATOM      6  C5  UNL d   1      -3.288  -0.293  -0.799  0.00  0.00     0.003 A 
ATOM      7  C6  UNL d   1      -2.728   0.969  -0.600  0.00  0.00    -0.001 A 
ENDROOT
TORSDOF 0
ENDMDL
