MODEL 1
REMARK minimizedAffinity 0.157650068
REMARK minimizedRMSD -1
REMARK  0 active torsions:
REMARK  status: ('A' for Active; 'I' for Inactive)
ROOT
ATOM      1  C   UNL d   1       4.277  -2.309   5.954  0.00  0.00     0.172 C 
ATOM      2  N   UNL d   1       4.670  -3.699   5.970  0.00  0.00    -0.070 N 
ATOM      3  C1  UNL d   1       3.816  -4.770   5.979  0.00  0.00    -0.004 A 
ATOM      4  C2  UNL d   1       4.579  -5.917   5.993  0.00  0.00    -0.047 A 
ATOM      5  C3  UNL d   1       5.938  -5.523   5.994  0.00  0.00    -0.047 A 
ATOM      6  C4  UNL d   1       5.965  -4.144   5.979  0.00  0.00    -0.004 A 
ENDROOT
TORSDOF 0
ENDMDL
