MODEL 1
REMARK minimizedAffinity 1.67790318
REMARK minimizedRMSD -1
REMARK  0 active torsions:
REMARK  status: ('A' for Active; 'I' for Inactive)
ROOT
ATOM      1  C   UNL d   1       0.877   4.304  -5.666  0.00  0.00     0.172 C 
ATOM      2  N   UNL d   1       2.259   4.704  -5.791  0.00  0.00    -0.070 N 
ATOM      3  C1  UNL d   1       3.335   3.858  -5.822  0.00  0.00    -0.004 A 
ATOM      4  C2  UNL d   1       4.472   4.625  -5.951  0.00  0.00    -0.047 A 
ATOM      5  C3  UNL d   1       4.066   5.980  -5.999  0.00  0.00    -0.047 A 
ATOM      6  C4  UNL d   1       2.691   6.000  -5.898  0.00  0.00    -0.004 A 
ENDROOT
TORSDOF 0
ENDMDL
