MODEL 1
REMARK minimizedAffinity 6.16914368
REMARK minimizedRMSD -1
REMARK  0 active torsions:
REMARK  status: ('A' for Active; 'I' for Inactive)
ROOT
ATOM      1  C   UNL d   1       1.894   3.542   3.413  0.00  0.00     0.172 C 
ATOM      2  N   UNL d   1       1.871   4.542   4.455  0.00  0.00    -0.070 N 
ATOM      3  C1  UNL d   1       2.971   5.090   5.060  0.00  0.00    -0.004 A 
ATOM      4  C2  UNL d   1       2.528   6.000   5.995  0.00  0.00    -0.047 A 
ATOM      5  C3  UNL d   1       1.114   5.999   5.951  0.00  0.00    -0.047 A 
ATOM      6  C4  UNL d   1       0.734   5.087   4.989  0.00  0.00    -0.004 A 
ENDROOT
TORSDOF 0
ENDMDL
