MODEL 1
REMARK minimizedAffinity 3.85461354
REMARK minimizedRMSD -1
REMARK  0 active torsions:
REMARK  status: ('A' for Active; 'I' for Inactive)
ROOT
ATOM      1  C   UNL d   1       1.975   6.000   6.000  0.00  0.00     0.172 C 
ATOM      2  N   UNL d   1       1.411   5.196   4.941  0.00  0.00    -0.070 N 
ATOM      3  C1  UNL d   1       1.877   3.975   4.532  0.00  0.00    -0.004 A 
ATOM      4  C2  UNL d   1       1.069   3.538   3.504  0.00  0.00    -0.047 A 
ATOM      5  C3  UNL d   1       0.085   4.532   3.288  0.00  0.00    -0.047 A 
ATOM      6  C4  UNL d   1       0.320   5.546   4.191  0.00  0.00    -0.004 A 
ENDROOT
TORSDOF 0
ENDMDL
