MODEL 1
REMARK minimizedAffinity 2.63676071
REMARK minimizedRMSD -1
REMARK  0 active torsions:
REMARK  status: ('A' for Active; 'I' for Inactive)
ROOT
ATOM      1  C   UNL d   1       4.248  -3.796   2.812  0.00  0.00     0.172 C 
ATOM      2  N   UNL d   1       3.384  -3.223   1.808  0.00  0.00    -0.070 N 
ATOM      3  C1  UNL d   1       2.340  -2.368   2.045  0.00  0.00    -0.004 A 
ATOM      4  C2  UNL d   1       1.770  -2.051   0.832  0.00  0.00    -0.047 A 
ATOM      5  C3  UNL d   1       2.494  -2.740  -0.170  0.00  0.00    -0.047 A 
ATOM      6  C4  UNL d   1       3.488  -3.458   0.462  0.00  0.00    -0.004 A 
ENDROOT
TORSDOF 0
ENDMDL
