MODEL 1
REMARK minimizedAffinity 1.46906495
REMARK minimizedRMSD -1
REMARK  0 active torsions:
REMARK  status: ('A' for Active; 'I' for Inactive)
ROOT
ATOM      1  C   UNL d   1       4.120  -3.755   3.367  0.00  0.00     0.172 C 
ATOM      2  N   UNL d   1       3.194  -3.190   2.414  0.00  0.00    -0.070 N 
ATOM      3  C1  UNL d   1       3.152  -3.475   1.075  0.00  0.00    -0.004 A 
ATOM      4  C2  UNL d   1       2.132  -2.735   0.518  0.00  0.00    -0.047 A 
ATOM      5  C3  UNL d   1       1.540  -1.979   1.557  0.00  0.00    -0.047 A 
ATOM      6  C4  UNL d   1       2.217  -2.280   2.720  0.00  0.00    -0.004 A 
ENDROOT
TORSDOF 0
ENDMDL
