MODEL 1
REMARK minimizedAffinity 10.2409477
REMARK minimizedRMSD -1
REMARK  0 active torsions:
REMARK  status: ('A' for Active; 'I' for Inactive)
ROOT
ATOM      1  C   UNL d   1      -4.879  -2.441  -3.298  0.00  0.00     0.172 C 
ATOM      2  N   UNL d   1      -4.169  -1.411  -2.577  0.00  0.00    -0.070 N 
ATOM      3  C1  UNL d   1      -2.964  -1.566  -1.945  0.00  0.00    -0.004 A 
ATOM      4  C2  UNL d   1      -2.627  -0.356  -1.378  0.00  0.00    -0.047 A 
ATOM      5  C3  UNL d   1      -3.666   0.557  -1.678  0.00  0.00    -0.047 A 
ATOM      6  C4  UNL d   1      -4.608  -0.123  -2.421  0.00  0.00    -0.004 A 
ENDROOT
TORSDOF 0
ENDMDL
