MODEL 1
REMARK minimizedAffinity 1.31762779
REMARK minimizedRMSD -1
REMARK  0 active torsions:
REMARK  status: ('A' for Active; 'I' for Inactive)
ROOT
ATOM      1  C   UNL d   1       2.028  -2.799   1.228  0.00  0.00     0.172 C 
ATOM      2  N   UNL d   1       3.408  -3.149   1.468  0.00  0.00    -0.070 N 
ATOM      3  C1  UNL d   1       3.905  -3.692   2.623  0.00  0.00    -0.004 A 
ATOM      4  C2  UNL d   1       5.260  -3.878   2.453  0.00  0.00    -0.047 A 
ATOM      5  C3  UNL d   1       5.589  -3.430   1.152  0.00  0.00    -0.047 A 
ATOM      6  C4  UNL d   1       4.424  -2.984   0.564  0.00  0.00    -0.004 A 
ENDROOT
TORSDOF 0
ENDMDL
