MODEL 1
REMARK minimizedAffinity 1.35716009
REMARK minimizedRMSD -1
REMARK  2 active torsions:
REMARK  status: ('A' for Active; 'I' for Inactive)
REMARK    1  A    between atoms: C2'_3  and  C1'_4 
REMARK    2  A    between atoms: C1'_4  and  C1_5 
ROOT
ATOM      1  C1  I4B d   1      -1.943  -5.870  -3.646  0.00  0.00    -0.075 A 
ATOM      2  C2  I4B d   1      -1.619  -5.699  -4.969  0.00  0.00     0.003 A 
ATOM      3  C3  I4B d   1      -0.263  -5.599  -5.363  0.00  0.00     0.002 A 
ATOM      4  C4  I4B d   1       0.728  -5.624  -4.403  0.00  0.00    -0.004 A 
ATOM      5  C5  I4B d   1       0.399  -5.821  -3.065  0.00  0.00     0.002 A 
ATOM      6  C6  I4B d   1      -0.944  -5.957  -2.685  0.00  0.00     0.003 A 
ENDROOT
BRANCH   1   7
ATOM      7  C1' I4B d   1      -3.386  -5.940  -3.260  0.00  0.00     0.060 C 
BRANCH   7   8
ATOM      8  C2' I4B d   1      -3.463  -5.995  -1.748  0.00  0.00    -0.013 C 
ATOM      9  C4' I4B d   1      -2.736  -4.834  -1.122  0.00  0.00     0.013 C 
ATOM     10  C3' I4B d   1      -4.911  -6.000  -1.358  0.00  0.00     0.013 C 
ENDBRANCH   7   8
ENDBRANCH   1   7
TORSDOF 2
ENDMDL
