MODEL 1
REMARK minimizedAffinity 6.95895433
REMARK minimizedRMSD -1
REMARK  2 active torsions:
REMARK  status: ('A' for Active; 'I' for Inactive)
REMARK    1  A    between atoms: C2'_3  and  C1'_4 
REMARK    2  A    between atoms: C1'_4  and  C1_5 
ROOT
ATOM      1  C1  I4B d   1       3.321   2.257  -0.412  0.00  0.00    -0.075 A 
ATOM      2  C2  I4B d   1       2.213   2.917   0.056  0.00  0.00     0.003 A 
ATOM      3  C3  I4B d   1       2.323   4.246   0.533  0.00  0.00     0.002 A 
ATOM      4  C4  I4B d   1       3.561   4.854   0.572  0.00  0.00    -0.004 A 
ATOM      5  C5  I4B d   1       4.680   4.191   0.076  0.00  0.00     0.002 A 
ATOM      6  C6  I4B d   1       4.558   2.889  -0.430  0.00  0.00     0.003 A 
ENDROOT
BRANCH   1   7
ATOM      7  C1' I4B d   1       3.175   0.843  -0.878  0.00  0.00     0.060 C 
BRANCH   7   8
ATOM      8  C2' I4B d   1       1.780   0.374  -0.516  0.00  0.00    -0.013 C 
ATOM      9  C4' I4B d   1       1.132  -0.347  -1.668  0.00  0.00     0.013 C 
ATOM     10  C3' I4B d   1       1.887  -0.513   0.688  0.00  0.00     0.013 C 
ENDBRANCH   7   8
ENDBRANCH   1   7
TORSDOF 2
ENDMDL
