MODEL 1
REMARK minimizedAffinity 2.98956728
REMARK minimizedRMSD -1
REMARK  2 active torsions:
REMARK  status: ('A' for Active; 'I' for Inactive)
REMARK    1  A    between atoms: C2'_3  and  C1'_4 
REMARK    2  A    between atoms: C1'_4  and  C1_5 
ROOT
ATOM      1  C1  I4B d   1       2.095   2.196  -0.039  0.00  0.00    -0.075 A 
ATOM      2  C2  I4B d   1       2.478   3.499   0.161  0.00  0.00     0.003 A 
ATOM      3  C3  I4B d   1       3.785   3.919  -0.183  0.00  0.00     0.002 A 
ATOM      4  C4  I4B d   1       4.688   2.997  -0.675  0.00  0.00    -0.004 A 
ATOM      5  C5  I4B d   1       4.291   1.682  -0.899  0.00  0.00     0.002 A 
ATOM      6  C6  I4B d   1       2.983   1.281  -0.590  0.00  0.00     0.003 A 
ENDROOT
BRANCH   1   7
ATOM      7  C1' I4B d   1       0.717   1.779   0.367  0.00  0.00     0.060 C 
BRANCH   7   8
ATOM      8  C2' I4B d   1       0.543   0.320  -0.003  0.00  0.00    -0.013 C 
ATOM      9  C4' I4B d   1       1.022  -0.583   1.102  0.00  0.00     0.013 C 
ATOM     10  C3' I4B d   1      -0.909   0.089  -0.301  0.00  0.00     0.013 C 
ENDBRANCH   7   8
ENDBRANCH   1   7
TORSDOF 2
ENDMDL
