MODEL 1
REMARK minimizedAffinity 10.7999086
REMARK minimizedRMSD -1
REMARK  2 active torsions:
REMARK  status: ('A' for Active; 'I' for Inactive)
REMARK    1  A    between atoms: C2'_3  and  C1'_4 
REMARK    2  A    between atoms: C1'_4  and  C1_5 
ROOT
ATOM      1  C1  I4B d   1      -1.296  -5.995  -3.482  0.00  0.00    -0.075 A 
ATOM      2  C2  I4B d   1      -1.691  -5.990  -4.796  0.00  0.00     0.003 A 
ATOM      3  C3  I4B d   1      -0.725  -5.978  -5.831  0.00  0.00     0.002 A 
ATOM      4  C4  I4B d   1       0.616  -5.920  -5.508  0.00  0.00    -0.004 A 
ATOM      5  C5  I4B d   1       1.015  -5.948  -4.175  0.00  0.00     0.002 A 
ATOM      6  C6  I4B d   1       0.054  -5.998  -3.155  0.00  0.00     0.003 A 
ENDROOT
BRANCH   1   7
ATOM      7  C1' I4B d   1      -2.344  -5.974  -2.414  0.00  0.00     0.060 C 
BRANCH   7   8
ATOM      8  C2' I4B d   1      -3.640  -5.503  -3.041  0.00  0.00    -0.013 C 
ATOM      9  C4' I4B d   1      -4.832  -5.991  -2.261  0.00  0.00     0.013 C 
ATOM     10  C3' I4B d   1      -3.608  -4.005  -3.100  0.00  0.00     0.013 C 
ENDBRANCH   7   8
ENDBRANCH   1   7
TORSDOF 2
ENDMDL
