MODEL 1
REMARK minimizedAffinity 6.49386549
REMARK minimizedRMSD -1
REMARK  2 active torsions:
REMARK  status: ('A' for Active; 'I' for Inactive)
REMARK    1  A    between atoms: C2'_3  and  C1'_4 
REMARK    2  A    between atoms: C1'_4  and  C1_5 
ROOT
ATOM      1  C1  I4B d   1       0.620  -0.972   0.866  0.00  0.00    -0.075 A 
ATOM      2  C2  I4B d   1       1.689  -0.382   0.240  0.00  0.00     0.003 A 
ATOM      3  C3  I4B d   1       1.643   0.990  -0.109  0.00  0.00     0.002 A 
ATOM      4  C4  I4B d   1       0.496   1.716   0.140  0.00  0.00    -0.004 A 
ATOM      5  C5  I4B d   1      -0.578   1.122   0.795  0.00  0.00     0.002 A 
ATOM      6  C6  I4B d   1      -0.512  -0.227   1.172  0.00  0.00     0.003 A 
ENDROOT
BRANCH   1   7
ATOM      7  C1' I4B d   1       0.689  -2.430   1.191  0.00  0.00     0.060 C 
BRANCH   7   8
ATOM      8  C2' I4B d   1      -0.317  -3.151   0.318  0.00  0.00    -0.013 C 
ATOM      9  C4' I4B d   1       0.265  -4.417  -0.254  0.00  0.00     0.013 C 
ATOM     10  C3' I4B d   1      -1.530  -3.441   1.151  0.00  0.00     0.013 C 
ENDBRANCH   7   8
ENDBRANCH   1   7
TORSDOF 2
ENDMDL
