MODEL 1
REMARK minimizedAffinity 4.23995924
REMARK minimizedRMSD -1
REMARK  2 active torsions:
REMARK  status: ('A' for Active; 'I' for Inactive)
REMARK    1  A    between atoms: C2'_3  and  C1'_4 
REMARK    2  A    between atoms: C1'_4  and  C1_5 
ROOT
ATOM      1  C1  I4B d   1       2.597   2.142  -0.042  0.00  0.00    -0.075 A 
ATOM      2  C2  I4B d   1       1.398   2.656   0.386  0.00  0.00     0.003 A 
ATOM      3  C3  I4B d   1       1.283   4.032   0.700  0.00  0.00     0.002 A 
ATOM      4  C4  I4B d   1       2.398   4.842   0.621  0.00  0.00    -0.004 A 
ATOM      5  C5  I4B d   1       3.607   4.325   0.166  0.00  0.00     0.002 A 
ATOM      6  C6  I4B d   1       3.704   2.969  -0.180  0.00  0.00     0.003 A 
ENDROOT
BRANCH   1   7
ATOM      7  C1' I4B d   1       2.691   0.678  -0.334  0.00  0.00     0.060 C 
BRANCH   7   8
ATOM      8  C2' I4B d   1       1.288   0.106  -0.307  0.00  0.00    -0.013 C 
ATOM      9  C4' I4B d   1       0.935  -0.533  -1.624  0.00  0.00     0.013 C 
ATOM     10  C3' I4B d   1       1.215  -0.887   0.814  0.00  0.00     0.013 C 
ENDBRANCH   7   8
ENDBRANCH   1   7
TORSDOF 2
ENDMDL
