MODEL 1
REMARK minimizedAffinity 1.26734173
REMARK minimizedRMSD -1
REMARK  2 active torsions:
REMARK  status: ('A' for Active; 'I' for Inactive)
REMARK    1  A    between atoms: C2'_3  and  C1'_4 
REMARK    2  A    between atoms: C1'_4  and  C1_5 
ROOT
ATOM      1  C1  I4B d   1      -0.514  -5.375  -2.536  0.00  0.00    -0.075 A 
ATOM      2  C2  I4B d   1       0.353  -5.070  -3.555  0.00  0.00     0.003 A 
ATOM      3  C3  I4B d   1      -0.053  -5.216  -4.904  0.00  0.00     0.002 A 
ATOM      4  C4  I4B d   1      -1.309  -5.713  -5.185  0.00  0.00    -0.004 A 
ATOM      5  C5  I4B d   1      -2.195  -5.999  -4.151  0.00  0.00     0.002 A 
ATOM      6  C6  I4B d   1      -1.800  -5.818  -2.817  0.00  0.00     0.003 A 
ENDROOT
BRANCH   1   7
ATOM      7  C1' I4B d   1      -0.041  -5.241  -1.123  0.00  0.00     0.060 C 
BRANCH   7   8
ATOM      8  C2' I4B d   1      -0.436  -3.865  -0.627  0.00  0.00    -0.013 C 
ATOM      9  C4' I4B d   1      -1.796  -3.888   0.020  0.00  0.00     0.013 C 
ATOM     10  C3' I4B d   1       0.615  -3.402   0.338  0.00  0.00     0.013 C 
ENDBRANCH   7   8
ENDBRANCH   1   7
TORSDOF 2
ENDMDL
