MODEL 1
REMARK minimizedAffinity -0.739794433
REMARK minimizedRMSD -1
REMARK  2 active torsions:
REMARK  status: ('A' for Active; 'I' for Inactive)
REMARK    1  A    between atoms: C2'_3  and  C1'_4 
REMARK    2  A    between atoms: C1'_4  and  C1_5 
ROOT
ATOM      1  C1  I4B d   1      -0.370  -5.964  -3.275  0.00  0.00    -0.075 A 
ATOM      2  C2  I4B d   1      -0.797  -5.969  -1.970  0.00  0.00     0.003 A 
ATOM      3  C3  I4B d   1      -2.181  -6.000  -1.674  0.00  0.00     0.002 A 
ATOM      4  C4  I4B d   1      -3.098  -5.974  -2.705  0.00  0.00    -0.004 A 
ATOM      5  C5  I4B d   1      -2.662  -5.992  -4.027  0.00  0.00     0.002 A 
ATOM      6  C6  I4B d   1      -1.290  -6.000  -4.314  0.00  0.00     0.003 A 
ENDROOT
BRANCH   1   7
ATOM      7  C1' I4B d   1       1.099  -5.898  -3.551  0.00  0.00     0.060 C 
BRANCH   7   8
ATOM      8  C2' I4B d   1       1.304  -5.035  -4.779  0.00  0.00    -0.013 C 
ATOM      9  C4' I4B d   1       2.603  -4.277  -4.702  0.00  0.00     0.013 C 
ATOM     10  C3' I4B d   1       1.268  -5.927  -5.984  0.00  0.00     0.013 C 
ENDBRANCH   7   8
ENDBRANCH   1   7
TORSDOF 2
ENDMDL
