MODEL 1
REMARK minimizedAffinity 9.94218826
REMARK minimizedRMSD -1
REMARK  2 active torsions:
REMARK  status: ('A' for Active; 'I' for Inactive)
REMARK    1  A    between atoms: C2'_3  and  C1'_4 
REMARK    2  A    between atoms: C1'_4  and  C1_5 
ROOT
ATOM      1  C1  I4B d   1       1.669   0.982   0.471  0.00  0.00    -0.075 A 
ATOM      2  C2  I4B d   1       0.598   1.839   0.534  0.00  0.00     0.003 A 
ATOM      3  C3  I4B d   1       0.768   3.215   0.251  0.00  0.00     0.002 A 
ATOM      4  C4  I4B d   1       2.028   3.699  -0.040  0.00  0.00    -0.004 A 
ATOM      5  C5  I4B d   1       3.108   2.825  -0.126  0.00  0.00     0.002 A 
ATOM      6  C6  I4B d   1       2.926   1.457   0.118  0.00  0.00     0.003 A 
ENDROOT
BRANCH   1   7
ATOM      7  C1' I4B d   1       1.460  -0.460   0.808  0.00  0.00     0.060 C 
BRANCH   7   8
ATOM      8  C2' I4B d   1       0.187  -0.919   0.125  0.00  0.00    -0.013 C 
ATOM      9  C4' I4B d   1       0.215  -0.605  -1.347  0.00  0.00     0.013 C 
ATOM     10  C3' I4B d   1       0.041  -2.393   0.362  0.00  0.00     0.013 C 
ENDBRANCH   7   8
ENDBRANCH   1   7
TORSDOF 2
ENDMDL
