MODEL 1
REMARK minimizedAffinity 7.07947826
REMARK minimizedRMSD -1
REMARK  2 active torsions:
REMARK  status: ('A' for Active; 'I' for Inactive)
REMARK    1  A    between atoms: C2'_3  and  C1'_4 
REMARK    2  A    between atoms: C1'_4  and  C1_5 
ROOT
ATOM      1  C1  I4B d   1      -1.592  -5.996  -3.139  0.00  0.00    -0.075 A 
ATOM      2  C2  I4B d   1      -2.113  -5.992  -1.869  0.00  0.00     0.003 A 
ATOM      3  C3  I4B d   1      -3.516  -5.973  -1.675  0.00  0.00     0.002 A 
ATOM      4  C4  I4B d   1      -4.353  -5.907  -2.770  0.00  0.00    -0.004 A 
ATOM      5  C5  I4B d   1      -3.823  -5.934  -4.057  0.00  0.00     0.002 A 
ATOM      6  C6  I4B d   1      -2.434  -5.991  -4.243  0.00  0.00     0.003 A 
ENDROOT
BRANCH   1   7
ATOM      7  C1' I4B d   1      -0.105  -5.984  -3.308  0.00  0.00     0.060 C 
BRANCH   7   8
ATOM      8  C2' I4B d   1       0.216  -5.181  -4.552  0.00  0.00    -0.013 C 
ATOM      9  C4' I4B d   1       1.690  -4.882  -4.642  0.00  0.00     0.013 C 
ATOM     10  C3' I4B d   1      -0.251  -5.965  -5.742  0.00  0.00     0.013 C 
ENDBRANCH   7   8
ENDBRANCH   1   7
TORSDOF 2
ENDMDL
