MODEL 1
REMARK minimizedAffinity 7.82694721
REMARK minimizedRMSD -1
REMARK  2 active torsions:
REMARK  status: ('A' for Active; 'I' for Inactive)
REMARK    1  A    between atoms: C2'_3  and  C1'_4 
REMARK    2  A    between atoms: C1'_4  and  C1_5 
ROOT
ATOM      1  C1  I4B d   1       2.389   0.663  -0.004  0.00  0.00    -0.075 A 
ATOM      2  C2  I4B d   1       3.075  -0.177   0.837  0.00  0.00     0.003 A 
ATOM      3  C3  I4B d   1       2.388  -1.189   1.550  0.00  0.00     0.002 A 
ATOM      4  C4  I4B d   1       1.017  -1.291   1.433  0.00  0.00    -0.004 A 
ATOM      5  C5  I4B d   1       0.326  -0.454   0.562  0.00  0.00     0.002 A 
ATOM      6  C6  I4B d   1       1.018   0.522  -0.171  0.00  0.00     0.003 A 
ENDROOT
BRANCH   1   7
ATOM      7  C1' I4B d   1       3.142   1.742  -0.717  0.00  0.00     0.060 C 
BRANCH   7   8
ATOM      8  C2' I4B d   1       2.935   3.036   0.043  0.00  0.00    -0.013 C 
ATOM      9  C4' I4B d   1       4.066   3.999  -0.203  0.00  0.00     0.013 C 
ATOM     10  C3' I4B d   1       1.622   3.620  -0.387  0.00  0.00     0.013 C 
ENDBRANCH   7   8
ENDBRANCH   1   7
TORSDOF 2
ENDMDL
