MODEL 1
REMARK minimizedAffinity -4.07433891
REMARK minimizedRMSD -1
REMARK  1 active torsions:
REMARK  status: ('A' for Active; 'I' for Inactive)
REMARK    1  A    between atoms: C1_2  and  C2_3 
ROOT
ATOM      1  C2  UNL d   1       1.197   0.171  -0.650  0.00  0.00    -0.076 A 
ATOM      2  C3  UNL d   1       0.680  -1.137  -0.673  0.00  0.00     0.004 A 
ATOM      3  C4  UNL d   1      -0.234  -1.564   0.289  0.00  0.00    -0.003 A 
ATOM      4  C5  UNL d   1      -0.648  -0.690   1.288  0.00  0.00     0.000 A 
ATOM      5  C6  UNL d   1      -0.159   0.616   1.316  0.00  0.00     0.000 A 
ATOM      6  C7  UNL d   1       0.751   1.067   0.345  0.00  0.00    -0.073 A 
ATOM      7  C8  UNL d   1       1.250   2.484   0.426  0.00  0.00     0.078 C 
ENDROOT
BRANCH   1   8
ATOM      8  C1  UNL d   1       2.206   0.569  -1.703  0.00  0.00     0.053 C 
ATOM      9  C   UNL d   1       1.896  -0.033  -3.065  0.00  0.00     0.018 C 
ENDBRANCH   1   8
TORSDOF 1
ENDMDL
