MODEL 1
REMARK minimizedAffinity -5.67576838
REMARK minimizedRMSD -1
REMARK  1 active torsions:
REMARK  status: ('A' for Active; 'I' for Inactive)
REMARK    1  A    between atoms: C1_2  and  C2_3 
ROOT
ATOM      1  C2  UNL d   1       0.984   1.112  -0.353  0.00  0.00    -0.076 A 
ATOM      2  C3  UNL d   1       1.874   1.153  -1.440  0.00  0.00     0.004 A 
ATOM      3  C4  UNL d   1       1.988   0.074  -2.315  0.00  0.00    -0.003 A 
ATOM      4  C5  UNL d   1       1.213  -1.064  -2.116  0.00  0.00     0.000 A 
ATOM      5  C6  UNL d   1       0.312  -1.114  -1.053  0.00  0.00     0.000 A 
ATOM      6  C7  UNL d   1       0.173  -0.029  -0.172  0.00  0.00    -0.073 A 
ATOM      7  C8  UNL d   1      -0.810  -0.140   0.961  0.00  0.00     0.078 C 
ENDROOT
BRANCH   1   8
ATOM      8  C1  UNL d   1       0.923   2.302   0.578  0.00  0.00     0.053 C 
ATOM      9  C   UNL d   1       1.365   3.592  -0.095  0.00  0.00     0.018 C 
ENDBRANCH   1   8
TORSDOF 1
ENDMDL
