MODEL 1
REMARK minimizedAffinity -4.72251606
REMARK minimizedRMSD -1
REMARK  1 active torsions:
REMARK  status: ('A' for Active; 'I' for Inactive)
REMARK    1  A    between atoms: C1_2  and  C2_3 
ROOT
ATOM      1  C2  UNL d   1       0.176   0.464  -0.396  0.00  0.00    -0.076 A 
ATOM      2  C3  UNL d   1       0.352  -0.663  -1.218  0.00  0.00     0.004 A 
ATOM      3  C4  UNL d   1       1.310  -0.670  -2.231  0.00  0.00    -0.003 A 
ATOM      4  C5  UNL d   1       2.109   0.449  -2.437  0.00  0.00     0.000 A 
ATOM      5  C6  UNL d   1       1.961   1.569  -1.620  0.00  0.00     0.000 A 
ATOM      6  C7  UNL d   1       1.011   1.587  -0.584  0.00  0.00    -0.073 A 
ATOM      7  C8  UNL d   1       0.890   2.824   0.263  0.00  0.00     0.078 C 
ENDROOT
BRANCH   1   8
ATOM      8  C1  UNL d   1      -0.897   0.425   0.668  0.00  0.00     0.053 C 
ATOM      9  C   UNL d   1      -0.708  -0.727   1.643  0.00  0.00     0.018 C 
ENDBRANCH   1   8
TORSDOF 1
ENDMDL
