MODEL 1
REMARK minimizedAffinity -4.58187199
REMARK minimizedRMSD -1
REMARK  1 active torsions:
REMARK  status: ('A' for Active; 'I' for Inactive)
REMARK    1  A    between atoms: C1_2  and  C2_3 
ROOT
ATOM      1  C2  UNL d   1       0.321   0.558  -0.553  0.00  0.00    -0.076 A 
ATOM      2  C3  UNL d   1       0.059  -0.156  -1.735  0.00  0.00     0.004 A 
ATOM      3  C4  UNL d   1       1.015  -0.247  -2.745  0.00  0.00    -0.003 A 
ATOM      4  C5  UNL d   1       2.249   0.374  -2.589  0.00  0.00     0.000 A 
ATOM      5  C6  UNL d   1       2.533   1.071  -1.416  0.00  0.00     0.000 A 
ATOM      6  C7  UNL d   1       1.586   1.159  -0.381  0.00  0.00    -0.073 A 
ATOM      7  C8  UNL d   1       1.943   1.929   0.861  0.00  0.00     0.078 C 
ENDROOT
BRANCH   1   8
ATOM      8  C1  UNL d   1      -0.764   0.645   0.496  0.00  0.00     0.053 C 
ATOM      9  C   UNL d   1      -0.822  -0.592   1.380  0.00  0.00     0.018 C 
ENDBRANCH   1   8
TORSDOF 1
ENDMDL
