MODEL 1
REMARK minimizedAffinity -4.43405437
REMARK minimizedRMSD -1
REMARK  1 active torsions:
REMARK  status: ('A' for Active; 'I' for Inactive)
REMARK    1  A    between atoms: C1_2  and  C2_3 
ROOT
ATOM      1  C2  UNL d   1      -0.029  -0.522   0.050  0.00  0.00    -0.076 A 
ATOM      2  C3  UNL d   1       0.489   0.368  -0.907  0.00  0.00     0.004 A 
ATOM      3  C4  UNL d   1       1.155  -0.102  -2.038  0.00  0.00    -0.003 A 
ATOM      4  C5  UNL d   1       1.311  -1.470  -2.231  0.00  0.00     0.000 A 
ATOM      5  C6  UNL d   1       0.788  -2.368  -1.302  0.00  0.00     0.000 A 
ATOM      6  C7  UNL d   1       0.100  -1.911  -0.164  0.00  0.00    -0.073 A 
ATOM      7  C8  UNL d   1      -0.439  -2.924   0.809  0.00  0.00     0.078 C 
ENDROOT
BRANCH   1   8
ATOM      8  C1  UNL d   1      -0.717   0.046   1.270  0.00  0.00     0.053 C 
ATOM      9  C   UNL d   1      -2.231   0.072   1.127  0.00  0.00     0.018 C 
ENDBRANCH   1   8
TORSDOF 1
ENDMDL
