MODEL 1
REMARK minimizedAffinity -4.11047697
REMARK minimizedRMSD -1
REMARK  1 active torsions:
REMARK  status: ('A' for Active; 'I' for Inactive)
REMARK    1  A    between atoms: C1_2  and  C2_3 
ROOT
ATOM      1  C2  UNL d   1      -0.113   0.016   0.204  0.00  0.00    -0.076 A 
ATOM      2  C3  UNL d   1      -0.334  -0.809  -0.913  0.00  0.00     0.004 A 
ATOM      3  C4  UNL d   1       0.381  -0.622  -2.095  0.00  0.00    -0.003 A 
ATOM      4  C5  UNL d   1       1.329   0.392  -2.179  0.00  0.00     0.000 A 
ATOM      5  C6  UNL d   1       1.573   1.208  -1.075  0.00  0.00     0.000 A 
ATOM      6  C7  UNL d   1       0.873   1.022   0.129  0.00  0.00    -0.073 A 
ATOM      7  C8  UNL d   1       1.172   1.936   1.287  0.00  0.00     0.078 C 
ENDROOT
BRANCH   1   8
ATOM      8  C1  UNL d   1      -0.938  -0.217   1.449  0.00  0.00     0.053 C 
ATOM      9  C   UNL d   1      -2.424   0.005   1.214  0.00  0.00     0.018 C 
ENDBRANCH   1   8
TORSDOF 1
ENDMDL
