MODEL 1
REMARK minimizedAffinity -5.60017157
REMARK minimizedRMSD -1
REMARK  1 active torsions:
REMARK  status: ('A' for Active; 'I' for Inactive)
REMARK    1  A    between atoms: C1_2  and  C2_3 
ROOT
ATOM      1  C2  UNL d   1       0.524  -0.315  -0.361  0.00  0.00    -0.076 A 
ATOM      2  C3  UNL d   1       0.417  -1.408  -1.238  0.00  0.00     0.004 A 
ATOM      3  C4  UNL d   1       1.044  -1.393  -2.483  0.00  0.00    -0.003 A 
ATOM      4  C5  UNL d   1       1.790  -0.286  -2.870  0.00  0.00     0.000 A 
ATOM      5  C6  UNL d   1       1.922   0.800  -2.005  0.00  0.00     0.000 A 
ATOM      6  C7  UNL d   1       1.309   0.795  -0.741  0.00  0.00    -0.073 A 
ATOM      7  C8  UNL d   1       1.479   1.996   0.149  0.00  0.00     0.078 C 
ENDROOT
BRANCH   1   8
ATOM      8  C1  UNL d   1      -0.201  -0.376   0.964  0.00  0.00     0.053 C 
ATOM      9  C   UNL d   1      -0.470  -1.803   1.416  0.00  0.00     0.018 C 
ENDBRANCH   1   8
TORSDOF 1
ENDMDL
