MODEL 1
REMARK minimizedAffinity -3.1093266
REMARK minimizedRMSD -1
REMARK  1 active torsions:
REMARK  status: ('A' for Active; 'I' for Inactive)
REMARK    1  A    between atoms: C1_2  and  C2_3 
ROOT
ATOM      1  C2  UNL d   1       0.366  -0.211   0.088  0.00  0.00    -0.076 A 
ATOM      2  C3  UNL d   1       0.724   1.148   0.073  0.00  0.00     0.004 A 
ATOM      3  C4  UNL d   1       1.450   1.686  -0.988  0.00  0.00    -0.003 A 
ATOM      4  C5  UNL d   1       1.830   0.874  -2.051  0.00  0.00     0.000 A 
ATOM      5  C6  UNL d   1       1.468  -0.472  -2.060  0.00  0.00     0.000 A 
ATOM      6  C7  UNL d   1       0.722  -1.027  -1.007  0.00  0.00    -0.073 A 
ATOM      7  C8  UNL d   1       0.364  -2.487  -1.066  0.00  0.00     0.078 C 
ENDROOT
BRANCH   1   8
ATOM      8  C1  UNL d   1      -0.399  -0.746   1.279  0.00  0.00     0.053 C 
ATOM      9  C   UNL d   1      -1.568   0.146   1.667  0.00  0.00     0.018 C 
ENDBRANCH   1   8
TORSDOF 1
ENDMDL
