MODEL 1
REMARK minimizedAffinity -4.17540646
REMARK minimizedRMSD -1
REMARK  1 active torsions:
REMARK  status: ('A' for Active; 'I' for Inactive)
REMARK    1  A    between atoms: C1_2  and  C2_3 
ROOT
ATOM      1  C2  UNL d   1      -0.085   0.157   0.136  0.00  0.00    -0.076 A 
ATOM      2  C3  UNL d   1       0.141   1.531   0.332  0.00  0.00     0.004 A 
ATOM      3  C4  UNL d   1       0.950   2.256  -0.541  0.00  0.00    -0.003 A 
ATOM      4  C5  UNL d   1       1.545   1.620  -1.624  0.00  0.00     0.000 A 
ATOM      5  C6  UNL d   1       1.318   0.262  -1.844  0.00  0.00     0.000 A 
ATOM      6  C7  UNL d   1       0.492  -0.481  -0.983  0.00  0.00    -0.073 A 
ATOM      7  C8  UNL d   1       0.286  -1.944  -1.264  0.00  0.00     0.078 C 
ENDROOT
BRANCH   1   8
ATOM      8  C1  UNL d   1      -0.950  -0.584   1.131  0.00  0.00     0.053 C 
ATOM      9  C   UNL d   1      -2.122   0.252   1.620  0.00  0.00     0.018 C 
ENDBRANCH   1   8
TORSDOF 1
ENDMDL
