MODEL 1
REMARK minimizedAffinity -4.29958868
REMARK minimizedRMSD -1
REMARK  1 active torsions:
REMARK  status: ('A' for Active; 'I' for Inactive)
REMARK    1  A    between atoms: C1_2  and  C2_3 
ROOT
ATOM      1  C2  UNL d   1       0.525  -0.160   0.252  0.00  0.00    -0.076 A 
ATOM      2  C3  UNL d   1       0.667   1.237   0.179  0.00  0.00     0.004 A 
ATOM      3  C4  UNL d   1       1.436   1.829  -0.821  0.00  0.00    -0.003 A 
ATOM      4  C5  UNL d   1       2.076   1.034  -1.765  0.00  0.00     0.000 A 
ATOM      5  C6  UNL d   1       1.933  -0.352  -1.719  0.00  0.00     0.000 A 
ATOM      6  C7  UNL d   1       1.147  -0.964  -0.727  0.00  0.00    -0.073 A 
ATOM      7  C8  UNL d   1       1.032  -2.464  -0.721  0.00  0.00     0.078 C 
ENDROOT
BRANCH   1   8
ATOM      8  C1  UNL d   1      -0.300  -0.747   1.375  0.00  0.00     0.053 C 
ATOM      9  C   UNL d   1      -1.412   0.186   1.829  0.00  0.00     0.018 C 
ENDBRANCH   1   8
TORSDOF 1
ENDMDL
