MODEL 1
REMARK minimizedAffinity 1.19747066
REMARK minimizedRMSD -1
REMARK  1 active torsions:
REMARK  status: ('A' for Active; 'I' for Inactive)
REMARK    1  A    between atoms: C1_2  and  C2_3 
ROOT
ATOM      1  C2  UNL d   1       1.272   0.033  -0.044  0.00  0.00    -0.081 A 
ATOM      2  C3  UNL d   1       1.387   1.307   0.524  0.00  0.00     0.006 A 
ATOM      3  C4  UNL d   1       2.552   2.058   0.350  0.00  0.00     0.002 A 
ATOM      4  C5  UNL d   1       3.618   1.550  -0.401  0.00  0.00    -0.080 A 
ATOM      5  C6  UNL d   1       4.862   2.358  -0.622  0.00  0.00     0.076 C 
ATOM      6  C7  UNL d   1       3.510   0.270  -0.955  0.00  0.00     0.002 A 
ATOM      7  C8  UNL d   1       2.345  -0.481  -0.780  0.00  0.00     0.006 A 
ENDROOT
BRANCH   1   8
ATOM      8  C1  UNL d   1      -0.008  -0.753   0.088  0.00  0.00     0.054 C 
ATOM      9  C   UNL d   1       0.225  -2.237  -0.157  0.00  0.00     0.018 C 
ENDBRANCH   1   8
TORSDOF 1
ENDMDL
