MODEL 1
REMARK minimizedAffinity 7.3333993
REMARK minimizedRMSD -1
REMARK  1 active torsions:
REMARK  status: ('A' for Active; 'I' for Inactive)
REMARK    1  A    between atoms: C1_2  and  C2_3 
ROOT
ATOM      1  C2  UNL d   1       0.988   0.283   0.352  0.00  0.00    -0.081 A 
ATOM      2  C3  UNL d   1       2.259  -0.198   0.690  0.00  0.00     0.006 A 
ATOM      3  C4  UNL d   1       2.951  -1.042  -0.183  0.00  0.00     0.002 A 
ATOM      4  C5  UNL d   1       2.388  -1.410  -1.409  0.00  0.00    -0.080 A 
ATOM      5  C6  UNL d   1       3.134  -2.291  -2.368  0.00  0.00     0.076 C 
ATOM      6  C7  UNL d   1       1.111  -0.943  -1.739  0.00  0.00     0.002 A 
ATOM      7  C8  UNL d   1       0.418  -0.101  -0.867  0.00  0.00     0.006 A 
ENDROOT
BRANCH   1   8
ATOM      8  C1  UNL d   1       0.266   1.245   1.262  0.00  0.00     0.054 C 
ATOM      9  C   UNL d   1      -0.595   0.506   2.276  0.00  0.00     0.018 C 
ENDBRANCH   1   8
TORSDOF 1
ENDMDL
