MODEL 1
REMARK minimizedAffinity -0.102232516
REMARK minimizedRMSD -1
REMARK  1 active torsions:
REMARK  status: ('A' for Active; 'I' for Inactive)
REMARK    1  A    between atoms: C1_2  and  C2_3 
ROOT
ATOM      1  C2  UNL d   1       3.499   1.392   0.060  0.00  0.00    -0.081 A 
ATOM      2  C3  UNL d   1       2.864   0.158  -0.129  0.00  0.00     0.006 A 
ATOM      3  C4  UNL d   1       1.474   0.088  -0.247  0.00  0.00     0.002 A 
ATOM      4  C5  UNL d   1       0.697   1.249  -0.185  0.00  0.00    -0.080 A 
ATOM      5  C6  UNL d   1      -0.794   1.191  -0.341  0.00  0.00     0.076 C 
ATOM      6  C7  UNL d   1       1.330   2.480   0.022  0.00  0.00     0.002 A 
ATOM      7  C8  UNL d   1       2.720   2.551   0.140  0.00  0.00     0.006 A 
ENDROOT
BRANCH   1   8
ATOM      8  C1  UNL d   1       5.003   1.478   0.123  0.00  0.00     0.054 C 
ATOM      9  C   UNL d   1       5.545   2.448  -0.916  0.00  0.00     0.018 C 
ENDBRANCH   1   8
TORSDOF 1
ENDMDL
