MODEL 1
REMARK minimizedAffinity 0.988818705
REMARK minimizedRMSD -1
REMARK  1 active torsions:
REMARK  status: ('A' for Active; 'I' for Inactive)
REMARK    1  A    between atoms: C1_2  and  C2_3 
ROOT
ATOM      1  C2  UNL d   1       3.384   0.126   0.182  0.00  0.00    -0.081 A 
ATOM      2  C3  UNL d   1       4.169   0.470  -0.926  0.00  0.00     0.006 A 
ATOM      3  C4  UNL d   1       4.364  -0.441  -1.966  0.00  0.00     0.002 A 
ATOM      4  C5  UNL d   1       3.774  -1.708  -1.920  0.00  0.00    -0.080 A 
ATOM      5  C6  UNL d   1       3.951  -2.685  -3.045  0.00  0.00     0.076 C 
ATOM      6  C7  UNL d   1       3.004  -2.059  -0.806  0.00  0.00     0.002 A 
ATOM      7  C8  UNL d   1       2.809  -1.149   0.235  0.00  0.00     0.006 A 
ENDROOT
BRANCH   1   8
ATOM      8  C1  UNL d   1       3.118   1.129   1.275  0.00  0.00     0.054 C 
ATOM      9  C   UNL d   1       2.633   2.454   0.703  0.00  0.00     0.018 C 
ENDBRANCH   1   8
TORSDOF 1
ENDMDL
