MODEL 1
REMARK minimizedAffinity 4.55494022
REMARK minimizedRMSD -1
REMARK  1 active torsions:
REMARK  status: ('A' for Active; 'I' for Inactive)
REMARK    1  A    between atoms: C1_2  and  C2_3 
ROOT
ATOM      1  C2  UNL d   1       1.366   0.837  -0.216  0.00  0.00    -0.081 A 
ATOM      2  C3  UNL d   1       1.735  -0.514  -0.234  0.00  0.00     0.006 A 
ATOM      3  C4  UNL d   1       3.021  -0.902   0.147  0.00  0.00     0.002 A 
ATOM      4  C5  UNL d   1       3.957   0.053   0.560  0.00  0.00    -0.080 A 
ATOM      5  C6  UNL d   1       5.332  -0.353   1.001  0.00  0.00     0.076 C 
ATOM      6  C7  UNL d   1       3.594   1.404   0.561  0.00  0.00     0.002 A 
ATOM      7  C8  UNL d   1       2.308   1.792   0.179  0.00  0.00     0.006 A 
ENDROOT
BRANCH   1   8
ATOM      8  C1  UNL d   1      -0.041   1.251  -0.565  0.00  0.00     0.054 C 
ATOM      9  C   UNL d   1      -0.859   1.538   0.686  0.00  0.00     0.018 C 
ENDBRANCH   1   8
TORSDOF 1
ENDMDL
