MODEL 1
REMARK minimizedAffinity 1.71351671
REMARK minimizedRMSD -1
REMARK  1 active torsions:
REMARK  status: ('A' for Active; 'I' for Inactive)
REMARK    1  A    between atoms: C1_2  and  C2_3 
ROOT
ATOM      1  C2  UNL d   1       2.764  -0.724   0.571  0.00  0.00    -0.081 A 
ATOM      2  C3  UNL d   1       1.799   0.289   0.512  0.00  0.00     0.006 A 
ATOM      3  C4  UNL d   1       2.183   1.631   0.446  0.00  0.00     0.002 A 
ATOM      4  C5  UNL d   1       3.538   1.981   0.430  0.00  0.00    -0.080 A 
ATOM      5  C6  UNL d   1       3.964   3.415   0.330  0.00  0.00     0.076 C 
ATOM      6  C7  UNL d   1       4.502   0.970   0.507  0.00  0.00     0.002 A 
ATOM      7  C8  UNL d   1       4.118  -0.372   0.573  0.00  0.00     0.006 A 
ENDROOT
BRANCH   1   8
ATOM      8  C1  UNL d   1       2.353  -2.174   0.576  0.00  0.00     0.054 C 
ATOM      9  C   UNL d   1       1.805  -2.599  -0.779  0.00  0.00     0.018 C 
ENDBRANCH   1   8
TORSDOF 1
ENDMDL
