MODEL 1
REMARK minimizedAffinity -0.118883863
REMARK minimizedRMSD -1
REMARK  1 active torsions:
REMARK  status: ('A' for Active; 'I' for Inactive)
REMARK    1  A    between atoms: C1_2  and  C2_3 
ROOT
ATOM      1  C2  UNL d   1       3.017  -0.742  -0.309  0.00  0.00    -0.081 A 
ATOM      2  C3  UNL d   1       2.201  -0.070   0.610  0.00  0.00     0.006 A 
ATOM      3  C4  UNL d   1       2.278   1.318   0.744  0.00  0.00     0.002 A 
ATOM      4  C5  UNL d   1       3.166   2.059  -0.044  0.00  0.00    -0.080 A 
ATOM      5  C6  UNL d   1       3.237   3.553   0.067  0.00  0.00     0.076 C 
ATOM      6  C7  UNL d   1       3.993   1.386  -0.950  0.00  0.00     0.002 A 
ATOM      7  C8  UNL d   1       3.917  -0.002  -1.083  0.00  0.00     0.006 A 
ENDROOT
BRANCH   1   8
ATOM      8  C1  UNL d   1       2.890  -2.231  -0.501  0.00  0.00     0.054 C 
ATOM      9  C   UNL d   1       1.475  -2.709  -0.206  0.00  0.00     0.018 C 
ENDBRANCH   1   8
TORSDOF 1
ENDMDL
