MODEL 1
REMARK minimizedAffinity 6.17558718
REMARK minimizedRMSD -1
REMARK  1 active torsions:
REMARK  status: ('A' for Active; 'I' for Inactive)
REMARK    1  A    between atoms: C1_2  and  C2_3 
ROOT
ATOM      1  C2  UNL d   1       2.902  -0.676  -0.089  0.00  0.00    -0.081 A 
ATOM      2  C3  UNL d   1       2.573  -1.235  -1.330  0.00  0.00     0.006 A 
ATOM      3  C4  UNL d   1       1.630  -2.262  -1.416  0.00  0.00     0.002 A 
ATOM      4  C5  UNL d   1       0.994  -2.741  -0.265  0.00  0.00    -0.080 A 
ATOM      5  C6  UNL d   1      -0.042  -3.821  -0.348  0.00  0.00     0.076 C 
ATOM      6  C7  UNL d   1       1.336  -2.194   0.976  0.00  0.00     0.002 A 
ATOM      7  C8  UNL d   1       2.279  -1.168   1.064  0.00  0.00     0.006 A 
ENDROOT
BRANCH   1   8
ATOM      8  C1  UNL d   1       3.871   0.475   0.001  0.00  0.00     0.054 C 
ATOM      9  C   UNL d   1       3.171   1.755   0.433  0.00  0.00     0.018 C 
ENDBRANCH   1   8
TORSDOF 1
ENDMDL
