MODEL 1
REMARK minimizedAffinity -0.357472986
REMARK minimizedRMSD -1
REMARK  1 active torsions:
REMARK  status: ('A' for Active; 'I' for Inactive)
REMARK    1  A    between atoms: C1_2  and  C2_3 
ROOT
ATOM      1  C2  UNL d   1       2.653  -0.895  -0.112  0.00  0.00    -0.081 A 
ATOM      2  C3  UNL d   1       2.031  -0.998  -1.362  0.00  0.00     0.006 A 
ATOM      3  C4  UNL d   1       1.375  -2.175  -1.732  0.00  0.00     0.002 A 
ATOM      4  C5  UNL d   1       1.324  -3.264  -0.856  0.00  0.00    -0.080 A 
ATOM      5  C6  UNL d   1       0.597  -4.522  -1.229  0.00  0.00     0.076 C 
ATOM      6  C7  UNL d   1       1.961  -3.168   0.386  0.00  0.00     0.002 A 
ATOM      7  C8  UNL d   1       2.617  -1.992   0.756  0.00  0.00     0.006 A 
ENDROOT
BRANCH   1   8
ATOM      8  C1  UNL d   1       3.305   0.395   0.315  0.00  0.00     0.054 C 
ATOM      9  C   UNL d   1       2.301   1.538   0.350  0.00  0.00     0.018 C 
ENDBRANCH   1   8
TORSDOF 1
ENDMDL
