MODEL 1
REMARK minimizedAffinity 2.90081787
REMARK minimizedRMSD -1
REMARK  1 active torsions:
REMARK  status: ('A' for Active; 'I' for Inactive)
REMARK    1  A    between atoms: C1_2  and  C2_3 
ROOT
ATOM      1  C2  UNL d   1       1.778   0.258  -0.415  0.00  0.00    -0.081 A 
ATOM      2  C3  UNL d   1       2.242  -1.063  -0.421  0.00  0.00     0.006 A 
ATOM      3  C4  UNL d   1       1.388  -2.112  -0.772  0.00  0.00     0.002 A 
ATOM      4  C5  UNL d   1       0.060  -1.856  -1.129  0.00  0.00    -0.080 A 
ATOM      5  C6  UNL d   1      -0.859  -2.970  -1.536  0.00  0.00     0.076 C 
ATOM      6  C7  UNL d   1      -0.408  -0.538  -1.105  0.00  0.00     0.002 A 
ATOM      7  C8  UNL d   1       0.445   0.510  -0.754  0.00  0.00     0.006 A 
ENDROOT
BRANCH   1   8
ATOM      8  C1  UNL d   1       2.714   1.397  -0.100  0.00  0.00     0.054 C 
ATOM      9  C   UNL d   1       4.004   1.290  -0.900  0.00  0.00     0.018 C 
ENDBRANCH   1   8
TORSDOF 1
ENDMDL
