MODEL 1
REMARK minimizedAffinity 3.60966778
REMARK minimizedRMSD -1
REMARK  1 active torsions:
REMARK  status: ('A' for Active; 'I' for Inactive)
REMARK    1  A    between atoms: C1_2  and  C2_3 
ROOT
ATOM      1  C2  UNL d   1       0.487  -1.258  -0.479  0.00  0.00    -0.081 A 
ATOM      2  C3  UNL d   1      -0.698  -1.378  -1.217  0.00  0.00     0.006 A 
ATOM      3  C4  UNL d   1      -1.360  -0.239  -1.682  0.00  0.00     0.002 A 
ATOM      4  C5  UNL d   1      -0.845   1.036  -1.424  0.00  0.00    -0.080 A 
ATOM      5  C6  UNL d   1      -1.530   2.265  -1.944  0.00  0.00     0.076 C 
ATOM      6  C7  UNL d   1       0.328   1.156  -0.672  0.00  0.00     0.002 A 
ATOM      7  C8  UNL d   1       0.990   0.018  -0.206  0.00  0.00     0.006 A 
ENDROOT
BRANCH   1   8
ATOM      8  C1  UNL d   1       1.237  -2.486  -0.031  0.00  0.00     0.054 C 
ATOM      9  C   UNL d   1       2.551  -2.638  -0.786  0.00  0.00     0.018 C 
ENDBRANCH   1   8
TORSDOF 1
ENDMDL
