MODEL 1
REMARK minimizedAffinity 2.51248765
REMARK minimizedRMSD -1
REMARK  2 active torsions:
REMARK  status: ('A' for Active; 'I' for Inactive)
REMARK    1  A    between atoms: C2'_3  and  C1'_4 
REMARK    2  A    between atoms: C1'_4  and  C1_5 
ROOT
ATOM      1  C1  I4B d   1      -5.959   2.456  -1.834  0.00  0.00    -0.075 A 
ATOM      2  C2  I4B d   1      -5.982   1.375  -2.680  0.00  0.00     0.003 A 
ATOM      3  C3  I4B d   1      -5.976   1.567  -4.083  0.00  0.00     0.002 A 
ATOM      4  C4  I4B d   1      -5.999   2.849  -4.593  0.00  0.00    -0.004 A 
ATOM      5  C5  I4B d   1      -5.953   3.944  -3.735  0.00  0.00     0.002 A 
ATOM      6  C6  I4B d   1      -5.921   3.747  -2.347  0.00  0.00     0.003 A 
ENDROOT
BRANCH   1   7
ATOM      7  C1' I4B d   1      -5.999   2.218  -0.358  0.00  0.00     0.060 C 
BRANCH   7   8
ATOM      8  C2' I4B d   1      -4.720   1.508   0.035  0.00  0.00    -0.013 C 
ATOM      9  C4' I4B d   1      -3.537   2.438  -0.033  0.00  0.00     0.013 C 
ATOM     10  C3' I4B d   1      -4.900   0.961   1.419  0.00  0.00     0.013 C 
ENDBRANCH   7   8
ENDBRANCH   1   7
TORSDOF 2
ENDMDL
