MODEL 1
REMARK minimizedAffinity 7.83529091
REMARK minimizedRMSD -1
REMARK  2 active torsions:
REMARK  status: ('A' for Active; 'I' for Inactive)
REMARK    1  A    between atoms: C2'_3  and  C1'_4 
REMARK    2  A    between atoms: C1'_4  and  C1_5 
ROOT
ATOM      1  C1  I4B d   1      -5.249   1.654  -5.166  0.00  0.00    -0.075 A 
ATOM      2  C2  I4B d   1      -5.964   0.534  -5.510  0.00  0.00     0.003 A 
ATOM      3  C3  I4B d   1      -5.291  -0.646  -5.910  0.00  0.00     0.002 A 
ATOM      4  C4  I4B d   1      -3.914  -0.646  -5.999  0.00  0.00    -0.004 A 
ATOM      5  C5  I4B d   1      -3.190   0.483  -5.628  0.00  0.00     0.002 A 
ATOM      6  C6  I4B d   1      -3.861   1.637  -5.198  0.00  0.00     0.003 A 
ENDROOT
BRANCH   1   7
ATOM      7  C1' I4B d   1      -5.993   2.894  -4.781  0.00  0.00     0.060 C 
BRANCH   7   8
ATOM      8  C2' I4B d   1      -5.477   3.346  -3.430  0.00  0.00    -0.013 C 
ATOM      9  C4' I4B d   1      -5.917   4.753  -3.122  0.00  0.00     0.013 C 
ATOM     10  C3' I4B d   1      -5.981   2.383  -2.396  0.00  0.00     0.013 C 
ENDBRANCH   7   8
ENDBRANCH   1   7
TORSDOF 2
ENDMDL
