MODEL 1
REMARK minimizedAffinity 6.06817007
REMARK minimizedRMSD -1
REMARK  2 active torsions:
REMARK  status: ('A' for Active; 'I' for Inactive)
REMARK    1  A    between atoms: C2'_3  and  C1'_4 
REMARK    2  A    between atoms: C1'_4  and  C1_5 
ROOT
ATOM      1  C1  I4B d   1      -4.546   2.260   0.013  0.00  0.00    -0.075 A 
ATOM      2  C2  I4B d   1      -5.660   1.459  -0.018  0.00  0.00     0.003 A 
ATOM      3  C3  I4B d   1      -6.000   0.667   1.105  0.00  0.00     0.002 A 
ATOM      4  C4  I4B d   1      -5.175   0.667   2.211  0.00  0.00    -0.004 A 
ATOM      5  C5  I4B d   1      -4.058   1.497   2.250  0.00  0.00     0.002 A 
ATOM      6  C6  I4B d   1      -3.748   2.308   1.148  0.00  0.00     0.003 A 
ENDROOT
BRANCH   1   7
ATOM      7  C1' I4B d   1      -4.198   3.059  -1.203  0.00  0.00     0.060 C 
BRANCH   7   8
ATOM      8  C2' I4B d   1      -5.487   3.392  -1.927  0.00  0.00    -0.013 C 
ATOM      9  C4' I4B d   1      -5.691   4.882  -2.019  0.00  0.00     0.013 C 
ATOM     10  C3' I4B d   1      -5.428   2.768  -3.289  0.00  0.00     0.013 C 
ENDBRANCH   7   8
ENDBRANCH   1   7
TORSDOF 2
ENDMDL
