MODEL 1
REMARK minimizedAffinity 9.64771175
REMARK minimizedRMSD -1
REMARK  2 active torsions:
REMARK  status: ('A' for Active; 'I' for Inactive)
REMARK    1  A    between atoms: C2'_3  and  C1'_4 
REMARK    2  A    between atoms: C1'_4  and  C1_5 
ROOT
ATOM      1  C1  I4B d   1       3.327  -3.774  -0.333  0.00  0.00    -0.075 A 
ATOM      2  C2  I4B d   1       3.898  -4.992  -0.608  0.00  0.00     0.003 A 
ATOM      3  C3  I4B d   1       5.262  -5.072  -0.980  0.00  0.00     0.002 A 
ATOM      4  C4  I4B d   1       5.999  -3.913  -1.112  0.00  0.00    -0.004 A 
ATOM      5  C5  I4B d   1       5.425  -2.681  -0.810  0.00  0.00     0.002 A 
ATOM      6  C6  I4B d   1       4.084  -2.612  -0.406  0.00  0.00     0.003 A 
ENDROOT
BRANCH   1   7
ATOM      7  C1' I4B d   1       1.875  -3.724   0.025  0.00  0.00     0.060 C 
BRANCH   7   8
ATOM      8  C2' I4B d   1       1.113  -4.536  -1.002  0.00  0.00    -0.013 C 
ATOM      9  C4' I4B d   1       1.113  -6.000  -0.649  0.00  0.00     0.013 C 
ATOM     10  C3' I4B d   1      -0.285  -3.996  -1.074  0.00  0.00     0.013 C 
ENDBRANCH   7   8
ENDBRANCH   1   7
TORSDOF 2
ENDMDL
