MODEL 1
REMARK minimizedAffinity 10.5402479
REMARK minimizedRMSD -1
REMARK  2 active torsions:
REMARK  status: ('A' for Active; 'I' for Inactive)
REMARK    1  A    between atoms: C2'_3  and  C1'_4 
REMARK    2  A    between atoms: C1'_4  and  C1_5 
ROOT
ATOM      1  C1  I4B d   1       2.458  -3.648   0.035  0.00  0.00    -0.075 A 
ATOM      2  C2  I4B d   1       1.892  -2.402   0.130  0.00  0.00     0.003 A 
ATOM      3  C3  I4B d   1       0.527  -2.212  -0.197  0.00  0.00     0.002 A 
ATOM      4  C4  I4B d   1      -0.215  -3.279  -0.661  0.00  0.00    -0.004 A 
ATOM      5  C5  I4B d   1       0.355  -4.547  -0.735  0.00  0.00     0.002 A 
ATOM      6  C6  I4B d   1       1.696  -4.736  -0.373  0.00  0.00     0.003 A 
ENDROOT
BRANCH   1   7
ATOM      7  C1' I4B d   1       3.911  -3.807   0.357  0.00  0.00     0.060 C 
BRANCH   7   8
ATOM      8  C2' I4B d   1       4.655  -4.034  -0.943  0.00  0.00    -0.013 C 
ATOM      9  C4' I4B d   1       5.573  -2.882  -1.255  0.00  0.00     0.013 C 
ATOM     10  C3' I4B d   1       5.420  -5.318  -0.820  0.00  0.00     0.013 C 
ENDBRANCH   7   8
ENDBRANCH   1   7
TORSDOF 2
ENDMDL
