MODEL 1
REMARK minimizedAffinity 1.69534492
REMARK minimizedRMSD -1
REMARK  2 active torsions:
REMARK  status: ('A' for Active; 'I' for Inactive)
REMARK    1  A    between atoms: C2'_3  and  C1'_4 
REMARK    2  A    between atoms: C1'_4  and  C1_5 
ROOT
ATOM      1  C1  I4B d   1      -5.674   2.579  -4.186  0.00  0.00    -0.075 A 
ATOM      2  C2  I4B d   1      -5.080   3.761  -4.550  0.00  0.00     0.003 A 
ATOM      3  C3  I4B d   1      -4.788   4.744  -3.573  0.00  0.00     0.002 A 
ATOM      4  C4  I4B d   1      -5.152   4.525  -2.260  0.00  0.00    -0.004 A 
ATOM      5  C5  I4B d   1      -5.734   3.316  -1.889  0.00  0.00     0.002 A 
ATOM      6  C6  I4B d   1      -5.986   2.332  -2.856  0.00  0.00     0.003 A 
ENDROOT
BRANCH   1   7
ATOM      7  C1' I4B d   1      -5.998   1.578  -5.249  0.00  0.00     0.060 C 
BRANCH   7   8
ATOM      8  C2' I4B d   1      -5.171   0.335  -4.987  0.00  0.00    -0.013 C 
ATOM      9  C4' I4B d   1      -5.992  -0.914  -5.166  0.00  0.00     0.013 C 
ATOM     10  C3' I4B d   1      -4.000   0.353  -5.924  0.00  0.00     0.013 C 
ENDBRANCH   7   8
ENDBRANCH   1   7
TORSDOF 2
ENDMDL
