MODEL 1
REMARK minimizedAffinity 7.3988061
REMARK minimizedRMSD -1
REMARK  2 active torsions:
REMARK  status: ('A' for Active; 'I' for Inactive)
REMARK    1  A    between atoms: C2'_3  and  C1'_4 
REMARK    2  A    between atoms: C1'_4  and  C1_5 
ROOT
ATOM      1  C1  I4B d   1       2.046  -3.273  -0.054  0.00  0.00    -0.075 A 
ATOM      2  C2  I4B d   1       1.211  -2.209  -0.286  0.00  0.00     0.003 A 
ATOM      3  C3  I4B d   1      -0.014  -2.399  -0.971  0.00  0.00     0.002 A 
ATOM      4  C4  I4B d   1      -0.339  -3.653  -1.447  0.00  0.00    -0.004 A 
ATOM      5  C5  I4B d   1       0.498  -4.736  -1.191  0.00  0.00     0.002 A 
ATOM      6  C6  I4B d   1       1.692  -4.547  -0.479  0.00  0.00     0.003 A 
ENDROOT
BRANCH   1   7
ATOM      7  C1' I4B d   1       3.347  -3.031   0.643  0.00  0.00     0.060 C 
BRANCH   7   8
ATOM      8  C2' I4B d   1       4.368  -2.627  -0.402  0.00  0.00    -0.013 C 
ATOM      9  C4' I4B d   1       5.259  -1.524   0.105  0.00  0.00     0.013 C 
ATOM     10  C3' I4B d   1       5.165  -3.845  -0.764  0.00  0.00     0.013 C 
ENDBRANCH   7   8
ENDBRANCH   1   7
TORSDOF 2
ENDMDL
