MODEL 1
REMARK minimizedAffinity 10.9289799
REMARK minimizedRMSD -1
REMARK  2 active torsions:
REMARK  status: ('A' for Active; 'I' for Inactive)
REMARK    1  A    between atoms: C2'_3  and  C1'_4 
REMARK    2  A    between atoms: C1'_4  and  C1_5 
ROOT
ATOM      1  C1  I4B d   1       2.404  -3.160  -0.190  0.00  0.00    -0.075 A 
ATOM      2  C2  I4B d   1       1.738  -4.189  -0.808  0.00  0.00     0.003 A 
ATOM      3  C3  I4B d   1       0.401  -4.015  -1.239  0.00  0.00     0.002 A 
ATOM      4  C4  I4B d   1      -0.245  -2.822  -0.988  0.00  0.00    -0.004 A 
ATOM      5  C5  I4B d   1       0.439  -1.772  -0.382  0.00  0.00     0.002 A 
ATOM      6  C6  I4B d   1       1.776  -1.937   0.009  0.00  0.00     0.003 A 
ENDROOT
BRANCH   1   7
ATOM      7  C1' I4B d   1       3.805  -3.388   0.282  0.00  0.00     0.060 C 
BRANCH   7   8
ATOM      8  C2' I4B d   1       4.641  -3.794  -0.915  0.00  0.00    -0.013 C 
ATOM      9  C4' I4B d   1       5.681  -2.752  -1.232  0.00  0.00     0.013 C 
ATOM     10  C3' I4B d   1       5.276  -5.117  -0.609  0.00  0.00     0.013 C 
ENDBRANCH   7   8
ENDBRANCH   1   7
TORSDOF 2
ENDMDL
