MODEL 1
REMARK minimizedAffinity 10.0999584
REMARK minimizedRMSD -1
REMARK  2 active torsions:
REMARK  status: ('A' for Active; 'I' for Inactive)
REMARK    1  A    between atoms: C1_2  and  C2_3 
REMARK    2  A    between atoms: C2_3  and  C3_4 
ROOT
ATOM      1  C3  UNL d   1      -5.477  -4.766   1.924  0.00  0.00    -0.075 A 
ATOM      2  C4  UNL d   1      -5.988  -3.460   1.895  0.00  0.00     0.002 A 
ATOM      3  C5  UNL d   1      -5.536  -2.544   0.945  0.00  0.00     0.002 A 
ATOM      4  C6  UNL d   1      -4.563  -2.917   0.021  0.00  0.00    -0.004 A 
ATOM      5  C7  UNL d   1      -4.036  -4.206   0.051  0.00  0.00     0.002 A 
ATOM      6  C8  UNL d   1      -4.490  -5.127   0.998  0.00  0.00     0.002 A 
ENDROOT
BRANCH   1   7
ATOM      7  C2  UNL d   1      -5.983  -5.771   2.931  0.00  0.00     0.056 C 
BRANCH   7   8
ATOM      8  C1  UNL d   1      -5.041  -5.993   4.119  0.00  0.00     0.007 C 
ATOM      9  C   UNL d   1      -4.940  -4.784   5.039  0.00  0.00     0.009 C 
ENDBRANCH   7   8
ENDBRANCH   1   7
TORSDOF 2
ENDMDL
