MODEL 1
REMARK minimizedAffinity 3.73552537
REMARK minimizedRMSD -1
REMARK  2 active torsions:
REMARK  status: ('A' for Active; 'I' for Inactive)
REMARK    1  A    between atoms: C1_2  and  C2_3 
REMARK    2  A    between atoms: C2_3  and  C3_4 
ROOT
ATOM      1  C3  UNL d   1      -1.808   0.098   1.214  0.00  0.00    -0.075 A 
ATOM      2  C4  UNL d   1      -0.911  -0.328   0.224  0.00  0.00     0.002 A 
ATOM      3  C5  UNL d   1      -0.741  -1.687  -0.041  0.00  0.00     0.002 A 
ATOM      4  C6  UNL d   1      -1.457  -2.636   0.685  0.00  0.00    -0.004 A 
ATOM      5  C7  UNL d   1      -2.339  -2.225   1.682  0.00  0.00     0.002 A 
ATOM      6  C8  UNL d   1      -2.514  -0.866   1.946  0.00  0.00     0.002 A 
ENDROOT
BRANCH   1   7
ATOM      7  C2  UNL d   1      -2.018   1.568   1.486  0.00  0.00     0.056 C 
BRANCH   7   8
ATOM      8  C1  UNL d   1      -3.475   2.026   1.351  0.00  0.00     0.007 C 
ATOM      9  C   UNL d   1      -3.751   3.358   2.034  0.00  0.00     0.009 C 
ENDBRANCH   7   8
ENDBRANCH   1   7
TORSDOF 2
ENDMDL
