MODEL 1
REMARK minimizedAffinity 17.3033943
REMARK minimizedRMSD -1
REMARK  2 active torsions:
REMARK  status: ('A' for Active; 'I' for Inactive)
REMARK    1  A    between atoms: C1_2  and  C2_3 
REMARK    2  A    between atoms: C2_3  and  C3_4 
ROOT
ATOM      1  C3  UNL d   1      -3.913  -1.173   3.632  0.00  0.00    -0.075 A 
ATOM      2  C4  UNL d   1      -3.338  -1.345   4.899  0.00  0.00     0.002 A 
ATOM      3  C5  UNL d   1      -3.804  -2.340   5.759  0.00  0.00     0.002 A 
ATOM      4  C6  UNL d   1      -4.854  -3.167   5.369  0.00  0.00    -0.004 A 
ATOM      5  C7  UNL d   1      -5.444  -2.995   4.118  0.00  0.00     0.002 A 
ATOM      6  C8  UNL d   1      -4.977  -2.003   3.254  0.00  0.00     0.002 A 
ENDROOT
BRANCH   1   7
ATOM      7  C2  UNL d   1      -3.395  -0.118   2.684  0.00  0.00     0.056 C 
BRANCH   7   8
ATOM      8  C1  UNL d   1      -1.895  -0.225   2.392  0.00  0.00     0.007 C 
ATOM      9  C   UNL d   1      -1.457   0.602   1.190  0.00  0.00     0.009 C 
ENDBRANCH   7   8
ENDBRANCH   1   7
TORSDOF 2
ENDMDL
