MODEL 1
REMARK minimizedAffinity 11.5021935
REMARK minimizedRMSD -1
REMARK  2 active torsions:
REMARK  status: ('A' for Active; 'I' for Inactive)
REMARK    1  A    between atoms: C1_2  and  C2_3 
REMARK    2  A    between atoms: C2_3  and  C3_4 
ROOT
ATOM      1  C3  UNL d   1      -2.829  -0.134   1.600  0.00  0.00    -0.075 A 
ATOM      2  C4  UNL d   1      -3.612   1.024   1.700  0.00  0.00     0.002 A 
ATOM      3  C5  UNL d   1      -3.012   2.273   1.863  0.00  0.00     0.002 A 
ATOM      4  C6  UNL d   1      -1.625   2.378   1.938  0.00  0.00    -0.004 A 
ATOM      5  C7  UNL d   1      -0.837   1.232   1.856  0.00  0.00     0.002 A 
ATOM      6  C8  UNL d   1      -1.435  -0.018   1.689  0.00  0.00     0.002 A 
ENDROOT
BRANCH   1   7
ATOM      7  C2  UNL d   1      -3.471  -1.486   1.394  0.00  0.00     0.056 C 
BRANCH   7   8
ATOM      8  C1  UNL d   1      -4.629  -1.479   0.391  0.00  0.00     0.007 C 
ATOM      9  C   UNL d   1      -5.999  -1.519   1.056  0.00  0.00     0.009 C 
ENDBRANCH   7   8
ENDBRANCH   1   7
TORSDOF 2
ENDMDL
