MODEL 1
REMARK minimizedAffinity 7.81243944
REMARK minimizedRMSD -1
REMARK  2 active torsions:
REMARK  status: ('A' for Active; 'I' for Inactive)
REMARK    1  A    between atoms: C1_2  and  C2_3 
REMARK    2  A    between atoms: C2_3  and  C3_4 
ROOT
ATOM      1  C3  UNL d   1      -2.848  -2.892  -5.635  0.00  0.00    -0.075 A 
ATOM      2  C4  UNL d   1      -3.183  -4.205  -5.996  0.00  0.00     0.002 A 
ATOM      3  C5  UNL d   1      -4.481  -4.681  -5.812  0.00  0.00     0.002 A 
ATOM      4  C6  UNL d   1      -5.457  -3.855  -5.257  0.00  0.00    -0.004 A 
ATOM      5  C7  UNL d   1      -5.131  -2.554  -4.880  0.00  0.00     0.002 A 
ATOM      6  C8  UNL d   1      -3.833  -2.074  -5.067  0.00  0.00     0.002 A 
ENDROOT
BRANCH   1   7
ATOM      7  C2  UNL d   1      -1.451  -2.361  -5.859  0.00  0.00     0.056 C 
BRANCH   7   8
ATOM      8  C1  UNL d   1      -0.626  -2.218  -4.576  0.00  0.00     0.007 C 
ATOM      9  C   UNL d   1       0.449  -1.143  -4.671  0.00  0.00     0.009 C 
ENDBRANCH   7   8
ENDBRANCH   1   7
TORSDOF 2
ENDMDL
