MODEL 1
REMARK minimizedAffinity 8.81560516
REMARK minimizedRMSD -1
REMARK  2 active torsions:
REMARK  status: ('A' for Active; 'I' for Inactive)
REMARK    1  A    between atoms: C1_2  and  C2_3 
REMARK    2  A    between atoms: C2_3  and  C3_4 
ROOT
ATOM      1  C3  UNL d   1      -2.139  -0.369   2.713  0.00  0.00    -0.075 A 
ATOM      2  C4  UNL d   1      -1.028  -0.256   1.866  0.00  0.00     0.002 A 
ATOM      3  C5  UNL d   1      -1.003   0.705   0.855  0.00  0.00     0.002 A 
ATOM      4  C6  UNL d   1      -2.090   1.556   0.672  0.00  0.00    -0.004 A 
ATOM      5  C7  UNL d   1      -3.207   1.442   1.498  0.00  0.00     0.002 A 
ATOM      6  C8  UNL d   1      -3.232   0.484   2.513  0.00  0.00     0.002 A 
ENDROOT
BRANCH   1   7
ATOM      7  C2  UNL d   1      -2.160  -1.388   3.828  0.00  0.00     0.056 C 
BRANCH   7   8
ATOM      8  C1  UNL d   1      -3.135  -1.052   4.961  0.00  0.00     0.007 C 
ATOM      9  C   UNL d   1      -3.252  -2.160   6.000  0.00  0.00     0.009 C 
ENDBRANCH   7   8
ENDBRANCH   1   7
TORSDOF 2
ENDMDL
