MODEL 1
REMARK minimizedAffinity 5.61132383
REMARK minimizedRMSD -1
REMARK  2 active torsions:
REMARK  status: ('A' for Active; 'I' for Inactive)
REMARK    1  A    between atoms: C1_2  and  C2_3 
REMARK    2  A    between atoms: C2_3  and  C3_4 
ROOT
ATOM      1  C3  UNL d   1       2.778   2.763  -3.175  0.00  0.00    -0.075 A 
ATOM      2  C4  UNL d   1       3.527   3.113  -4.307  0.00  0.00     0.002 A 
ATOM      3  C5  UNL d   1       3.561   4.434  -4.754  0.00  0.00     0.002 A 
ATOM      4  C6  UNL d   1       2.841   5.419  -4.082  0.00  0.00    -0.004 A 
ATOM      5  C7  UNL d   1       2.080   5.080  -2.966  0.00  0.00     0.002 A 
ATOM      6  C8  UNL d   1       2.047   3.760  -2.514  0.00  0.00     0.002 A 
ENDROOT
BRANCH   1   7
ATOM      7  C2  UNL d   1       2.760   1.341  -2.669  0.00  0.00     0.056 C 
BRANCH   7   8
ATOM      8  C1  UNL d   1       1.743   0.439  -3.377  0.00  0.00     0.007 C 
ATOM      9  C   UNL d   1       2.307  -0.244  -4.616  0.00  0.00     0.009 C 
ENDBRANCH   7   8
ENDBRANCH   1   7
TORSDOF 2
ENDMDL
