MODEL 1
REMARK minimizedAffinity 7.1770587
REMARK minimizedRMSD -1
REMARK  2 active torsions:
REMARK  status: ('A' for Active; 'I' for Inactive)
REMARK    1  A    between atoms: C1_2  and  C2_3 
REMARK    2  A    between atoms: C2_3  and  C3_4 
ROOT
ATOM      1  C3  UNL d   1       3.132   1.641  -5.270  0.00  0.00    -0.075 A 
ATOM      2  C4  UNL d   1       2.992   0.436  -5.974  0.00  0.00     0.002 A 
ATOM      3  C5  UNL d   1       2.711  -0.751  -5.297  0.00  0.00     0.002 A 
ATOM      4  C6  UNL d   1       2.577  -0.751  -3.911  0.00  0.00    -0.004 A 
ATOM      5  C7  UNL d   1       2.730   0.438  -3.200  0.00  0.00     0.002 A 
ATOM      6  C8  UNL d   1       3.007   1.628  -3.875  0.00  0.00     0.002 A 
ENDROOT
BRANCH   1   7
ATOM      7  C2  UNL d   1       3.407   2.935  -6.000  0.00  0.00     0.056 C 
BRANCH   7   8
ATOM      8  C1  UNL d   1       4.380   3.867  -5.271  0.00  0.00     0.007 C 
ATOM      9  C   UNL d   1       5.815   3.355  -5.271  0.00  0.00     0.009 C 
ENDBRANCH   7   8
ENDBRANCH   1   7
TORSDOF 2
ENDMDL
