MODEL 1
REMARK minimizedAffinity 9.1018095
REMARK minimizedRMSD -1
REMARK  2 active torsions:
REMARK  status: ('A' for Active; 'I' for Inactive)
REMARK    1  A    between atoms: C1_2  and  C2_3 
REMARK    2  A    between atoms: C2_3  and  C3_4 
ROOT
ATOM      1  C3  UNL d   1      -2.223  -0.867   0.900  0.00  0.00    -0.075 A 
ATOM      2  C4  UNL d   1      -1.189  -1.815   0.886  0.00  0.00     0.002 A 
ATOM      3  C5  UNL d   1      -1.403  -3.087   0.355  0.00  0.00     0.002 A 
ATOM      4  C6  UNL d   1      -2.652  -3.431  -0.159  0.00  0.00    -0.004 A 
ATOM      5  C7  UNL d   1      -3.690  -2.502  -0.135  0.00  0.00     0.002 A 
ATOM      6  C8  UNL d   1      -3.478  -1.227   0.392  0.00  0.00     0.002 A 
ENDROOT
BRANCH   1   7
ATOM      7  C2  UNL d   1      -1.990   0.522   1.446  0.00  0.00     0.056 C 
BRANCH   7   8
ATOM      8  C1  UNL d   1      -1.314   0.546   2.821  0.00  0.00     0.007 C 
ATOM      9  C   UNL d   1       0.079   1.159   2.795  0.00  0.00     0.009 C 
ENDBRANCH   7   8
ENDBRANCH   1   7
TORSDOF 2
ENDMDL
