MODEL 1
REMARK minimizedAffinity 15.0736694
REMARK minimizedRMSD -1
REMARK  2 active torsions:
REMARK  status: ('A' for Active; 'I' for Inactive)
REMARK    1  A    between atoms: C1_2  and  C2_3 
REMARK    2  A    between atoms: C2_3  and  C3_4 
ROOT
ATOM      1  C3  UNL d   1      -2.106  -0.849   1.516  0.00  0.00    -0.075 A 
ATOM      2  C4  UNL d   1      -3.274  -0.500   2.210  0.00  0.00     0.002 A 
ATOM      3  C5  UNL d   1      -3.431   0.784   2.732  0.00  0.00     0.002 A 
ATOM      4  C6  UNL d   1      -2.421   1.731   2.576  0.00  0.00    -0.004 A 
ATOM      5  C7  UNL d   1      -1.250   1.390   1.903  0.00  0.00     0.002 A 
ATOM      6  C8  UNL d   1      -1.091   0.107   1.376  0.00  0.00     0.002 A 
ENDROOT
BRANCH   1   7
ATOM      7  C2  UNL d   1      -1.942  -2.228   0.924  0.00  0.00     0.056 C 
BRANCH   7   8
ATOM      8  C1  UNL d   1      -3.205  -2.770   0.246  0.00  0.00     0.007 C 
ATOM      9  C   UNL d   1      -3.121  -4.255  -0.081  0.00  0.00     0.009 C 
ENDBRANCH   7   8
ENDBRANCH   1   7
TORSDOF 2
ENDMDL
