MODEL 1
REMARK minimizedAffinity 4.19484043
REMARK minimizedRMSD -1
REMARK  2 active torsions:
REMARK  status: ('A' for Active; 'I' for Inactive)
REMARK    1  A    between atoms: C1_2  and  C2_3 
REMARK    2  A    between atoms: C2_3  and  C3_4 
ROOT
ATOM      1  C3  UNL d   1       3.693   1.571  -5.480  0.00  0.00    -0.075 A 
ATOM      2  C4  UNL d   1       4.549   0.588  -6.000  0.00  0.00     0.002 A 
ATOM      3  C5  UNL d   1       4.445  -0.737  -5.577  0.00  0.00     0.002 A 
ATOM      4  C6  UNL d   1       3.493  -1.095  -4.624  0.00  0.00    -0.004 A 
ATOM      5  C7  UNL d   1       2.649  -0.124  -4.089  0.00  0.00     0.002 A 
ATOM      6  C8  UNL d   1       2.748   1.202  -4.514  0.00  0.00     0.002 A 
ENDROOT
BRANCH   1   7
ATOM      7  C2  UNL d   1       3.781   3.001  -5.955  0.00  0.00     0.056 C 
BRANCH   7   8
ATOM      8  C1  UNL d   1       4.479   3.944  -4.969  0.00  0.00     0.007 C 
ATOM      9  C   UNL d   1       3.521   4.903  -4.276  0.00  0.00     0.009 C 
ENDBRANCH   7   8
ENDBRANCH   1   7
TORSDOF 2
ENDMDL
