MODEL 1
REMARK minimizedAffinity 3.74109054
REMARK minimizedRMSD -1
REMARK  2 active torsions:
REMARK  status: ('A' for Active; 'I' for Inactive)
REMARK    1  A    between atoms: C1_2  and  C2_3 
REMARK    2  A    between atoms: C2_3  and  C3_4 
ROOT
ATOM      1  C3  UNL d   1      -1.991   0.859   2.117  0.00  0.00    -0.075 A 
ATOM      2  C4  UNL d   1      -2.724   2.051   2.212  0.00  0.00     0.002 A 
ATOM      3  C5  UNL d   1      -2.109   3.230   2.634  0.00  0.00     0.002 A 
ATOM      4  C6  UNL d   1      -0.758   3.230   2.976  0.00  0.00    -0.004 A 
ATOM      5  C7  UNL d   1      -0.024   2.048   2.902  0.00  0.00     0.002 A 
ATOM      6  C8  UNL d   1      -0.636   0.868   2.476  0.00  0.00     0.002 A 
ENDROOT
BRANCH   1   7
ATOM      7  C2  UNL d   1      -2.644  -0.413   1.633  0.00  0.00     0.056 C 
BRANCH   7   8
ATOM      8  C1  UNL d   1      -4.173  -0.344   1.566  0.00  0.00     0.007 C 
ATOM      9  C   UNL d   1      -4.805  -1.587   0.954  0.00  0.00     0.009 C 
ENDBRANCH   7   8
ENDBRANCH   1   7
TORSDOF 2
ENDMDL
