MODEL 1
REMARK minimizedAffinity 1.89588952
REMARK minimizedRMSD -1
REMARK  0 active torsions:
REMARK  status: ('A' for Active; 'I' for Inactive)
ROOT
ATOM      1  C   UNL d   1      -1.180  -1.739   3.241  0.00  0.00     0.020 A 
ATOM      2  C1  UNL d   1      -1.959  -0.752   2.641  0.00  0.00     0.020 A 
ATOM      3  C2  UNL d   1      -1.349   0.358   2.053  0.00  0.00     0.034 A 
ATOM      4  C3  UNL d   1       0.045   0.483   2.064  0.00  0.00     0.017 A 
ATOM      5  C4  UNL d   1       0.827  -0.509   2.667  0.00  0.00     0.017 A 
ATOM      6  C5  UNL d   1       0.210  -1.618   3.254  0.00  0.00     0.034 A 
ATOM      7 Cl   UNL d   1       2.552  -0.424   2.720  0.00  0.00    -0.070 Cl
ATOM      8 Cl1  UNL d   1       0.732   1.882   1.318  0.00  0.00    -0.070 Cl
ENDROOT
TORSDOF 0
ENDMDL
