MODEL 1
REMARK minimizedAffinity -3.32387447
REMARK minimizedRMSD -1
REMARK  0 active torsions:
REMARK  status: ('A' for Active; 'I' for Inactive)
ROOT
ATOM      1  C   UNL d   1      -0.242  -0.165   3.582  0.00  0.00     0.020 A 
ATOM      2  C1  UNL d   1      -1.582  -0.145   3.967  0.00  0.00     0.020 A 
ATOM      3  C2  UNL d   1      -2.584  -0.035   3.001  0.00  0.00     0.034 A 
ATOM      4  C3  UNL d   1      -2.249   0.054   1.646  0.00  0.00     0.017 A 
ATOM      5  C4  UNL d   1      -0.904   0.034   1.260  0.00  0.00     0.017 A 
ATOM      6  C5  UNL d   1       0.096  -0.076   2.231  0.00  0.00     0.034 A 
ATOM      7 Cl   UNL d   1      -0.412   0.140  -0.394  0.00  0.00    -0.070 Cl
ATOM      8 Cl1  UNL d   1      -3.541   0.187   0.506  0.00  0.00    -0.070 Cl
ENDROOT
TORSDOF 0
ENDMDL
