MODEL 1
REMARK minimizedAffinity 7.03970432
REMARK minimizedRMSD -1
REMARK  0 active torsions:
REMARK  status: ('A' for Active; 'I' for Inactive)
ROOT
ATOM      1  C   UNL d   1      -1.710  -1.563   3.361  0.00  0.00     0.020 A 
ATOM      2  C1  UNL d   1      -0.722  -0.932   4.115  0.00  0.00     0.020 A 
ATOM      3  C2  UNL d   1       0.094   0.037   3.526  0.00  0.00     0.034 A 
ATOM      4  C3  UNL d   1      -0.077   0.377   2.180  0.00  0.00     0.017 A 
ATOM      5  C4  UNL d   1      -1.069  -0.257   1.423  0.00  0.00     0.017 A 
ATOM      6  C5  UNL d   1      -1.884  -1.225   2.018  0.00  0.00     0.034 A 
ATOM      7 Cl   UNL d   1      -1.340   0.111  -0.244  0.00  0.00    -0.070 Cl
ATOM      8 Cl1  UNL d   1       0.968   1.584   1.517  0.00  0.00    -0.070 Cl
ENDROOT
TORSDOF 0
ENDMDL
