MODEL 1
REMARK minimizedAffinity -0.738732159
REMARK minimizedRMSD -1
REMARK  0 active torsions:
REMARK  status: ('A' for Active; 'I' for Inactive)
ROOT
ATOM      1  C   UNL d   1       1.253   0.546   1.707  0.00  0.00     0.020 A 
ATOM      2  C1  UNL d   1       0.658   0.818   0.476  0.00  0.00     0.020 A 
ATOM      3  C2  UNL d   1      -0.705   0.578   0.291  0.00  0.00     0.034 A 
ATOM      4  C3  UNL d   1      -1.478   0.065   1.340  0.00  0.00     0.017 A 
ATOM      5  C4  UNL d   1      -0.879  -0.208   2.575  0.00  0.00     0.017 A 
ATOM      6  C5  UNL d   1       0.486   0.035   2.755  0.00  0.00     0.034 A 
ATOM      7 Cl   UNL d   1      -1.768  -0.842   3.915  0.00  0.00    -0.070 Cl
ATOM      8 Cl1  UNL d   1      -3.158  -0.208   1.041  0.00  0.00    -0.070 Cl
ENDROOT
TORSDOF 0
ENDMDL
