MODEL 1
REMARK minimizedAffinity 9.02080631
REMARK minimizedRMSD -1
REMARK  0 active torsions:
REMARK  status: ('A' for Active; 'I' for Inactive)
ROOT
ATOM      1  C   UNL d   1       1.946   0.717   0.873  0.00  0.00     0.020 A 
ATOM      2  C1  UNL d   1       2.313  -0.046   1.981  0.00  0.00     0.020 A 
ATOM      3  C2  UNL d   1       1.333  -0.669   2.756  0.00  0.00     0.034 A 
ATOM      4  C3  UNL d   1      -0.020  -0.531   2.423  0.00  0.00     0.017 A 
ATOM      5  C4  UNL d   1      -0.388   0.234   1.311  0.00  0.00     0.017 A 
ATOM      6  C5  UNL d   1       0.598   0.856   0.539  0.00  0.00     0.034 A 
ATOM      7 Cl   UNL d   1      -2.036   0.451   0.839  0.00  0.00    -0.070 Cl
ATOM      8 Cl1  UNL d   1      -1.179  -1.330   3.426  0.00  0.00    -0.070 Cl
ENDROOT
TORSDOF 0
ENDMDL
