MODEL 1
REMARK minimizedAffinity 2.47843742
REMARK minimizedRMSD -1
REMARK  0 active torsions:
REMARK  status: ('A' for Active; 'I' for Inactive)
ROOT
ATOM      1  C   UNL d   1      -1.080  -0.710   3.882  0.00  0.00     0.020 A 
ATOM      2  C1  UNL d   1      -1.970  -1.293   2.980  0.00  0.00     0.020 A 
ATOM      3  C2  UNL d   1      -2.002  -0.862   1.653  0.00  0.00     0.034 A 
ATOM      4  C3  UNL d   1      -1.143   0.156   1.222  0.00  0.00     0.017 A 
ATOM      5  C4  UNL d   1      -0.250   0.741   2.127  0.00  0.00     0.017 A 
ATOM      6  C5  UNL d   1      -0.222   0.305   3.456  0.00  0.00     0.034 A 
ATOM      7 Cl   UNL d   1       0.840   2.001   1.670  0.00  0.00    -0.070 Cl
ATOM      8 Cl1  UNL d   1      -1.237   0.639  -0.434  0.00  0.00    -0.070 Cl
ENDROOT
TORSDOF 0
ENDMDL
