MODEL 1
REMARK minimizedAffinity 8.37528133
REMARK minimizedRMSD -1
REMARK  0 active torsions:
REMARK  status: ('A' for Active; 'I' for Inactive)
ROOT
ATOM      1  C   UNL d   1       1.076   1.374   2.299  0.00  0.00     0.020 A 
ATOM      2  C1  UNL d   1       0.888   0.447   3.324  0.00  0.00     0.020 A 
ATOM      3  C2  UNL d   1      -0.147  -0.487   3.240  0.00  0.00     0.034 A 
ATOM      4  C3  UNL d   1      -0.997  -0.497   2.128  0.00  0.00     0.017 A 
ATOM      5  C4  UNL d   1      -0.808   0.434   1.100  0.00  0.00     0.017 A 
ATOM      6  C5  UNL d   1       0.230   1.367   1.189  0.00  0.00     0.034 A 
ATOM      7 Cl   UNL d   1      -1.816   0.483  -0.303  0.00  0.00    -0.070 Cl
ATOM      8 Cl1  UNL d   1      -2.256  -1.680   2.090  0.00  0.00    -0.070 Cl
ENDROOT
TORSDOF 0
ENDMDL
