MODEL 1
REMARK minimizedAffinity 9.59062099
REMARK minimizedRMSD -1
REMARK  0 active torsions:
REMARK  status: ('A' for Active; 'I' for Inactive)
ROOT
ATOM      1  C   UNL d   1      -1.873  -0.035  -0.666  0.00  0.00     0.020 A 
ATOM      2  C1  UNL d   1      -3.227   0.182  -0.411  0.00  0.00     0.020 A 
ATOM      3  C2  UNL d   1      -3.652   0.488   0.884  0.00  0.00     0.034 A 
ATOM      4  C3  UNL d   1      -2.724   0.577   1.927  0.00  0.00     0.017 A 
ATOM      5  C4  UNL d   1      -1.366   0.359   1.669  0.00  0.00     0.017 A 
ATOM      6  C5  UNL d   1      -0.945   0.053   0.372  0.00  0.00     0.034 A 
ATOM      7 Cl   UNL d   1      -0.161   0.452   2.905  0.00  0.00    -0.070 Cl
ATOM      8 Cl1  UNL d   1      -3.320   0.960   3.503  0.00  0.00    -0.070 Cl
ENDROOT
TORSDOF 0
ENDMDL
