MODEL 1
REMARK minimizedAffinity 4.35646391
REMARK minimizedRMSD -1
REMARK  0 active torsions:
REMARK  status: ('A' for Active; 'I' for Inactive)
ROOT
ATOM      1  C   UNL d   1      -1.409   2.498   3.718  0.00  0.00     0.020 A 
ATOM      2  C1  UNL d   1      -0.595   1.997   4.734  0.00  0.00     0.020 A 
ATOM      3  C2  UNL d   1      -0.268   0.639   4.761  0.00  0.00     0.034 A 
ATOM      4  C3  UNL d   1      -0.754  -0.221   3.770  0.00  0.00     0.017 A 
ATOM      5  C4  UNL d   1      -1.570   0.282   2.751  0.00  0.00     0.017 A 
ATOM      6  C5  UNL d   1      -1.895   1.642   2.729  0.00  0.00     0.034 A 
ATOM      7 Cl   UNL d   1      -2.207  -0.718   1.494  0.00  0.00    -0.070 Cl
ATOM      8 Cl1  UNL d   1      -0.308  -1.888   3.865  0.00  0.00    -0.070 Cl
ENDROOT
TORSDOF 0
ENDMDL
