MODEL 1
REMARK minimizedAffinity 5.62740278
REMARK minimizedRMSD -1
REMARK  0 active torsions:
REMARK  status: ('A' for Active; 'I' for Inactive)
ROOT
ATOM      1  C   UNL d   1      -0.967  -1.744  -1.210  0.00  0.00     0.020 A 
ATOM      2  C1  UNL d   1      -2.095  -1.226  -1.844  0.00  0.00     0.020 A 
ATOM      3  C2  UNL d   1      -3.022  -0.475  -1.118  0.00  0.00     0.034 A 
ATOM      4  C3  UNL d   1      -2.822  -0.240   0.248  0.00  0.00     0.017 A 
ATOM      5  C4  UNL d   1      -1.689  -0.761   0.884  0.00  0.00     0.017 A 
ATOM      6  C5  UNL d   1      -0.765  -1.512   0.151  0.00  0.00     0.034 A 
ATOM      7 Cl   UNL d   1      -1.374  -0.514   2.565  0.00  0.00    -0.070 Cl
ATOM      8 Cl1  UNL d   1      -4.008   0.697   1.084  0.00  0.00    -0.070 Cl
ENDROOT
TORSDOF 0
ENDMDL
