MODEL 1
REMARK minimizedAffinity 16.245348
REMARK minimizedRMSD -1
REMARK  0 active torsions:
REMARK  status: ('A' for Active; 'I' for Inactive)
ROOT
ATOM      1  C   UNL d   1       4.026   3.004  -5.254  0.00  0.00     0.020 A 
ATOM      2  C1  UNL d   1       3.003   2.420  -5.999  0.00  0.00     0.020 A 
ATOM      3  C2  UNL d   1       1.708   2.936  -5.932  0.00  0.00     0.034 A 
ATOM      4  C3  UNL d   1       1.431   4.040  -5.118  0.00  0.00     0.017 A 
ATOM      5  C4  UNL d   1       2.459   4.626  -4.369  0.00  0.00     0.017 A 
ATOM      6  C5  UNL d   1       3.754   4.105  -4.440  0.00  0.00     0.034 A 
ATOM      7 Cl   UNL d   1       2.195   5.990  -3.342  0.00  0.00    -0.070 Cl
ATOM      8 Cl1  UNL d   1      -0.193   4.627  -5.083  0.00  0.00    -0.070 Cl
ENDROOT
TORSDOF 0
ENDMDL
