MODEL 1
REMARK minimizedAffinity 0.49903214
REMARK minimizedRMSD -1
REMARK  0 active torsions:
REMARK  status: ('A' for Active; 'I' for Inactive)
ROOT
ATOM      1  C   UNL d   1       3.310   5.001  -4.490  0.00  0.00     0.020 A 
ATOM      2  C1  UNL d   1       4.478   4.285  -4.750  0.00  0.00     0.020 A 
ATOM      3  C2  UNL d   1       4.873   3.258  -3.891  0.00  0.00     0.034 A 
ATOM      4  C3  UNL d   1       4.100   2.943  -2.768  0.00  0.00     0.017 A 
ATOM      5  C4  UNL d   1       2.928   3.662  -2.508  0.00  0.00     0.017 A 
ATOM      6  C5  UNL d   1       2.537   4.690  -3.371  0.00  0.00     0.034 A 
ATOM      7 Cl   UNL d   1       1.922   3.331  -1.142  0.00  0.00    -0.070 Cl
ATOM      8 Cl1  UNL d   1       4.648   1.660  -1.749  0.00  0.00    -0.070 Cl
ENDROOT
TORSDOF 0
ENDMDL
