MODEL 1
REMARK minimizedAffinity 9.01375771
REMARK minimizedRMSD -1
REMARK  0 active torsions:
REMARK  status: ('A' for Active; 'I' for Inactive)
ROOT
ATOM      1  C   UNL d   1      -1.208   0.845   2.767  0.00  0.00     0.020 A 
ATOM      2  C1  UNL d   1      -2.044  -0.270   2.772  0.00  0.00     0.020 A 
ATOM      3  C2  UNL d   1      -1.507  -1.545   2.960  0.00  0.00     0.034 A 
ATOM      4  C3  UNL d   1      -0.129  -1.708   3.144  0.00  0.00     0.017 A 
ATOM      5  C4  UNL d   1       0.710  -0.587   3.138  0.00  0.00     0.017 A 
ATOM      6  C5  UNL d   1       0.166   0.687   2.949  0.00  0.00     0.034 A 
ATOM      7 Cl   UNL d   1       2.420  -0.708   3.358  0.00  0.00    -0.070 Cl
ATOM      8 Cl1  UNL d   1       0.468  -3.313   3.371  0.00  0.00    -0.070 Cl
ENDROOT
TORSDOF 0
ENDMDL
