MODEL 1
REMARK minimizedAffinity 1.84652543
REMARK minimizedRMSD -1
REMARK  0 active torsions:
REMARK  status: ('A' for Active; 'I' for Inactive)
ROOT
ATOM      1  C   UNL d   1      -1.262  -1.081   4.336  0.00  0.00     0.020 A 
ATOM      2  C1  UNL d   1      -0.004  -1.069   3.735  0.00  0.00     0.020 A 
ATOM      3  C2  UNL d   1       0.120  -0.746   2.382  0.00  0.00     0.034 A 
ATOM      4  C3  UNL d   1      -1.015  -0.433   1.626  0.00  0.00     0.017 A 
ATOM      5  C4  UNL d   1      -2.278  -0.445   2.231  0.00  0.00     0.017 A 
ATOM      6  C5  UNL d   1      -2.396  -0.769   3.586  0.00  0.00     0.034 A 
ATOM      7 Cl   UNL d   1      -3.724  -0.069   1.363  0.00  0.00    -0.070 Cl
ATOM      8 Cl1  UNL d   1      -0.787  -0.043  -0.041  0.00  0.00    -0.070 Cl
ENDROOT
TORSDOF 0
ENDMDL
