MODEL 1
REMARK minimizedAffinity 3.16191173
REMARK minimizedRMSD -1
REMARK  0 active torsions:
REMARK  status: ('A' for Active; 'I' for Inactive)
ROOT
ATOM      1  C   UNL d   1      -0.804  -0.853   3.725  0.00  0.00     0.020 A 
ATOM      2  C1  UNL d   1      -1.862  -1.363   2.973  0.00  0.00     0.020 A 
ATOM      3  C2  UNL d   1      -2.013  -0.986   1.637  0.00  0.00     0.034 A 
ATOM      4  C3  UNL d   1      -1.106  -0.097   1.049  0.00  0.00     0.017 A 
ATOM      5  C4  UNL d   1      -0.045   0.414   1.805  0.00  0.00     0.017 A 
ATOM      6  C5  UNL d   1       0.102   0.033   3.142  0.00  0.00     0.034 A 
ATOM      7 Cl   UNL d   1       1.115   1.515   1.148  0.00  0.00    -0.070 Cl
ATOM      8 Cl1  UNL d   1      -1.354   0.325  -0.608  0.00  0.00    -0.070 Cl
ENDROOT
TORSDOF 0
ENDMDL
