MODEL 1
REMARK minimizedAffinity 8.49241447
REMARK minimizedRMSD -1
REMARK  0 active torsions:
REMARK  status: ('A' for Active; 'I' for Inactive)
ROOT
ATOM      1  C   UNL d   1      -0.004   0.115   3.394  0.00  0.00     0.020 A 
ATOM      2  C1  UNL d   1      -1.045  -0.617   3.963  0.00  0.00     0.020 A 
ATOM      3  C2  UNL d   1      -2.111  -1.045   3.170  0.00  0.00     0.034 A 
ATOM      4  C3  UNL d   1      -2.139  -0.742   1.804  0.00  0.00     0.017 A 
ATOM      5  C4  UNL d   1      -1.094  -0.007   1.234  0.00  0.00     0.017 A 
ATOM      6  C5  UNL d   1      -0.028   0.420   2.033  0.00  0.00     0.034 A 
ATOM      7 Cl   UNL d   1      -1.058   0.406  -0.444  0.00  0.00    -0.070 Cl
ATOM      8 Cl1  UNL d   1      -3.489  -1.304   0.884  0.00  0.00    -0.070 Cl
ENDROOT
TORSDOF 0
ENDMDL
